MODEL 1
REMARK VINA RESULT:      -4.6      0.000      0.000
REMARK  4 active torsions:
REMARK  status: ('A' for Active; 'I' for Inactive)
REMARK    1  A    between atoms: C5_5  and  C7_7 
REMARK    2  A    between atoms: C6_6  and  C8_8 
REMARK    3  A    between atoms: C7_7  and  C8_8 
REMARK    4  A    between atoms: C8_8  and  O10_10 
ROOT
HETATM    1  C1  UNL     1     -34.418  14.000  -3.661  1.00 20.00     0.067 C 
HETATM    2  C7  UNL     1     -34.056  15.384  -3.264  1.00 20.00     0.126 C 
HETATM    3  N9  UNL     1     -34.697  12.917  -3.969  1.00 20.00    -0.197 NA
ENDROOT
BRANCH   2   4
HETATM    4  C5  UNL     1     -35.149  15.971  -2.347  1.00 20.00     0.018 C 
HETATM    5  C2  UNL     1     -34.597  16.503  -1.026  1.00 20.00     0.006 C 
ENDBRANCH   2   4
BRANCH   2   6
HETATM    6  C8  UNL     1     -33.750  16.260  -4.527  1.00 20.00     0.070 C 
HETATM    7  C4  UNL     1     -33.656  17.758  -4.202  1.00 20.00     0.047 C 
BRANCH   6   8
HETATM    8  C6  UNL     1     -34.795  16.004  -5.646  1.00 20.00     0.034 C 
HETATM    9  C3  UNL     1     -34.212  15.503  -6.964  1.00 20.00     0.008 C 
ENDBRANCH   6   8
BRANCH   6  10
HETATM   10  O10 UNL     1     -32.468  15.863  -5.038  1.00 20.00    -0.389 OA
HETATM   11  H25 UNL     1     -32.053  16.670  -5.371  1.00 20.00     0.210 HD
ENDBRANCH   6  10
ENDBRANCH   2   6
TORSDOF 4
ENDMDL
MODEL 2
REMARK VINA RESULT:      -4.5      2.105      2.522
REMARK  4 active torsions:
REMARK  status: ('A' for Active; 'I' for Inactive)
REMARK    1  A    between atoms: C5_5  and  C7_7 
REMARK    2  A    between atoms: C6_6  and  C8_8 
REMARK    3  A    between atoms: C7_7  and  C8_8 
REMARK    4  A    between atoms: C8_8  and  O10_10 
ROOT
HETATM    1  C1  UNL     1     -36.800  14.566  -3.580  1.00 20.00     0.067 C 
HETATM    2  C7  UNL     1     -35.379  14.717  -3.177  1.00 20.00     0.126 C 
HETATM    3  N9  UNL     1     -37.911  14.445  -3.891  1.00 20.00    -0.197 NA
ENDROOT
BRANCH   2   4
HETATM    4  C5  UNL     1     -35.062  16.205  -2.919  1.00 20.00     0.018 C 
HETATM    5  C2  UNL     1     -34.550  16.468  -1.505  1.00 20.00     0.006 C 
ENDBRANCH   2   4
BRANCH   2   6
HETATM    6  C8  UNL     1     -34.431  14.040  -4.226  1.00 20.00     0.070 C 
HETATM    7  C4  UNL     1     -33.040  13.729  -3.655  1.00 20.00     0.047 C 
BRANCH   6   8
HETATM    8  C6  UNL     1     -34.320  14.902  -5.511  1.00 20.00     0.034 C 
HETATM    9  C3  UNL     1     -35.021  14.322  -6.736  1.00 20.00     0.008 C 
ENDBRANCH   6   8
BRANCH   6  10
HETATM   10  O10 UNL     1     -35.019  12.784  -4.602  1.00 20.00    -0.389 OA
HETATM   11  H25 UNL     1     -35.334  12.899  -5.508  1.00 20.00     0.210 HD
ENDBRANCH   6  10
ENDBRANCH   2   6
TORSDOF 4
ENDMDL
MODEL 3
REMARK VINA RESULT:      -4.5      2.566      3.869
REMARK  4 active torsions:
REMARK  status: ('A' for Active; 'I' for Inactive)
REMARK    1  A    between atoms: C5_5  and  C7_7 
REMARK    2  A    between atoms: C6_6  and  C8_8 
REMARK    3  A    between atoms: C7_7  and  C8_8 
REMARK    4  A    between atoms: C8_8  and  O10_10 
ROOT
HETATM    1  C1  UNL     1     -37.009  14.756  -3.773  1.00 20.00     0.067 C 
HETATM    2  C7  UNL     1     -35.628  15.300  -3.822  1.00 20.00     0.126 C 
HETATM    3  N9  UNL     1     -38.089  14.333  -3.739  1.00 20.00    -0.197 NA
ENDROOT
BRANCH   2   4
HETATM    4  C5  UNL     1     -34.610  14.169  -3.569  1.00 20.00     0.018 C 
HETATM    5  C2  UNL     1     -34.456  13.228  -4.761  1.00 20.00     0.006 C 
ENDBRANCH   2   4
BRANCH   2   6
HETATM    6  C8  UNL     1     -35.479  16.518  -2.848  1.00 20.00     0.070 C 
HETATM    7  C4  UNL     1     -35.099  17.816  -3.575  1.00 20.00     0.047 C 
BRANCH   6   8
HETATM    8  C6  UNL     1     -34.464  16.203  -1.717  1.00 20.00     0.034 C 
HETATM    9  C3  UNL     1     -34.721  16.934  -0.402  1.00 20.00     0.008 C 
ENDBRANCH   6   8
BRANCH   6  10
HETATM   10  O10 UNL     1     -36.755  16.745  -2.228  1.00 20.00    -0.389 OA
HETATM   11  H25 UNL     1     -36.622  17.473  -1.606  1.00 20.00     0.210 HD
ENDBRANCH   6  10
ENDBRANCH   2   6
TORSDOF 4
ENDMDL
MODEL 4
REMARK VINA RESULT:      -4.4      1.629      1.797
REMARK  4 active torsions:
REMARK  status: ('A' for Active; 'I' for Inactive)
REMARK    1  A    between atoms: C5_5  and  C7_7 
REMARK    2  A    between atoms: C6_6  and  C8_8 
REMARK    3  A    between atoms: C7_7  and  C8_8 
REMARK    4  A    between atoms: C8_8  and  O10_10 
ROOT
HETATM    1  C1  UNL     1     -35.863  15.597  -3.166  1.00 20.00     0.067 C 
HETATM    2  C7  UNL     1     -34.421  15.413  -2.862  1.00 20.00     0.126 C 
HETATM    3  N9  UNL     1     -36.990  15.736  -3.402  1.00 20.00    -0.197 NA
ENDROOT
BRANCH   2   4
HETATM    4  C5  UNL     1     -33.913  16.589  -2.002  1.00 20.00     0.018 C 
HETATM    5  C2  UNL     1     -34.655  16.721  -0.674  1.00 20.00     0.006 C 
ENDBRANCH   2   4
BRANCH   2   6
HETATM    6  C8  UNL     1     -33.602  15.189  -4.179  1.00 20.00     0.070 C 
HETATM    7  C4  UNL     1     -33.296  16.499  -4.918  1.00 20.00     0.047 C 
BRANCH   6   8
HETATM    8  C6  UNL     1     -34.322  14.183  -5.116  1.00 20.00     0.034 C 
HETATM    9  C3  UNL     1     -34.556  14.686  -6.538  1.00 20.00     0.008 C 
ENDBRANCH   6   8
BRANCH   6  10
HETATM   10  O10 UNL     1     -32.339  14.608  -3.817  1.00 20.00    -0.389 OA
HETATM   11  H25 UNL     1     -32.435  14.311  -2.903  1.00 20.00     0.210 HD
ENDBRANCH   6  10
ENDBRANCH   2   6
TORSDOF 4
ENDMDL
MODEL 5
REMARK VINA RESULT:      -4.4      1.000      3.173
REMARK  4 active torsions:
REMARK  status: ('A' for Active; 'I' for Inactive)
REMARK    1  A    between atoms: C5_5  and  C7_7 
REMARK    2  A    between atoms: C6_6  and  C8_8 
REMARK    3  A    between atoms: C7_7  and  C8_8 
REMARK    4  A    between atoms: C8_8  and  O10_10 
ROOT
HETATM    1  C1  UNL     1     -34.667  13.851  -4.883  1.00 20.00     0.067 C 
HETATM    2  C7  UNL     1     -34.564  15.261  -5.337  1.00 20.00     0.126 C 
HETATM    3  N9  UNL     1     -34.752  12.750  -4.528  1.00 20.00    -0.197 NA
ENDROOT
BRANCH   2   4
HETATM    4  C5  UNL     1     -34.168  15.306  -6.827  1.00 20.00     0.018 C 
HETATM    5  C2  UNL     1     -35.226  14.696  -7.744  1.00 20.00     0.006 C 
ENDBRANCH   2   4
BRANCH   2   6
HETATM    6  C8  UNL     1     -33.606  16.074  -4.401  1.00 20.00     0.070 C 
HETATM    7  C4  UNL     1     -33.942  15.902  -2.913  1.00 20.00     0.047 C 
BRANCH   6   8
HETATM    8  C6  UNL     1     -33.591  17.576  -4.793  1.00 20.00     0.034 C 
HETATM    9  C3  UNL     1     -34.930  18.291  -4.644  1.00 20.00     0.008 C 
ENDBRANCH   6   8
BRANCH   6  10
HETATM   10  O10 UNL     1     -32.274  15.569  -4.589  1.00 20.00    -0.389 OA
HETATM   11  H25 UNL     1     -31.983  15.258  -3.722  1.00 20.00     0.210 HD
ENDBRANCH   6  10
ENDBRANCH   2   6
TORSDOF 4
ENDMDL
MODEL 6
REMARK VINA RESULT:      -4.3      2.162      3.021
REMARK  4 active torsions:
REMARK  status: ('A' for Active; 'I' for Inactive)
REMARK    1  A    between atoms: C5_5  and  C7_7 
REMARK    2  A    between atoms: C6_6  and  C8_8 
REMARK    3  A    between atoms: C7_7  and  C8_8 
REMARK    4  A    between atoms: C8_8  and  O10_10 
ROOT
HETATM    1  C1  UNL     1     -33.771  18.055  -4.075  1.00 20.00     0.067 C 
HETATM    2  C7  UNL     1     -34.195  16.727  -3.565  1.00 20.00     0.126 C 
HETATM    3  N9  UNL     1     -33.444  19.094  -4.475  1.00 20.00    -0.197 NA
ENDROOT
BRANCH   2   4
HETATM    4  C5  UNL     1     -33.690  16.534  -2.120  1.00 20.00     0.018 C 
HETATM    5  C2  UNL     1     -34.815  16.550  -1.088  1.00 20.00     0.006 C 
ENDBRANCH   2   4
BRANCH   2   6
HETATM    6  C8  UNL     1     -33.754  15.590  -4.548  1.00 20.00     0.070 C 
HETATM    7  C4  UNL     1     -34.617  15.534  -5.817  1.00 20.00     0.047 C 
BRANCH   6   8
HETATM    8  C6  UNL     1     -33.737  14.213  -3.832  1.00 20.00     0.034 C 
HETATM    9  C3  UNL     1     -34.928  13.312  -4.146  1.00 20.00     0.008 C 
ENDBRANCH   6   8
BRANCH   6  10
HETATM   10  O10 UNL     1     -32.410  15.870  -4.970  1.00 20.00    -0.389 OA
HETATM   11  H25 UNL     1     -32.421  16.776  -5.306  1.00 20.00     0.210 HD
ENDBRANCH   6  10
ENDBRANCH   2   6
TORSDOF 4
ENDMDL
MODEL 7
REMARK VINA RESULT:      -4.3      1.938      3.729
REMARK  4 active torsions:
REMARK  status: ('A' for Active; 'I' for Inactive)
REMARK    1  A    between atoms: C5_5  and  C7_7 
REMARK    2  A    between atoms: C6_6  and  C8_8 
REMARK    3  A    between atoms: C7_7  and  C8_8 
REMARK    4  A    between atoms: C8_8  and  O10_10 
ROOT
HETATM    1  C1  UNL     1     -35.136  13.695  -4.681  1.00 20.00     0.067 C 
HETATM    2  C7  UNL     1     -35.531  15.115  -4.859  1.00 20.00     0.126 C 
HETATM    3  N9  UNL     1     -34.832  12.584  -4.545  1.00 20.00    -0.197 NA
ENDROOT
BRANCH   2   4
HETATM    4  C5  UNL     1     -34.475  15.851  -5.710  1.00 20.00     0.018 C 
HETATM    5  C2  UNL     1     -34.348  15.285  -7.122  1.00 20.00     0.006 C 
ENDBRANCH   2   4
BRANCH   2   6
HETATM    6  C8  UNL     1     -35.810  15.789  -3.472  1.00 20.00     0.070 C 
HETATM    7  C4  UNL     1     -36.203  17.268  -3.599  1.00 20.00     0.047 C 
BRANCH   6   8
HETATM    8  C6  UNL     1     -34.597  15.621  -2.519  1.00 20.00     0.034 C 
HETATM    9  C3  UNL     1     -34.671  16.443  -1.236  1.00 20.00     0.008 C 
ENDBRANCH   6   8
BRANCH   6  10
HETATM   10  O10 UNL     1     -36.926  15.112  -2.871  1.00 20.00    -0.389 OA
HETATM   11  H25 UNL     1     -37.715  15.584  -3.169  1.00 20.00     0.210 HD
ENDBRANCH   6  10
ENDBRANCH   2   6
TORSDOF 4
ENDMDL
MODEL 8
REMARK VINA RESULT:      -4.3      1.473      3.582
REMARK  4 active torsions:
REMARK  status: ('A' for Active; 'I' for Inactive)
REMARK    1  A    between atoms: C5_5  and  C7_7 
REMARK    2  A    between atoms: C6_6  and  C8_8 
REMARK    3  A    between atoms: C7_7  and  C8_8 
REMARK    4  A    between atoms: C8_8  and  O10_10 
ROOT
HETATM    1  C1  UNL     1     -36.221  14.629  -4.298  1.00 20.00     0.067 C 
HETATM    2  C7  UNL     1     -34.988  15.109  -4.972  1.00 20.00     0.126 C 
HETATM    3  N9  UNL     1     -37.186  14.258  -3.772  1.00 20.00    -0.197 NA
ENDROOT
BRANCH   2   4
HETATM    4  C5  UNL     1     -34.751  14.306  -6.268  1.00 20.00     0.018 C 
HETATM    5  C2  UNL     1     -34.670  15.189  -7.510  1.00 20.00     0.006 C 
ENDBRANCH   2   4
BRANCH   2   6
HETATM    6  C8  UNL     1     -33.773  15.090  -3.982  1.00 20.00     0.070 C 
HETATM    7  C4  UNL     1     -33.259  13.671  -3.701  1.00 20.00     0.047 C 
BRANCH   6   8
HETATM    8  C6  UNL     1     -34.124  15.822  -2.660  1.00 20.00     0.034 C 
HETATM    9  C3  UNL     1     -33.861  17.325  -2.669  1.00 20.00     0.008 C 
ENDBRANCH   6   8
BRANCH   6  10
HETATM   10  O10 UNL     1     -32.694  15.811  -4.598  1.00 20.00    -0.389 OA
HETATM   11  H25 UNL     1     -33.104  16.537  -5.087  1.00 20.00     0.210 HD
ENDBRANCH   6  10
ENDBRANCH   2   6
TORSDOF 4
ENDMDL
MODEL 9
REMARK VINA RESULT:      -4.2      2.058      4.058
REMARK  4 active torsions:
REMARK  status: ('A' for Active; 'I' for Inactive)
REMARK    1  A    between atoms: C5_5  and  C7_7 
REMARK    2  A    between atoms: C6_6  and  C8_8 
REMARK    3  A    between atoms: C7_7  and  C8_8 
REMARK    4  A    between atoms: C8_8  and  O10_10 
ROOT
HETATM    1  C1  UNL     1     -33.479  17.244  -5.226  1.00 20.00     0.067 C 
HETATM    2  C7  UNL     1     -33.547  15.762  -5.272  1.00 20.00     0.126 C 
HETATM    3  N9  UNL     1     -33.422  18.402  -5.194  1.00 20.00    -0.197 NA
ENDROOT
BRANCH   2   4
HETATM    4  C5  UNL     1     -34.865  15.318  -5.941  1.00 20.00     0.018 C 
HETATM    5  C2  UNL     1     -34.684  14.914  -7.403  1.00 20.00     0.006 C 
ENDBRANCH   2   4
BRANCH   2   6
HETATM    6  C8  UNL     1     -33.324  15.153  -3.846  1.00 20.00     0.070 C 
HETATM    7  C4  UNL     1     -34.171  13.897  -3.596  1.00 20.00     0.047 C 
BRANCH   6   8
HETATM    8  C6  UNL     1     -33.577  16.216  -2.743  1.00 20.00     0.034 C 
HETATM    9  C3  UNL     1     -34.849  16.005  -1.928  1.00 20.00     0.008 C 
ENDBRANCH   6   8
BRANCH   6  10
HETATM   10  O10 UNL     1     -31.947  14.754  -3.748  1.00 20.00    -0.389 OA
HETATM   11  H25 UNL     1     -31.953  13.884  -3.329  1.00 20.00     0.210 HD
ENDBRANCH   6  10
ENDBRANCH   2   6
TORSDOF 4
ENDMDL
