MODEL 1
REMARK VINA RESULT:      -4.2      0.000      0.000
REMARK  4 active torsions:
REMARK  status: ('A' for Active; 'I' for Inactive)
REMARK    1  A    between atoms: C5_5  and  C7_7 
REMARK    2  A    between atoms: C6_6  and  C8_8 
REMARK    3  A    between atoms: C7_7  and  C8_8 
REMARK    4  A    between atoms: C8_8  and  O10_10 
ROOT
HETATM    1  C1  UNL     1     -33.509  15.874  -4.329  1.00 20.00     0.067 C 
HETATM    2  C7  UNL     1     -34.277  14.923  -3.485  1.00 20.00     0.126 C 
HETATM    3  N9  UNL     1     -32.906  16.616  -4.986  1.00 20.00    -0.197 NA
ENDROOT
BRANCH   2   4
HETATM    4  C5  UNL     1     -34.976  15.685  -2.340  1.00 20.00     0.018 C 
HETATM    5  C2  UNL     1     -34.047  16.657  -1.615  1.00 20.00     0.006 C 
ENDBRANCH   2   4
BRANCH   2   6
HETATM    6  C8  UNL     1     -35.252  14.066  -4.362  1.00 20.00     0.070 C 
HETATM    7  C4  UNL     1     -36.727  14.429  -4.136  1.00 20.00     0.047 C 
BRANCH   6   8
HETATM    8  C6  UNL     1     -34.884  14.173  -5.866  1.00 20.00     0.034 C 
HETATM    9  C3  UNL     1     -35.985  14.740  -6.758  1.00 20.00     0.008 C 
ENDBRANCH   6   8
BRANCH   6  10
HETATM   10  O10 UNL     1     -35.095  12.691  -3.979  1.00 20.00    -0.389 OA
HETATM   11  H25 UNL     1     -35.983  12.373  -3.766  1.00 20.00     0.210 HD
ENDBRANCH   6  10
ENDBRANCH   2   6
TORSDOF 4
ENDMDL
MODEL 2
REMARK VINA RESULT:      -4.2      2.032      2.614
REMARK  4 active torsions:
REMARK  status: ('A' for Active; 'I' for Inactive)
REMARK    1  A    between atoms: C5_5  and  C7_7 
REMARK    2  A    between atoms: C6_6  and  C8_8 
REMARK    3  A    between atoms: C7_7  and  C8_8 
REMARK    4  A    between atoms: C8_8  and  O10_10 
ROOT
HETATM    1  C1  UNL     1     -33.740  17.781  -3.368  1.00 20.00     0.067 C 
HETATM    2  C7  UNL     1     -33.588  16.420  -2.792  1.00 20.00     0.126 C 
HETATM    3  N9  UNL     1     -33.855  18.845  -3.816  1.00 20.00    -0.197 NA
ENDROOT
BRANCH   2   4
HETATM    4  C5  UNL     1     -34.772  16.115  -1.850  1.00 20.00     0.018 C 
HETATM    5  C2  UNL     1     -34.666  16.833  -0.507  1.00 20.00     0.006 C 
ENDBRANCH   2   4
BRANCH   2   6
HETATM    6  C8  UNL     1     -33.391  15.356  -3.925  1.00 20.00     0.070 C 
HETATM    7  C4  UNL     1     -32.590  14.133  -3.458  1.00 20.00     0.047 C 
BRANCH   6   8
HETATM    8  C6  UNL     1     -34.757  14.923  -4.521  1.00 20.00     0.034 C 
HETATM    9  C3  UNL     1     -35.049  13.428  -4.438  1.00 20.00     0.008 C 
ENDBRANCH   6   8
BRANCH   6  10
HETATM   10  O10 UNL     1     -32.638  15.973  -4.982  1.00 20.00    -0.389 OA
HETATM   11  H25 UNL     1     -32.281  16.790  -4.609  1.00 20.00     0.210 HD
ENDBRANCH   6  10
ENDBRANCH   2   6
TORSDOF 4
ENDMDL
MODEL 3
REMARK VINA RESULT:      -4.2      2.237      2.643
REMARK  4 active torsions:
REMARK  status: ('A' for Active; 'I' for Inactive)
REMARK    1  A    between atoms: C5_5  and  C7_7 
REMARK    2  A    between atoms: C6_6  and  C8_8 
REMARK    3  A    between atoms: C7_7  and  C8_8 
REMARK    4  A    between atoms: C8_8  and  O10_10 
ROOT
HETATM    1  C1  UNL     1     -36.439  14.867  -3.710  1.00 20.00     0.067 C 
HETATM    2  C7  UNL     1     -35.116  15.540  -3.658  1.00 20.00     0.126 C 
HETATM    3  N9  UNL     1     -37.473  14.344  -3.752  1.00 20.00    -0.197 NA
ENDROOT
BRANCH   2   4
HETATM    4  C5  UNL     1     -34.679  15.725  -2.189  1.00 20.00     0.018 C 
HETATM    5  C2  UNL     1     -34.007  17.072  -1.931  1.00 20.00     0.006 C 
ENDBRANCH   2   4
BRANCH   2   6
HETATM    6  C8  UNL     1     -34.068  14.775  -4.536  1.00 20.00     0.070 C 
HETATM    7  C4  UNL     1     -33.390  13.622  -3.783  1.00 20.00     0.047 C 
BRANCH   6   8
HETATM    8  C6  UNL     1     -34.714  14.267  -5.852  1.00 20.00     0.034 C 
HETATM    9  C3  UNL     1     -34.394  15.101  -7.089  1.00 20.00     0.008 C 
ENDBRANCH   6   8
BRANCH   6  10
HETATM   10  O10 UNL     1     -33.034  15.705  -4.898  1.00 20.00    -0.389 OA
HETATM   11  H25 UNL     1     -32.263  15.462  -4.368  1.00 20.00     0.210 HD
ENDBRANCH   6  10
ENDBRANCH   2   6
TORSDOF 4
ENDMDL
MODEL 4
REMARK VINA RESULT:      -4.2      2.272      3.003
REMARK  4 active torsions:
REMARK  status: ('A' for Active; 'I' for Inactive)
REMARK    1  A    between atoms: C5_5  and  C7_7 
REMARK    2  A    between atoms: C6_6  and  C8_8 
REMARK    3  A    between atoms: C7_7  and  C8_8 
REMARK    4  A    between atoms: C8_8  and  O10_10 
ROOT
HETATM    1  C1  UNL     1     -34.939  13.811  -4.324  1.00 20.00     0.067 C 
HETATM    2  C7  UNL     1     -34.872  15.277  -4.101  1.00 20.00     0.126 C 
HETATM    3  N9  UNL     1     -34.995  12.665  -4.497  1.00 20.00    -0.197 NA
ENDROOT
BRANCH   2   4
HETATM    4  C5  UNL     1     -33.959  15.582  -2.894  1.00 20.00     0.018 C 
HETATM    5  C2  UNL     1     -34.702  16.250  -1.738  1.00 20.00     0.006 C 
ENDBRANCH   2   4
BRANCH   2   6
HETATM    6  C8  UNL     1     -34.453  16.021  -5.414  1.00 20.00     0.070 C 
HETATM    7  C4  UNL     1     -35.631  16.724  -6.101  1.00 20.00     0.047 C 
BRANCH   6   8
HETATM    8  C6  UNL     1     -33.300  17.022  -5.140  1.00 20.00     0.034 C 
HETATM    9  C3  UNL     1     -33.654  18.489  -5.367  1.00 20.00     0.008 C 
ENDBRANCH   6   8
BRANCH   6  10
HETATM   10  O10 UNL     1     -33.956  15.038  -6.337  1.00 20.00    -0.389 OA
HETATM   11  H25 UNL     1     -33.702  14.276  -5.799  1.00 20.00     0.210 HD
ENDBRANCH   6  10
ENDBRANCH   2   6
TORSDOF 4
ENDMDL
MODEL 5
REMARK VINA RESULT:      -4.2      2.152      4.047
REMARK  4 active torsions:
REMARK  status: ('A' for Active; 'I' for Inactive)
REMARK    1  A    between atoms: C5_5  and  C7_7 
REMARK    2  A    between atoms: C6_6  and  C8_8 
REMARK    3  A    between atoms: C7_7  and  C8_8 
REMARK    4  A    between atoms: C8_8  and  O10_10 
ROOT
HETATM    1  C1  UNL     1     -34.633  13.706  -4.963  1.00 20.00     0.067 C 
HETATM    2  C7  UNL     1     -34.368  15.093  -5.422  1.00 20.00     0.126 C 
HETATM    3  N9  UNL     1     -34.839  12.621  -4.607  1.00 20.00    -0.197 NA
ENDROOT
BRANCH   2   4
HETATM    4  C5  UNL     1     -35.694  15.776  -5.819  1.00 20.00     0.018 C 
HETATM    5  C2  UNL     1     -36.291  15.216  -7.108  1.00 20.00     0.006 C 
ENDBRANCH   2   4
BRANCH   2   6
HETATM    6  C8  UNL     1     -33.546  15.886  -4.350  1.00 20.00     0.070 C 
HETATM    7  C4  UNL     1     -33.552  17.401  -4.597  1.00 20.00     0.047 C 
BRANCH   6   8
HETATM    8  C6  UNL     1     -34.045  15.561  -2.917  1.00 20.00     0.034 C 
HETATM    9  C3  UNL     1     -34.047  16.744  -1.954  1.00 20.00     0.008 C 
ENDBRANCH   6   8
BRANCH   6  10
HETATM   10  O10 UNL     1     -32.178  15.453  -4.436  1.00 20.00    -0.389 OA
HETATM   11  H25 UNL     1     -32.097  15.003  -5.287  1.00 20.00     0.210 HD
ENDBRANCH   6  10
ENDBRANCH   2   6
TORSDOF 4
ENDMDL
MODEL 6
REMARK VINA RESULT:      -4.1      2.148      3.036
REMARK  4 active torsions:
REMARK  status: ('A' for Active; 'I' for Inactive)
REMARK    1  A    between atoms: C5_5  and  C7_7 
REMARK    2  A    between atoms: C6_6  and  C8_8 
REMARK    3  A    between atoms: C7_7  and  C8_8 
REMARK    4  A    between atoms: C8_8  and  O10_10 
ROOT
HETATM    1  C1  UNL     1     -37.193  14.677  -3.783  1.00 20.00     0.067 C 
HETATM    2  C7  UNL     1     -35.775  15.118  -3.789  1.00 20.00     0.126 C 
HETATM    3  N9  UNL     1     -38.302  14.334  -3.780  1.00 20.00    -0.197 NA
ENDROOT
BRANCH   2   4
HETATM    4  C5  UNL     1     -35.385  15.648  -2.393  1.00 20.00     0.018 C 
HETATM    5  C2  UNL     1     -35.093  17.147  -2.385  1.00 20.00     0.006 C 
ENDBRANCH   2   4
BRANCH   2   6
HETATM    6  C8  UNL     1     -34.840  13.976  -4.315  1.00 20.00     0.070 C 
HETATM    7  C4  UNL     1     -34.516  14.115  -5.808  1.00 20.00     0.047 C 
BRANCH   6   8
HETATM    8  C6  UNL     1     -33.538  13.896  -3.475  1.00 20.00     0.034 C 
HETATM    9  C3  UNL     1     -32.461  14.906  -3.860  1.00 20.00     0.008 C 
ENDBRANCH   6   8
BRANCH   6  10
HETATM   10  O10 UNL     1     -35.534  12.729  -4.151  1.00 20.00    -0.389 OA
HETATM   11  H25 UNL     1     -36.476  12.947  -4.163  1.00 20.00     0.210 HD
ENDBRANCH   6  10
ENDBRANCH   2   6
TORSDOF 4
ENDMDL
MODEL 7
REMARK VINA RESULT:      -4.1      2.092      3.769
REMARK  4 active torsions:
REMARK  status: ('A' for Active; 'I' for Inactive)
REMARK    1  A    between atoms: C5_5  and  C7_7 
REMARK    2  A    between atoms: C6_6  and  C8_8 
REMARK    3  A    between atoms: C7_7  and  C8_8 
REMARK    4  A    between atoms: C8_8  and  O10_10 
ROOT
HETATM    1  C1  UNL     1     -34.895  13.724  -4.563  1.00 20.00     0.067 C 
HETATM    2  C7  UNL     1     -35.167  15.159  -4.298  1.00 20.00     0.126 C 
HETATM    3  N9  UNL     1     -34.683  12.603  -4.773  1.00 20.00    -0.197 NA
ENDROOT
BRANCH   2   4
HETATM    4  C5  UNL     1     -36.376  15.297  -3.350  1.00 20.00     0.018 C 
HETATM    5  C2  UNL     1     -37.673  14.764  -3.956  1.00 20.00     0.006 C 
ENDBRANCH   2   4
BRANCH   2   6
HETATM    6  C8  UNL     1     -33.876  15.884  -3.784  1.00 20.00     0.070 C 
HETATM    7  C4  UNL     1     -33.581  17.183  -4.546  1.00 20.00     0.047 C 
BRANCH   6   8
HETATM    8  C6  UNL     1     -33.960  16.149  -2.258  1.00 20.00     0.034 C 
HETATM    9  C3  UNL     1     -33.708  17.595  -1.841  1.00 20.00     0.008 C 
ENDBRANCH   6   8
BRANCH   6  10
HETATM   10  O10 UNL     1     -32.761  15.006  -4.006  1.00 20.00    -0.389 OA
HETATM   11  H25 UNL     1     -32.715  14.435  -3.227  1.00 20.00     0.210 HD
ENDBRANCH   6  10
ENDBRANCH   2   6
TORSDOF 4
ENDMDL
MODEL 8
REMARK VINA RESULT:      -4.0      2.252      2.624
REMARK  4 active torsions:
REMARK  status: ('A' for Active; 'I' for Inactive)
REMARK    1  A    between atoms: C5_5  and  C7_7 
REMARK    2  A    between atoms: C6_6  and  C8_8 
REMARK    3  A    between atoms: C7_7  and  C8_8 
REMARK    4  A    between atoms: C8_8  and  O10_10 
ROOT
HETATM    1  C1  UNL     1     -33.904  14.134  -3.606  1.00 20.00     0.067 C 
HETATM    2  C7  UNL     1     -34.576  15.448  -3.441  1.00 20.00     0.126 C 
HETATM    3  N9  UNL     1     -33.382  13.105  -3.733  1.00 20.00    -0.197 NA
ENDROOT
BRANCH   2   4
HETATM    4  C5  UNL     1     -33.836  16.285  -2.376  1.00 20.00     0.018 C 
HETATM    5  C2  UNL     1     -34.662  16.504  -1.110  1.00 20.00     0.006 C 
ENDBRANCH   2   4
BRANCH   2   6
HETATM    6  C8  UNL     1     -34.724  16.173  -4.822  1.00 20.00     0.070 C 
HETATM    7  C4  UNL     1     -33.410  16.797  -5.310  1.00 20.00     0.047 C 
BRANCH   6   8
HETATM    8  C6  UNL     1     -35.306  15.212  -5.892  1.00 20.00     0.034 C 
HETATM    9  C3  UNL     1     -34.447  15.046  -7.142  1.00 20.00     0.008 C 
ENDBRANCH   6   8
BRANCH   6  10
HETATM   10  O10 UNL     1     -35.663  17.248  -4.656  1.00 20.00    -0.389 OA
HETATM   11  H25 UNL     1     -35.689  17.431  -3.707  1.00 20.00     0.210 HD
ENDBRANCH   6  10
ENDBRANCH   2   6
TORSDOF 4
ENDMDL
MODEL 9
REMARK VINA RESULT:      -4.0      1.992      3.758
REMARK  4 active torsions:
REMARK  status: ('A' for Active; 'I' for Inactive)
REMARK    1  A    between atoms: C5_5  and  C7_7 
REMARK    2  A    between atoms: C6_6  and  C8_8 
REMARK    3  A    between atoms: C7_7  and  C8_8 
REMARK    4  A    between atoms: C8_8  and  O10_10 
ROOT
HETATM    1  C1  UNL     1     -34.614  15.272  -6.229  1.00 20.00     0.067 C 
HETATM    2  C7  UNL     1     -34.949  15.747  -4.862  1.00 20.00     0.126 C 
HETATM    3  N9  UNL     1     -34.355  14.904  -7.298  1.00 20.00    -0.197 NA
ENDROOT
BRANCH   2   4
HETATM    4  C5  UNL     1     -35.568  14.594  -4.044  1.00 20.00     0.018 C 
HETATM    5  C2  UNL     1     -34.992  13.227  -4.410  1.00 20.00     0.006 C 
ENDBRANCH   2   4
BRANCH   2   6
HETATM    6  C8  UNL     1     -33.701  16.405  -4.181  1.00 20.00     0.070 C 
HETATM    7  C4  UNL     1     -33.679  17.932  -4.330  1.00 20.00     0.047 C 
BRANCH   6   8
HETATM    8  C6  UNL     1     -33.606  15.997  -2.687  1.00 20.00     0.034 C 
HETATM    9  C3  UNL     1     -33.925  17.113  -1.695  1.00 20.00     0.008 C 
ENDBRANCH   6   8
BRANCH   6  10
HETATM   10  O10 UNL     1     -32.525  15.902  -4.837  1.00 20.00    -0.389 OA
HETATM   11  H25 UNL     1     -31.776  16.220  -4.316  1.00 20.00     0.210 HD
ENDBRANCH   6  10
ENDBRANCH   2   6
TORSDOF 4
ENDMDL
