MODEL 1
REMARK VINA RESULT:      -4.6      0.000      0.000
REMARK  4 active torsions:
REMARK  status: ('A' for Active; 'I' for Inactive)
REMARK    1  A    between atoms: C6_6  and  C9_9 
REMARK    2  A    between atoms: C7_7  and  C8_8 
REMARK    3  A    between atoms: C8_8  and  C9_9 
REMARK    4  A    between atoms: C8_8  and  O11_11 
ROOT
HETATM    1  C1  UNL     1     -34.639  13.868  -4.239  1.00 20.00     0.071 C 
HETATM    2  C5  UNL     1     -32.582  15.025  -3.653  1.00 20.00     0.034 C 
HETATM    3  C9  UNL     1     -34.028  15.223  -4.174  1.00 20.00     0.071 C 
HETATM    4  N10 UNL     1     -35.104  12.805  -4.279  1.00 20.00    -0.196 NA
ENDROOT
BRANCH   3   5
HETATM    5  C6  UNL     1     -33.987  15.798  -5.617  1.00 20.00     0.022 C 
HETATM    6  C2  UNL     1     -33.618  17.273  -5.730  1.00 20.00     0.007 C 
ENDBRANCH   3   5
BRANCH   3   7
HETATM    7  C8  UNL     1     -34.802  16.142  -3.171  1.00 20.00     0.143 C 
BRANCH   7   8
HETATM    8  C7  UNL     1     -34.007  16.761  -1.986  1.00 20.00     0.008 C 
HETATM    9  C3  UNL     1     -34.692  16.635  -0.625  1.00 20.00     0.012 C 
HETATM   10  C4  UNL     1     -33.718  18.247  -2.250  1.00 20.00     0.012 C 
ENDBRANCH   7   8
BRANCH   7  11
HETATM   11  O11 UNL     1     -35.946  15.431  -2.680  1.00 20.00    -0.393 OA
HETATM   12  H28 UNL     1     -36.166  15.832  -1.828  1.00 20.00     0.210 HD
ENDBRANCH   7  11
ENDBRANCH   3   7
TORSDOF 4
ENDMDL
MODEL 2
REMARK VINA RESULT:      -4.5      1.688      3.741
REMARK  4 active torsions:
REMARK  status: ('A' for Active; 'I' for Inactive)
REMARK    1  A    between atoms: C6_6  and  C9_9 
REMARK    2  A    between atoms: C7_7  and  C8_8 
REMARK    3  A    between atoms: C8_8  and  C9_9 
REMARK    4  A    between atoms: C8_8  and  O11_11 
ROOT
HETATM    1  C1  UNL     1     -34.168  14.412  -3.483  1.00 20.00     0.071 C 
HETATM    2  C5  UNL     1     -35.854  16.165  -3.534  1.00 20.00     0.034 C 
HETATM    3  C9  UNL     1     -34.330  15.891  -3.469  1.00 20.00     0.071 C 
HETATM    4  N10 UNL     1     -34.059  13.256  -3.501  1.00 20.00    -0.196 NA
ENDROOT
BRANCH   3   5
HETATM    5  C6  UNL     1     -33.763  16.420  -2.122  1.00 20.00     0.022 C 
HETATM    6  C2  UNL     1     -34.774  16.556  -0.988  1.00 20.00     0.007 C 
ENDBRANCH   3   5
BRANCH   3   7
HETATM    7  C8  UNL     1     -33.648  16.543  -4.718  1.00 20.00     0.143 C 
BRANCH   7   8
HETATM    8  C7  UNL     1     -34.488  16.678  -6.020  1.00 20.00     0.008 C 
HETATM    9  C3  UNL     1     -34.281  15.549  -7.031  1.00 20.00     0.012 C 
HETATM   10  C4  UNL     1     -34.191  18.016  -6.717  1.00 20.00     0.012 C 
ENDBRANCH   7   8
BRANCH   7  11
HETATM   11  O11 UNL     1     -32.423  15.851  -4.990  1.00 20.00    -0.393 OA
HETATM   12  H28 UNL     1     -32.676  14.985  -5.339  1.00 20.00     0.210 HD
ENDBRANCH   7  11
ENDBRANCH   3   7
TORSDOF 4
ENDMDL
MODEL 3
REMARK VINA RESULT:      -4.3      1.738      2.298
REMARK  4 active torsions:
REMARK  status: ('A' for Active; 'I' for Inactive)
REMARK    1  A    between atoms: C6_6  and  C9_9 
REMARK    2  A    between atoms: C7_7  and  C8_8 
REMARK    3  A    between atoms: C8_8  and  C9_9 
REMARK    4  A    between atoms: C8_8  and  O11_11 
ROOT
HETATM    1  C1  UNL     1     -36.581  14.467  -4.017  1.00 20.00     0.071 C 
HETATM    2  C5  UNL     1     -34.643  13.205  -4.771  1.00 20.00     0.034 C 
HETATM    3  C9  UNL     1     -35.149  14.620  -4.392  1.00 20.00     0.071 C 
HETATM    4  N10 UNL     1     -37.695  14.330  -3.721  1.00 20.00    -0.196 NA
ENDROOT
BRANCH   3   5
HETATM    5  C6  UNL     1     -35.079  15.548  -5.637  1.00 20.00     0.022 C 
HETATM    6  C2  UNL     1     -34.455  14.933  -6.885  1.00 20.00     0.007 C 
ENDBRANCH   3   5
BRANCH   3   7
HETATM    7  C8  UNL     1     -34.305  15.151  -3.186  1.00 20.00     0.143 C 
BRANCH   7   8
HETATM    8  C7  UNL     1     -34.690  16.530  -2.577  1.00 20.00     0.008 C 
HETATM    9  C3  UNL     1     -33.809  17.695  -3.031  1.00 20.00     0.012 C 
HETATM   10  C4  UNL     1     -34.661  16.467  -1.041  1.00 20.00     0.012 C 
ENDBRANCH   7   8
BRANCH   7  11
HETATM   11  O11 UNL     1     -32.919  15.143  -3.552  1.00 20.00    -0.393 OA
HETATM   12  H28 UNL     1     -32.451  14.714  -2.823  1.00 20.00     0.210 HD
ENDBRANCH   7  11
ENDBRANCH   3   7
TORSDOF 4
ENDMDL
MODEL 4
REMARK VINA RESULT:      -4.1      1.685      1.934
REMARK  4 active torsions:
REMARK  status: ('A' for Active; 'I' for Inactive)
REMARK    1  A    between atoms: C6_6  and  C9_9 
REMARK    2  A    between atoms: C7_7  and  C8_8 
REMARK    3  A    between atoms: C8_8  and  C9_9 
REMARK    4  A    between atoms: C8_8  and  O11_11 
ROOT
HETATM    1  C1  UNL     1     -37.275  14.684  -3.978  1.00 20.00     0.071 C 
HETATM    2  C5  UNL     1     -34.916  14.175  -3.677  1.00 20.00     0.034 C 
HETATM    3  C9  UNL     1     -35.916  15.273  -4.120  1.00 20.00     0.071 C 
HETATM    4  N10 UNL     1     -38.329  14.212  -3.856  1.00 20.00    -0.196 NA
ENDROOT
BRANCH   3   5
HETATM    5  C6  UNL     1     -35.694  15.604  -5.622  1.00 20.00     0.022 C 
HETATM    6  C2  UNL     1     -34.273  15.407  -6.138  1.00 20.00     0.007 C 
ENDBRANCH   3   5
BRANCH   3   7
HETATM    7  C8  UNL     1     -35.742  16.518  -3.187  1.00 20.00     0.143 C 
BRANCH   7   8
HETATM    8  C7  UNL     1     -34.429  16.632  -2.361  1.00 20.00     0.008 C 
HETATM    9  C3  UNL     1     -34.628  16.611  -0.844  1.00 20.00     0.012 C 
HETATM   10  C4  UNL     1     -33.668  17.914  -2.734  1.00 20.00     0.012 C 
ENDBRANCH   7   8
BRANCH   7  11
HETATM   11  O11 UNL     1     -36.881  16.610  -2.321  1.00 20.00    -0.393 OA
HETATM   12  H28 UNL     1     -37.486  17.239  -2.739  1.00 20.00     0.210 HD
ENDBRANCH   7  11
ENDBRANCH   3   7
TORSDOF 4
ENDMDL
MODEL 5
REMARK VINA RESULT:      -4.1      2.028      3.706
REMARK  4 active torsions:
REMARK  status: ('A' for Active; 'I' for Inactive)
REMARK    1  A    between atoms: C6_6  and  C9_9 
REMARK    2  A    between atoms: C7_7  and  C8_8 
REMARK    3  A    between atoms: C8_8  and  C9_9 
REMARK    4  A    between atoms: C8_8  and  O11_11 
ROOT
HETATM    1  C1  UNL     1     -35.945  15.811  -3.569  1.00 20.00     0.071 C 
HETATM    2  C5  UNL     1     -34.081  16.291  -2.083  1.00 20.00     0.034 C 
HETATM    3  C9  UNL     1     -34.469  15.666  -3.447  1.00 20.00     0.071 C 
HETATM    4  N10 UNL     1     -37.096  15.937  -3.653  1.00 20.00    -0.196 NA
ENDROOT
BRANCH   3   5
HETATM    5  C6  UNL     1     -34.138  14.148  -3.437  1.00 20.00     0.022 C 
HETATM    6  C2  UNL     1     -35.027  13.272  -4.312  1.00 20.00     0.007 C 
ENDBRANCH   3   5
BRANCH   3   7
HETATM    7  C8  UNL     1     -33.731  16.446  -4.586  1.00 20.00     0.143 C 
BRANCH   7   8
HETATM    8  C7  UNL     1     -34.486  16.662  -5.929  1.00 20.00     0.008 C 
HETATM    9  C3  UNL     1     -34.226  15.587  -6.986  1.00 20.00     0.012 C 
HETATM   10  C4  UNL     1     -34.133  18.032  -6.530  1.00 20.00     0.012 C 
ENDBRANCH   7   8
BRANCH   7  11
HETATM   11  O11 UNL     1     -32.463  15.822  -4.827  1.00 20.00    -0.393 OA
HETATM   12  H28 UNL     1     -31.964  15.902  -4.003  1.00 20.00     0.210 HD
ENDBRANCH   7  11
ENDBRANCH   3   7
TORSDOF 4
ENDMDL
MODEL 6
REMARK VINA RESULT:      -4.1      1.893      2.772
REMARK  4 active torsions:
REMARK  status: ('A' for Active; 'I' for Inactive)
REMARK    1  A    between atoms: C6_6  and  C9_9 
REMARK    2  A    between atoms: C7_7  and  C8_8 
REMARK    3  A    between atoms: C8_8  and  C9_9 
REMARK    4  A    between atoms: C8_8  and  O11_11 
ROOT
HETATM    1  C1  UNL     1     -34.761  13.694  -4.974  1.00 20.00     0.071 C 
HETATM    2  C5  UNL     1     -34.348  15.364  -6.692  1.00 20.00     0.034 C 
HETATM    3  C9  UNL     1     -34.795  15.160  -5.223  1.00 20.00     0.071 C 
HETATM    4  N10 UNL     1     -34.723  12.548  -4.793  1.00 20.00    -0.196 NA
ENDROOT
BRANCH   3   5
HETATM    5  C6  UNL     1     -36.264  15.639  -5.054  1.00 20.00     0.022 C 
HETATM    6  C2  UNL     1     -37.044  14.989  -3.917  1.00 20.00     0.007 C 
ENDBRANCH   3   5
BRANCH   3   7
HETATM    7  C8  UNL     1     -33.794  15.913  -4.283  1.00 20.00     0.143 C 
BRANCH   7   8
HETATM    8  C7  UNL     1     -34.204  17.320  -3.761  1.00 20.00     0.008 C 
HETATM    9  C3  UNL     1     -33.606  18.490  -4.545  1.00 20.00     0.012 C 
HETATM   10  C4  UNL     1     -33.819  17.478  -2.282  1.00 20.00     0.012 C 
ENDBRANCH   7   8
BRANCH   7  11
HETATM   11  O11 UNL     1     -32.515  15.979  -4.927  1.00 20.00    -0.393 OA
HETATM   12  H28 UNL     1     -32.075  16.762  -4.569  1.00 20.00     0.210 HD
ENDBRANCH   7  11
ENDBRANCH   3   7
TORSDOF 4
ENDMDL
MODEL 7
REMARK VINA RESULT:      -4.1      2.398      3.699
REMARK  4 active torsions:
REMARK  status: ('A' for Active; 'I' for Inactive)
REMARK    1  A    between atoms: C6_6  and  C9_9 
REMARK    2  A    between atoms: C7_7  and  C8_8 
REMARK    3  A    between atoms: C8_8  and  C9_9 
REMARK    4  A    between atoms: C8_8  and  O11_11 
ROOT
HETATM    1  C1  UNL     1     -33.595  16.025  -4.596  1.00 20.00     0.071 C 
HETATM    2  C5  UNL     1     -33.202  13.831  -3.623  1.00 20.00     0.034 C 
HETATM    3  C9  UNL     1     -34.271  14.930  -3.848  1.00 20.00     0.071 C 
HETATM    4  N10 UNL     1     -33.056  16.867  -5.185  1.00 20.00    -0.196 NA
ENDROOT
BRANCH   3   5
HETATM    5  C6  UNL     1     -34.726  15.501  -2.475  1.00 20.00     0.022 C 
HETATM    6  C2  UNL     1     -33.870  16.629  -1.912  1.00 20.00     0.007 C 
ENDBRANCH   3   5
BRANCH   3   7
HETATM    7  C8  UNL     1     -35.450  14.324  -4.680  1.00 20.00     0.143 C 
BRANCH   7   8
HETATM    8  C7  UNL     1     -36.734  15.184  -4.856  1.00 20.00     0.008 C 
HETATM    9  C3  UNL     1     -37.945  14.689  -4.063  1.00 20.00     0.012 C 
HETATM   10  C4  UNL     1     -37.126  15.267  -6.341  1.00 20.00     0.012 C 
ENDBRANCH   7   8
BRANCH   7  11
HETATM   11  O11 UNL     1     -35.786  13.040  -4.139  1.00 20.00    -0.393 OA
HETATM   12  H28 UNL     1     -35.259  12.395  -4.631  1.00 20.00     0.210 HD
ENDBRANCH   7  11
ENDBRANCH   3   7
TORSDOF 4
ENDMDL
MODEL 8
REMARK VINA RESULT:      -4.0      2.125      4.054
REMARK  4 active torsions:
REMARK  status: ('A' for Active; 'I' for Inactive)
REMARK    1  A    between atoms: C6_6  and  C9_9 
REMARK    2  A    between atoms: C7_7  and  C8_8 
REMARK    3  A    between atoms: C8_8  and  C9_9 
REMARK    4  A    between atoms: C8_8  and  O11_11 
ROOT
HETATM    1  C1  UNL     1     -35.850  16.864  -3.633  1.00 20.00     0.071 C 
HETATM    2  C5  UNL     1     -33.912  18.333  -3.621  1.00 20.00     0.034 C 
HETATM    3  C9  UNL     1     -34.363  16.850  -3.637  1.00 20.00     0.071 C 
HETATM    4  N10 UNL     1     -37.011  16.892  -3.637  1.00 20.00    -0.196 NA
ENDROOT
BRANCH   3   5
HETATM    5  C6  UNL     1     -33.889  16.148  -2.333  1.00 20.00     0.022 C 
HETATM    6  C2  UNL     1     -34.555  16.625  -1.047  1.00 20.00     0.007 C 
ENDBRANCH   3   5
BRANCH   3   7
HETATM    7  C8  UNL     1     -33.809  16.170  -4.933  1.00 20.00     0.143 C 
BRANCH   7   8
HETATM    8  C7  UNL     1     -34.644  15.020  -5.566  1.00 20.00     0.008 C 
HETATM    9  C3  UNL     1     -34.367  13.635  -4.979  1.00 20.00     0.012 C 
HETATM   10  C4  UNL     1     -34.414  14.960  -7.084  1.00 20.00     0.012 C 
ENDBRANCH   7   8
BRANCH   7  11
HETATM   11  O11 UNL     1     -32.468  15.729  -4.688  1.00 20.00    -0.393 OA
HETATM   12  H28 UNL     1     -32.130  15.412  -5.537  1.00 20.00     0.210 HD
ENDBRANCH   7  11
ENDBRANCH   3   7
TORSDOF 4
ENDMDL
MODEL 9
REMARK VINA RESULT:      -3.9      2.106      3.973
REMARK  4 active torsions:
REMARK  status: ('A' for Active; 'I' for Inactive)
REMARK    1  A    between atoms: C6_6  and  C9_9 
REMARK    2  A    between atoms: C7_7  and  C8_8 
REMARK    3  A    between atoms: C8_8  and  C9_9 
REMARK    4  A    between atoms: C8_8  and  O11_11 
ROOT
HETATM    1  C1  UNL     1     -35.782  17.689  -2.925  1.00 20.00     0.071 C 
HETATM    2  C5  UNL     1     -33.676  17.183  -4.031  1.00 20.00     0.034 C 
HETATM    3  C9  UNL     1     -34.574  16.827  -2.819  1.00 20.00     0.071 C 
HETATM    4  N10 UNL     1     -36.721  18.364  -3.025  1.00 20.00    -0.196 NA
ENDROOT
BRANCH   3   5
HETATM    5  C6  UNL     1     -33.839  17.195  -1.500  1.00 20.00     0.022 C 
HETATM    6  C2  UNL     1     -34.656  17.039  -0.223  1.00 20.00     0.007 C 
ENDBRANCH   3   5
BRANCH   3   7
HETATM    7  C8  UNL     1     -34.955  15.311  -2.904  1.00 20.00     0.143 C 
BRANCH   7   8
HETATM    8  C7  UNL     1     -34.314  14.460  -4.038  1.00 20.00     0.008 C 
HETATM    9  C3  UNL     1     -35.239  13.402  -4.640  1.00 20.00     0.012 C 
HETATM   10  C4  UNL     1     -33.040  13.763  -3.532  1.00 20.00     0.012 C 
ENDBRANCH   7   8
BRANCH   7  11
HETATM   11  O11 UNL     1     -36.383  15.194  -2.947  1.00 20.00    -0.393 OA
HETATM   12  H28 UNL     1     -36.626  14.597  -2.226  1.00 20.00     0.210 HD
ENDBRANCH   7  11
ENDBRANCH   3   7
TORSDOF 4
ENDMDL
