MODEL 1
REMARK VINA RESULT:      -5.2      0.000      0.000
REMARK  3 active torsions:
REMARK  status: ('A' for Active; 'I' for Inactive)
REMARK    1  A    between atoms: C3_3  and  C11_11 
REMARK    2  A    between atoms: C8_8  and  N12_12 
REMARK    3  A    between atoms: C11_11  and  N12_12 
ROOT
HETATM    1  C1  UNL     1     -34.608  13.648  -4.591  1.00 20.00     0.127 C 
HETATM    2  C4  UNL     1     -34.633  14.457  -5.873  1.00 20.00     0.080 C 
HETATM    3  C5  UNL     1     -33.897  14.258  -3.400  1.00 20.00     0.080 C 
HETATM    4  C6  UNL     1     -34.543  15.942  -5.547  1.00 20.00     0.040 C 
HETATM    5  C7  UNL     1     -32.760  15.153  -3.876  1.00 20.00     0.040 C 
HETATM    6  C8  UNL     1     -33.245  16.274  -4.802  1.00 20.00     0.189 C 
HETATM    7  O13 UNL     1     -35.145  12.543  -4.521  1.00 20.00    -0.298 OA
ENDROOT
BRANCH   6   8
HETATM    8  N12 UNL     1     -33.474  17.510  -4.001  1.00 20.00    -0.067 N 
HETATM    9  C10 UNL     1     -33.614  18.738  -4.864  1.00 20.00     0.270 C 
HETATM   10  H33 UNL     1     -32.635  17.664  -3.416  1.00 20.00     0.280 HD
BRANCH   8  11
HETATM   11  C11 UNL     1     -34.633  17.374  -3.047  1.00 20.00     0.268 C 
BRANCH  11  12
HETATM   12  C3  UNL     1     -34.244  17.510  -1.603  1.00 20.00    -0.068 C 
HETATM   13  C2  UNL     1     -34.719  16.673  -0.667  1.00 20.00     0.015 C 
HETATM   14  C9  UNL     1     -33.275  18.604  -1.258  1.00 20.00     0.044 C 
ENDBRANCH  11  12
ENDBRANCH   8  11
ENDBRANCH   6   8
TORSDOF 3
ENDMDL
MODEL 2
REMARK VINA RESULT:      -5.1      1.459      2.065
REMARK  3 active torsions:
REMARK  status: ('A' for Active; 'I' for Inactive)
REMARK    1  A    between atoms: C3_3  and  C11_11 
REMARK    2  A    between atoms: C8_8  and  N12_12 
REMARK    3  A    between atoms: C11_11  and  N12_12 
ROOT
HETATM    1  C1  UNL     1     -33.560  13.923  -3.812  1.00 20.00     0.127 C 
HETATM    2  C4  UNL     1     -35.059  13.919  -4.035  1.00 20.00     0.080 C 
HETATM    3  C5  UNL     1     -32.885  15.272  -3.658  1.00 20.00     0.080 C 
HETATM    4  C6  UNL     1     -35.677  15.163  -3.409  1.00 20.00     0.040 C 
HETATM    5  C7  UNL     1     -33.641  16.325  -4.458  1.00 20.00     0.040 C 
HETATM    6  C8  UNL     1     -35.109  16.444  -4.032  1.00 20.00     0.189 C 
HETATM    7  O13 UNL     1     -32.917  12.875  -3.758  1.00 20.00    -0.298 OA
ENDROOT
BRANCH   6   8
HETATM    8  N12 UNL     1     -35.246  17.544  -3.035  1.00 20.00    -0.067 N 
HETATM    9  C10 UNL     1     -36.196  18.621  -3.493  1.00 20.00     0.270 C 
HETATM   10  H33 UNL     1     -34.322  17.997  -2.940  1.00 20.00     0.280 HD
BRANCH   8  11
HETATM   11  C11 UNL     1     -35.609  17.037  -1.663  1.00 20.00     0.268 C 
BRANCH  11  12
HETATM   12  C3  UNL     1     -34.629  17.430  -0.596  1.00 20.00    -0.068 C 
HETATM   13  C2  UNL     1     -33.368  17.777  -0.896  1.00 20.00     0.015 C 
HETATM   14  C9  UNL     1     -35.132  17.450   0.819  1.00 20.00     0.044 C 
ENDBRANCH  11  12
ENDBRANCH   8  11
ENDBRANCH   6   8
TORSDOF 3
ENDMDL
MODEL 3
REMARK VINA RESULT:      -5.1      1.368      3.146
REMARK  3 active torsions:
REMARK  status: ('A' for Active; 'I' for Inactive)
REMARK    1  A    between atoms: C3_3  and  C11_11 
REMARK    2  A    between atoms: C8_8  and  N12_12 
REMARK    3  A    between atoms: C11_11  and  N12_12 
ROOT
HETATM    1  C1  UNL     1     -34.683  13.589  -4.105  1.00 20.00     0.127 C 
HETATM    2  C4  UNL     1     -33.272  13.908  -3.652  1.00 20.00     0.080 C 
HETATM    3  C5  UNL     1     -35.725  14.676  -3.945  1.00 20.00     0.080 C 
HETATM    4  C6  UNL     1     -33.025  15.408  -3.753  1.00 20.00     0.040 C 
HETATM    5  C7  UNL     1     -35.383  15.553  -2.747  1.00 20.00     0.040 C 
HETATM    6  C8  UNL     1     -33.997  16.197  -2.868  1.00 20.00     0.189 C 
HETATM    7  O13 UNL     1     -34.968  12.492  -4.584  1.00 20.00    -0.298 OA
ENDROOT
BRANCH   6   8
HETATM    8  N12 UNL     1     -34.138  17.565  -3.441  1.00 20.00    -0.067 N 
HETATM    9  C10 UNL     1     -33.554  18.628  -2.545  1.00 20.00     0.270 C 
HETATM   10  H33 UNL     1     -35.149  17.773  -3.512  1.00 20.00     0.280 HD
BRANCH   8  11
HETATM   11  C11 UNL     1     -33.589  17.665  -4.841  1.00 20.00     0.268 C 
BRANCH  11  12
HETATM   12  C3  UNL     1     -34.646  17.645  -5.907  1.00 20.00    -0.068 C 
HETATM   13  C2  UNL     1     -35.692  18.485  -5.872  1.00 20.00     0.015 C 
HETATM   14  C9  UNL     1     -34.464  16.665  -7.030  1.00 20.00     0.044 C 
ENDBRANCH  11  12
ENDBRANCH   8  11
ENDBRANCH   6   8
TORSDOF 3
ENDMDL
MODEL 4
REMARK VINA RESULT:      -5.0      1.242      1.982
REMARK  3 active torsions:
REMARK  status: ('A' for Active; 'I' for Inactive)
REMARK    1  A    between atoms: C3_3  and  C11_11 
REMARK    2  A    between atoms: C8_8  and  N12_12 
REMARK    3  A    between atoms: C11_11  and  N12_12 
ROOT
HETATM    1  C1  UNL     1     -34.605  13.538  -4.243  1.00 20.00     0.127 C 
HETATM    2  C4  UNL     1     -33.178  13.677  -3.754  1.00 20.00     0.080 C 
HETATM    3  C5  UNL     1     -35.564  14.665  -3.916  1.00 20.00     0.080 C 
HETATM    4  C6  UNL     1     -32.817  15.153  -3.628  1.00 20.00     0.040 C 
HETATM    5  C7  UNL     1     -35.165  15.321  -2.600  1.00 20.00     0.040 C 
HETATM    6  C8  UNL     1     -33.733  15.870  -2.629  1.00 20.00     0.189 C 
HETATM    7  O13 UNL     1     -34.970  12.552  -4.882  1.00 20.00    -0.298 OA
ENDROOT
BRANCH   6   8
HETATM    8  N12 UNL     1     -33.767  17.316  -2.987  1.00 20.00    -0.067 N 
HETATM    9  C10 UNL     1     -34.227  17.548  -4.404  1.00 20.00     0.270 C 
HETATM   10  H33 UNL     1     -32.798  17.674  -2.937  1.00 20.00     0.280 HD
BRANCH   8  11
HETATM   11  C11 UNL     1     -34.569  18.134  -2.008  1.00 20.00     0.268 C 
BRANCH  11  12
HETATM   12  C3  UNL     1     -34.032  18.094  -0.606  1.00 20.00    -0.068 C 
HETATM   13  C2  UNL     1     -32.837  18.621  -0.298  1.00 20.00     0.015 C 
HETATM   14  C9  UNL     1     -34.907  17.468   0.441  1.00 20.00     0.044 C 
ENDBRANCH  11  12
ENDBRANCH   8  11
ENDBRANCH   6   8
TORSDOF 3
ENDMDL
MODEL 5
REMARK VINA RESULT:      -4.7      2.282      4.210
REMARK  3 active torsions:
REMARK  status: ('A' for Active; 'I' for Inactive)
REMARK    1  A    between atoms: C3_3  and  C11_11 
REMARK    2  A    between atoms: C8_8  and  N12_12 
REMARK    3  A    between atoms: C11_11  and  N12_12 
ROOT
HETATM    1  C1  UNL     1     -33.667  13.921  -3.826  1.00 20.00     0.127 C 
HETATM    2  C4  UNL     1     -33.136  15.331  -3.655  1.00 20.00     0.080 C 
HETATM    3  C5  UNL     1     -35.147  13.766  -4.111  1.00 20.00     0.080 C 
HETATM    4  C6  UNL     1     -34.005  16.307  -4.438  1.00 20.00     0.040 C 
HETATM    5  C7  UNL     1     -35.923  14.905  -3.462  1.00 20.00     0.040 C 
HETATM    6  C8  UNL     1     -35.457  16.283  -3.947  1.00 20.00     0.189 C 
HETATM    7  O13 UNL     1     -32.925  12.943  -3.739  1.00 20.00    -0.298 OA
ENDROOT
BRANCH   6   8
HETATM    8  N12 UNL     1     -36.333  16.733  -5.066  1.00 20.00    -0.067 N 
HETATM    9  C10 UNL     1     -36.892  18.115  -4.840  1.00 20.00     0.270 C 
HETATM   10  H33 UNL     1     -37.146  16.096  -5.103  1.00 20.00     0.280 HD
BRANCH   8  11
HETATM   11  C11 UNL     1     -35.654  16.628  -6.408  1.00 20.00     0.268 C 
BRANCH  11  12
HETATM   12  C3  UNL     1     -36.104  15.448  -7.220  1.00 20.00    -0.068 C 
HETATM   13  C2  UNL     1     -35.223  14.620  -7.802  1.00 20.00     0.015 C 
HETATM   14  C9  UNL     1     -37.584  15.217  -7.325  1.00 20.00     0.044 C 
ENDBRANCH  11  12
ENDBRANCH   8  11
ENDBRANCH   6   8
TORSDOF 3
ENDMDL
MODEL 6
REMARK VINA RESULT:      -4.5      2.688      4.946
REMARK  3 active torsions:
REMARK  status: ('A' for Active; 'I' for Inactive)
REMARK    1  A    between atoms: C3_3  and  C11_11 
REMARK    2  A    between atoms: C8_8  and  N12_12 
REMARK    3  A    between atoms: C11_11  and  N12_12 
ROOT
HETATM    1  C1  UNL     1     -36.118  18.214  -0.117  1.00 20.00     0.127 C 
HETATM    2  C4  UNL     1     -34.894  17.383   0.212  1.00 20.00     0.080 C 
HETATM    3  C5  UNL     1     -36.321  18.607  -1.566  1.00 20.00     0.080 C 
HETATM    4  C6  UNL     1     -34.488  16.560  -1.004  1.00 20.00     0.040 C 
HETATM    5  C7  UNL     1     -34.972  18.747  -2.260  1.00 20.00     0.040 C 
HETATM    6  C8  UNL     1     -34.144  17.459  -2.198  1.00 20.00     0.189 C 
HETATM    7  O13 UNL     1     -36.914  18.555   0.757  1.00 20.00    -0.298 OA
ENDROOT
BRANCH   6   8
HETATM    8  N12 UNL     1     -34.359  16.674  -3.446  1.00 20.00    -0.067 N 
HETATM    9  C10 UNL     1     -33.508  17.164  -4.590  1.00 20.00     0.270 C 
HETATM   10  H33 UNL     1     -35.341  16.813  -3.738  1.00 20.00     0.280 HD
BRANCH   8  11
HETATM   11  C11 UNL     1     -34.190  15.191  -3.232  1.00 20.00     0.268 C 
BRANCH  11  12
HETATM   12  C3  UNL     1     -35.289  14.365  -3.838  1.00 20.00    -0.068 C 
HETATM   13  C2  UNL     1     -35.026  13.230  -4.503  1.00 20.00     0.015 C 
HETATM   14  C9  UNL     1     -36.695  14.850  -3.637  1.00 20.00     0.044 C 
ENDBRANCH  11  12
ENDBRANCH   8  11
ENDBRANCH   6   8
TORSDOF 3
ENDMDL
MODEL 7
REMARK VINA RESULT:      -4.5      2.357      4.427
REMARK  3 active torsions:
REMARK  status: ('A' for Active; 'I' for Inactive)
REMARK    1  A    between atoms: C3_3  and  C11_11 
REMARK    2  A    between atoms: C8_8  and  N12_12 
REMARK    3  A    between atoms: C11_11  and  N12_12 
ROOT
HETATM    1  C1  UNL     1     -33.638  17.833  -1.313  1.00 20.00     0.127 C 
HETATM    2  C4  UNL     1     -33.578  18.761  -2.510  1.00 20.00     0.080 C 
HETATM    3  C5  UNL     1     -34.607  16.670  -1.384  1.00 20.00     0.080 C 
HETATM    4  C6  UNL     1     -33.977  18.003  -3.770  1.00 20.00     0.040 C 
HETATM    5  C7  UNL     1     -35.807  17.046  -2.244  1.00 20.00     0.040 C 
HETATM    6  C8  UNL     1     -35.405  17.455  -3.665  1.00 20.00     0.189 C 
HETATM    7  O13 UNL     1     -32.927  18.017  -0.325  1.00 20.00    -0.298 OA
ENDROOT
BRANCH   6   8
HETATM    8  N12 UNL     1     -35.516  16.274  -4.568  1.00 20.00    -0.067 N 
HETATM    9  C10 UNL     1     -36.291  16.580  -5.825  1.00 20.00     0.270 C 
HETATM   10  H33 UNL     1     -36.054  15.547  -4.068  1.00 20.00     0.280 HD
BRANCH   8  11
HETATM   11  C11 UNL     1     -34.175  15.663  -4.885  1.00 20.00     0.268 C 
BRANCH  11  12
HETATM   12  C3  UNL     1     -33.943  14.338  -4.215  1.00 20.00    -0.068 C 
HETATM   13  C2  UNL     1     -32.813  14.084  -3.538  1.00 20.00     0.015 C 
HETATM   14  C9  UNL     1     -35.047  13.325  -4.309  1.00 20.00     0.044 C 
ENDBRANCH  11  12
ENDBRANCH   8  11
ENDBRANCH   6   8
TORSDOF 3
ENDMDL
MODEL 8
REMARK VINA RESULT:      -4.4      1.684      2.103
REMARK  3 active torsions:
REMARK  status: ('A' for Active; 'I' for Inactive)
REMARK    1  A    between atoms: C3_3  and  C11_11 
REMARK    2  A    between atoms: C8_8  and  N12_12 
REMARK    3  A    between atoms: C11_11  and  N12_12 
ROOT
HETATM    1  C1  UNL     1     -36.832  14.945  -4.006  1.00 20.00     0.127 C 
HETATM    2  C4  UNL     1     -37.234  16.179  -4.790  1.00 20.00     0.080 C 
HETATM    3  C5  UNL     1     -35.387  14.846  -3.562  1.00 20.00     0.080 C 
HETATM    4  C6  UNL     1     -36.330  17.346  -4.411  1.00 20.00     0.040 C 
HETATM    5  C7  UNL     1     -34.486  15.565  -4.557  1.00 20.00     0.040 C 
HETATM    6  C8  UNL     1     -34.861  17.042  -4.727  1.00 20.00     0.189 C 
HETATM    7  O13 UNL     1     -37.647  14.062  -3.742  1.00 20.00    -0.298 OA
ENDROOT
BRANCH   6   8
HETATM    8  N12 UNL     1     -34.012  17.872  -3.826  1.00 20.00    -0.067 N 
HETATM    9  C10 UNL     1     -33.375  19.034  -4.544  1.00 20.00     0.270 C 
HETATM   10  H33 UNL     1     -33.234  17.278  -3.493  1.00 20.00     0.280 HD
BRANCH   8  11
HETATM   11  C11 UNL     1     -34.751  18.327  -2.593  1.00 20.00     0.268 C 
BRANCH  11  12
HETATM   12  C3  UNL     1     -34.077  17.939  -1.308  1.00 20.00    -0.068 C 
HETATM   13  C2  UNL     1     -33.040  18.638  -0.823  1.00 20.00     0.015 C 
HETATM   14  C9  UNL     1     -34.637  16.754  -0.575  1.00 20.00     0.044 C 
ENDBRANCH  11  12
ENDBRANCH   8  11
ENDBRANCH   6   8
TORSDOF 3
ENDMDL
MODEL 9
REMARK VINA RESULT:      -4.3      2.094      3.119
REMARK  3 active torsions:
REMARK  status: ('A' for Active; 'I' for Inactive)
REMARK    1  A    between atoms: C3_3  and  C11_11 
REMARK    2  A    between atoms: C8_8  and  N12_12 
REMARK    3  A    between atoms: C11_11  and  N12_12 
ROOT
HETATM    1  C1  UNL     1     -36.875  15.373  -6.184  1.00 20.00     0.127 C 
HETATM    2  C4  UNL     1     -35.671  14.775  -6.884  1.00 20.00     0.080 C 
HETATM    3  C5  UNL     1     -36.907  15.298  -4.671  1.00 20.00     0.080 C 
HETATM    4  C6  UNL     1     -34.461  14.824  -5.959  1.00 20.00     0.040 C 
HETATM    5  C7  UNL     1     -36.163  14.056  -4.196  1.00 20.00     0.040 C 
HETATM    6  C8  UNL     1     -34.707  14.027  -4.673  1.00 20.00     0.189 C 
HETATM    7  O13 UNL     1     -37.789  15.898  -6.819  1.00 20.00    -0.298 OA
ENDROOT
BRANCH   6   8
HETATM    8  N12 UNL     1     -33.828  14.585  -3.606  1.00 20.00    -0.067 N 
HETATM    9  C10 UNL     1     -32.567  13.781  -3.419  1.00 20.00     0.270 C 
HETATM   10  H33 UNL     1     -34.343  14.525  -2.712  1.00 20.00     0.280 HD
BRANCH   8  11
HETATM   11  C11 UNL     1     -33.521  16.046  -3.818  1.00 20.00     0.268 C 
BRANCH  11  12
HETATM   12  C3  UNL     1     -33.942  16.922  -2.673  1.00 20.00    -0.068 C 
HETATM   13  C2  UNL     1     -33.692  18.241  -2.672  1.00 20.00     0.015 C 
HETATM   14  C9  UNL     1     -34.685  16.263  -1.547  1.00 20.00     0.044 C 
ENDBRANCH  11  12
ENDBRANCH   8  11
ENDBRANCH   6   8
TORSDOF 3
ENDMDL
