MODEL 1
REMARK VINA RESULT:      -4.5      0.000      0.000
REMARK  4 active torsions:
REMARK  status: ('A' for Active; 'I' for Inactive)
REMARK    1  A    between atoms: C4_4  and  C9_9 
REMARK    2  A    between atoms: C7_7  and  C9_9 
REMARK    3  A    between atoms: C8_8  and  C9_9 
REMARK    4  A    between atoms: C9_9  and  O11_11 
ROOT
HETATM    1  C1  UNL     1     -34.968  13.580  -4.160  1.00 20.00     0.066 C 
HETATM    2  C6  UNL     1     -36.641  15.335  -3.880  1.00 20.00     0.028 C 
HETATM    3  C8  UNL     1     -35.260  14.834  -3.430  1.00 20.00     0.123 C 
HETATM    4  N10 UNL     1     -34.741  12.594  -4.731  1.00 20.00    -0.197 NA
ENDROOT
BRANCH   3   5
HETATM    5  C9  UNL     1     -34.124  15.888  -3.621  1.00 20.00     0.077 C 
BRANCH   5   6
HETATM    6  C4  UNL     1     -34.546  16.969  -4.602  1.00 20.00     0.021 A 
HETATM    7  C2  UNL     1     -33.562  18.016  -5.046  1.00 20.00     0.008 A 
HETATM    8  C3  UNL     1     -34.021  16.959  -6.011  1.00 20.00     0.008 A 
ENDBRANCH   5   6
BRANCH   5   9
HETATM    9  C7  UNL     1     -33.652  16.541  -2.292  1.00 20.00     0.035 C 
HETATM   10  C5  UNL     1     -34.648  16.481  -1.141  1.00 20.00     0.008 C 
ENDBRANCH   5   9
BRANCH   5  11
HETATM   11  O11 UNL     1     -32.984  15.219  -4.183  1.00 20.00    -0.388 OA
HETATM   12  H26 UNL     1     -32.269  15.869  -4.186  1.00 20.00     0.210 HD
ENDBRANCH   5  11
ENDBRANCH   3   5
TORSDOF 4
ENDMDL
MODEL 2
REMARK VINA RESULT:      -4.5      1.480      3.111
REMARK  4 active torsions:
REMARK  status: ('A' for Active; 'I' for Inactive)
REMARK    1  A    between atoms: C4_4  and  C9_9 
REMARK    2  A    between atoms: C7_7  and  C9_9 
REMARK    3  A    between atoms: C8_8  and  C9_9 
REMARK    4  A    between atoms: C9_9  and  O11_11 
ROOT
HETATM    1  C1  UNL     1     -34.656  13.811  -4.221  1.00 20.00     0.066 C 
HETATM    2  C6  UNL     1     -32.583  14.957  -3.629  1.00 20.00     0.028 C 
HETATM    3  C8  UNL     1     -34.048  15.150  -4.053  1.00 20.00     0.123 C 
HETATM    4  N10 UNL     1     -35.131  12.760  -4.356  1.00 20.00    -0.197 NA
ENDROOT
BRANCH   3   5
HETATM    5  C9  UNL     1     -34.869  16.034  -3.063  1.00 20.00     0.077 C 
BRANCH   5   6
HETATM    6  C4  UNL     1     -34.106  16.251  -1.768  1.00 20.00     0.021 A 
HETATM    7  C2  UNL     1     -33.753  17.643  -1.319  1.00 20.00     0.008 A 
HETATM    8  C3  UNL     1     -34.795  16.855  -0.575  1.00 20.00     0.008 A 
ENDBRANCH   5   6
BRANCH   5   9
HETATM    9  C7  UNL     1     -35.292  17.406  -3.659  1.00 20.00     0.035 C 
HETATM   10  C5  UNL     1     -34.651  17.769  -4.992  1.00 20.00     0.008 C 
ENDBRANCH   5   9
BRANCH   5  11
HETATM   11  O11 UNL     1     -36.079  15.332  -2.737  1.00 20.00    -0.388 OA
HETATM   12  H26 UNL     1     -35.803  14.514  -2.303  1.00 20.00     0.210 HD
ENDBRANCH   5  11
ENDBRANCH   3   5
TORSDOF 4
ENDMDL
MODEL 3
REMARK VINA RESULT:      -4.4      1.601      3.069
REMARK  4 active torsions:
REMARK  status: ('A' for Active; 'I' for Inactive)
REMARK    1  A    between atoms: C4_4  and  C9_9 
REMARK    2  A    between atoms: C7_7  and  C9_9 
REMARK    3  A    between atoms: C8_8  and  C9_9 
REMARK    4  A    between atoms: C9_9  and  O11_11 
ROOT
HETATM    1  C1  UNL     1     -36.443  14.476  -4.021  1.00 20.00     0.066 C 
HETATM    2  C6  UNL     1     -34.235  13.473  -3.743  1.00 20.00     0.028 C 
HETATM    3  C8  UNL     1     -35.011  14.650  -4.354  1.00 20.00     0.123 C 
HETATM    4  N10 UNL     1     -37.567  14.336  -3.762  1.00 20.00    -0.197 NA
ENDROOT
BRANCH   3   5
HETATM    5  C9  UNL     1     -34.481  16.046  -3.900  1.00 20.00     0.077 C 
BRANCH   5   6
HETATM    6  C4  UNL     1     -33.949  15.988  -2.478  1.00 20.00     0.021 A 
HETATM    7  C2  UNL     1     -33.666  17.257  -1.722  1.00 20.00     0.008 A 
HETATM    8  C3  UNL     1     -34.826  16.389  -1.324  1.00 20.00     0.008 A 
ENDBRANCH   5   6
BRANCH   5   9
HETATM    9  C7  UNL     1     -33.395  16.636  -4.843  1.00 20.00     0.035 C 
HETATM   10  C5  UNL     1     -33.678  18.034  -5.376  1.00 20.00     0.008 C 
ENDBRANCH   5   9
BRANCH   5  11
HETATM   11  O11 UNL     1     -35.584  16.966  -3.909  1.00 20.00    -0.388 OA
HETATM   12  H26 UNL     1     -35.861  17.040  -4.832  1.00 20.00     0.210 HD
ENDBRANCH   5  11
ENDBRANCH   3   5
TORSDOF 4
ENDMDL
MODEL 4
REMARK VINA RESULT:      -4.3      1.256      1.642
REMARK  4 active torsions:
REMARK  status: ('A' for Active; 'I' for Inactive)
REMARK    1  A    between atoms: C4_4  and  C9_9 
REMARK    2  A    between atoms: C7_7  and  C9_9 
REMARK    3  A    between atoms: C8_8  and  C9_9 
REMARK    4  A    between atoms: C9_9  and  O11_11 
ROOT
HETATM    1  C1  UNL     1     -34.761  13.739  -4.990  1.00 20.00     0.066 C 
HETATM    2  C6  UNL     1     -34.345  15.121  -6.960  1.00 20.00     0.028 C 
HETATM    3  C8  UNL     1     -34.769  15.135  -5.482  1.00 20.00     0.123 C 
HETATM    4  N10 UNL     1     -34.758  12.643  -4.606  1.00 20.00    -0.197 NA
ENDROOT
BRANCH   3   5
HETATM    5  C9  UNL     1     -33.884  16.064  -4.592  1.00 20.00     0.077 C 
BRANCH   5   6
HETATM    6  C4  UNL     1     -34.330  17.512  -4.706  1.00 20.00     0.021 A 
HETATM    7  C2  UNL     1     -33.440  18.620  -4.216  1.00 20.00     0.008 A 
HETATM    8  C3  UNL     1     -33.665  18.433  -5.690  1.00 20.00     0.008 A 
ENDBRANCH   5   6
BRANCH   5   9
HETATM    9  C7  UNL     1     -33.850  15.642  -3.096  1.00 20.00     0.035 C 
HETATM   10  C5  UNL     1     -35.053  16.071  -2.266  1.00 20.00     0.008 C 
ENDBRANCH   5   9
BRANCH   5  11
HETATM   11  O11 UNL     1     -32.534  15.990  -5.075  1.00 20.00    -0.388 OA
HETATM   12  H26 UNL     1     -32.556  16.333  -5.979  1.00 20.00     0.210 HD
ENDBRANCH   5  11
ENDBRANCH   3   5
TORSDOF 4
ENDMDL
MODEL 5
REMARK VINA RESULT:      -4.1      1.361      1.761
REMARK  4 active torsions:
REMARK  status: ('A' for Active; 'I' for Inactive)
REMARK    1  A    between atoms: C4_4  and  C9_9 
REMARK    2  A    between atoms: C7_7  and  C9_9 
REMARK    3  A    between atoms: C8_8  and  C9_9 
REMARK    4  A    between atoms: C9_9  and  O11_11 
ROOT
HETATM    1  C1  UNL     1     -33.618  14.010  -3.633  1.00 20.00     0.066 C 
HETATM    2  C6  UNL     1     -35.896  14.886  -3.590  1.00 20.00     0.028 C 
HETATM    3  C8  UNL     1     -34.406  15.260  -3.536  1.00 20.00     0.123 C 
HETATM    4  N10 UNL     1     -33.000  13.029  -3.706  1.00 20.00    -0.197 NA
ENDROOT
BRANCH   3   5
HETATM    5  C9  UNL     1     -33.984  16.292  -4.629  1.00 20.00     0.077 C 
BRANCH   5   6
HETATM    6  C4  UNL     1     -34.840  16.142  -5.876  1.00 20.00     0.021 A 
HETATM    7  C2  UNL     1     -34.433  16.813  -7.159  1.00 20.00     0.008 A 
HETATM    8  C3  UNL     1     -34.351  15.317  -7.034  1.00 20.00     0.008 A 
ENDBRANCH   5   6
BRANCH   5   9
HETATM    9  C7  UNL     1     -34.024  17.766  -4.139  1.00 20.00     0.035 C 
HETATM   10  C5  UNL     1     -33.796  17.970  -2.647  1.00 20.00     0.008 C 
ENDBRANCH   5   9
BRANCH   5  11
HETATM   11  O11 UNL     1     -32.626  16.015  -5.003  1.00 20.00    -0.388 OA
HETATM   12  H26 UNL     1     -32.642  15.844  -5.955  1.00 20.00     0.210 HD
ENDBRANCH   5  11
ENDBRANCH   3   5
TORSDOF 4
ENDMDL
MODEL 6
REMARK VINA RESULT:      -4.1      1.304      1.659
REMARK  4 active torsions:
REMARK  status: ('A' for Active; 'I' for Inactive)
REMARK    1  A    between atoms: C4_4  and  C9_9 
REMARK    2  A    between atoms: C7_7  and  C9_9 
REMARK    3  A    between atoms: C8_8  and  C9_9 
REMARK    4  A    between atoms: C9_9  and  O11_11 
ROOT
HETATM    1  C1  UNL     1     -36.451  14.434  -4.208  1.00 20.00     0.066 C 
HETATM    2  C6  UNL     1     -34.474  13.147  -4.837  1.00 20.00     0.028 C 
HETATM    3  C8  UNL     1     -35.103  14.549  -4.809  1.00 20.00     0.123 C 
HETATM    4  N10 UNL     1     -37.510  14.343  -3.739  1.00 20.00    -0.197 NA
ENDROOT
BRANCH   3   5
HETATM    5  C9  UNL     1     -34.229  15.606  -4.063  1.00 20.00     0.077 C 
BRANCH   5   6
HETATM    6  C4  UNL     1     -34.594  17.016  -4.497  1.00 20.00     0.021 A 
HETATM    7  C2  UNL     1     -33.579  17.882  -5.193  1.00 20.00     0.008 A 
HETATM    8  C3  UNL     1     -34.756  17.341  -5.957  1.00 20.00     0.008 A 
ENDBRANCH   5   6
BRANCH   5   9
HETATM    9  C7  UNL     1     -34.308  15.497  -2.515  1.00 20.00     0.035 C 
HETATM   10  C5  UNL     1     -34.753  16.761  -1.790  1.00 20.00     0.008 C 
ENDBRANCH   5   9
BRANCH   5  11
HETATM   11  O11 UNL     1     -32.857  15.387  -4.426  1.00 20.00    -0.388 OA
HETATM   12  H26 UNL     1     -32.854  15.244  -5.382  1.00 20.00     0.210 HD
ENDBRANCH   5  11
ENDBRANCH   3   5
TORSDOF 4
ENDMDL
MODEL 7
REMARK VINA RESULT:      -4.1      2.068      3.108
REMARK  4 active torsions:
REMARK  status: ('A' for Active; 'I' for Inactive)
REMARK    1  A    between atoms: C4_4  and  C9_9 
REMARK    2  A    between atoms: C7_7  and  C9_9 
REMARK    3  A    between atoms: C8_8  and  C9_9 
REMARK    4  A    between atoms: C9_9  and  O11_11 
ROOT
HETATM    1  C1  UNL     1     -34.466  15.671  -2.674  1.00 20.00     0.066 C 
HETATM    2  C6  UNL     1     -33.742  13.612  -3.769  1.00 20.00     0.028 C 
HETATM    3  C8  UNL     1     -34.512  14.930  -3.955  1.00 20.00     0.123 C 
HETATM    4  N10 UNL     1     -34.433  16.250  -1.668  1.00 20.00    -0.197 NA
ENDROOT
BRANCH   3   5
HETATM    5  C9  UNL     1     -33.980  15.797  -5.140  1.00 20.00     0.077 C 
BRANCH   5   6
HETATM    6  C4  UNL     1     -34.215  15.101  -6.470  1.00 20.00     0.021 A 
HETATM    7  C2  UNL     1     -35.601  14.668  -6.864  1.00 20.00     0.008 A 
HETATM    8  C3  UNL     1     -34.940  15.813  -7.579  1.00 20.00     0.008 A 
ENDBRANCH   5   6
BRANCH   5   9
HETATM    9  C7  UNL     1     -34.584  17.228  -5.182  1.00 20.00     0.035 C 
HETATM   10  C5  UNL     1     -33.576  18.368  -5.125  1.00 20.00     0.008 C 
ENDBRANCH   5   9
BRANCH   5  11
HETATM   11  O11 UNL     1     -32.561  15.949  -4.979  1.00 20.00    -0.388 OA
HETATM   12  H26 UNL     1     -32.252  16.412  -5.770  1.00 20.00     0.210 HD
ENDBRANCH   5  11
ENDBRANCH   3   5
TORSDOF 4
ENDMDL
MODEL 8
REMARK VINA RESULT:      -4.1      1.867      3.048
REMARK  4 active torsions:
REMARK  status: ('A' for Active; 'I' for Inactive)
REMARK    1  A    between atoms: C4_4  and  C9_9 
REMARK    2  A    between atoms: C7_7  and  C9_9 
REMARK    3  A    between atoms: C8_8  and  C9_9 
REMARK    4  A    between atoms: C9_9  and  O11_11 
ROOT
HETATM    1  C1  UNL     1     -37.207  15.120  -3.807  1.00 20.00     0.066 C 
HETATM    2  C6  UNL     1     -35.973  16.364  -5.507  1.00 20.00     0.028 C 
HETATM    3  C8  UNL     1     -36.126  16.114  -3.998  1.00 20.00     0.123 C 
HETATM    4  N10 UNL     1     -38.057  14.343  -3.658  1.00 20.00    -0.197 NA
ENDROOT
BRANCH   3   5
HETATM    5  C9  UNL     1     -34.802  15.664  -3.305  1.00 20.00     0.077 C 
BRANCH   5   6
HETATM    6  C4  UNL     1     -34.794  16.061  -1.839  1.00 20.00     0.021 A 
HETATM    7  C2  UNL     1     -33.827  17.100  -1.340  1.00 20.00     0.008 A 
HETATM    8  C3  UNL     1     -35.295  17.416  -1.419  1.00 20.00     0.008 A 
ENDBRANCH   5   6
BRANCH   5   9
HETATM    9  C7  UNL     1     -34.518  14.141  -3.437  1.00 20.00     0.035 C 
HETATM   10  C5  UNL     1     -33.061  13.762  -3.663  1.00 20.00     0.008 C 
ENDBRANCH   5   9
BRANCH   5  11
HETATM   11  O11 UNL     1     -33.711  16.347  -3.942  1.00 20.00    -0.388 OA
HETATM   12  H26 UNL     1     -34.090  17.145  -4.333  1.00 20.00     0.210 HD
ENDBRANCH   5  11
ENDBRANCH   3   5
TORSDOF 4
ENDMDL
MODEL 9
REMARK VINA RESULT:      -4.0      2.132      3.365
REMARK  4 active torsions:
REMARK  status: ('A' for Active; 'I' for Inactive)
REMARK    1  A    between atoms: C4_4  and  C9_9 
REMARK    2  A    between atoms: C7_7  and  C9_9 
REMARK    3  A    between atoms: C8_8  and  C9_9 
REMARK    4  A    between atoms: C9_9  and  O11_11 
ROOT
HETATM    1  C1  UNL     1     -36.603  14.285  -4.148  1.00 20.00     0.066 C 
HETATM    2  C6  UNL     1     -34.267  13.800  -3.628  1.00 20.00     0.028 C 
HETATM    3  C8  UNL     1     -35.257  14.147  -4.751  1.00 20.00     0.123 C 
HETATM    4  N10 UNL     1     -37.658  14.389  -3.675  1.00 20.00    -0.197 NA
ENDROOT
BRANCH   3   5
HETATM    5  C9  UNL     1     -34.857  15.421  -5.559  1.00 20.00     0.077 C 
BRANCH   5   6
HETATM    6  C4  UNL     1     -33.749  16.186  -4.854  1.00 20.00     0.021 A 
HETATM    7  C2  UNL     1     -33.411  17.590  -5.275  1.00 20.00     0.008 A 
HETATM    8  C3  UNL     1     -34.083  17.343  -3.953  1.00 20.00     0.008 A 
ENDBRANCH   5   6
BRANCH   5   9
HETATM    9  C7  UNL     1     -34.435  15.120  -7.025  1.00 20.00     0.035 C 
HETATM   10  C5  UNL     1     -35.511  14.495  -7.902  1.00 20.00     0.008 C 
ENDBRANCH   5   9
BRANCH   5  11
HETATM   11  O11 UNL     1     -36.002  16.286  -5.625  1.00 20.00    -0.388 OA
HETATM   12  H26 UNL     1     -36.270  16.301  -6.554  1.00 20.00     0.210 HD
ENDBRANCH   5  11
ENDBRANCH   3   5
TORSDOF 4
ENDMDL
