MODEL 1
REMARK VINA RESULT:      -4.8      0.000      0.000
REMARK  1 active torsions:
REMARK  status: ('A' for Active; 'I' for Inactive)
REMARK    1  A    between atoms: C6_6  and  C10_10 
ROOT
HETATM    1  C1  UNL     1     -34.255   6.029   6.239  1.00 20.00    -0.025 A 
HETATM    2  C2  UNL     1     -33.791   6.813   5.252  1.00 20.00    -0.020 A 
HETATM    3  C3  UNL     1     -35.548   6.223   3.467  1.00 20.00     0.020 A 
HETATM    4  C4  UNL     1     -34.991   4.842   5.652  1.00 20.00     0.009 A 
HETATM    5  C5  UNL     1     -34.900   5.041   4.141  1.00 20.00     0.006 A 
HETATM    6  C6  UNL     1     -34.101   6.313   3.895  1.00 20.00    -0.015 A 
HETATM    7  C7  UNL     1     -34.354   3.528   6.085  1.00 20.00     0.014 C 
ENDROOT
BRANCH   6   8
HETATM    8  C10 UNL     1     -33.019   6.317   2.863  1.00 20.00    -0.010 C 
HETATM    9  C8  UNL     1     -32.461   7.732   2.627  1.00 20.00     0.010 C 
HETATM   10  C9  UNL     1     -31.867   5.371   3.243  1.00 20.00     0.010 C 
ENDBRANCH   6   8
TORSDOF 1
ENDMDL
MODEL 2
REMARK VINA RESULT:      -4.7     11.398     12.990
REMARK  1 active torsions:
REMARK  status: ('A' for Active; 'I' for Inactive)
REMARK    1  A    between atoms: C6_6  and  C10_10 
ROOT
HETATM    1  C1  UNL     1     -33.050  14.159  -3.734  1.00 20.00    -0.025 A 
HETATM    2  C2  UNL     1     -32.767  15.467  -3.624  1.00 20.00    -0.020 A 
HETATM    3  C3  UNL     1     -34.548  16.076  -1.868  1.00 20.00     0.020 A 
HETATM    4  C4  UNL     1     -34.508  13.917  -3.394  1.00 20.00     0.009 A 
HETATM    5  C5  UNL     1     -35.058  15.299  -3.055  1.00 20.00     0.006 A 
HETATM    6  C6  UNL     1     -33.924  16.299  -3.226  1.00 20.00    -0.015 A 
HETATM    7  C7  UNL     1     -35.249  13.288  -4.567  1.00 20.00     0.014 C 
ENDROOT
BRANCH   6   8
HETATM    8  C10 UNL     1     -34.174  17.579  -3.957  1.00 20.00    -0.010 C 
HETATM    9  C8  UNL     1     -33.713  18.801  -3.141  1.00 20.00     0.010 C 
HETATM   10  C9  UNL     1     -33.482  17.595  -5.331  1.00 20.00     0.010 C 
ENDBRANCH   6   8
TORSDOF 1
ENDMDL
MODEL 3
REMARK VINA RESULT:      -4.6     11.318     12.898
REMARK  1 active torsions:
REMARK  status: ('A' for Active; 'I' for Inactive)
REMARK    1  A    between atoms: C6_6  and  C10_10 
ROOT
HETATM    1  C1  UNL     1     -35.467  14.861  -3.523  1.00 20.00    -0.025 A 
HETATM    2  C2  UNL     1     -35.513  15.960  -2.753  1.00 20.00    -0.020 A 
HETATM    3  C3  UNL     1     -33.747  17.354  -4.003  1.00 20.00     0.020 A 
HETATM    4  C4  UNL     1     -34.097  14.737  -4.162  1.00 20.00     0.009 A 
HETATM    5  C5  UNL     1     -33.324  15.950  -3.652  1.00 20.00     0.006 A 
HETATM    6  C6  UNL     1     -34.247  16.725  -2.723  1.00 20.00    -0.015 A 
HETATM    7  C7  UNL     1     -33.421  13.432  -3.765  1.00 20.00     0.014 C 
ENDROOT
BRANCH   6   8
HETATM    8  C10 UNL     1     -33.731  17.210  -1.406  1.00 20.00    -0.010 C 
HETATM    9  C8  UNL     1     -33.404  18.714  -1.441  1.00 20.00     0.010 C 
HETATM   10  C9  UNL     1     -34.727  16.932  -0.267  1.00 20.00     0.010 C 
ENDBRANCH   6   8
TORSDOF 1
ENDMDL
MODEL 4
REMARK VINA RESULT:      -4.6     11.885     13.294
REMARK  1 active torsions:
REMARK  status: ('A' for Active; 'I' for Inactive)
REMARK    1  A    between atoms: C6_6  and  C10_10 
ROOT
HETATM    1  C1  UNL     1     -36.000  15.528  -3.371  1.00 20.00    -0.025 A 
HETATM    2  C2  UNL     1     -36.116  15.232  -4.676  1.00 20.00    -0.020 A 
HETATM    3  C3  UNL     1     -34.446  13.276  -4.754  1.00 20.00     0.020 A 
HETATM    4  C4  UNL     1     -34.627  15.125  -2.872  1.00 20.00     0.009 A 
HETATM    5  C5  UNL     1     -33.932  14.530  -4.094  1.00 20.00     0.006 A 
HETATM    6  C6  UNL     1     -34.902  14.623  -5.263  1.00 20.00    -0.015 A 
HETATM    7  C7  UNL     1     -33.867  16.325  -2.321  1.00 20.00     0.014 C 
ENDROOT
BRANCH   6   8
HETATM    8  C10 UNL     1     -34.416  15.121  -6.587  1.00 20.00    -0.010 C 
HETATM    9  C8  UNL     1     -35.255  14.561  -7.749  1.00 20.00     0.010 C 
HETATM   10  C9  UNL     1     -34.417  16.658  -6.652  1.00 20.00     0.010 C 
ENDBRANCH   6   8
TORSDOF 1
ENDMDL
MODEL 5
REMARK VINA RESULT:      -4.6     11.633     13.383
REMARK  1 active torsions:
REMARK  status: ('A' for Active; 'I' for Inactive)
REMARK    1  A    between atoms: C6_6  and  C10_10 
ROOT
HETATM    1  C1  UNL     1     -33.896  15.992  -5.994  1.00 20.00    -0.025 A 
HETATM    2  C2  UNL     1     -33.849  16.314  -4.691  1.00 20.00    -0.020 A 
HETATM    3  C3  UNL     1     -33.649  13.932  -3.737  1.00 20.00     0.020 A 
HETATM    4  C4  UNL     1     -34.471  14.600  -6.160  1.00 20.00     0.009 A 
HETATM    5  C5  UNL     1     -34.760  14.130  -4.737  1.00 20.00     0.006 A 
HETATM    6  C6  UNL     1     -34.370  15.259  -3.794  1.00 20.00    -0.015 A 
HETATM    7  C7  UNL     1     -35.734  14.623  -7.012  1.00 20.00     0.014 C 
ENDROOT
BRANCH   6   8
HETATM    8  C10 UNL     1     -35.298  15.649  -2.688  1.00 20.00    -0.010 C 
HETATM    9  C8  UNL     1     -34.540  16.279  -1.504  1.00 20.00     0.010 C 
HETATM   10  C9  UNL     1     -36.384  16.624  -3.173  1.00 20.00     0.010 C 
ENDBRANCH   6   8
TORSDOF 1
ENDMDL
MODEL 6
REMARK VINA RESULT:      -4.5     11.339     12.485
REMARK  1 active torsions:
REMARK  status: ('A' for Active; 'I' for Inactive)
REMARK    1  A    between atoms: C6_6  and  C10_10 
ROOT
HETATM    1  C1  UNL     1     -33.769  17.307  -2.756  1.00 20.00    -0.025 A 
HETATM    2  C2  UNL     1     -33.651  16.330  -3.669  1.00 20.00    -0.020 A 
HETATM    3  C3  UNL     1     -36.143  15.719  -3.871  1.00 20.00     0.020 A 
HETATM    4  C4  UNL     1     -35.002  17.070  -1.905  1.00 20.00     0.009 A 
HETATM    5  C5  UNL     1     -35.613  15.787  -2.462  1.00 20.00     0.006 A 
HETATM    6  C6  UNL     1     -34.716  15.306  -3.593  1.00 20.00    -0.015 A 
HETATM    7  C7  UNL     1     -34.636  16.927  -0.433  1.00 20.00     0.014 C 
ENDROOT
BRANCH   6   8
HETATM    8  C10 UNL     1     -34.332  13.863  -3.668  1.00 20.00    -0.010 C 
HETATM    9  C8  UNL     1     -34.794  13.217  -4.987  1.00 20.00     0.010 C 
HETATM   10  C9  UNL     1     -32.815  13.668  -3.509  1.00 20.00     0.010 C 
ENDBRANCH   6   8
TORSDOF 1
ENDMDL
MODEL 7
REMARK VINA RESULT:      -4.4     11.730     13.107
REMARK  1 active torsions:
REMARK  status: ('A' for Active; 'I' for Inactive)
REMARK    1  A    between atoms: C6_6  and  C10_10 
ROOT
HETATM    1  C1  UNL     1     -34.461  16.931  -1.624  1.00 20.00    -0.025 A 
HETATM    2  C2  UNL     1     -34.817  15.695  -2.010  1.00 20.00    -0.020 A 
HETATM    3  C3  UNL     1     -32.885  15.257  -3.652  1.00 20.00     0.020 A 
HETATM    4  C4  UNL     1     -33.669  17.607  -2.727  1.00 20.00     0.009 A 
HETATM    5  C5  UNL     1     -33.603  16.569  -3.844  1.00 20.00     0.006 A 
HETATM    6  C6  UNL     1     -34.368  15.340  -3.374  1.00 20.00    -0.015 A 
HETATM    7  C7  UNL     1     -34.352  18.888  -3.189  1.00 20.00     0.014 C 
ENDROOT
BRANCH   6   8
HETATM    8  C10 UNL     1     -35.336  14.676  -4.300  1.00 20.00    -0.010 C 
HETATM    9  C8  UNL     1     -34.967  13.202  -4.549  1.00 20.00     0.010 C 
HETATM   10  C9  UNL     1     -36.778  14.757  -3.770  1.00 20.00     0.010 C 
ENDBRANCH   6   8
TORSDOF 1
ENDMDL
MODEL 8
REMARK VINA RESULT:      -4.3      1.168      4.049
REMARK  1 active torsions:
REMARK  status: ('A' for Active; 'I' for Inactive)
REMARK    1  A    between atoms: C6_6  and  C10_10 
ROOT
HETATM    1  C1  UNL     1     -31.299   7.878   3.470  1.00 20.00    -0.025 A 
HETATM    2  C2  UNL     1     -31.856   7.035   4.355  1.00 20.00    -0.020 A 
HETATM    3  C3  UNL     1     -33.044   5.485   2.680  1.00 20.00     0.020 A 
HETATM    4  C4  UNL     1     -32.132   7.920   2.204  1.00 20.00     0.009 A 
HETATM    5  C5  UNL     1     -33.286   6.957   2.470  1.00 20.00     0.006 A 
HETATM    6  C6  UNL     1     -33.106   6.404   3.877  1.00 20.00    -0.015 A 
HETATM    7  C7  UNL     1     -32.631   9.331   1.921  1.00 20.00     0.014 C 
ENDROOT
BRANCH   6   8
HETATM    8  C10 UNL     1     -34.280   6.344   4.801  1.00 20.00    -0.010 C 
HETATM    9  C8  UNL     1     -34.983   4.976   4.740  1.00 20.00     0.010 C 
HETATM   10  C9  UNL     1     -33.876   6.644   6.254  1.00 20.00     0.010 C 
ENDBRANCH   6   8
TORSDOF 1
ENDMDL
MODEL 9
REMARK VINA RESULT:      -4.3     11.643     13.021
REMARK  1 active torsions:
REMARK  status: ('A' for Active; 'I' for Inactive)
REMARK    1  A    between atoms: C6_6  and  C10_10 
ROOT
HETATM    1  C1  UNL     1     -34.253  13.594  -4.682  1.00 20.00    -0.025 A 
HETATM    2  C2  UNL     1     -34.482  14.170  -3.491  1.00 20.00    -0.020 A 
HETATM    3  C3  UNL     1     -36.965  14.750  -3.842  1.00 20.00     0.020 A 
HETATM    4  C4  UNL     1     -35.199  14.163  -5.721  1.00 20.00     0.009 A 
HETATM    5  C5  UNL     1     -36.045  15.178  -4.956  1.00 20.00     0.006 A 
HETATM    6  C6  UNL     1     -35.557  15.188  -3.515  1.00 20.00    -0.015 A 
HETATM    7  C7  UNL     1     -34.434  14.817  -6.864  1.00 20.00     0.014 C 
ENDROOT
BRANCH   6   8
HETATM    8  C10 UNL     1     -35.326  16.493  -2.823  1.00 20.00    -0.010 C 
HETATM    9  C8  UNL     1     -36.644  17.250  -2.580  1.00 20.00     0.010 C 
HETATM   10  C9  UNL     1     -34.592  16.306  -1.484  1.00 20.00     0.010 C 
ENDBRANCH   6   8
TORSDOF 1
ENDMDL
