MODEL 1
REMARK VINA RESULT:      -4.7      0.000      0.000
REMARK  1 active torsions:
REMARK  status: ('A' for Active; 'I' for Inactive)
REMARK    1  A    between atoms: C6_6  and  C10_10 
ROOT
HETATM    1  C1  UNL     1     -35.957  14.769  -3.520  1.00 20.00    -0.025 A 
HETATM    2  C2  UNL     1     -35.660  16.022  -3.140  1.00 20.00    -0.020 A 
HETATM    3  C3  UNL     1     -33.322  16.202  -4.197  1.00 20.00     0.020 A 
HETATM    4  C4  UNL     1     -34.682  13.969  -3.682  1.00 20.00     0.009 A 
HETATM    5  C5  UNL     1     -33.559  14.954  -3.382  1.00 20.00     0.006 A 
HETATM    6  C6  UNL     1     -34.209  16.273  -2.980  1.00 20.00    -0.015 A 
HETATM    7  C7  UNL     1     -34.549  13.348  -5.065  1.00 20.00     0.014 C 
ENDROOT
BRANCH   6   8
HETATM    8  C10 UNL     1     -33.735  16.988  -1.755  1.00 20.00    -0.010 C 
HETATM    9  C8  UNL     1     -33.595  18.501  -1.999  1.00 20.00     0.010 C 
HETATM   10  C9  UNL     1     -34.673  16.749  -0.559  1.00 20.00     0.010 C 
ENDBRANCH   6   8
TORSDOF 1
ENDMDL
MODEL 2
REMARK VINA RESULT:      -4.7     11.522     12.492
REMARK  1 active torsions:
REMARK  status: ('A' for Active; 'I' for Inactive)
REMARK    1  A    between atoms: C6_6  and  C10_10 
ROOT
HETATM    1  C1  UNL     1     -34.042   6.179   6.353  1.00 20.00    -0.025 A 
HETATM    2  C2  UNL     1     -33.682   7.084   5.429  1.00 20.00    -0.020 A 
HETATM    3  C3  UNL     1     -34.533   5.857   3.334  1.00 20.00     0.020 A 
HETATM    4  C4  UNL     1     -34.062   4.797   5.733  1.00 20.00     0.009 A 
HETATM    5  C5  UNL     1     -33.698   5.018   4.270  1.00 20.00     0.006 A 
HETATM    6  C6  UNL     1     -33.402   6.503   4.096  1.00 20.00    -0.015 A 
HETATM    7  C7  UNL     1     -35.404   4.100   5.894  1.00 20.00     0.014 C 
ENDROOT
BRANCH   6   8
HETATM    8  C10 UNL     1     -32.166   6.931   3.371  1.00 20.00    -0.010 C 
HETATM    9  C8  UNL     1     -32.499   7.795   2.142  1.00 20.00     0.010 C 
HETATM   10  C9  UNL     1     -31.205   7.702   4.292  1.00 20.00     0.010 C 
ENDBRANCH   6   8
TORSDOF 1
ENDMDL
MODEL 3
REMARK VINA RESULT:      -4.2      1.377      3.992
REMARK  1 active torsions:
REMARK  status: ('A' for Active; 'I' for Inactive)
REMARK    1  A    between atoms: C6_6  and  C10_10 
ROOT
HETATM    1  C1  UNL     1     -34.205  17.775  -2.960  1.00 20.00    -0.025 A 
HETATM    2  C2  UNL     1     -34.684  17.314  -4.126  1.00 20.00    -0.020 A 
HETATM    3  C3  UNL     1     -35.727  15.121  -3.277  1.00 20.00     0.020 A 
HETATM    4  C4  UNL     1     -33.898  16.612  -2.039  1.00 20.00     0.009 A 
HETATM    5  C5  UNL     1     -34.309  15.372  -2.822  1.00 20.00     0.006 A 
HETATM    6  C6  UNL     1     -34.771  15.837  -4.199  1.00 20.00    -0.015 A 
HETATM    7  C7  UNL     1     -34.617  16.715  -0.703  1.00 20.00     0.014 C 
ENDROOT
BRANCH   6   8
HETATM    8  C10 UNL     1     -34.260  15.147  -5.422  1.00 20.00    -0.010 C 
HETATM    9  C8  UNL     1     -35.217  14.035  -5.889  1.00 20.00     0.010 C 
HETATM   10  C9  UNL     1     -34.026  16.136  -6.577  1.00 20.00     0.010 C 
ENDBRANCH   6   8
TORSDOF 1
ENDMDL
MODEL 4
REMARK VINA RESULT:      -4.1      1.157      3.984
REMARK  1 active torsions:
REMARK  status: ('A' for Active; 'I' for Inactive)
REMARK    1  A    between atoms: C6_6  and  C10_10 
ROOT
HETATM    1  C1  UNL     1     -33.448  16.164  -2.698  1.00 20.00    -0.025 A 
HETATM    2  C2  UNL     1     -33.634  15.921  -4.005  1.00 20.00    -0.020 A 
HETATM    3  C3  UNL     1     -36.115  16.580  -4.171  1.00 20.00     0.020 A 
HETATM    4  C4  UNL     1     -34.756  15.993  -1.955  1.00 20.00     0.009 A 
HETATM    5  C5  UNL     1     -35.777  15.648  -3.031  1.00 20.00     0.006 A 
HETATM    6  C6  UNL     1     -35.026  15.553  -4.354  1.00 20.00    -0.015 A 
HETATM    7  C7  UNL     1     -35.149  17.232  -1.163  1.00 20.00     0.014 C 
ENDROOT
BRANCH   6   8
HETATM    8  C10 UNL     1     -35.255  14.379  -5.252  1.00 20.00    -0.010 C 
HETATM    9  C8  UNL     1     -34.909  14.707  -6.715  1.00 20.00     0.010 C 
HETATM   10  C9  UNL     1     -34.445  13.151  -4.799  1.00 20.00     0.010 C 
ENDBRANCH   6   8
TORSDOF 1
ENDMDL
MODEL 5
REMARK VINA RESULT:      -4.1     11.348     12.457
REMARK  1 active torsions:
REMARK  status: ('A' for Active; 'I' for Inactive)
REMARK    1  A    between atoms: C6_6  and  C10_10 
ROOT
HETATM    1  C1  UNL     1     -32.971   5.654   2.208  1.00 20.00    -0.025 A 
HETATM    2  C2  UNL     1     -33.980   5.211   2.974  1.00 20.00    -0.020 A 
HETATM    3  C3  UNL     1     -34.334   7.320   4.405  1.00 20.00     0.020 A 
HETATM    4  C4  UNL     1     -32.180   6.703   2.961  1.00 20.00     0.009 A 
HETATM    5  C5  UNL     1     -32.901   6.856   4.294  1.00 20.00     0.006 A 
HETATM    6  C6  UNL     1     -34.040   5.843   4.313  1.00 20.00    -0.015 A 
HETATM    7  C7  UNL     1     -32.081   8.019   2.205  1.00 20.00     0.014 C 
ENDROOT
BRANCH   6   8
HETATM    8  C10 UNL     1     -34.234   4.970   5.511  1.00 20.00    -0.010 C 
HETATM    9  C8  UNL     1     -34.790   5.763   6.707  1.00 20.00     0.010 C 
HETATM   10  C9  UNL     1     -35.167   3.785   5.206  1.00 20.00     0.010 C 
ENDBRANCH   6   8
TORSDOF 1
ENDMDL
MODEL 6
REMARK VINA RESULT:      -4.0      1.307      1.446
REMARK  1 active torsions:
REMARK  status: ('A' for Active; 'I' for Inactive)
REMARK    1  A    between atoms: C6_6  and  C10_10 
ROOT
HETATM    1  C1  UNL     1     -35.701  15.332  -4.863  1.00 20.00    -0.025 A 
HETATM    2  C2  UNL     1     -35.620  16.292  -3.928  1.00 20.00    -0.020 A 
HETATM    3  C3  UNL     1     -33.532  17.512  -4.806  1.00 20.00     0.020 A 
HETATM    4  C4  UNL     1     -34.322  15.041  -5.416  1.00 20.00     0.009 A 
HETATM    5  C5  UNL     1     -33.396  16.013  -4.695  1.00 20.00     0.006 A 
HETATM    6  C6  UNL     1     -34.244  16.786  -3.692  1.00 20.00    -0.015 A 
HETATM    7  C7  UNL     1     -34.252  15.193  -6.929  1.00 20.00     0.014 C 
ENDROOT
BRANCH   6   8
HETATM    8  C10 UNL     1     -33.767  16.938  -2.283  1.00 20.00    -0.010 C 
HETATM    9  C8  UNL     1     -33.510  18.413  -1.926  1.00 20.00     0.010 C 
HETATM   10  C9  UNL     1     -34.764  16.336  -1.278  1.00 20.00     0.010 C 
ENDBRANCH   6   8
TORSDOF 1
ENDMDL
MODEL 7
REMARK VINA RESULT:      -4.0      1.905      3.880
REMARK  1 active torsions:
REMARK  status: ('A' for Active; 'I' for Inactive)
REMARK    1  A    between atoms: C6_6  and  C10_10 
ROOT
HETATM    1  C1  UNL     1     -34.441  14.478  -3.342  1.00 20.00    -0.025 A 
HETATM    2  C2  UNL     1     -34.024  14.680  -4.602  1.00 20.00    -0.020 A 
HETATM    3  C3  UNL     1     -33.770  17.239  -4.519  1.00 20.00     0.020 A 
HETATM    4  C4  UNL     1     -35.164  15.710  -2.839  1.00 20.00     0.009 A 
HETATM    5  C5  UNL     1     -35.080  16.710  -3.986  1.00 20.00     0.006 A 
HETATM    6  C6  UNL     1     -34.381  16.011  -5.146  1.00 20.00    -0.015 A 
HETATM    7  C7  UNL     1     -34.566  16.257  -1.552  1.00 20.00     0.014 C 
ENDROOT
BRANCH   6   8
HETATM    8  C10 UNL     1     -34.968  16.091  -6.519  1.00 20.00    -0.010 C 
HETATM    9  C8  UNL     1     -34.430  17.305  -7.297  1.00 20.00     0.010 C 
HETATM   10  C9  UNL     1     -34.703  14.809  -7.326  1.00 20.00     0.010 C 
ENDBRANCH   6   8
TORSDOF 1
ENDMDL
MODEL 8
REMARK VINA RESULT:      -4.0      2.268      3.867
REMARK  1 active torsions:
REMARK  status: ('A' for Active; 'I' for Inactive)
REMARK    1  A    between atoms: C6_6  and  C10_10 
ROOT
HETATM    1  C1  UNL     1     -33.646  17.773  -5.706  1.00 20.00    -0.025 A 
HETATM    2  C2  UNL     1     -33.265  16.657  -5.064  1.00 20.00    -0.020 A 
HETATM    3  C3  UNL     1     -34.388  14.925  -6.598  1.00 20.00     0.020 A 
HETATM    4  C4  UNL     1     -34.953  17.524  -6.430  1.00 20.00     0.009 A 
HETATM    5  C5  UNL     1     -35.279  16.061  -6.158  1.00 20.00     0.006 A 
HETATM    6  C6  UNL     1     -34.201  15.521  -5.226  1.00 20.00    -0.015 A 
HETATM    7  C7  UNL     1     -34.867  17.828  -7.918  1.00 20.00     0.014 C 
ENDROOT
BRANCH   6   8
HETATM    8  C10 UNL     1     -34.595  14.737  -4.015  1.00 20.00    -0.010 C 
HETATM    9  C8  UNL     1     -33.748  13.461  -3.864  1.00 20.00     0.010 C 
HETATM   10  C9  UNL     1     -34.483  15.579  -2.732  1.00 20.00     0.010 C 
ENDBRANCH   6   8
TORSDOF 1
ENDMDL
MODEL 9
REMARK VINA RESULT:      -4.0      1.037      3.945
REMARK  1 active torsions:
REMARK  status: ('A' for Active; 'I' for Inactive)
REMARK    1  A    between atoms: C6_6  and  C10_10 
ROOT
HETATM    1  C1  UNL     1     -33.632  17.396  -3.543  1.00 20.00    -0.025 A 
HETATM    2  C2  UNL     1     -33.946  16.299  -4.251  1.00 20.00    -0.020 A 
HETATM    3  C3  UNL     1     -36.110  15.652  -3.021  1.00 20.00     0.020 A 
HETATM    4  C4  UNL     1     -34.189  17.275  -2.140  1.00 20.00     0.009 A 
HETATM    5  C5  UNL     1     -34.930  15.944  -2.126  1.00 20.00     0.006 A 
HETATM    6  C6  UNL     1     -34.722  15.294  -3.488  1.00 20.00    -0.015 A 
HETATM    7  C7  UNL     1     -35.090  18.441  -1.763  1.00 20.00     0.014 C 
ENDROOT
BRANCH   6   8
HETATM    8  C10 UNL     1     -34.311  13.859  -3.568  1.00 20.00    -0.010 C 
HETATM    9  C8  UNL     1     -34.857  13.181  -4.837  1.00 20.00     0.010 C 
HETATM   10  C9  UNL     1     -32.781  13.702  -3.524  1.00 20.00     0.010 C 
ENDBRANCH   6   8
TORSDOF 1
ENDMDL
