MODEL 1
REMARK VINA RESULT:      -4.7      0.000      0.000
REMARK  0 active torsions:
REMARK  status: ('A' for Active; 'I' for Inactive)
ROOT
HETATM    1  C1  UNL     1     -34.010   5.588   3.047  1.00 20.00    -0.058 C 
HETATM    2  C2  UNL     1     -33.091   6.636   3.494  1.00 20.00    -0.061 C 
HETATM    3  C3  UNL     1     -34.818   5.300   5.399  1.00 20.00    -0.085 C 
HETATM    4  C4  UNL     1     -33.795   4.854   1.943  1.00 20.00     0.020 C 
HETATM    5  C5  UNL     1     -32.628   7.598   2.681  1.00 20.00     0.019 C 
HETATM    6  C6  UNL     1     -35.188   4.302   6.215  1.00 20.00     0.014 C 
HETATM    7  C7  UNL     1     -35.208   5.349   3.942  1.00 20.00     0.071 C 
HETATM    8  C8  UNL     1     -32.725   6.582   4.961  1.00 20.00     0.042 C 
HETATM    9  C9  UNL     1     -33.959   6.449   5.861  1.00 20.00     0.038 C 
ENDROOT
TORSDOF 0
ENDMDL
MODEL 2
REMARK VINA RESULT:      -4.7      0.823      3.283
REMARK  0 active torsions:
REMARK  status: ('A' for Active; 'I' for Inactive)
ROOT
HETATM    1  C1  UNL     1     -34.648   5.671   3.918  1.00 20.00    -0.058 C 
HETATM    2  C2  UNL     1     -34.251   5.825   5.318  1.00 20.00    -0.061 C 
HETATM    3  C3  UNL     1     -32.604   6.927   3.204  1.00 20.00    -0.085 C 
HETATM    4  C4  UNL     1     -35.925   5.495   3.539  1.00 20.00     0.020 C 
HETATM    5  C5  UNL     1     -34.652   4.989   6.288  1.00 20.00     0.019 C 
HETATM    6  C6  UNL     1     -32.260   7.833   2.277  1.00 20.00     0.014 C 
HETATM    7  C7  UNL     1     -33.524   5.767   2.908  1.00 20.00     0.071 C 
HETATM    8  C8  UNL     1     -33.314   6.981   5.593  1.00 20.00     0.042 C 
HETATM    9  C9  UNL     1     -32.122   7.002   4.630  1.00 20.00     0.038 C 
ENDROOT
TORSDOF 0
ENDMDL
MODEL 3
REMARK VINA RESULT:      -4.4     11.464     12.769
REMARK  0 active torsions:
REMARK  status: ('A' for Active; 'I' for Inactive)
ROOT
HETATM    1  C1  UNL     1     -35.006  14.611  -4.177  1.00 20.00    -0.058 C 
HETATM    2  C2  UNL     1     -34.188  15.393  -5.104  1.00 20.00    -0.061 C 
HETATM    3  C3  UNL     1     -34.731  16.390  -2.438  1.00 20.00    -0.085 C 
HETATM    4  C4  UNL     1     -35.128  13.276  -4.264  1.00 20.00     0.020 C 
HETATM    5  C5  UNL     1     -34.273  15.270  -6.438  1.00 20.00     0.019 C 
HETATM    6  C6  UNL     1     -34.555  16.473  -1.111  1.00 20.00     0.014 C 
HETATM    7  C7  UNL     1     -35.678  15.402  -3.075  1.00 20.00     0.071 C 
HETATM    8  C8  UNL     1     -33.258  16.392  -4.450  1.00 20.00     0.042 C 
HETATM    9  C9  UNL     1     -33.978  17.260  -3.412  1.00 20.00     0.038 C 
ENDROOT
TORSDOF 0
ENDMDL
MODEL 4
REMARK VINA RESULT:      -4.4     11.644     12.502
REMARK  0 active torsions:
REMARK  status: ('A' for Active; 'I' for Inactive)
ROOT
HETATM    1  C1  UNL     1     -35.956  15.936  -3.031  1.00 20.00    -0.058 C 
HETATM    2  C2  UNL     1     -34.695  16.059  -2.299  1.00 20.00    -0.061 C 
HETATM    3  C3  UNL     1     -34.928  14.191  -4.502  1.00 20.00    -0.085 C 
HETATM    4  C4  UNL     1     -36.857  16.930  -3.100  1.00 20.00     0.020 C 
HETATM    5  C5  UNL     1     -34.623  16.504  -1.035  1.00 20.00     0.019 C 
HETATM    6  C6  UNL     1     -34.953  13.830  -5.793  1.00 20.00     0.014 C 
HETATM    7  C7  UNL     1     -36.165  14.621  -3.751  1.00 20.00     0.071 C 
HETATM    8  C8  UNL     1     -33.467  15.606  -3.059  1.00 20.00     0.042 C 
HETATM    9  C9  UNL     1     -33.656  14.224  -3.693  1.00 20.00     0.038 C 
ENDROOT
TORSDOF 0
ENDMDL
MODEL 5
REMARK VINA RESULT:      -4.2     11.716     13.476
REMARK  0 active torsions:
REMARK  status: ('A' for Active; 'I' for Inactive)
ROOT
HETATM    1  C1  UNL     1     -33.968  16.457  -5.462  1.00 20.00    -0.058 C 
HETATM    2  C2  UNL     1     -34.648  15.273  -5.991  1.00 20.00    -0.061 C 
HETATM    3  C3  UNL     1     -34.229  15.563  -3.138  1.00 20.00    -0.085 C 
HETATM    4  C4  UNL     1     -33.949  17.634  -6.109  1.00 20.00     0.020 C 
HETATM    5  C5  UNL     1     -34.473  14.829  -7.245  1.00 20.00     0.019 C 
HETATM    6  C6  UNL     1     -34.497  16.032  -1.911  1.00 20.00     0.014 C 
HETATM    7  C7  UNL     1     -33.320  16.283  -4.105  1.00 20.00     0.071 C 
HETATM    8  C8  UNL     1     -35.541  14.554  -5.003  1.00 20.00     0.042 C 
HETATM    9  C9  UNL     1     -34.833  14.289  -3.670  1.00 20.00     0.038 C 
ENDROOT
TORSDOF 0
ENDMDL
MODEL 6
REMARK VINA RESULT:      -4.2      0.468      2.451
REMARK  0 active torsions:
REMARK  status: ('A' for Active; 'I' for Inactive)
ROOT
HETATM    1  C1  UNL     1     -33.140   6.478   3.404  1.00 20.00    -0.058 C 
HETATM    2  C2  UNL     1     -34.176   5.544   2.962  1.00 20.00    -0.061 C 
HETATM    3  C3  UNL     1     -33.917   6.215   5.769  1.00 20.00    -0.085 C 
HETATM    4  C4  UNL     1     -32.615   7.417   2.599  1.00 20.00     0.020 C 
HETATM    5  C5  UNL     1     -34.083   4.830   1.830  1.00 20.00     0.019 C 
HETATM    6  C6  UNL     1     -34.085   6.980   6.858  1.00 20.00     0.014 C 
HETATM    7  C7  UNL     1     -32.724   6.350   4.854  1.00 20.00     0.071 C 
HETATM    8  C8  UNL     1     -35.356   5.407   3.900  1.00 20.00     0.042 C 
HETATM    9  C9  UNL     1     -34.918   5.169   5.349  1.00 20.00     0.038 C 
ENDROOT
TORSDOF 0
ENDMDL
MODEL 7
REMARK VINA RESULT:      -4.2     11.173     12.588
REMARK  0 active torsions:
REMARK  status: ('A' for Active; 'I' for Inactive)
ROOT
HETATM    1  C1  UNL     1     -34.763  16.332  -2.089  1.00 20.00    -0.058 C 
HETATM    2  C2  UNL     1     -36.073  16.336  -2.741  1.00 20.00    -0.061 C 
HETATM    3  C3  UNL     1     -33.967  14.596  -3.708  1.00 20.00    -0.085 C 
HETATM    4  C4  UNL     1     -34.587  16.691  -0.807  1.00 20.00     0.020 C 
HETATM    5  C5  UNL     1     -36.911  17.383  -2.693  1.00 20.00     0.019 C 
HETATM    6  C6  UNL     1     -33.195  13.499  -3.700  1.00 20.00     0.014 C 
HETATM    7  C7  UNL     1     -33.611  15.849  -2.946  1.00 20.00     0.071 C 
HETATM    8  C8  UNL     1     -36.406  15.079  -3.516  1.00 20.00     0.042 C 
HETATM    9  C9  UNL     1     -35.272  14.664  -4.460  1.00 20.00     0.038 C 
ENDROOT
TORSDOF 0
ENDMDL
MODEL 8
REMARK VINA RESULT:      -4.2      9.279     10.474
REMARK  0 active torsions:
REMARK  status: ('A' for Active; 'I' for Inactive)
ROOT
HETATM    1  C1  UNL     1     -42.598   6.425  -2.765  1.00 20.00    -0.058 C 
HETATM    2  C2  UNL     1     -41.966   6.872  -1.523  1.00 20.00    -0.061 C 
HETATM    3  C3  UNL     1     -41.919   4.069  -2.257  1.00 20.00    -0.085 C 
HETATM    4  C4  UNL     1     -42.774   7.233  -3.824  1.00 20.00     0.020 C 
HETATM    5  C5  UNL     1     -42.327   7.994  -0.882  1.00 20.00     0.019 C 
HETATM    6  C6  UNL     1     -41.472   2.993  -2.920  1.00 20.00     0.014 C 
HETATM    7  C7  UNL     1     -43.005   4.967  -2.799  1.00 20.00     0.071 C 
HETATM    8  C8  UNL     1     -40.893   5.952  -0.984  1.00 20.00     0.042 C 
HETATM    9  C9  UNL     1     -41.358   4.492  -0.924  1.00 20.00     0.038 C 
ENDROOT
TORSDOF 0
ENDMDL
MODEL 9
REMARK VINA RESULT:      -4.2     11.709     13.396
REMARK  0 active torsions:
REMARK  status: ('A' for Active; 'I' for Inactive)
ROOT
HETATM    1  C1  UNL     1     -34.127  15.427  -5.556  1.00 20.00    -0.058 C 
HETATM    2  C2  UNL     1     -34.570  14.449  -4.562  1.00 20.00    -0.061 C 
HETATM    3  C3  UNL     1     -33.696  17.083  -3.728  1.00 20.00    -0.085 C 
HETATM    4  C4  UNL     1     -34.534  15.400  -6.836  1.00 20.00     0.020 C 
HETATM    5  C5  UNL     1     -34.534  13.124  -4.773  1.00 20.00     0.019 C 
HETATM    6  C6  UNL     1     -33.832  18.400  -3.520  1.00 20.00     0.014 C 
HETATM    7  C7  UNL     1     -33.205  16.511  -5.036  1.00 20.00     0.071 C 
HETATM    8  C8  UNL     1     -35.041  15.038  -3.250  1.00 20.00     0.042 C 
HETATM    9  C9  UNL     1     -34.045  16.055  -2.682  1.00 20.00     0.038 C 
ENDROOT
TORSDOF 0
ENDMDL
