MODEL 1
REMARK VINA RESULT:      -4.2      0.000      0.000
REMARK  4 active torsions:
REMARK  status: ('A' for Active; 'I' for Inactive)
REMARK    1  A    between atoms: C2_2  and  C9_9 
REMARK    2  A    between atoms: C5_5  and  C9_9 
REMARK    3  A    between atoms: C8_8  and  C9_9 
REMARK    4  A    between atoms: C9_9  and  O10_10 
ROOT
HETATM    1  C9  UNL     1     -34.836  15.651  -3.251  1.00 20.00     0.083 C 
ENDROOT
BRANCH   1   2
HETATM    2  C2  UNL     1     -34.446  14.249  -3.742  1.00 20.00    -0.059 C 
HETATM    3  C1  UNL     1     -35.294  13.406  -4.356  1.00 20.00     0.017 C 
HETATM    4  C6  UNL     1     -33.016  13.816  -3.521  1.00 20.00     0.046 C 
ENDBRANCH   1   2
BRANCH   1   5
HETATM    5  C5  UNL     1     -33.974  16.241  -2.145  1.00 20.00     0.024 A 
HETATM    6  C3  UNL     1     -34.103  17.692  -1.777  1.00 20.00     0.008 A 
HETATM    7  C4  UNL     1     -34.592  16.631  -0.832  1.00 20.00     0.008 A 
ENDBRANCH   1   5
BRANCH   1   8
HETATM    8  C8  UNL     1     -34.938  16.663  -4.424  1.00 20.00     0.038 C 
HETATM    9  C7  UNL     1     -33.700  16.769  -5.305  1.00 20.00     0.008 C 
ENDBRANCH   1   8
BRANCH   1  10
HETATM   10  O10 UNL     1     -36.168  15.560  -2.710  1.00 20.00    -0.385 OA
HETATM   11  H26 UNL     1     -36.345  14.617  -2.609  1.00 20.00     0.211 HD
ENDBRANCH   1  10
TORSDOF 4
ENDMDL
MODEL 2
REMARK VINA RESULT:      -4.2      0.078      1.103
REMARK  4 active torsions:
REMARK  status: ('A' for Active; 'I' for Inactive)
REMARK    1  A    between atoms: C2_2  and  C9_9 
REMARK    2  A    between atoms: C5_5  and  C9_9 
REMARK    3  A    between atoms: C8_8  and  C9_9 
REMARK    4  A    between atoms: C9_9  and  O10_10 
ROOT
HETATM    1  C9  UNL     1     -34.756  15.655  -3.215  1.00 20.00     0.083 C 
ENDROOT
BRANCH   1   2
HETATM    2  C2  UNL     1     -34.312  14.267  -3.700  1.00 20.00    -0.059 C 
HETATM    3  C1  UNL     1     -33.069  13.780  -3.545  1.00 20.00     0.017 C 
HETATM    4  C6  UNL     1     -35.354  13.410  -4.379  1.00 20.00     0.046 C 
ENDBRANCH   1   2
BRANCH   1   5
HETATM    5  C5  UNL     1     -33.929  16.273  -2.096  1.00 20.00     0.024 A 
HETATM    6  C3  UNL     1     -34.101  17.723  -1.741  1.00 20.00     0.008 A 
HETATM    7  C4  UNL     1     -34.582  16.656  -0.798  1.00 20.00     0.008 A 
ENDBRANCH   1   5
BRANCH   1   8
HETATM    8  C8  UNL     1     -34.876  16.663  -4.389  1.00 20.00     0.038 C 
HETATM    9  C7  UNL     1     -33.653  16.760  -5.293  1.00 20.00     0.008 C 
ENDBRANCH   1   8
BRANCH   1  10
HETATM   10  O10 UNL     1     -36.092  15.519  -2.691  1.00 20.00    -0.385 OA
HETATM   11  H26 UNL     1     -36.664  15.984  -3.314  1.00 20.00     0.211 HD
ENDBRANCH   1  10
TORSDOF 4
ENDMDL
MODEL 3
REMARK VINA RESULT:      -4.1      0.637      3.306
REMARK  4 active torsions:
REMARK  status: ('A' for Active; 'I' for Inactive)
REMARK    1  A    between atoms: C2_2  and  C9_9 
REMARK    2  A    between atoms: C5_5  and  C9_9 
REMARK    3  A    between atoms: C8_8  and  C9_9 
REMARK    4  A    between atoms: C9_9  and  O10_10 
ROOT
HETATM    1  C9  UNL     1     -34.964  15.618  -3.295  1.00 20.00     0.083 C 
ENDROOT
BRANCH   1   2
HETATM    2  C2  UNL     1     -35.011  16.446  -4.588  1.00 20.00    -0.059 C 
HETATM    3  C1  UNL     1     -36.109  16.584  -5.351  1.00 20.00     0.017 C 
HETATM    4  C6  UNL     1     -33.739  17.147  -5.003  1.00 20.00     0.046 C 
ENDBRANCH   1   2
BRANCH   1   5
HETATM    5  C5  UNL     1     -34.672  14.133  -3.458  1.00 20.00     0.024 A 
HETATM    6  C3  UNL     1     -34.334  13.572  -4.810  1.00 20.00     0.008 A 
HETATM    7  C4  UNL     1     -33.274  13.665  -3.748  1.00 20.00     0.008 A 
ENDBRANCH   1   5
BRANCH   1   8
HETATM    8  C8  UNL     1     -33.985  16.229  -2.257  1.00 20.00     0.038 C 
HETATM    9  C7  UNL     1     -34.606  16.608  -0.918  1.00 20.00     0.008 C 
ENDBRANCH   1   8
BRANCH   1  10
HETATM   10  O10 UNL     1     -36.267  15.701  -2.685  1.00 20.00    -0.385 OA
HETATM   11  H26 UNL     1     -36.404  16.636  -2.490  1.00 20.00     0.211 HD
ENDBRANCH   1  10
TORSDOF 4
ENDMDL
MODEL 4
REMARK VINA RESULT:      -4.1      1.585      3.495
REMARK  4 active torsions:
REMARK  status: ('A' for Active; 'I' for Inactive)
REMARK    1  A    between atoms: C2_2  and  C9_9 
REMARK    2  A    between atoms: C5_5  and  C9_9 
REMARK    3  A    between atoms: C8_8  and  C9_9 
REMARK    4  A    between atoms: C9_9  and  O10_10 
ROOT
HETATM    1  C9  UNL     1     -33.969  15.784  -4.027  1.00 20.00     0.083 C 
ENDROOT
BRANCH   1   2
HETATM    2  C2  UNL     1     -34.044  16.812  -2.888  1.00 20.00    -0.059 C 
HETATM    3  C1  UNL     1     -33.737  18.113  -3.029  1.00 20.00     0.017 C 
HETATM    4  C6  UNL     1     -34.503  16.311  -1.539  1.00 20.00     0.046 C 
ENDBRANCH   1   2
BRANCH   1   5
HETATM    5  C5  UNL     1     -34.243  14.336  -3.646  1.00 20.00     0.024 A 
HETATM    6  C3  UNL     1     -35.511  13.664  -4.091  1.00 20.00     0.008 A 
HETATM    7  C4  UNL     1     -34.193  13.257  -4.691  1.00 20.00     0.008 A 
ENDBRANCH   1   5
BRANCH   1   8
HETATM    8  C8  UNL     1     -34.873  16.185  -5.224  1.00 20.00     0.038 C 
HETATM    9  C7  UNL     1     -34.140  16.471  -6.528  1.00 20.00     0.008 C 
ENDBRANCH   1   8
BRANCH   1  10
HETATM   10  O10 UNL     1     -32.623  15.811  -4.540  1.00 20.00    -0.385 OA
HETATM   11  H26 UNL     1     -32.671  15.413  -5.418  1.00 20.00     0.211 HD
ENDBRANCH   1  10
TORSDOF 4
ENDMDL
MODEL 5
REMARK VINA RESULT:      -4.0      1.621      3.218
REMARK  4 active torsions:
REMARK  status: ('A' for Active; 'I' for Inactive)
REMARK    1  A    between atoms: C2_2  and  C9_9 
REMARK    2  A    between atoms: C5_5  and  C9_9 
REMARK    3  A    between atoms: C8_8  and  C9_9 
REMARK    4  A    between atoms: C9_9  and  O10_10 
ROOT
HETATM    1  C9  UNL     1     -33.782  15.743  -4.137  1.00 20.00     0.083 C 
ENDROOT
BRANCH   1   2
HETATM    2  C2  UNL     1     -34.057  14.237  -4.008  1.00 20.00    -0.059 C 
HETATM    3  C1  UNL     1     -33.136  13.337  -3.622  1.00 20.00     0.017 C 
HETATM    4  C6  UNL     1     -35.454  13.762  -4.329  1.00 20.00     0.046 C 
ENDBRANCH   1   2
BRANCH   1   5
HETATM    5  C5  UNL     1     -34.786  16.541  -4.956  1.00 20.00     0.024 A 
HETATM    6  C3  UNL     1     -34.453  17.934  -5.412  1.00 20.00     0.008 A 
HETATM    7  C4  UNL     1     -34.529  16.814  -6.411  1.00 20.00     0.008 A 
ENDBRANCH   1   5
BRANCH   1   8
HETATM    8  C8  UNL     1     -33.592  16.413  -2.750  1.00 20.00     0.038 C 
HETATM    9  C7  UNL     1     -34.739  16.214  -1.766  1.00 20.00     0.008 C 
ENDBRANCH   1   8
BRANCH   1  10
HETATM   10  O10 UNL     1     -32.516  15.891  -4.809  1.00 20.00    -0.385 OA
HETATM   11  H26 UNL     1     -31.893  16.177  -4.130  1.00 20.00     0.211 HD
ENDBRANCH   1  10
TORSDOF 4
ENDMDL
MODEL 6
REMARK VINA RESULT:      -4.0      1.496      2.859
REMARK  4 active torsions:
REMARK  status: ('A' for Active; 'I' for Inactive)
REMARK    1  A    between atoms: C2_2  and  C9_9 
REMARK    2  A    between atoms: C5_5  and  C9_9 
REMARK    3  A    between atoms: C8_8  and  C9_9 
REMARK    4  A    between atoms: C9_9  and  O10_10 
ROOT
HETATM    1  C9  UNL     1     -33.833  15.681  -3.735  1.00 20.00     0.083 C 
ENDROOT
BRANCH   1   2
HETATM    2  C2  UNL     1     -34.373  16.618  -4.826  1.00 20.00    -0.059 C 
HETATM    3  C1  UNL     1     -33.597  17.397  -5.598  1.00 20.00     0.017 C 
HETATM    4  C6  UNL     1     -35.869  16.642  -5.033  1.00 20.00     0.046 C 
ENDBRANCH   1   2
BRANCH   1   5
HETATM    5  C5  UNL     1     -33.591  16.308  -2.369  1.00 20.00     0.024 A 
HETATM    6  C3  UNL     1     -34.225  17.624  -2.018  1.00 20.00     0.008 A 
HETATM    7  C4  UNL     1     -34.698  16.360  -1.355  1.00 20.00     0.008 A 
ENDBRANCH   1   5
BRANCH   1   8
HETATM    8  C8  UNL     1     -34.717  14.415  -3.576  1.00 20.00     0.038 C 
HETATM    9  C7  UNL     1     -34.458  13.306  -4.589  1.00 20.00     0.008 C 
ENDBRANCH   1   8
BRANCH   1  10
HETATM   10  O10 UNL     1     -32.551  15.198  -4.182  1.00 20.00    -0.385 OA
HETATM   11  H26 UNL     1     -32.537  15.340  -5.136  1.00 20.00     0.211 HD
ENDBRANCH   1  10
TORSDOF 4
ENDMDL
MODEL 7
REMARK VINA RESULT:      -4.0      1.979      3.189
REMARK  4 active torsions:
REMARK  status: ('A' for Active; 'I' for Inactive)
REMARK    1  A    between atoms: C2_2  and  C9_9 
REMARK    2  A    between atoms: C5_5  and  C9_9 
REMARK    3  A    between atoms: C8_8  and  C9_9 
REMARK    4  A    between atoms: C9_9  and  O10_10 
ROOT
HETATM    1  C9  UNL     1     -35.273  14.300  -4.507  1.00 20.00     0.083 C 
ENDROOT
BRANCH   1   2
HETATM    2  C2  UNL     1     -34.056  14.549  -3.602  1.00 20.00    -0.059 C 
HETATM    3  C1  UNL     1     -32.983  13.741  -3.549  1.00 20.00     0.017 C 
HETATM    4  C6  UNL     1     -34.084  15.787  -2.738  1.00 20.00     0.046 C 
ENDBRANCH   1   2
BRANCH   1   5
HETATM    5  C5  UNL     1     -36.447  15.252  -4.331  1.00 20.00     0.024 A 
HETATM    6  C3  UNL     1     -37.636  15.164  -5.247  1.00 20.00     0.008 A 
HETATM    7  C4  UNL     1     -37.761  14.743  -3.810  1.00 20.00     0.008 A 
ENDBRANCH   1   5
BRANCH   1   8
HETATM    8  C8  UNL     1     -34.873  14.240  -6.005  1.00 20.00     0.038 C 
HETATM    9  C7  UNL     1     -34.237  15.508  -6.563  1.00 20.00     0.008 C 
ENDBRANCH   1   8
BRANCH   1  10
HETATM   10  O10 UNL     1     -35.777  12.987  -4.194  1.00 20.00    -0.385 OA
HETATM   11  H26 UNL     1     -35.187  12.368  -4.641  1.00 20.00     0.211 HD
ENDBRANCH   1  10
TORSDOF 4
ENDMDL
MODEL 8
REMARK VINA RESULT:      -4.0      2.102      3.653
REMARK  4 active torsions:
REMARK  status: ('A' for Active; 'I' for Inactive)
REMARK    1  A    between atoms: C2_2  and  C9_9 
REMARK    2  A    between atoms: C5_5  and  C9_9 
REMARK    3  A    between atoms: C8_8  and  C9_9 
REMARK    4  A    between atoms: C9_9  and  O10_10 
ROOT
HETATM    1  C9  UNL     1     -33.957  15.748  -4.986  1.00 20.00     0.083 C 
ENDROOT
BRANCH   1   2
HETATM    2  C2  UNL     1     -34.262  14.978  -3.692  1.00 20.00    -0.059 C 
HETATM    3  C1  UNL     1     -34.266  13.636  -3.601  1.00 20.00     0.017 C 
HETATM    4  C6  UNL     1     -34.561  15.796  -2.459  1.00 20.00     0.046 C 
ENDBRANCH   1   2
BRANCH   1   5
HETATM    5  C5  UNL     1     -34.327  15.051  -6.287  1.00 20.00     0.024 A 
HETATM    6  C3  UNL     1     -35.762  14.985  -6.728  1.00 20.00     0.008 A 
HETATM    7  C4  UNL     1     -34.787  15.855  -7.470  1.00 20.00     0.008 A 
ENDBRANCH   1   5
BRANCH   1   8
HETATM    8  C8  UNL     1     -34.574  17.172  -4.966  1.00 20.00     0.038 C 
HETATM    9  C7  UNL     1     -33.572  18.319  -5.023  1.00 20.00     0.008 C 
ENDBRANCH   1   8
BRANCH   1  10
HETATM   10  O10 UNL     1     -32.531  15.952  -5.037  1.00 20.00    -0.385 OA
HETATM   11  H26 UNL     1     -32.142  15.182  -4.604  1.00 20.00     0.211 HD
ENDBRANCH   1  10
TORSDOF 4
ENDMDL
MODEL 9
REMARK VINA RESULT:      -3.9     11.098     12.375
REMARK  4 active torsions:
REMARK  status: ('A' for Active; 'I' for Inactive)
REMARK    1  A    between atoms: C2_2  and  C9_9 
REMARK    2  A    between atoms: C5_5  and  C9_9 
REMARK    3  A    between atoms: C8_8  and  C9_9 
REMARK    4  A    between atoms: C9_9  and  O10_10 
ROOT
HETATM    1  C9  UNL     1     -33.909   6.285   4.216  1.00 20.00     0.083 C 
ENDROOT
BRANCH   1   2
HETATM    2  C2  UNL     1     -33.995   6.027   5.727  1.00 20.00    -0.059 C 
HETATM    3  C1  UNL     1     -33.732   6.955   6.663  1.00 20.00     0.017 C 
HETATM    4  C6  UNL     1     -34.412   4.643   6.166  1.00 20.00     0.046 C 
ENDBRANCH   1   2
BRANCH   1   5
HETATM    5  C5  UNL     1     -32.514   6.269   3.608  1.00 20.00     0.024 A 
HETATM    6  C3  UNL     1     -32.192   7.142   2.428  1.00 20.00     0.008 A 
HETATM    7  C4  UNL     1     -31.603   7.453   3.776  1.00 20.00     0.008 A 
ENDBRANCH   1   5
BRANCH   1   8
HETATM    8  C8  UNL     1     -34.835   5.330   3.415  1.00 20.00     0.038 C 
HETATM    9  C7  UNL     1     -36.288   5.774   3.299  1.00 20.00     0.008 C 
ENDBRANCH   1   8
BRANCH   1  10
HETATM   10  O10 UNL     1     -34.429   7.608   3.977  1.00 20.00    -0.385 OA
HETATM   11  H26 UNL     1     -33.697   8.113   3.603  1.00 20.00     0.211 HD
ENDBRANCH   1  10
TORSDOF 4
ENDMDL
