MODEL 1
REMARK VINA RESULT:      -5.0      0.000      0.000
REMARK  3 active torsions:
REMARK  status: ('A' for Active; 'I' for Inactive)
REMARK    1  A    between atoms: C2_2  and  C10_10 
REMARK    2  A    between atoms: C5_5  and  C10_10 
REMARK    3  A    between atoms: C7_7  and  O11_11 
ROOT
HETATM    1  C3  UNL     1     -35.418  15.340  -3.061  1.00 20.00     0.008 C 
HETATM    2  C4  UNL     1     -35.222  14.172  -4.034  1.00 20.00     0.032 C 
HETATM    3  C5  UNL     1     -34.014  15.854  -2.724  1.00 20.00    -0.004 C 
HETATM    4  C6  UNL     1     -33.159  15.458  -3.942  1.00 20.00     0.015 C 
HETATM    5  C7  UNL     1     -33.716  14.068  -4.277  1.00 20.00     0.122 C 
HETATM    6  C9  UNL     1     -33.278  16.407  -5.135  1.00 20.00     0.013 C 
ENDROOT
BRANCH   3   7
HETATM    7  C10 UNL     1     -33.995  17.328  -2.351  1.00 20.00     0.038 C 
BRANCH   7   8
HETATM    8  C2  UNL     1     -33.906  17.554  -0.861  1.00 20.00    -0.093 C 
HETATM    9  C1  UNL     1     -34.813  17.037  -0.018  1.00 20.00     0.014 C 
HETATM   10  C8  UNL     1     -32.778  18.413  -0.366  1.00 20.00     0.042 C 
ENDBRANCH   7   8
ENDBRANCH   3   7
BRANCH   5  11
HETATM   11  O11 UNL     1     -33.181  13.102  -3.375  1.00 20.00    -0.395 OA
HETATM   12  H29 UNL     1     -32.725  12.441  -3.919  1.00 20.00     0.210 HD
ENDBRANCH   5  11
TORSDOF 3
ENDMDL
MODEL 2
REMARK VINA RESULT:      -4.8      1.227      1.441
REMARK  3 active torsions:
REMARK  status: ('A' for Active; 'I' for Inactive)
REMARK    1  A    between atoms: C2_2  and  C10_10 
REMARK    2  A    between atoms: C5_5  and  C10_10 
REMARK    3  A    between atoms: C7_7  and  O11_11 
ROOT
HETATM    1  C3  UNL     1     -35.958  15.421  -3.082  1.00 20.00     0.008 C 
HETATM    2  C4  UNL     1     -36.469  14.490  -4.188  1.00 20.00     0.032 C 
HETATM    3  C5  UNL     1     -34.445  15.193  -2.999  1.00 20.00    -0.004 C 
HETATM    4  C6  UNL     1     -34.055  14.698  -4.404  1.00 20.00     0.015 C 
HETATM    5  C7  UNL     1     -35.237  13.784  -4.753  1.00 20.00     0.122 C 
HETATM    6  C9  UNL     1     -33.885  15.808  -5.443  1.00 20.00     0.013 C 
ENDROOT
BRANCH   3   7
HETATM    7  C10 UNL     1     -33.688  16.411  -2.492  1.00 20.00     0.038 C 
BRANCH   7   8
HETATM    8  C2  UNL     1     -34.515  17.269  -1.564  1.00 20.00    -0.093 C 
HETATM    9  C1  UNL     1     -34.725  16.920  -0.286  1.00 20.00     0.014 C 
HETATM   10  C8  UNL     1     -35.122  18.514  -2.145  1.00 20.00     0.042 C 
ENDBRANCH   7   8
ENDBRANCH   3   7
BRANCH   5  11
HETATM   11  O11 UNL     1     -35.092  12.531  -4.087  1.00 20.00    -0.395 OA
HETATM   12  H29 UNL     1     -35.725  12.537  -3.351  1.00 20.00     0.210 HD
ENDBRANCH   5  11
TORSDOF 3
ENDMDL
MODEL 3
REMARK VINA RESULT:      -4.8      1.664      2.094
REMARK  3 active torsions:
REMARK  status: ('A' for Active; 'I' for Inactive)
REMARK    1  A    between atoms: C2_2  and  C10_10 
REMARK    2  A    between atoms: C5_5  and  C10_10 
REMARK    3  A    between atoms: C7_7  and  O11_11 
ROOT
HETATM    1  C3  UNL     1     -35.235  16.451  -4.452  1.00 20.00     0.008 C 
HETATM    2  C4  UNL     1     -36.006  15.407  -5.268  1.00 20.00     0.032 C 
HETATM    3  C5  UNL     1     -34.936  15.798  -3.098  1.00 20.00    -0.004 C 
HETATM    4  C6  UNL     1     -34.931  14.286  -3.396  1.00 20.00     0.015 C 
HETATM    5  C7  UNL     1     -36.093  14.159  -4.389  1.00 20.00     0.122 C 
HETATM    6  C9  UNL     1     -33.626  13.763  -3.996  1.00 20.00     0.013 C 
ENDROOT
BRANCH   3   7
HETATM    7  C10 UNL     1     -33.682  16.347  -2.437  1.00 20.00     0.038 C 
BRANCH   7   8
HETATM    8  C2  UNL     1     -33.986  17.302  -1.307  1.00 20.00    -0.093 C 
HETATM    9  C1  UNL     1     -34.763  16.942  -0.275  1.00 20.00     0.014 C 
HETATM   10  C8  UNL     1     -33.408  18.685  -1.408  1.00 20.00     0.042 C 
ENDBRANCH   7   8
ENDBRANCH   3   7
BRANCH   5  11
HETATM   11  O11 UNL     1     -37.335  14.189  -3.689  1.00 20.00    -0.395 OA
HETATM   12  H29 UNL     1     -37.916  14.786  -4.185  1.00 20.00     0.210 HD
ENDBRANCH   5  11
TORSDOF 3
ENDMDL
MODEL 4
REMARK VINA RESULT:      -4.8      1.566      1.982
REMARK  3 active torsions:
REMARK  status: ('A' for Active; 'I' for Inactive)
REMARK    1  A    between atoms: C2_2  and  C10_10 
REMARK    2  A    between atoms: C5_5  and  C10_10 
REMARK    3  A    between atoms: C7_7  and  O11_11 
ROOT
HETATM    1  C3  UNL     1     -35.072  15.548  -5.344  1.00 20.00     0.008 C 
HETATM    2  C4  UNL     1     -34.720  14.134  -5.818  1.00 20.00     0.032 C 
HETATM    3  C5  UNL     1     -34.935  15.532  -3.817  1.00 20.00    -0.004 C 
HETATM    4  C6  UNL     1     -33.923  14.405  -3.536  1.00 20.00     0.015 C 
HETATM    5  C7  UNL     1     -34.340  13.346  -4.564  1.00 20.00     0.122 C 
HETATM    6  C9  UNL     1     -32.459  14.810  -3.716  1.00 20.00     0.013 C 
ENDROOT
BRANCH   3   7
HETATM    7  C10 UNL     1     -34.590  16.894  -3.237  1.00 20.00     0.038 C 
BRANCH   7   8
HETATM    8  C2  UNL     1     -35.302  17.174  -1.935  1.00 20.00    -0.093 C 
HETATM    9  C1  UNL     1     -36.454  17.860  -1.899  1.00 20.00     0.014 C 
HETATM   10  C8  UNL     1     -34.645  16.681  -0.678  1.00 20.00     0.042 C 
ENDBRANCH   7   8
ENDBRANCH   3   7
BRANCH   5  11
HETATM   11  O11 UNL     1     -35.496  12.652  -4.102  1.00 20.00    -0.395 OA
HETATM   12  H29 UNL     1     -35.698  13.009  -3.223  1.00 20.00     0.210 HD
ENDBRANCH   5  11
TORSDOF 3
ENDMDL
MODEL 5
REMARK VINA RESULT:      -4.7     11.587     12.454
REMARK  3 active torsions:
REMARK  status: ('A' for Active; 'I' for Inactive)
REMARK    1  A    between atoms: C2_2  and  C10_10 
REMARK    2  A    between atoms: C5_5  and  C10_10 
REMARK    3  A    between atoms: C7_7  and  O11_11 
ROOT
HETATM    1  C3  UNL     1     -33.569   6.770   5.312  1.00 20.00     0.008 C 
HETATM    2  C4  UNL     1     -34.458   6.117   6.376  1.00 20.00     0.032 C 
HETATM    3  C5  UNL     1     -33.501   5.777   4.146  1.00 20.00    -0.004 C 
HETATM    4  C6  UNL     1     -34.801   4.959   4.265  1.00 20.00     0.015 C 
HETATM    5  C7  UNL     1     -34.925   4.787   5.784  1.00 20.00     0.122 C 
HETATM    6  C9  UNL     1     -36.036   5.645   3.679  1.00 20.00     0.013 C 
ENDROOT
BRANCH   3   7
HETATM    7  C10 UNL     1     -33.262   6.453   2.805  1.00 20.00     0.038 C 
BRANCH   7   8
HETATM    8  C2  UNL     1     -32.150   7.474   2.853  1.00 20.00    -0.093 C 
HETATM    9  C1  UNL     1     -31.190   7.421   3.788  1.00 20.00     0.014 C 
HETATM   10  C8  UNL     1     -32.187   8.572   1.830  1.00 20.00     0.042 C 
ENDBRANCH   7   8
ENDBRANCH   3   7
BRANCH   5  11
HETATM   11  O11 UNL     1     -34.039   3.761   6.228  1.00 20.00    -0.395 OA
HETATM   12  H29 UNL     1     -33.380   4.194   6.794  1.00 20.00     0.210 HD
ENDBRANCH   5  11
TORSDOF 3
ENDMDL
MODEL 6
REMARK VINA RESULT:      -4.7      1.666      2.394
REMARK  3 active torsions:
REMARK  status: ('A' for Active; 'I' for Inactive)
REMARK    1  A    between atoms: C2_2  and  C10_10 
REMARK    2  A    between atoms: C5_5  and  C10_10 
REMARK    3  A    between atoms: C7_7  and  O11_11 
ROOT
HETATM    1  C3  UNL     1     -34.104  13.759  -3.487  1.00 20.00     0.008 C 
HETATM    2  C4  UNL     1     -34.363  13.170  -4.878  1.00 20.00     0.032 C 
HETATM    3  C5  UNL     1     -34.570  15.219  -3.549  1.00 20.00    -0.004 C 
HETATM    4  C6  UNL     1     -35.633  15.233  -4.663  1.00 20.00     0.015 C 
HETATM    5  C7  UNL     1     -35.017  14.283  -5.697  1.00 20.00     0.122 C 
HETATM    6  C9  UNL     1     -37.018  14.755  -4.223  1.00 20.00     0.013 C 
ENDROOT
BRANCH   3   7
HETATM    7  C10 UNL     1     -35.015  15.757  -2.199  1.00 20.00     0.038 C 
BRANCH   7   8
HETATM    8  C2  UNL     1     -34.274  17.009  -1.794  1.00 20.00    -0.093 C 
HETATM    9  C1  UNL     1     -34.105  17.338  -0.505  1.00 20.00     0.014 C 
HETATM   10  C8  UNL     1     -33.763  17.887  -2.900  1.00 20.00     0.042 C 
ENDBRANCH   7   8
ENDBRANCH   3   7
BRANCH   5  11
HETATM   11  O11 UNL     1     -33.997  14.960  -6.429  1.00 20.00    -0.395 OA
HETATM   12  H29 UNL     1     -34.450  15.581  -7.021  1.00 20.00     0.210 HD
ENDBRANCH   5  11
TORSDOF 3
ENDMDL
MODEL 7
REMARK VINA RESULT:      -4.5      1.954      2.761
REMARK  3 active torsions:
REMARK  status: ('A' for Active; 'I' for Inactive)
REMARK    1  A    between atoms: C2_2  and  C10_10 
REMARK    2  A    between atoms: C5_5  and  C10_10 
REMARK    3  A    between atoms: C7_7  and  O11_11 
ROOT
HETATM    1  C3  UNL     1     -33.619  16.175  -5.572  1.00 20.00     0.008 C 
HETATM    2  C4  UNL     1     -34.331  15.496  -6.747  1.00 20.00     0.032 C 
HETATM    3  C5  UNL     1     -34.428  15.820  -4.320  1.00 20.00    -0.004 C 
HETATM    4  C6  UNL     1     -35.120  14.491  -4.677  1.00 20.00     0.015 C 
HETATM    5  C7  UNL     1     -35.503  14.722  -6.144  1.00 20.00     0.122 C 
HETATM    6  C9  UNL     1     -34.236  13.253  -4.522  1.00 20.00     0.013 C 
ENDROOT
BRANCH   3   7
HETATM    7  C10 UNL     1     -33.588  15.810  -3.053  1.00 20.00     0.038 C 
BRANCH   7   8
HETATM    8  C2  UNL     1     -34.006  16.873  -2.065  1.00 20.00    -0.093 C 
HETATM    9  C1  UNL     1     -34.634  16.560  -0.922  1.00 20.00     0.014 C 
HETATM   10  C8  UNL     1     -33.718  18.300  -2.434  1.00 20.00     0.042 C 
ENDBRANCH   7   8
ENDBRANCH   3   7
BRANCH   5  11
HETATM   11  O11 UNL     1     -36.668  15.543  -6.217  1.00 20.00    -0.395 OA
HETATM   12  H29 UNL     1     -36.354  16.458  -6.296  1.00 20.00     0.210 HD
ENDBRANCH   5  11
TORSDOF 3
ENDMDL
MODEL 8
REMARK VINA RESULT:      -4.4      2.103      2.710
REMARK  3 active torsions:
REMARK  status: ('A' for Active; 'I' for Inactive)
REMARK    1  A    between atoms: C2_2  and  C10_10 
REMARK    2  A    between atoms: C5_5  and  C10_10 
REMARK    3  A    between atoms: C7_7  and  O11_11 
ROOT
HETATM    1  C3  UNL     1     -33.313  15.707  -3.645  1.00 20.00     0.008 C 
HETATM    2  C4  UNL     1     -33.371  16.177  -5.102  1.00 20.00     0.032 C 
HETATM    3  C5  UNL     1     -33.884  16.854  -2.803  1.00 20.00    -0.004 C 
HETATM    4  C6  UNL     1     -34.817  17.608  -3.769  1.00 20.00     0.015 C 
HETATM    5  C7  UNL     1     -34.017  17.562  -5.078  1.00 20.00     0.122 C 
HETATM    6  C9  UNL     1     -36.199  16.975  -3.939  1.00 20.00     0.013 C 
ENDROOT
BRANCH   3   7
HETATM    7  C10 UNL     1     -34.516  16.381  -1.504  1.00 20.00     0.038 C 
BRANCH   7   8
HETATM    8  C2  UNL     1     -34.302  17.347  -0.363  1.00 20.00    -0.093 C 
HETATM    9  C1  UNL     1     -35.141  17.393   0.683  1.00 20.00     0.014 C 
HETATM   10  C8  UNL     1     -33.129  18.279  -0.468  1.00 20.00     0.042 C 
ENDBRANCH   7   8
ENDBRANCH   3   7
BRANCH   5  11
HETATM   11  O11 UNL     1     -32.981  18.541  -5.046  1.00 20.00    -0.395 OA
HETATM   12  H29 UNL     1     -33.163  19.109  -4.282  1.00 20.00     0.210 HD
ENDBRANCH   5  11
TORSDOF 3
ENDMDL
MODEL 9
REMARK VINA RESULT:      -4.3     13.039     14.996
REMARK  3 active torsions:
REMARK  status: ('A' for Active; 'I' for Inactive)
REMARK    1  A    between atoms: C2_2  and  C10_10 
REMARK    2  A    between atoms: C5_5  and  C10_10 
REMARK    3  A    between atoms: C7_7  and  O11_11 
ROOT
HETATM    1  C3  UNL     1     -40.785   4.587  -1.191  1.00 20.00     0.008 C 
HETATM    2  C4  UNL     1     -40.822   5.629  -0.068  1.00 20.00     0.032 C 
HETATM    3  C5  UNL     1     -42.246   4.240  -1.500  1.00 20.00    -0.004 C 
HETATM    4  C6  UNL     1     -43.034   5.491  -1.070  1.00 20.00     0.015 C 
HETATM    5  C7  UNL     1     -42.300   5.899   0.214  1.00 20.00     0.122 C 
HETATM    6  C9  UNL     1     -43.031   6.625  -2.097  1.00 20.00     0.013 C 
ENDROOT
BRANCH   3   7
HETATM    7  C10 UNL     1     -42.457   3.782  -2.934  1.00 20.00     0.038 C 
BRANCH   7   8
HETATM    8  C2  UNL     1     -42.303   2.289  -3.101  1.00 20.00    -0.093 C 
HETATM    9  C1  UNL     1     -41.329   1.765  -3.861  1.00 20.00     0.014 C 
HETATM   10  C8  UNL     1     -43.308   1.417  -2.407  1.00 20.00     0.042 C 
ENDBRANCH   7   8
ENDBRANCH   3   7
BRANCH   5  11
HETATM   11  O11 UNL     1     -42.712   5.062   1.293  1.00 20.00    -0.395 OA
HETATM   12  H29 UNL     1     -42.312   5.432   2.095  1.00 20.00     0.210 HD
ENDBRANCH   5  11
TORSDOF 3
ENDMDL
