MODEL 1
REMARK VINA RESULT:      -4.2      0.000      0.000
REMARK  2 active torsions:
REMARK  status: ('A' for Active; 'I' for Inactive)
REMARK    1  A    between atoms: C2_2  and  C3_3 
REMARK    2  A    between atoms: C3_3  and  C5_5 
ROOT
HETATM    1  C3  UNL     1     -34.609  13.867  -4.678  1.00 20.00     0.159 C 
HETATM    2  O9  UNL     1     -34.984  12.777  -4.244  1.00 20.00    -0.292 OA
ENDROOT
BRANCH   1   3
HETATM    3  C2  UNL     1     -35.344  14.516  -5.814  1.00 20.00    -0.025 C 
HETATM    4  C1  UNL     1     -34.828  14.546  -7.051  1.00 20.00     0.022 C 
HETATM    5  C7  UNL     1     -36.675  15.124  -5.492  1.00 20.00     0.051 C 
ENDBRANCH   1   3
BRANCH   1   6
HETATM    6  C5  UNL     1     -33.412  14.557  -4.070  1.00 20.00     0.064 A 
HETATM    7  C4  UNL     1     -33.255  16.019  -4.303  1.00 20.00     0.018 A 
HETATM    8  C6  UNL     1     -33.605  15.502  -2.936  1.00 20.00    -0.006 A 
HETATM    9  C8  UNL     1     -34.936  15.812  -2.340  1.00 20.00     0.011 C 
ENDBRANCH   1   6
TORSDOF 2
ENDMDL
MODEL 2
REMARK VINA RESULT:      -4.2      1.532      3.579
REMARK  2 active torsions:
REMARK  status: ('A' for Active; 'I' for Inactive)
REMARK    1  A    between atoms: C2_2  and  C3_3 
REMARK    2  A    between atoms: C3_3  and  C5_5 
ROOT
HETATM    1  C3  UNL     1     -33.486  14.870  -3.452  1.00 20.00     0.159 C 
HETATM    2  O9  UNL     1     -32.271  14.727  -3.599  1.00 20.00    -0.292 OA
ENDROOT
BRANCH   1   3
HETATM    3  C2  UNL     1     -34.029  16.150  -2.890  1.00 20.00    -0.025 C 
HETATM    4  C1  UNL     1     -34.521  16.213  -1.645  1.00 20.00     0.022 C 
HETATM    5  C7  UNL     1     -33.993  17.347  -3.792  1.00 20.00     0.051 C 
ENDBRANCH   1   3
BRANCH   1   6
HETATM    6  C5  UNL     1     -34.434  13.759  -3.837  1.00 20.00     0.064 A 
HETATM    7  C4  UNL     1     -35.848  14.119  -4.131  1.00 20.00     0.018 A 
HETATM    8  C6  UNL     1     -34.933  13.671  -5.237  1.00 20.00    -0.006 A 
HETATM    9  C8  UNL     1     -34.540  14.624  -6.312  1.00 20.00     0.011 C 
ENDBRANCH   1   6
TORSDOF 2
ENDMDL
MODEL 3
REMARK VINA RESULT:      -4.0      1.758      2.235
REMARK  2 active torsions:
REMARK  status: ('A' for Active; 'I' for Inactive)
REMARK    1  A    between atoms: C2_2  and  C3_3 
REMARK    2  A    between atoms: C3_3  and  C5_5 
ROOT
HETATM    1  C3  UNL     1     -33.637  15.539  -4.432  1.00 20.00     0.159 C 
HETATM    2  O9  UNL     1     -32.879  16.416  -4.848  1.00 20.00    -0.292 OA
ENDROOT
BRANCH   1   3
HETATM    3  C2  UNL     1     -34.295  14.596  -5.396  1.00 20.00    -0.025 C 
HETATM    4  C1  UNL     1     -34.499  14.936  -6.675  1.00 20.00     0.022 C 
HETATM    5  C7  UNL     1     -34.708  13.261  -4.852  1.00 20.00     0.051 C 
ENDBRANCH   1   3
BRANCH   1   6
HETATM    6  C5  UNL     1     -33.908  15.406  -2.953  1.00 20.00     0.064 A 
HETATM    7  C4  UNL     1     -33.786  16.626  -2.108  1.00 20.00     0.018 A 
HETATM    8  C6  UNL     1     -35.135  16.019  -2.373  1.00 20.00    -0.006 A 
HETATM    9  C8  UNL     1     -36.143  16.764  -3.179  1.00 20.00     0.011 C 
ENDBRANCH   1   6
TORSDOF 2
ENDMDL
MODEL 4
REMARK VINA RESULT:      -4.0      0.773      3.279
REMARK  2 active torsions:
REMARK  status: ('A' for Active; 'I' for Inactive)
REMARK    1  A    between atoms: C2_2  and  C3_3 
REMARK    2  A    between atoms: C3_3  and  C5_5 
ROOT
HETATM    1  C3  UNL     1     -35.096  14.036  -4.217  1.00 20.00     0.159 C 
HETATM    2  O9  UNL     1     -34.962  12.812  -4.184  1.00 20.00    -0.292 OA
ENDROOT
BRANCH   1   3
HETATM    3  C2  UNL     1     -34.196  14.912  -3.396  1.00 20.00    -0.025 C 
HETATM    4  C1  UNL     1     -32.892  15.032  -3.679  1.00 20.00     0.022 C 
HETATM    5  C7  UNL     1     -34.832  15.640  -2.251  1.00 20.00     0.051 C 
ENDBRANCH   1   3
BRANCH   1   6
HETATM    6  C5  UNL     1     -36.165  14.661  -5.080  1.00 20.00     0.064 A 
HETATM    7  C4  UNL     1     -36.018  16.097  -5.443  1.00 20.00     0.018 A 
HETATM    8  C6  UNL     1     -35.850  15.030  -6.488  1.00 20.00    -0.006 A 
HETATM    9  C8  UNL     1     -34.519  14.807  -7.119  1.00 20.00     0.011 C 
ENDBRANCH   1   6
TORSDOF 2
ENDMDL
MODEL 5
REMARK VINA RESULT:      -4.0     11.680     12.645
REMARK  2 active torsions:
REMARK  status: ('A' for Active; 'I' for Inactive)
REMARK    1  A    between atoms: C2_2  and  C3_3 
REMARK    2  A    between atoms: C3_3  and  C5_5 
ROOT
HETATM    1  C3  UNL     1     -34.008   5.777   4.183  1.00 20.00     0.159 C 
HETATM    2  O9  UNL     1     -34.926   5.774   3.361  1.00 20.00    -0.292 OA
ENDROOT
BRANCH   1   3
HETATM    3  C2  UNL     1     -34.315   5.716   5.650  1.00 20.00    -0.025 C 
HETATM    4  C1  UNL     1     -33.957   6.705   6.479  1.00 20.00     0.022 C 
HETATM    5  C7  UNL     1     -35.038   4.495   6.134  1.00 20.00     0.051 C 
ENDBRANCH   1   3
BRANCH   1   6
HETATM    6  C5  UNL     1     -32.573   5.841   3.720  1.00 20.00     0.064 A 
HETATM    7  C4  UNL     1     -32.310   5.817   2.255  1.00 20.00     0.018 A 
HETATM    8  C6  UNL     1     -32.072   7.072   3.048  1.00 20.00    -0.006 A 
HETATM    9  C8  UNL     1     -32.913   8.278   2.806  1.00 20.00     0.011 C 
ENDBRANCH   1   6
TORSDOF 2
ENDMDL
MODEL 6
REMARK VINA RESULT:      -4.0     11.156     12.102
REMARK  2 active torsions:
REMARK  status: ('A' for Active; 'I' for Inactive)
REMARK    1  A    between atoms: C2_2  and  C3_3 
REMARK    2  A    between atoms: C3_3  and  C5_5 
ROOT
HETATM    1  C3  UNL     1     -32.711   6.261   3.235  1.00 20.00     0.159 C 
HETATM    2  O9  UNL     1     -32.118   5.192   3.086  1.00 20.00    -0.292 OA
ENDROOT
BRANCH   1   3
HETATM    3  C2  UNL     1     -31.956   7.555   3.153  1.00 20.00    -0.025 C 
HETATM    4  C1  UNL     1     -31.149   7.956   4.145  1.00 20.00     0.022 C 
HETATM    5  C7  UNL     1     -32.154   8.370   1.910  1.00 20.00     0.051 C 
ENDBRANCH   1   3
BRANCH   1   6
HETATM    6  C5  UNL     1     -34.197   6.277   3.500  1.00 20.00     0.064 A 
HETATM    7  C4  UNL     1     -34.823   5.039   4.041  1.00 20.00     0.018 A 
HETATM    8  C6  UNL     1     -34.693   6.263   4.904  1.00 20.00    -0.006 A 
HETATM    9  C8  UNL     1     -33.796   6.245   6.094  1.00 20.00     0.011 C 
ENDBRANCH   1   6
TORSDOF 2
ENDMDL
MODEL 7
REMARK VINA RESULT:      -3.9      1.765      3.782
REMARK  2 active torsions:
REMARK  status: ('A' for Active; 'I' for Inactive)
REMARK    1  A    between atoms: C2_2  and  C3_3 
REMARK    2  A    between atoms: C3_3  and  C5_5 
ROOT
HETATM    1  C3  UNL     1     -35.246  15.405  -2.930  1.00 20.00     0.159 C 
HETATM    2  O9  UNL     1     -36.462  15.458  -3.123  1.00 20.00    -0.292 OA
ENDROOT
BRANCH   1   3
HETATM    3  C2  UNL     1     -34.556  16.505  -2.180  1.00 20.00    -0.025 C 
HETATM    4  C1  UNL     1     -34.626  16.591  -0.845  1.00 20.00     0.022 C 
HETATM    5  C7  UNL     1     -33.789  17.498  -3.002  1.00 20.00     0.051 C 
ENDBRANCH   1   3
BRANCH   1   6
HETATM    6  C5  UNL     1     -34.445  14.234  -3.446  1.00 20.00     0.064 A 
HETATM    7  C4  UNL     1     -35.130  13.258  -4.338  1.00 20.00     0.018 A 
HETATM    8  C6  UNL     1     -34.074  14.175  -4.887  1.00 20.00    -0.006 A 
HETATM    9  C8  UNL     1     -34.441  15.229  -5.875  1.00 20.00     0.011 C 
ENDBRANCH   1   6
TORSDOF 2
ENDMDL
MODEL 8
REMARK VINA RESULT:      -3.9     12.049     12.917
REMARK  2 active torsions:
REMARK  status: ('A' for Active; 'I' for Inactive)
REMARK    1  A    between atoms: C2_2  and  C3_3 
REMARK    2  A    between atoms: C3_3  and  C5_5 
ROOT
HETATM    1  C3  UNL     1     -33.728   6.450   4.177  1.00 20.00     0.159 C 
HETATM    2  O9  UNL     1     -34.832   6.899   3.867  1.00 20.00    -0.292 OA
ENDROOT
BRANCH   1   3
HETATM    3  C2  UNL     1     -32.617   6.429   3.169  1.00 20.00    -0.025 C 
HETATM    4  C1  UNL     1     -32.061   5.278   2.767  1.00 20.00     0.022 C 
HETATM    5  C7  UNL     1     -32.165   7.757   2.642  1.00 20.00     0.051 C 
ENDBRANCH   1   3
BRANCH   1   6
HETATM    6  C5  UNL     1     -33.487   5.917   5.569  1.00 20.00     0.064 A 
HETATM    7  C4  UNL     1     -34.595   6.017   6.557  1.00 20.00     0.018 A 
HETATM    8  C6  UNL     1     -34.184   4.678   6.013  1.00 20.00    -0.006 A 
HETATM    9  C8  UNL     1     -35.119   3.905   5.148  1.00 20.00     0.011 C 
ENDBRANCH   1   6
TORSDOF 2
ENDMDL
MODEL 9
REMARK VINA RESULT:      -3.9     12.339     13.121
REMARK  2 active torsions:
REMARK  status: ('A' for Active; 'I' for Inactive)
REMARK    1  A    between atoms: C2_2  and  C3_3 
REMARK    2  A    between atoms: C3_3  and  C5_5 
ROOT
HETATM    1  C3  UNL     1     -35.244   5.446   3.828  1.00 20.00     0.159 C 
HETATM    2  O9  UNL     1     -36.243   6.063   3.456  1.00 20.00    -0.292 OA
ENDROOT
BRANCH   1   3
HETATM    3  C2  UNL     1     -33.958   5.569   3.067  1.00 20.00    -0.025 C 
HETATM    4  C1  UNL     1     -33.663   4.741   2.055  1.00 20.00     0.022 C 
HETATM    5  C7  UNL     1     -33.026   6.663   3.497  1.00 20.00     0.051 C 
ENDBRANCH   1   3
BRANCH   1   6
HETATM    6  C5  UNL     1     -35.308   4.562   5.051  1.00 20.00     0.064 A 
HETATM    7  C4  UNL     1     -34.030   4.025   5.592  1.00 20.00     0.018 A 
HETATM    8  C6  UNL     1     -34.795   5.071   6.353  1.00 20.00    -0.006 A 
HETATM    9  C8  UNL     1     -34.217   6.432   6.535  1.00 20.00     0.011 C 
ENDBRANCH   1   6
TORSDOF 2
ENDMDL
