MODEL 1
REMARK VINA RESULT:      -5.1      0.000      0.000
REMARK  3 active torsions:
REMARK  status: ('A' for Active; 'I' for Inactive)
REMARK    1  A    between atoms: C2_2  and  C9_9 
REMARK    2  A    between atoms: C3_3  and  C5_5 
REMARK    3  A    between atoms: C3_3  and  C9_9 
ROOT
HETATM    1  C3  UNL     1     -33.706   5.846   3.074  1.00 20.00     0.135 C 
HETATM    2  O10 UNL     1     -34.041   4.767   2.586  1.00 20.00    -0.297 OA
ENDROOT
BRANCH   1   3
HETATM    3  C5  UNL     1     -32.430   6.524   2.646  1.00 20.00     0.060 A 
HETATM    4  C4  UNL     1     -31.776   7.450   3.608  1.00 20.00     0.017 A 
HETATM    5  C6  UNL     1     -32.477   7.999   2.393  1.00 20.00    -0.007 A 
HETATM    6  C8  UNL     1     -31.686   8.564   1.263  1.00 20.00     0.011 C 
ENDBRANCH   1   3
BRANCH   1   7
HETATM    7  C9  UNL     1     -34.507   6.554   4.157  1.00 20.00     0.111 C 
BRANCH   7   8
HETATM    8  C2  UNL     1     -34.366   5.876   5.493  1.00 20.00    -0.086 C 
HETATM    9  C1  UNL     1     -33.817   6.503   6.544  1.00 20.00     0.014 C 
HETATM   10  C7  UNL     1     -34.899   4.476   5.602  1.00 20.00     0.043 C 
ENDBRANCH   7   8
ENDBRANCH   1   7
TORSDOF 3
ENDMDL
MODEL 2
REMARK VINA RESULT:      -5.1      0.077      1.112
REMARK  3 active torsions:
REMARK  status: ('A' for Active; 'I' for Inactive)
REMARK    1  A    between atoms: C2_2  and  C9_9 
REMARK    2  A    between atoms: C3_3  and  C5_5 
REMARK    3  A    between atoms: C3_3  and  C9_9 
ROOT
HETATM    1  C3  UNL     1     -33.693   5.816   3.056  1.00 20.00     0.135 C 
HETATM    2  O10 UNL     1     -34.018   4.741   2.554  1.00 20.00    -0.297 OA
ENDROOT
BRANCH   1   3
HETATM    3  C5  UNL     1     -32.415   6.504   2.648  1.00 20.00     0.060 A 
HETATM    4  C4  UNL     1     -31.775   7.425   3.624  1.00 20.00     0.017 A 
HETATM    5  C6  UNL     1     -32.467   7.982   2.409  1.00 20.00    -0.007 A 
HETATM    6  C8  UNL     1     -31.669   8.562   1.292  1.00 20.00     0.011 C 
ENDBRANCH   1   3
BRANCH   1   7
HETATM    7  C9  UNL     1     -34.506   6.508   4.140  1.00 20.00     0.111 C 
BRANCH   7   8
HETATM    8  C2  UNL     1     -34.378   5.814   5.469  1.00 20.00    -0.086 C 
HETATM    9  C1  UNL     1     -34.738   4.532   5.629  1.00 20.00     0.014 C 
HETATM   10  C7  UNL     1     -33.795   6.615   6.598  1.00 20.00     0.043 C 
ENDBRANCH   7   8
ENDBRANCH   1   7
TORSDOF 3
ENDMDL
MODEL 3
REMARK VINA RESULT:      -4.6      1.172      4.462
REMARK  3 active torsions:
REMARK  status: ('A' for Active; 'I' for Inactive)
REMARK    1  A    between atoms: C2_2  and  C9_9 
REMARK    2  A    between atoms: C3_3  and  C5_5 
REMARK    3  A    between atoms: C3_3  and  C9_9 
ROOT
HETATM    1  C3  UNL     1     -32.488   6.563   3.186  1.00 20.00     0.135 C 
HETATM    2  O10 UNL     1     -32.060   5.567   2.603  1.00 20.00    -0.297 OA
ENDROOT
BRANCH   1   3
HETATM    3  C5  UNL     1     -33.793   6.517   3.938  1.00 20.00     0.060 A 
HETATM    4  C4  UNL     1     -33.749   6.625   5.420  1.00 20.00     0.017 A 
HETATM    5  C6  UNL     1     -34.073   5.305   4.772  1.00 20.00    -0.007 A 
HETATM    6  C8  UNL     1     -35.461   4.766   4.822  1.00 20.00     0.011 C 
ENDBRANCH   1   3
BRANCH   1   7
HETATM    7  C9  UNL     1     -31.779   7.910   3.163  1.00 20.00     0.111 C 
BRANCH   7   8
HETATM    8  C2  UNL     1     -32.087   8.685   1.911  1.00 20.00    -0.086 C 
HETATM    9  C1  UNL     1     -31.698   8.252   0.703  1.00 20.00     0.014 C 
HETATM   10  C7  UNL     1     -32.879   9.951   2.076  1.00 20.00     0.043 C 
ENDBRANCH   7   8
ENDBRANCH   1   7
TORSDOF 3
ENDMDL
MODEL 4
REMARK VINA RESULT:      -4.5     11.084     12.459
REMARK  3 active torsions:
REMARK  status: ('A' for Active; 'I' for Inactive)
REMARK    1  A    between atoms: C2_2  and  C9_9 
REMARK    2  A    between atoms: C3_3  and  C5_5 
REMARK    3  A    between atoms: C3_3  and  C9_9 
ROOT
HETATM    1  C3  UNL     1     -34.607  13.935  -4.563  1.00 20.00     0.135 C 
HETATM    2  O10 UNL     1     -34.953  12.771  -4.363  1.00 20.00    -0.297 OA
ENDROOT
BRANCH   1   3
HETATM    3  C5  UNL     1     -35.228  14.747  -5.670  1.00 20.00     0.060 A 
HETATM    4  C4  UNL     1     -35.278  14.149  -7.031  1.00 20.00     0.017 A 
HETATM    5  C6  UNL     1     -34.321  15.274  -6.739  1.00 20.00    -0.007 A 
HETATM    6  C8  UNL     1     -34.571  16.634  -7.294  1.00 20.00     0.011 C 
ENDBRANCH   1   3
BRANCH   1   7
HETATM    7  C9  UNL     1     -33.517  14.628  -3.758  1.00 20.00     0.111 C 
BRANCH   7   8
HETATM    8  C2  UNL     1     -34.020  15.880  -3.092  1.00 20.00    -0.086 C 
HETATM    9  C1  UNL     1     -34.785  15.831  -1.991  1.00 20.00     0.014 C 
HETATM   10  C7  UNL     1     -33.597  17.187  -3.699  1.00 20.00     0.043 C 
ENDBRANCH   7   8
ENDBRANCH   1   7
TORSDOF 3
ENDMDL
MODEL 5
REMARK VINA RESULT:      -4.5      0.879      3.946
REMARK  3 active torsions:
REMARK  status: ('A' for Active; 'I' for Inactive)
REMARK    1  A    between atoms: C2_2  and  C9_9 
REMARK    2  A    between atoms: C3_3  and  C5_5 
REMARK    3  A    between atoms: C3_3  and  C9_9 
ROOT
HETATM    1  C3  UNL     1     -33.824   5.692   3.571  1.00 20.00     0.135 C 
HETATM    2  O10 UNL     1     -34.956   5.572   3.103  1.00 20.00    -0.297 OA
ENDROOT
BRANCH   1   3
HETATM    3  C5  UNL     1     -33.592   5.623   5.059  1.00 20.00     0.060 A 
HETATM    4  C4  UNL     1     -34.727   5.207   5.924  1.00 20.00     0.017 A 
HETATM    5  C6  UNL     1     -34.275   6.643   5.917  1.00 20.00    -0.007 A 
HETATM    6  C8  UNL     1     -33.547   7.205   7.090  1.00 20.00     0.011 C 
ENDBRANCH   1   3
BRANCH   1   7
HETATM    7  C9  UNL     1     -32.594   5.958   2.716  1.00 20.00     0.111 C 
BRANCH   7   8
HETATM    8  C2  UNL     1     -32.055   7.347   2.923  1.00 20.00    -0.086 C 
HETATM    9  C1  UNL     1     -31.290   7.654   3.980  1.00 20.00     0.014 C 
HETATM   10  C7  UNL     1     -32.390   8.367   1.871  1.00 20.00     0.043 C 
ENDBRANCH   7   8
ENDBRANCH   1   7
TORSDOF 3
ENDMDL
MODEL 6
REMARK VINA RESULT:      -4.4     11.090     12.400
REMARK  3 active torsions:
REMARK  status: ('A' for Active; 'I' for Inactive)
REMARK    1  A    between atoms: C2_2  and  C9_9 
REMARK    2  A    between atoms: C3_3  and  C5_5 
REMARK    3  A    between atoms: C3_3  and  C9_9 
ROOT
HETATM    1  C3  UNL     1     -34.221  14.038  -4.158  1.00 20.00     0.135 C 
HETATM    2  O10 UNL     1     -33.231  13.444  -3.732  1.00 20.00    -0.297 OA
ENDROOT
BRANCH   1   3
HETATM    3  C5  UNL     1     -34.685  15.323  -3.522  1.00 20.00     0.060 A 
HETATM    4  C4  UNL     1     -33.838  16.533  -3.695  1.00 20.00     0.017 A 
HETATM    5  C6  UNL     1     -33.901  15.845  -2.357  1.00 20.00    -0.007 A 
HETATM    6  C8  UNL     1     -34.629  16.479  -1.222  1.00 20.00     0.011 C 
ENDBRANCH   1   3
BRANCH   1   7
HETATM    7  C9  UNL     1     -35.072  13.518  -5.308  1.00 20.00     0.111 C 
BRANCH   7   8
HETATM    8  C2  UNL     1     -35.293  14.568  -6.363  1.00 20.00    -0.086 C 
HETATM    9  C1  UNL     1     -34.292  15.000  -7.144  1.00 20.00     0.014 C 
HETATM   10  C7  UNL     1     -36.694  15.084  -6.521  1.00 20.00     0.043 C 
ENDBRANCH   7   8
ENDBRANCH   1   7
TORSDOF 3
ENDMDL
MODEL 7
REMARK VINA RESULT:      -4.4     11.495     12.589
REMARK  3 active torsions:
REMARK  status: ('A' for Active; 'I' for Inactive)
REMARK    1  A    between atoms: C2_2  and  C9_9 
REMARK    2  A    between atoms: C3_3  and  C5_5 
REMARK    3  A    between atoms: C3_3  and  C9_9 
ROOT
HETATM    1  C3  UNL     1     -33.732  16.144  -4.228  1.00 20.00     0.135 C 
HETATM    2  O10 UNL     1     -32.778  16.480  -4.928  1.00 20.00    -0.297 OA
ENDROOT
BRANCH   1   3
HETATM    3  C5  UNL     1     -33.618  16.125  -2.725  1.00 20.00     0.060 A 
HETATM    4  C4  UNL     1     -34.867  15.976  -1.932  1.00 20.00     0.017 A 
HETATM    5  C6  UNL     1     -34.156  17.303  -1.972  1.00 20.00    -0.007 A 
HETATM    6  C8  UNL     1     -33.418  17.793  -0.773  1.00 20.00     0.011 C 
ENDBRANCH   1   3
BRANCH   1   7
HETATM    7  C9  UNL     1     -35.065  15.687  -4.802  1.00 20.00     0.111 C 
BRANCH   7   8
HETATM    8  C2  UNL     1     -34.941  14.382  -5.540  1.00 20.00    -0.086 C 
HETATM    9  C1  UNL     1     -34.741  13.225  -4.892  1.00 20.00     0.014 C 
HETATM   10  C7  UNL     1     -35.085  14.433  -7.034  1.00 20.00     0.043 C 
ENDBRANCH   7   8
ENDBRANCH   1   7
TORSDOF 3
ENDMDL
MODEL 8
REMARK VINA RESULT:      -4.3     11.019     12.465
REMARK  3 active torsions:
REMARK  status: ('A' for Active; 'I' for Inactive)
REMARK    1  A    between atoms: C2_2  and  C9_9 
REMARK    2  A    between atoms: C3_3  and  C5_5 
REMARK    3  A    between atoms: C3_3  and  C9_9 
ROOT
HETATM    1  C3  UNL     1     -36.386  14.482  -4.271  1.00 20.00     0.135 C 
HETATM    2  O10 UNL     1     -37.488  14.160  -3.827  1.00 20.00    -0.297 OA
ENDROOT
BRANCH   1   3
HETATM    3  C5  UNL     1     -36.268  15.444  -5.426  1.00 20.00     0.060 A 
HETATM    4  C4  UNL     1     -37.045  15.152  -6.659  1.00 20.00     0.017 A 
HETATM    5  C6  UNL     1     -35.549  14.973  -6.652  1.00 20.00    -0.007 A 
HETATM    6  C8  UNL     1     -34.677  15.929  -7.391  1.00 20.00     0.011 C 
ENDBRANCH   1   3
BRANCH   1   7
HETATM    7  C9  UNL     1     -35.078  13.916  -3.738  1.00 20.00     0.111 C 
BRANCH   7   8
HETATM    8  C2  UNL     1     -34.171  14.996  -3.213  1.00 20.00    -0.086 C 
HETATM    9  C1  UNL     1     -32.936  15.176  -3.704  1.00 20.00     0.014 C 
HETATM   10  C7  UNL     1     -34.728  15.885  -2.138  1.00 20.00     0.043 C 
ENDBRANCH   7   8
ENDBRANCH   1   7
TORSDOF 3
ENDMDL
MODEL 9
REMARK VINA RESULT:      -4.3     11.315     12.009
REMARK  3 active torsions:
REMARK  status: ('A' for Active; 'I' for Inactive)
REMARK    1  A    between atoms: C2_2  and  C9_9 
REMARK    2  A    between atoms: C3_3  and  C5_5 
REMARK    3  A    between atoms: C3_3  and  C9_9 
ROOT
HETATM    1  C3  UNL     1     -35.140  16.570  -3.083  1.00 20.00     0.135 C 
HETATM    2  O10 UNL     1     -35.335  17.048  -4.200  1.00 20.00    -0.297 OA
ENDROOT
BRANCH   1   3
HETATM    3  C5  UNL     1     -34.888  17.462  -1.894  1.00 20.00     0.060 A 
HETATM    4  C4  UNL     1     -33.512  17.502  -1.331  1.00 20.00     0.017 A 
HETATM    5  C6  UNL     1     -34.614  16.805  -0.577  1.00 20.00    -0.007 A 
HETATM    6  C8  UNL     1     -35.172  17.411   0.664  1.00 20.00     0.011 C 
ENDBRANCH   1   3
BRANCH   1   7
HETATM    7  C9  UNL     1     -35.092  15.073  -2.815  1.00 20.00     0.111 C 
BRANCH   7   8
HETATM    8  C2  UNL     1     -34.085  14.378  -3.691  1.00 20.00    -0.086 C 
HETATM    9  C1  UNL     1     -32.776  14.663  -3.619  1.00 20.00     0.014 C 
HETATM   10  C7  UNL     1     -34.611  13.326  -4.625  1.00 20.00     0.043 C 
ENDBRANCH   7   8
ENDBRANCH   1   7
TORSDOF 3
ENDMDL
