MODEL 1
REMARK VINA RESULT:      -4.6      0.000      0.000
REMARK  2 active torsions:
REMARK  status: ('A' for Active; 'I' for Inactive)
REMARK    1  A    between atoms: C2_2  and  C9_9 
REMARK    2  A    between atoms: C6_6  and  C9_9 
ROOT
HETATM    1  C3  UNL     1     -33.483  13.720  -3.751  1.00 20.00     0.006 C 
HETATM    2  C4  UNL     1     -34.514  13.393  -4.823  1.00 20.00     0.016 C 
HETATM    3  C5  UNL     1     -33.793  15.734  -5.009  1.00 20.00     0.020 C 
HETATM    4  C6  UNL     1     -33.585  15.233  -3.575  1.00 20.00    -0.010 C 
HETATM    5  C7  UNL     1     -34.503  14.603  -5.753  1.00 20.00     0.058 C 
HETATM    6 BR10 UNL     1     -36.320  15.115  -6.232  1.00 20.00    -0.091 Br
ENDROOT
BRANCH   4   7
HETATM    7  C9  UNL     1     -34.731  15.637  -2.650  1.00 20.00     0.037 C 
BRANCH   7   8
HETATM    8  C2  UNL     1     -34.380  16.803  -1.756  1.00 20.00    -0.093 C 
HETATM    9  C1  UNL     1     -34.672  16.795  -0.446  1.00 20.00     0.014 C 
HETATM   10  C8  UNL     1     -33.721  17.987  -2.404  1.00 20.00     0.042 C 
ENDBRANCH   7   8
ENDBRANCH   4   7
TORSDOF 2
ENDMDL
MODEL 2
REMARK VINA RESULT:      -4.5      1.440      1.993
REMARK  2 active torsions:
REMARK  status: ('A' for Active; 'I' for Inactive)
REMARK    1  A    between atoms: C2_2  and  C9_9 
REMARK    2  A    between atoms: C6_6  and  C9_9 
ROOT
HETATM    1  C3  UNL     1     -33.337  15.157  -3.250  1.00 20.00     0.006 C 
HETATM    2  C4  UNL     1     -34.450  14.291  -3.827  1.00 20.00     0.016 C 
HETATM    3  C5  UNL     1     -35.095  16.661  -3.874  1.00 20.00     0.020 C 
HETATM    4  C6  UNL     1     -34.050  16.423  -2.778  1.00 20.00    -0.010 C 
HETATM    5  C7  UNL     1     -35.435  15.282  -4.440  1.00 20.00     0.058 C 
HETATM    6 BR10 UNL     1     -37.267  14.783  -4.006  1.00 20.00    -0.091 Br
ENDROOT
BRANCH   4   7
HETATM    7  C9  UNL     1     -34.685  16.255  -1.400  1.00 20.00     0.037 C 
BRANCH   7   8
HETATM    8  C2  UNL     1     -34.300  17.355  -0.439  1.00 20.00    -0.093 C 
HETATM    9  C1  UNL     1     -33.248  18.154  -0.672  1.00 20.00     0.014 C 
HETATM   10  C8  UNL     1     -35.127  17.494   0.808  1.00 20.00     0.042 C 
ENDBRANCH   7   8
ENDBRANCH   4   7
TORSDOF 2
ENDMDL
MODEL 3
REMARK VINA RESULT:      -4.3      1.268      1.756
REMARK  2 active torsions:
REMARK  status: ('A' for Active; 'I' for Inactive)
REMARK    1  A    between atoms: C2_2  and  C9_9 
REMARK    2  A    between atoms: C6_6  and  C9_9 
ROOT
HETATM    1  C3  UNL     1     -36.156  15.093  -3.406  1.00 20.00     0.006 C 
HETATM    2  C4  UNL     1     -36.287  15.390  -4.895  1.00 20.00     0.016 C 
HETATM    3  C5  UNL     1     -34.532  13.717  -4.504  1.00 20.00     0.020 C 
HETATM    4  C6  UNL     1     -34.729  14.574  -3.249  1.00 20.00    -0.010 C 
HETATM    5  C7  UNL     1     -35.430  14.329  -5.579  1.00 20.00     0.058 C 
HETATM    6 BR10 UNL     1     -34.368  15.123  -7.006  1.00 20.00    -0.091 Br
ENDROOT
BRANCH   4   7
HETATM    7  C9  UNL     1     -33.704  15.702  -3.152  1.00 20.00     0.037 C 
BRANCH   7   8
HETATM    8  C2  UNL     1     -34.150  16.823  -2.242  1.00 20.00    -0.093 C 
HETATM    9  C1  UNL     1     -34.473  16.598  -0.959  1.00 20.00     0.014 C 
HETATM   10  C8  UNL     1     -34.250  18.195  -2.846  1.00 20.00     0.042 C 
ENDBRANCH   7   8
ENDBRANCH   4   7
TORSDOF 2
ENDMDL
MODEL 4
REMARK VINA RESULT:      -4.3      1.712      2.375
REMARK  2 active torsions:
REMARK  status: ('A' for Active; 'I' for Inactive)
REMARK    1  A    between atoms: C2_2  and  C9_9 
REMARK    2  A    between atoms: C6_6  and  C9_9 
ROOT
HETATM    1  C3  UNL     1     -33.745  17.537  -3.941  1.00 20.00     0.006 C 
HETATM    2  C4  UNL     1     -33.406  16.259  -4.699  1.00 20.00     0.016 C 
HETATM    3  C5  UNL     1     -35.636  16.089  -3.681  1.00 20.00     0.020 C 
HETATM    4  C6  UNL     1     -34.781  17.100  -2.908  1.00 20.00    -0.010 C 
HETATM    5  C7  UNL     1     -34.711  15.469  -4.729  1.00 20.00     0.058 C 
HETATM    6 BR10 UNL     1     -34.381  13.589  -4.343  1.00 20.00    -0.091 Br
ENDROOT
BRANCH   4   7
HETATM    7  C9  UNL     1     -34.142  16.486  -1.664  1.00 20.00     0.037 C 
BRANCH   7   8
HETATM    8  C2  UNL     1     -34.130  17.430  -0.485  1.00 20.00    -0.093 C 
HETATM    9  C1  UNL     1     -35.104  17.413   0.438  1.00 20.00     0.014 C 
HETATM   10  C8  UNL     1     -32.996  18.413  -0.408  1.00 20.00     0.042 C 
ENDBRANCH   7   8
ENDBRANCH   4   7
TORSDOF 2
ENDMDL
MODEL 5
REMARK VINA RESULT:      -4.1      1.537      1.891
REMARK  2 active torsions:
REMARK  status: ('A' for Active; 'I' for Inactive)
REMARK    1  A    between atoms: C2_2  and  C9_9 
REMARK    2  A    between atoms: C6_6  and  C9_9 
ROOT
HETATM    1  C3  UNL     1     -35.155  15.210  -2.993  1.00 20.00     0.006 C 
HETATM    2  C4  UNL     1     -35.525  15.586  -4.422  1.00 20.00     0.016 C 
HETATM    3  C5  UNL     1     -33.096  15.744  -4.093  1.00 20.00     0.020 C 
HETATM    4  C6  UNL     1     -33.819  15.909  -2.752  1.00 20.00    -0.010 C 
HETATM    5  C7  UNL     1     -34.191  15.673  -5.158  1.00 20.00     0.058 C 
HETATM    6 BR10 UNL     1     -34.147  17.242  -6.310  1.00 20.00    -0.091 Br
ENDROOT
BRANCH   4   7
HETATM    7  C9  UNL     1     -33.990  17.376  -2.362  1.00 20.00     0.037 C 
BRANCH   7   8
HETATM    8  C2  UNL     1     -33.907  17.600  -0.871  1.00 20.00    -0.093 C 
HETATM    9  C1  UNL     1     -34.813  17.075  -0.031  1.00 20.00     0.014 C 
HETATM   10  C8  UNL     1     -32.785  18.465  -0.371  1.00 20.00     0.042 C 
ENDBRANCH   7   8
ENDBRANCH   4   7
TORSDOF 2
ENDMDL
MODEL 6
REMARK VINA RESULT:      -4.1      2.417      3.882
REMARK  2 active torsions:
REMARK  status: ('A' for Active; 'I' for Inactive)
REMARK    1  A    between atoms: C2_2  and  C9_9 
REMARK    2  A    between atoms: C6_6  and  C9_9 
ROOT
HETATM    1  C3  UNL     1     -34.787  13.366  -5.088  1.00 20.00     0.006 C 
HETATM    2  C4  UNL     1     -34.302  13.739  -3.692  1.00 20.00     0.016 C 
HETATM    3  C5  UNL     1     -35.864  15.435  -4.541  1.00 20.00     0.020 C 
HETATM    4  C6  UNL     1     -35.204  14.696  -5.711  1.00 20.00    -0.010 C 
HETATM    5  C7  UNL     1     -35.186  14.911  -3.275  1.00 20.00     0.058 C 
HETATM    6 BR10 UNL     1     -34.123  16.303  -2.426  1.00 20.00    -0.091 Br
ENDROOT
BRANCH   4   7
HETATM    7  C9  UNL     1     -34.019  15.467  -6.288  1.00 20.00     0.037 C 
BRANCH   7   8
HETATM    8  C2  UNL     1     -34.392  16.856  -6.750  1.00 20.00    -0.093 C 
HETATM    9  C1  UNL     1     -35.187  17.053  -7.814  1.00 20.00     0.014 C 
HETATM   10  C8  UNL     1     -33.807  18.010  -5.987  1.00 20.00     0.042 C 
ENDBRANCH   7   8
ENDBRANCH   4   7
TORSDOF 2
ENDMDL
MODEL 7
REMARK VINA RESULT:      -4.1     11.678     12.749
REMARK  2 active torsions:
REMARK  status: ('A' for Active; 'I' for Inactive)
REMARK    1  A    between atoms: C2_2  and  C9_9 
REMARK    2  A    between atoms: C6_6  and  C9_9 
ROOT
HETATM    1  C3  UNL     1     -35.363   5.635   3.536  1.00 20.00     0.006 C 
HETATM    2  C4  UNL     1     -35.264   4.459   4.501  1.00 20.00     0.016 C 
HETATM    3  C5  UNL     1     -34.278   6.475   5.500  1.00 20.00     0.020 C 
HETATM    4  C6  UNL     1     -34.241   6.575   3.971  1.00 20.00    -0.010 C 
HETATM    5  C7  UNL     1     -34.806   5.076   5.819  1.00 20.00     0.058 C 
HETATM    6 BR10 UNL     1     -33.425   3.980   6.644  1.00 20.00    -0.091 Br
ENDROOT
BRANCH   4   7
HETATM    7  C9  UNL     1     -32.885   6.169   3.397  1.00 20.00     0.037 C 
BRANCH   7   8
HETATM    8  C2  UNL     1     -31.962   7.346   3.183  1.00 20.00    -0.093 C 
HETATM    9  C1  UNL     1     -31.112   7.753   4.139  1.00 20.00     0.014 C 
HETATM   10  C8  UNL     1     -32.062   8.062   1.867  1.00 20.00     0.042 C 
ENDBRANCH   7   8
ENDBRANCH   4   7
TORSDOF 2
ENDMDL
MODEL 8
REMARK VINA RESULT:      -4.1      1.879      4.251
REMARK  2 active torsions:
REMARK  status: ('A' for Active; 'I' for Inactive)
REMARK    1  A    between atoms: C2_2  and  C9_9 
REMARK    2  A    between atoms: C6_6  and  C9_9 
ROOT
HETATM    1  C3  UNL     1     -34.379  16.556  -1.064  1.00 20.00     0.006 C 
HETATM    2  C4  UNL     1     -33.860  17.913  -1.522  1.00 20.00     0.016 C 
HETATM    3  C5  UNL     1     -35.582  17.084  -3.066  1.00 20.00     0.020 C 
HETATM    4  C6  UNL     1     -34.923  15.909  -2.336  1.00 20.00    -0.010 C 
HETATM    5  C7  UNL     1     -34.810  18.334  -2.640  1.00 20.00     0.058 C 
HETATM    6 BR10 UNL     1     -33.815  19.084  -4.137  1.00 20.00    -0.091 Br
ENDROOT
BRANCH   4   7
HETATM    7  C9  UNL     1     -33.826  15.250  -3.170  1.00 20.00     0.037 C 
BRANCH   7   8
HETATM    8  C2  UNL     1     -34.354  14.609  -4.431  1.00 20.00    -0.093 C 
HETATM    9  C1  UNL     1     -34.174  15.175  -5.635  1.00 20.00     0.014 C 
HETATM   10  C8  UNL     1     -35.122  13.327  -4.277  1.00 20.00     0.042 C 
ENDBRANCH   7   8
ENDBRANCH   4   7
TORSDOF 2
ENDMDL
MODEL 9
REMARK VINA RESULT:      -4.0      2.238      4.279
REMARK  2 active torsions:
REMARK  status: ('A' for Active; 'I' for Inactive)
REMARK    1  A    between atoms: C2_2  and  C9_9 
REMARK    2  A    between atoms: C6_6  and  C9_9 
ROOT
HETATM    1  C3  UNL     1     -33.639  16.580  -3.463  1.00 20.00     0.006 C 
HETATM    2  C4  UNL     1     -34.210  17.966  -3.192  1.00 20.00     0.016 C 
HETATM    3  C5  UNL     1     -34.596  16.487  -1.269  1.00 20.00     0.020 C 
HETATM    4  C6  UNL     1     -34.439  15.656  -2.547  1.00 20.00    -0.010 C 
HETATM    5  C7  UNL     1     -34.580  17.950  -1.711  1.00 20.00     0.058 C 
HETATM    6 BR10 UNL     1     -36.319  18.782  -1.432  1.00 20.00    -0.091 Br
ENDROOT
BRANCH   4   7
HETATM    7  C9  UNL     1     -35.786  15.261  -3.149  1.00 20.00     0.037 C 
BRANCH   7   8
HETATM    8  C2  UNL     1     -35.647  14.427  -4.401  1.00 20.00    -0.093 C 
HETATM    9  C1  UNL     1     -35.002  13.250  -4.392  1.00 20.00     0.014 C 
HETATM   10  C8  UNL     1     -36.232  14.990  -5.665  1.00 20.00     0.042 C 
ENDBRANCH   7   8
ENDBRANCH   4   7
TORSDOF 2
ENDMDL
