MODEL 1
REMARK VINA RESULT:      -4.5      0.000      0.000
REMARK  2 active torsions:
REMARK  status: ('A' for Active; 'I' for Inactive)
REMARK    1  A    between atoms: C2_2  and  C10_10 
REMARK    2  A    between atoms: C7_7  and  C10_10 
ROOT
HETATM    1  C3  UNL     1     -34.255  13.663  -3.946  1.00 20.00     0.002 C 
HETATM    2  C4  UNL     1     -33.504  14.870  -3.394  1.00 20.00     0.005 C 
HETATM    3  C5  UNL     1     -35.043  14.015  -5.207  1.00 20.00     0.016 C 
HETATM    4  C6  UNL     1     -35.236  16.421  -4.389  1.00 20.00     0.020 C 
HETATM    5  C7  UNL     1     -34.447  16.048  -3.123  1.00 20.00    -0.010 C 
HETATM    6  C8  UNL     1     -35.945  15.234  -5.037  1.00 20.00     0.058 C 
HETATM    7 BR11 UNL     1     -37.540  14.752  -4.001  1.00 20.00    -0.091 Br
ENDROOT
BRANCH   5   8
HETATM    8  C10 UNL     1     -33.664  17.254  -2.604  1.00 20.00     0.037 C 
BRANCH   8   9
HETATM    9  C2  UNL     1     -33.813  17.443  -1.117  1.00 20.00    -0.093 C 
HETATM   10  C1  UNL     1     -34.757  16.792  -0.420  1.00 20.00     0.014 C 
HETATM   11  C9  UNL     1     -32.889  18.424  -0.455  1.00 20.00     0.042 C 
ENDBRANCH   8   9
ENDBRANCH   5   8
TORSDOF 2
ENDMDL
MODEL 2
REMARK VINA RESULT:      -4.4      1.289      1.563
REMARK  2 active torsions:
REMARK  status: ('A' for Active; 'I' for Inactive)
REMARK    1  A    between atoms: C2_2  and  C10_10 
REMARK    2  A    between atoms: C7_7  and  C10_10 
ROOT
HETATM    1  C3  UNL     1     -35.045  13.280  -4.531  1.00 20.00     0.002 C 
HETATM    2  C4  UNL     1     -34.337  14.054  -3.424  1.00 20.00     0.005 C 
HETATM    3  C5  UNL     1     -34.817  13.915  -5.902  1.00 20.00     0.016 C 
HETATM    4  C6  UNL     1     -34.521  16.183  -4.776  1.00 20.00     0.020 C 
HETATM    5  C7  UNL     1     -34.759  15.528  -3.406  1.00 20.00    -0.010 C 
HETATM    6  C8  UNL     1     -35.137  15.407  -5.939  1.00 20.00     0.058 C 
HETATM    7 BR11 UNL     1     -37.079  15.679  -5.977  1.00 20.00    -0.091 Br
ENDROOT
BRANCH   5   8
HETATM    8  C10 UNL     1     -34.010  16.287  -2.311  1.00 20.00     0.037 C 
BRANCH   8   9
HETATM    9  C2  UNL     1     -34.937  17.025  -1.382  1.00 20.00    -0.093 C 
HETATM   10  C1  UNL     1     -34.732  17.041  -0.056  1.00 20.00     0.014 C 
HETATM   11  C9  UNL     1     -36.126  17.705  -1.997  1.00 20.00     0.042 C 
ENDBRANCH   8   9
ENDBRANCH   5   8
TORSDOF 2
ENDMDL
MODEL 3
REMARK VINA RESULT:      -4.2      1.636      2.162
REMARK  2 active torsions:
REMARK  status: ('A' for Active; 'I' for Inactive)
REMARK    1  A    between atoms: C2_2  and  C10_10 
REMARK    2  A    between atoms: C7_7  and  C10_10 
ROOT
HETATM    1  C3  UNL     1     -36.422  14.737  -3.819  1.00 20.00     0.002 C 
HETATM    2  C4  UNL     1     -35.692  15.421  -2.667  1.00 20.00     0.005 C 
HETATM    3  C5  UNL     1     -35.543  13.693  -4.506  1.00 20.00     0.016 C 
HETATM    4  C6  UNL     1     -33.474  15.010  -3.810  1.00 20.00     0.020 C 
HETATM    5  C7  UNL     1     -34.374  16.054  -3.129  1.00 20.00    -0.010 C 
HETATM    6  C8  UNL     1     -34.175  14.231  -4.921  1.00 20.00     0.058 C 
HETATM    7 BR11 UNL     1     -34.349  15.349  -6.523  1.00 20.00    -0.091 Br
ENDROOT
BRANCH   5   8
HETATM    8  C10 UNL     1     -33.648  16.702  -1.950  1.00 20.00     0.037 C 
BRANCH   8   9
HETATM    9  C2  UNL     1     -34.512  17.689  -1.211  1.00 20.00    -0.093 C 
HETATM   10  C1  UNL     1     -34.954  18.811  -1.801  1.00 20.00     0.014 C 
HETATM   11  C9  UNL     1     -34.821  17.388   0.227  1.00 20.00     0.042 C 
ENDBRANCH   8   9
ENDBRANCH   5   8
TORSDOF 2
ENDMDL
MODEL 4
REMARK VINA RESULT:      -4.1      1.998      2.385
REMARK  2 active torsions:
REMARK  status: ('A' for Active; 'I' for Inactive)
REMARK    1  A    between atoms: C2_2  and  C10_10 
REMARK    2  A    between atoms: C7_7  and  C10_10 
ROOT
HETATM    1  C3  UNL     1     -35.657  14.635  -5.438  1.00 20.00     0.002 C 
HETATM    2  C4  UNL     1     -35.341  14.640  -3.946  1.00 20.00     0.005 C 
HETATM    3  C5  UNL     1     -34.411  14.905  -6.282  1.00 20.00     0.016 C 
HETATM    4  C6  UNL     1     -33.414  16.228  -4.344  1.00 20.00     0.020 C 
HETATM    5  C7  UNL     1     -34.677  15.952  -3.513  1.00 20.00    -0.010 C 
HETATM    6  C8  UNL     1     -33.648  16.155  -5.852  1.00 20.00     0.058 C 
HETATM    7 BR11 UNL     1     -34.589  17.763  -6.467  1.00 20.00    -0.091 Br
ENDROOT
BRANCH   5   8
HETATM    8  C10 UNL     1     -34.340  15.916  -2.022  1.00 20.00     0.037 C 
BRANCH   8   9
HETATM    9  C2  UNL     1     -34.988  17.040  -1.256  1.00 20.00    -0.093 C 
HETATM   10  C1  UNL     1     -34.675  17.285   0.025  1.00 20.00     0.014 C 
HETATM   11  C9  UNL     1     -36.031  17.847  -1.975  1.00 20.00     0.042 C 
ENDBRANCH   8   9
ENDBRANCH   5   8
TORSDOF 2
ENDMDL
MODEL 5
REMARK VINA RESULT:      -4.1     12.034     14.067
REMARK  2 active torsions:
REMARK  status: ('A' for Active; 'I' for Inactive)
REMARK    1  A    between atoms: C2_2  and  C10_10 
REMARK    2  A    between atoms: C7_7  and  C10_10 
ROOT
HETATM    1  C3  UNL     1     -40.867   6.585  -0.996  1.00 20.00     0.002 C 
HETATM    2  C4  UNL     1     -41.148   5.086  -1.002  1.00 20.00     0.005 C 
HETATM    3  C5  UNL     1     -42.158   7.403  -0.961  1.00 20.00     0.016 C 
HETATM    4  C6  UNL     1     -43.373   5.493  -2.133  1.00 20.00     0.020 C 
HETATM    5  C7  UNL     1     -42.064   4.687  -2.165  1.00 20.00    -0.010 C 
HETATM    6  C8  UNL     1     -43.158   7.002  -2.043  1.00 20.00     0.058 C 
HETATM    7 BR11 UNL     1     -42.587   7.708  -3.782  1.00 20.00    -0.091 Br
ENDROOT
BRANCH   5   8
HETATM    8  C10 UNL     1     -42.357   3.187  -2.128  1.00 20.00     0.037 C 
BRANCH   8   9
HETATM    9  C2  UNL     1     -42.346   2.562  -3.498  1.00 20.00    -0.093 C 
HETATM   10  C1  UNL     1     -43.417   2.625  -4.304  1.00 20.00     0.014 C 
HETATM   11  C9  UNL     1     -41.102   1.827  -3.907  1.00 20.00     0.042 C 
ENDBRANCH   8   9
ENDBRANCH   5   8
TORSDOF 2
ENDMDL
MODEL 6
REMARK VINA RESULT:      -4.0      1.853      4.577
REMARK  2 active torsions:
REMARK  status: ('A' for Active; 'I' for Inactive)
REMARK    1  A    between atoms: C2_2  and  C10_10 
REMARK    2  A    between atoms: C7_7  and  C10_10 
ROOT
HETATM    1  C3  UNL     1     -33.964  18.589  -3.289  1.00 20.00     0.002 C 
HETATM    2  C4  UNL     1     -33.690  17.115  -3.568  1.00 20.00     0.005 C 
HETATM    3  C5  UNL     1     -33.844  18.917  -1.801  1.00 20.00     0.016 C 
HETATM    4  C6  UNL     1     -34.485  16.513  -1.244  1.00 20.00     0.020 C 
HETATM    5  C7  UNL     1     -34.607  16.204  -2.745  1.00 20.00    -0.010 C 
HETATM    6  C8  UNL     1     -34.668  17.992  -0.909  1.00 20.00     0.058 C 
HETATM    7 BR11 UNL     1     -36.566  18.476  -1.009  1.00 20.00    -0.091 Br
ENDROOT
BRANCH   5   8
HETATM    8  C10 UNL     1     -34.288  14.733  -3.017  1.00 20.00     0.037 C 
BRANCH   8   9
HETATM    9  C2  UNL     1     -35.239  14.109  -4.004  1.00 20.00    -0.093 C 
HETATM   10  C1  UNL     1     -34.820  13.208  -4.906  1.00 20.00     0.014 C 
HETATM   11  C9  UNL     1     -36.668  14.569  -3.964  1.00 20.00     0.042 C 
ENDBRANCH   8   9
ENDBRANCH   5   8
TORSDOF 2
ENDMDL
MODEL 7
REMARK VINA RESULT:      -4.0      2.157      4.425
REMARK  2 active torsions:
REMARK  status: ('A' for Active; 'I' for Inactive)
REMARK    1  A    between atoms: C2_2  and  C10_10 
REMARK    2  A    between atoms: C7_7  and  C10_10 
ROOT
HETATM    1  C3  UNL     1     -33.753  17.939  -1.240  1.00 20.00     0.002 C 
HETATM    2  C4  UNL     1     -34.323  16.538  -1.429  1.00 20.00     0.005 C 
HETATM    3  C5  UNL     1     -34.663  19.008  -1.844  1.00 20.00     0.016 C 
HETATM    4  C6  UNL     1     -35.523  17.294  -3.523  1.00 20.00     0.020 C 
HETATM    5  C7  UNL     1     -34.596  16.233  -2.907  1.00 20.00    -0.010 C 
HETATM    6  C8  UNL     1     -35.047  18.727  -3.295  1.00 20.00     0.058 C 
HETATM    7 BR11 UNL     1     -33.539  19.135  -4.481  1.00 20.00    -0.091 Br
ENDROOT
BRANCH   5   8
HETATM    8  C10 UNL     1     -35.199  14.837  -3.065  1.00 20.00     0.037 C 
BRANCH   8   9
HETATM    9  C2  UNL     1     -34.347  13.933  -3.916  1.00 20.00    -0.093 C 
HETATM   10  C1  UNL     1     -34.872  13.223  -4.926  1.00 20.00     0.014 C 
HETATM   11  C9  UNL     1     -32.892  13.825  -3.558  1.00 20.00     0.042 C 
ENDBRANCH   8   9
ENDBRANCH   5   8
TORSDOF 2
ENDMDL
MODEL 8
REMARK VINA RESULT:      -4.0      2.448      4.554
REMARK  2 active torsions:
REMARK  status: ('A' for Active; 'I' for Inactive)
REMARK    1  A    between atoms: C2_2  and  C10_10 
REMARK    2  A    between atoms: C7_7  and  C10_10 
ROOT
HETATM    1  C3  UNL     1     -34.046  13.456  -4.570  1.00 20.00     0.002 C 
HETATM    2  C4  UNL     1     -35.515  13.446  -4.161  1.00 20.00     0.005 C 
HETATM    3  C5  UNL     1     -33.202  14.319  -3.632  1.00 20.00     0.016 C 
HETATM    4  C6  UNL     1     -35.257  15.740  -3.129  1.00 20.00     0.020 C 
HETATM    5  C7  UNL     1     -36.089  14.865  -4.081  1.00 20.00    -0.010 C 
HETATM    6  C8  UNL     1     -33.761  15.725  -3.437  1.00 20.00     0.058 C 
HETATM    7 BR11 UNL     1     -33.387  16.824  -5.017  1.00 20.00    -0.091 Br
ENDROOT
BRANCH   5   8
HETATM    8  C10 UNL     1     -37.551  14.829  -3.636  1.00 20.00     0.037 C 
BRANCH   8   9
HETATM    9  C2  UNL     1     -38.510  14.962  -4.790  1.00 20.00    -0.093 C 
HETATM   10  C1  UNL     1     -39.772  14.513  -4.707  1.00 20.00     0.014 C 
HETATM   11  C9  UNL     1     -37.981  15.579  -6.053  1.00 20.00     0.042 C 
ENDBRANCH   8   9
ENDBRANCH   5   8
TORSDOF 2
ENDMDL
MODEL 9
REMARK VINA RESULT:      -4.0      1.709      2.054
REMARK  2 active torsions:
REMARK  status: ('A' for Active; 'I' for Inactive)
REMARK    1  A    between atoms: C2_2  and  C10_10 
REMARK    2  A    between atoms: C7_7  and  C10_10 
ROOT
HETATM    1  C3  UNL     1     -33.287  16.708  -5.362  1.00 20.00     0.002 C 
HETATM    2  C4  UNL     1     -33.756  17.721  -4.322  1.00 20.00     0.005 C 
HETATM    3  C5  UNL     1     -34.393  15.720  -5.730  1.00 20.00     0.016 C 
HETATM    4  C6  UNL     1     -35.420  16.044  -3.419  1.00 20.00     0.020 C 
HETATM    5  C7  UNL     1     -34.295  17.031  -3.064  1.00 20.00    -0.010 C 
HETATM    6  C8  UNL     1     -35.037  15.054  -4.517  1.00 20.00     0.058 C 
HETATM    7 BR11 UNL     1     -33.846  13.673  -3.795  1.00 20.00    -0.091 Br
ENDROOT
BRANCH   5   8
HETATM    8  C10 UNL     1     -34.791  18.067  -2.054  1.00 20.00     0.037 C 
BRANCH   8   9
HETATM    9  C2  UNL     1     -34.216  17.853  -0.679  1.00 20.00    -0.093 C 
HETATM   10  C1  UNL     1     -34.909  17.213   0.277  1.00 20.00     0.014 C 
HETATM   11  C9  UNL     1     -32.854  18.424  -0.408  1.00 20.00     0.042 C 
ENDBRANCH   8   9
ENDBRANCH   5   8
TORSDOF 2
ENDMDL
