MODEL 1
REMARK VINA RESULT:      -4.3      0.000      0.000
REMARK  3 active torsions:
REMARK  status: ('A' for Active; 'I' for Inactive)
REMARK    1  A    between atoms: C2_2  and  C9_9 
REMARK    2  A    between atoms: C6_6  and  C9_9 
REMARK    3  A    between atoms: C9_9  and  N10_10 
ROOT
HETATM    1  C9  UNL     1     -34.979  15.631  -3.367  1.00 20.00     0.254 C 
ENDROOT
BRANCH   1   2
HETATM    2  C2  UNL     1     -34.413  14.277  -3.762  1.00 20.00    -0.060 C 
HETATM    3  C1  UNL     1     -35.207  13.319  -4.268  1.00 20.00     0.016 C 
HETATM    4  C7  UNL     1     -32.942  14.027  -3.566  1.00 20.00     0.044 C 
ENDBRANCH   1   2
BRANCH   1   5
HETATM    5  C6  UNL     1     -34.065  16.372  -2.411  1.00 20.00     0.049 C 
HETATM    6  C3  UNL     1     -34.631  16.542  -1.018  1.00 20.00     0.035 C 
HETATM    7  C4  UNL     1     -33.789  17.679  -0.480  1.00 20.00     0.168 C 
HETATM    8  O11 UNL     1     -33.451  18.510  -1.601  1.00 20.00    -0.391 OA
HETATM    9  C5  UNL     1     -33.807  17.816  -2.807  1.00 20.00     0.174 C 
ENDBRANCH   1   5
BRANCH   1  10
HETATM   10  N10 UNL     1     -36.319  15.522  -2.780  1.00 20.00     0.088 N 
HETATM   11  C8  UNL     1     -37.282  16.279  -3.562  1.00 20.00     0.307 C 
HETATM   12  H28 UNL     1     -36.289  15.885  -1.831  1.00 20.00     0.316 HD
ENDBRANCH   1  10
TORSDOF 3
ENDMDL
MODEL 2
REMARK VINA RESULT:      -4.3      0.112      1.060
REMARK  3 active torsions:
REMARK  status: ('A' for Active; 'I' for Inactive)
REMARK    1  A    between atoms: C2_2  and  C9_9 
REMARK    2  A    between atoms: C6_6  and  C9_9 
REMARK    3  A    between atoms: C9_9  and  N10_10 
ROOT
HETATM    1  C9  UNL     1     -34.884  15.680  -3.318  1.00 20.00     0.254 C 
ENDROOT
BRANCH   1   2
HETATM    2  C2  UNL     1     -34.263  14.353  -3.722  1.00 20.00    -0.060 C 
HETATM    3  C1  UNL     1     -32.946  14.134  -3.569  1.00 20.00     0.016 C 
HETATM    4  C7  UNL     1     -35.152  13.290  -4.306  1.00 20.00     0.044 C 
ENDBRANCH   1   2
BRANCH   1   5
HETATM    5  C6  UNL     1     -34.010  16.443  -2.341  1.00 20.00     0.049 C 
HETATM    6  C3  UNL     1     -34.609  16.591  -0.959  1.00 20.00     0.035 C 
HETATM    7  C4  UNL     1     -33.809  17.749  -0.401  1.00 20.00     0.168 C 
HETATM    8  O11 UNL     1     -33.470  18.593  -1.511  1.00 20.00    -0.391 OA
HETATM    9  C5  UNL     1     -33.783  17.894  -2.726  1.00 20.00     0.174 C 
ENDBRANCH   1   5
BRANCH   1  10
HETATM   10  N10 UNL     1     -36.226  15.515  -2.750  1.00 20.00     0.088 N 
HETATM   11  C8  UNL     1     -37.208  16.232  -3.546  1.00 20.00     0.307 C 
HETATM   12  H28 UNL     1     -36.225  15.878  -1.800  1.00 20.00     0.316 HD
ENDBRANCH   1  10
TORSDOF 3
ENDMDL
MODEL 3
REMARK VINA RESULT:      -4.1      2.282      4.127
REMARK  3 active torsions:
REMARK  status: ('A' for Active; 'I' for Inactive)
REMARK    1  A    between atoms: C2_2  and  C9_9 
REMARK    2  A    between atoms: C6_6  and  C9_9 
REMARK    3  A    between atoms: C9_9  and  N10_10 
ROOT
HETATM    1  C9  UNL     1     -34.523  17.082  -2.528  1.00 20.00     0.254 C 
ENDROOT
BRANCH   1   2
HETATM    2  C2  UNL     1     -34.171  17.550  -1.126  1.00 20.00    -0.060 C 
HETATM    3  C1  UNL     1     -34.815  17.059  -0.054  1.00 20.00     0.016 C 
HETATM    4  C7  UNL     1     -33.089  18.583  -0.962  1.00 20.00     0.044 C 
ENDBRANCH   1   2
BRANCH   1   5
HETATM    5  C6  UNL     1     -34.392  15.579  -2.676  1.00 20.00     0.049 C 
HETATM    6  C3  UNL     1     -33.231  15.140  -3.541  1.00 20.00     0.035 C 
HETATM    7  C4  UNL     1     -33.633  13.725  -3.899  1.00 20.00     0.168 C 
HETATM    8  O11 UNL     1     -35.068  13.702  -3.950  1.00 20.00    -0.391 OA
HETATM    9  C5  UNL     1     -35.562  14.930  -3.394  1.00 20.00     0.174 C 
ENDBRANCH   1   5
BRANCH   1  10
HETATM   10  N10 UNL     1     -33.714  17.748  -3.555  1.00 20.00     0.088 N 
HETATM   11  C8  UNL     1     -34.556  18.548  -4.429  1.00 20.00     0.307 C 
HETATM   12  H28 UNL     1     -33.232  17.038  -4.101  1.00 20.00     0.316 HD
ENDBRANCH   1  10
TORSDOF 3
ENDMDL
MODEL 4
REMARK VINA RESULT:      -4.0      2.306      4.017
REMARK  3 active torsions:
REMARK  status: ('A' for Active; 'I' for Inactive)
REMARK    1  A    between atoms: C2_2  and  C9_9 
REMARK    2  A    between atoms: C6_6  and  C9_9 
REMARK    3  A    between atoms: C9_9  and  N10_10 
ROOT
HETATM    1  C9  UNL     1     -35.260  16.373  -3.023  1.00 20.00     0.254 C 
ENDROOT
BRANCH   1   2
HETATM    2  C2  UNL     1     -34.537  17.111  -1.908  1.00 20.00    -0.060 C 
HETATM    3  C1  UNL     1     -34.660  16.718  -0.629  1.00 20.00     0.016 C 
HETATM    4  C7  UNL     1     -33.686  18.299  -2.265  1.00 20.00     0.044 C 
ENDBRANCH   1   2
BRANCH   1   5
HETATM    5  C6  UNL     1     -34.857  14.912  -3.092  1.00 20.00     0.049 C 
HETATM    6  C3  UNL     1     -33.517  14.670  -3.753  1.00 20.00     0.035 C 
HETATM    7  C4  UNL     1     -33.615  13.203  -4.115  1.00 20.00     0.168 C 
HETATM    8  O11 UNL     1     -34.999  12.934  -4.383  1.00 20.00    -0.391 OA
HETATM    9  C5  UNL     1     -35.774  14.065  -3.955  1.00 20.00     0.174 C 
ENDBRANCH   1   5
BRANCH   1  10
HETATM   10  N10 UNL     1     -35.052  17.002  -4.331  1.00 20.00     0.088 N 
HETATM   11  C8  UNL     1     -36.284  17.607  -4.808  1.00 20.00     0.307 C 
HETATM   12  H28 UNL     1     -34.743  16.291  -4.989  1.00 20.00     0.316 HD
ENDBRANCH   1  10
TORSDOF 3
ENDMDL
MODEL 5
REMARK VINA RESULT:      -4.0      2.165      4.106
REMARK  3 active torsions:
REMARK  status: ('A' for Active; 'I' for Inactive)
REMARK    1  A    between atoms: C2_2  and  C9_9 
REMARK    2  A    between atoms: C6_6  and  C9_9 
REMARK    3  A    between atoms: C9_9  and  N10_10 
ROOT
HETATM    1  C9  UNL     1     -33.917  16.616  -3.061  1.00 20.00     0.254 C 
ENDROOT
BRANCH   1   2
HETATM    2  C2  UNL     1     -33.716  17.878  -3.883  1.00 20.00    -0.060 C 
HETATM    3  C1  UNL     1     -33.584  17.817  -5.218  1.00 20.00     0.016 C 
HETATM    4  C7  UNL     1     -33.658  19.201  -3.168  1.00 20.00     0.044 C 
ENDBRANCH   1   2
BRANCH   1   5
HETATM    5  C6  UNL     1     -34.094  15.390  -3.936  1.00 20.00     0.049 C 
HETATM    6  C3  UNL     1     -35.396  14.652  -3.712  1.00 20.00     0.035 C 
HETATM    7  C4  UNL     1     -35.085  13.294  -4.304  1.00 20.00     0.168 C 
HETATM    8  O11 UNL     1     -33.682  13.065  -4.101  1.00 20.00    -0.391 OA
HETATM    9  C5  UNL     1     -33.079  14.294  -3.666  1.00 20.00     0.174 C 
ENDBRANCH   1   5
BRANCH   1  10
HETATM   10  N10 UNL     1     -35.052  16.729  -2.139  1.00 20.00     0.088 N 
HETATM   11  C8  UNL     1     -34.597  16.668  -0.760  1.00 20.00     0.307 C 
HETATM   12  H28 UNL     1     -35.696  15.963  -2.320  1.00 20.00     0.316 HD
ENDBRANCH   1  10
TORSDOF 3
ENDMDL
MODEL 6
REMARK VINA RESULT:      -3.9      1.192      1.575
REMARK  3 active torsions:
REMARK  status: ('A' for Active; 'I' for Inactive)
REMARK    1  A    between atoms: C2_2  and  C9_9 
REMARK    2  A    between atoms: C6_6  and  C9_9 
REMARK    3  A    between atoms: C9_9  and  N10_10 
ROOT
HETATM    1  C9  UNL     1     -34.196  16.038  -3.822  1.00 20.00     0.254 C 
ENDROOT
BRANCH   1   2
HETATM    2  C2  UNL     1     -34.212  14.519  -3.854  1.00 20.00    -0.060 C 
HETATM    3  C1  UNL     1     -33.088  13.814  -3.640  1.00 20.00     0.016 C 
HETATM    4  C7  UNL     1     -35.512  13.819  -4.141  1.00 20.00     0.044 C 
ENDBRANCH   1   2
BRANCH   1   5
HETATM    5  C6  UNL     1     -33.804  16.574  -2.458  1.00 20.00     0.049 C 
HETATM    6  C3  UNL     1     -34.811  16.283  -1.366  1.00 20.00     0.035 C 
HETATM    7  C4  UNL     1     -34.429  17.305  -0.317  1.00 20.00     0.168 C 
HETATM    8  O11 UNL     1     -33.919  18.449  -1.018  1.00 20.00    -0.391 OA
HETATM    9  C5  UNL     1     -33.724  18.089  -2.395  1.00 20.00     0.174 C 
ENDBRANCH   1   5
BRANCH   1  10
HETATM   10  N10 UNL     1     -35.482  16.616  -4.225  1.00 20.00     0.088 N 
HETATM   11  C8  UNL     1     -35.387  17.197  -5.553  1.00 20.00     0.307 C 
HETATM   12  H28 UNL     1     -35.741  17.335  -3.554  1.00 20.00     0.316 HD
ENDBRANCH   1  10
TORSDOF 3
ENDMDL
MODEL 7
REMARK VINA RESULT:      -3.8      3.324      4.802
REMARK  3 active torsions:
REMARK  status: ('A' for Active; 'I' for Inactive)
REMARK    1  A    between atoms: C2_2  and  C9_9 
REMARK    2  A    between atoms: C6_6  and  C9_9 
REMARK    3  A    between atoms: C9_9  and  N10_10 
ROOT
HETATM    1  C9  UNL     1     -34.632  15.982  -4.664  1.00 20.00     0.254 C 
ENDROOT
BRANCH   1   2
HETATM    2  C2  UNL     1     -34.258  15.260  -3.381  1.00 20.00    -0.060 C 
HETATM    3  C1  UNL     1     -33.804  13.995  -3.409  1.00 20.00     0.016 C 
HETATM    4  C7  UNL     1     -34.415  15.987  -2.073  1.00 20.00     0.044 C 
ENDBRANCH   1   2
BRANCH   1   5
HETATM    5  C6  UNL     1     -35.256  15.047  -5.682  1.00 20.00     0.049 C 
HETATM    6  C3  UNL     1     -34.492  14.950  -6.985  1.00 20.00     0.035 C 
HETATM    7  C4  UNL     1     -35.547  14.394  -7.918  1.00 20.00     0.168 C 
HETATM    8  O11 UNL     1     -36.811  14.895  -7.460  1.00 20.00    -0.391 OA
HETATM    9  C5  UNL     1     -36.622  15.495  -6.169  1.00 20.00     0.174 C 
ENDBRANCH   1   5
BRANCH   1  10
HETATM   10  N10 UNL     1     -33.487  16.670  -5.268  1.00 20.00     0.088 N 
HETATM   11  C8  UNL     1     -33.664  18.111  -5.201  1.00 20.00     0.307 C 
HETATM   12  H28 UNL     1     -33.407  16.380  -6.240  1.00 20.00     0.316 HD
ENDBRANCH   1  10
TORSDOF 3
ENDMDL
MODEL 8
REMARK VINA RESULT:      -3.8      1.458      1.569
REMARK  3 active torsions:
REMARK  status: ('A' for Active; 'I' for Inactive)
REMARK    1  A    between atoms: C2_2  and  C9_9 
REMARK    2  A    between atoms: C6_6  and  C9_9 
REMARK    3  A    between atoms: C9_9  and  N10_10 
ROOT
HETATM    1  C9  UNL     1     -35.471  16.100  -3.347  1.00 20.00     0.254 C 
ENDROOT
BRANCH   1   2
HETATM    2  C2  UNL     1     -34.273  15.268  -3.773  1.00 20.00    -0.060 C 
HETATM    3  C1  UNL     1     -34.257  13.937  -3.588  1.00 20.00     0.016 C 
HETATM    4  C7  UNL     1     -33.097  15.967  -4.401  1.00 20.00     0.044 C 
ENDBRANCH   1   2
BRANCH   1   5
HETATM    5  C6  UNL     1     -35.111  17.101  -2.266  1.00 20.00     0.049 C 
HETATM    6  C3  UNL     1     -34.652  16.472  -0.968  1.00 20.00     0.035 C 
HETATM    7  C4  UNL     1     -34.846  17.611   0.010  1.00 20.00     0.168 C 
HETATM    8  O11 UNL     1     -35.962  18.380  -0.464  1.00 20.00    -0.391 OA
HETATM    9  C5  UNL     1     -36.286  17.939  -1.792  1.00 20.00     0.174 C 
ENDBRANCH   1   5
BRANCH   1  10
HETATM   10  N10 UNL     1     -36.591  15.269  -2.894  1.00 20.00     0.088 N 
HETATM   11  C8  UNL     1     -37.624  15.205  -3.915  1.00 20.00     0.307 C 
HETATM   12  H28 UNL     1     -36.975  15.675  -2.044  1.00 20.00     0.316 HD
ENDBRANCH   1  10
TORSDOF 3
ENDMDL
MODEL 9
REMARK VINA RESULT:      -3.7      2.144      4.037
REMARK  3 active torsions:
REMARK  status: ('A' for Active; 'I' for Inactive)
REMARK    1  A    between atoms: C2_2  and  C9_9 
REMARK    2  A    between atoms: C6_6  and  C9_9 
REMARK    3  A    between atoms: C9_9  and  N10_10 
ROOT
HETATM    1  C9  UNL     1     -35.591  16.054  -3.001  1.00 20.00     0.254 C 
ENDROOT
BRANCH   1   2
HETATM    2  C2  UNL     1     -34.665  16.831  -2.080  1.00 20.00    -0.060 C 
HETATM    3  C1  UNL     1     -34.663  16.606  -0.755  1.00 20.00     0.016 C 
HETATM    4  C7  UNL     1     -33.753  17.866  -2.681  1.00 20.00     0.044 C 
ENDBRANCH   1   2
BRANCH   1   5
HETATM    5  C6  UNL     1     -34.823  15.201  -3.992  1.00 20.00     0.049 C 
HETATM    6  C3  UNL     1     -35.667  14.652  -5.122  1.00 20.00     0.035 C 
HETATM    7  C4  UNL     1     -34.808  13.509  -5.619  1.00 20.00     0.168 C 
HETATM    8  O11 UNL     1     -34.092  13.004  -4.482  1.00 20.00    -0.391 OA
HETATM    9  C5  UNL     1     -34.259  13.925  -3.393  1.00 20.00     0.174 C 
ENDBRANCH   1   5
BRANCH   1  10
HETATM   10  N10 UNL     1     -36.518  16.931  -3.724  1.00 20.00     0.088 N 
HETATM   11  C8  UNL     1     -37.774  17.052  -3.001  1.00 20.00     0.307 C 
HETATM   12  H28 UNL     1     -36.691  16.535  -4.644  1.00 20.00     0.316 HD
ENDBRANCH   1  10
TORSDOF 3
ENDMDL
