MODEL 1
REMARK VINA RESULT:      -3.9      0.000      0.000
REMARK  2 active torsions:
REMARK  status: ('A' for Active; 'I' for Inactive)
REMARK    1  A    between atoms: C7_7  and  C8_8 
REMARK    2  A    between atoms: C7_7  and  N9_9 
ROOT
HETATM    1  C1  UNL     1     -34.753  15.157  -3.050  1.00 20.00     0.277 C 
HETATM    2  C2  UNL     1     -33.600  16.760  -4.303  1.00 20.00     0.277 C 
HETATM    3  C3  UNL     1     -34.854  14.727  -4.522  1.00 20.00     0.015 C 
HETATM    4  C4  UNL     1     -33.799  15.580  -5.246  1.00 20.00     0.015 C 
HETATM    5  C5  UNL     1     -34.620  13.234  -4.719  1.00 20.00     0.012 C 
HETATM    6  C6  UNL     1     -34.218  16.005  -6.645  1.00 20.00     0.012 C 
HETATM    7  N9  UNL     1     -33.620  16.087  -3.004  1.00 20.00     0.090 N 
ENDROOT
BRANCH   7   8
HETATM    8  C7  UNL     1     -33.706  17.020  -1.892  1.00 20.00     0.287 C 
BRANCH   8   9
HETATM    9  C8  UNL     1     -34.709  16.582  -0.838  1.00 20.00     0.144 C 
HETATM   10 CL10 UNL     1     -34.639  17.632   0.599  1.00 20.00    -0.129 Cl
ENDBRANCH   8   9
ENDBRANCH   7   8
TORSDOF 2
ENDMDL
MODEL 2
REMARK VINA RESULT:      -3.9     11.099     12.193
REMARK  2 active torsions:
REMARK  status: ('A' for Active; 'I' for Inactive)
REMARK    1  A    between atoms: C7_7  and  C8_8 
REMARK    2  A    between atoms: C7_7  and  N9_9 
ROOT
HETATM    1  C1  UNL     1     -33.001   6.925   5.222  1.00 20.00     0.277 C 
HETATM    2  C2  UNL     1     -33.703   6.384   3.058  1.00 20.00     0.277 C 
HETATM    3  C3  UNL     1     -34.319   6.146   5.363  1.00 20.00     0.015 C 
HETATM    4  C4  UNL     1     -34.541   5.508   3.982  1.00 20.00     0.015 C 
HETATM    5  C5  UNL     1     -34.274   5.106   6.476  1.00 20.00     0.012 C 
HETATM    6  C6  UNL     1     -36.004   5.445   3.570  1.00 20.00     0.012 C 
HETATM    7  N9  UNL     1     -32.512   6.599   3.878  1.00 20.00     0.090 N 
ENDROOT
BRANCH   7   8
HETATM    8  C7  UNL     1     -31.636   7.626   3.336  1.00 20.00     0.287 C 
BRANCH   8   9
HETATM    9  C8  UNL     1     -31.986   7.996   1.905  1.00 20.00     0.144 C 
HETATM   10 CL10 UNL     1     -32.525   9.690   1.787  1.00 20.00    -0.129 Cl
ENDBRANCH   8   9
ENDBRANCH   7   8
TORSDOF 2
ENDMDL
MODEL 3
REMARK VINA RESULT:      -3.9     10.914     12.103
REMARK  2 active torsions:
REMARK  status: ('A' for Active; 'I' for Inactive)
REMARK    1  A    between atoms: C7_7  and  C8_8 
REMARK    2  A    between atoms: C7_7  and  N9_9 
ROOT
HETATM    1  C1  UNL     1     -33.623   5.981   2.883  1.00 20.00     0.277 C 
HETATM    2  C2  UNL     1     -32.881   6.862   4.918  1.00 20.00     0.277 C 
HETATM    3  C3  UNL     1     -34.524   5.390   3.978  1.00 20.00     0.015 C 
HETATM    4  C4  UNL     1     -34.248   6.259   5.217  1.00 20.00     0.015 C 
HETATM    5  C5  UNL     1     -35.999   5.390   3.594  1.00 20.00     0.012 C 
HETATM    6  C6  UNL     1     -34.278   5.481   6.523  1.00 20.00     0.012 C 
HETATM    7  N9  UNL     1     -33.013   7.168   3.494  1.00 20.00     0.090 N 
ENDROOT
BRANCH   7   8
HETATM    8  C7  UNL     1     -31.746   7.526   2.878  1.00 20.00     0.287 C 
BRANCH   8   9
HETATM    9  C8  UNL     1     -31.923   8.231   1.544  1.00 20.00     0.144 C 
HETATM   10 CL10 UNL     1     -32.573   9.875   1.760  1.00 20.00    -0.129 Cl
ENDBRANCH   8   9
ENDBRANCH   7   8
TORSDOF 2
ENDMDL
MODEL 4
REMARK VINA RESULT:      -3.8      2.563      5.231
REMARK  2 active torsions:
REMARK  status: ('A' for Active; 'I' for Inactive)
REMARK    1  A    between atoms: C7_7  and  C8_8 
REMARK    2  A    between atoms: C7_7  and  N9_9 
ROOT
HETATM    1  C1  UNL     1     -33.468  18.280  -1.923  1.00 20.00     0.277 C 
HETATM    2  C2  UNL     1     -34.811  16.593  -1.017  1.00 20.00     0.277 C 
HETATM    3  C3  UNL     1     -33.802  18.701  -0.483  1.00 20.00     0.015 C 
HETATM    4  C4  UNL     1     -34.357  17.427   0.174  1.00 20.00     0.015 C 
HETATM    5  C5  UNL     1     -32.594  19.254   0.265  1.00 20.00     0.012 C 
HETATM    6  C6  UNL     1     -35.475  17.695   1.169  1.00 20.00     0.012 C 
HETATM    7  N9  UNL     1     -33.721  16.835  -1.962  1.00 20.00     0.090 N 
ENDROOT
BRANCH   7   8
HETATM    8  C7  UNL     1     -34.024  16.355  -3.301  1.00 20.00     0.287 C 
BRANCH   8   9
HETATM    9  C8  UNL     1     -33.085  15.249  -3.751  1.00 20.00     0.144 C 
HETATM   10 CL10 UNL     1     -33.872  13.654  -3.656  1.00 20.00    -0.129 Cl
ENDBRANCH   8   9
ENDBRANCH   7   8
TORSDOF 2
ENDMDL
MODEL 5
REMARK VINA RESULT:      -3.8      2.892      4.429
REMARK  2 active torsions:
REMARK  status: ('A' for Active; 'I' for Inactive)
REMARK    1  A    between atoms: C7_7  and  C8_8 
REMARK    2  A    between atoms: C7_7  and  N9_9 
ROOT
HETATM    1  C1  UNL     1     -33.426  15.696  -3.232  1.00 20.00     0.277 C 
HETATM    2  C2  UNL     1     -35.693  15.181  -3.484  1.00 20.00     0.277 C 
HETATM    3  C3  UNL     1     -34.217  16.840  -2.580  1.00 20.00     0.015 C 
HETATM    4  C4  UNL     1     -35.648  16.293  -2.444  1.00 20.00     0.015 C 
HETATM    5  C5  UNL     1     -33.637  17.271  -1.238  1.00 20.00     0.012 C 
HETATM    6  C6  UNL     1     -36.724  17.346  -2.657  1.00 20.00     0.012 C 
HETATM    7  N9  UNL     1     -34.372  14.577  -3.308  1.00 20.00     0.090 N 
ENDROOT
BRANCH   7   8
HETATM    8  C7  UNL     1     -34.042  13.635  -4.366  1.00 20.00     0.287 C 
BRANCH   8   9
HETATM    9  C8  UNL     1     -34.947  13.777  -5.578  1.00 20.00     0.144 C 
HETATM   10 CL10 UNL     1     -34.268  14.921  -6.763  1.00 20.00    -0.129 Cl
ENDBRANCH   8   9
ENDBRANCH   7   8
TORSDOF 2
ENDMDL
MODEL 6
REMARK VINA RESULT:      -3.8      1.552      2.054
REMARK  2 active torsions:
REMARK  status: ('A' for Active; 'I' for Inactive)
REMARK    1  A    between atoms: C7_7  and  C8_8 
REMARK    2  A    between atoms: C7_7  and  N9_9 
ROOT
HETATM    1  C1  UNL     1     -35.757  16.537  -3.660  1.00 20.00     0.277 C 
HETATM    2  C2  UNL     1     -33.866  15.183  -3.410  1.00 20.00     0.277 C 
HETATM    3  C3  UNL     1     -36.105  15.169  -4.270  1.00 20.00     0.015 C 
HETATM    4  C4  UNL     1     -34.999  14.228  -3.763  1.00 20.00     0.015 C 
HETATM    5  C5  UNL     1     -37.496  14.684  -3.879  1.00 20.00     0.012 C 
HETATM    6  C6  UNL     1     -34.588  13.173  -4.778  1.00 20.00     0.012 C 
HETATM    7  N9  UNL     1     -34.607  16.280  -2.786  1.00 20.00     0.090 N 
ENDROOT
BRANCH   7   8
HETATM    8  C7  UNL     1     -33.787  17.463  -2.578  1.00 20.00     0.287 C 
BRANCH   8   9
HETATM    9  C8  UNL     1     -33.659  17.833  -1.110  1.00 20.00     0.144 C 
HETATM   10 CL10 UNL     1     -34.792  16.896  -0.104  1.00 20.00    -0.129 Cl
ENDBRANCH   8   9
ENDBRANCH   7   8
TORSDOF 2
ENDMDL
MODEL 7
REMARK VINA RESULT:      -3.7      0.812      2.150
REMARK  2 active torsions:
REMARK  status: ('A' for Active; 'I' for Inactive)
REMARK    1  A    between atoms: C7_7  and  C8_8 
REMARK    2  A    between atoms: C7_7  and  N9_9 
ROOT
HETATM    1  C1  UNL     1     -33.774  16.816  -4.843  1.00 20.00     0.277 C 
HETATM    2  C2  UNL     1     -35.004  15.459  -3.388  1.00 20.00     0.277 C 
HETATM    3  C3  UNL     1     -33.956  15.460  -5.545  1.00 20.00     0.015 C 
HETATM    4  C4  UNL     1     -35.054  14.751  -4.735  1.00 20.00     0.015 C 
HETATM    5  C5  UNL     1     -34.327  15.602  -7.016  1.00 20.00     0.012 C 
HETATM    6  C6  UNL     1     -34.848  13.248  -4.621  1.00 20.00     0.012 C 
HETATM    7  N9  UNL     1     -34.812  16.848  -3.808  1.00 20.00     0.090 N 
ENDROOT
BRANCH   7   8
HETATM    8  C7  UNL     1     -34.471  17.726  -2.699  1.00 20.00     0.287 C 
BRANCH   8   9
HETATM    9  C8  UNL     1     -33.799  16.988  -1.555  1.00 20.00     0.144 C 
HETATM   10 CL10 UNL     1     -34.815  16.996  -0.092  1.00 20.00    -0.129 Cl
ENDBRANCH   8   9
ENDBRANCH   7   8
TORSDOF 2
ENDMDL
MODEL 8
REMARK VINA RESULT:      -3.7      3.106      4.177
REMARK  2 active torsions:
REMARK  status: ('A' for Active; 'I' for Inactive)
REMARK    1  A    between atoms: C7_7  and  C8_8 
REMARK    2  A    between atoms: C7_7  and  N9_9 
ROOT
HETATM    1  C1  UNL     1     -34.718  17.417  -3.766  1.00 20.00     0.277 C 
HETATM    2  C2  UNL     1     -33.118  16.125  -4.881  1.00 20.00     0.277 C 
HETATM    3  C3  UNL     1     -34.625  16.078  -3.016  1.00 20.00     0.015 C 
HETATM    4  C4  UNL     1     -33.335  15.429  -3.543  1.00 20.00     0.015 C 
HETATM    5  C5  UNL     1     -34.603  16.251  -1.501  1.00 20.00     0.012 C 
HETATM    6  C6  UNL     1     -33.426  13.916  -3.672  1.00 20.00     0.012 C 
HETATM    7  N9  UNL     1     -33.476  17.502  -4.542  1.00 20.00     0.090 N 
ENDROOT
BRANCH   7   8
HETATM    8  C7  UNL     1     -33.606  18.352  -5.715  1.00 20.00     0.287 C 
BRANCH   8   9
HETATM    9  C8  UNL     1     -34.930  18.159  -6.433  1.00 20.00     0.144 C 
HETATM   10 CL10 UNL     1     -34.728  17.196  -7.918  1.00 20.00    -0.129 Cl
ENDBRANCH   8   9
ENDBRANCH   7   8
TORSDOF 2
ENDMDL
MODEL 9
REMARK VINA RESULT:      -3.7     13.004     14.584
REMARK  2 active torsions:
REMARK  status: ('A' for Active; 'I' for Inactive)
REMARK    1  A    between atoms: C7_7  and  C8_8 
REMARK    2  A    between atoms: C7_7  and  N9_9 
ROOT
HETATM    1  C1  UNL     1     -42.954   4.951  -2.870  1.00 20.00     0.277 C 
HETATM    2  C2  UNL     1     -41.259   4.221  -1.433  1.00 20.00     0.277 C 
HETATM    3  C3  UNL     1     -42.464   6.185  -2.095  1.00 20.00     0.015 C 
HETATM    4  C4  UNL     1     -41.139   5.740  -1.456  1.00 20.00     0.015 C 
HETATM    5  C5  UNL     1     -42.289   7.410  -2.986  1.00 20.00     0.012 C 
HETATM    6  C6  UNL     1     -40.900   6.335  -0.077  1.00 20.00     0.012 C 
HETATM    7  N9  UNL     1     -41.873   3.968  -2.736  1.00 20.00     0.090 N 
ENDROOT
BRANCH   7   8
HETATM    8  C7  UNL     1     -42.342   2.598  -2.878  1.00 20.00     0.287 C 
BRANCH   8   9
HETATM    9  C8  UNL     1     -41.472   1.778  -3.816  1.00 20.00     0.144 C 
HETATM   10 CL10 UNL     1     -41.867   0.044  -3.714  1.00 20.00    -0.129 Cl
ENDBRANCH   8   9
ENDBRANCH   7   8
TORSDOF 2
ENDMDL
