MODEL 1
REMARK VINA RESULT:      -4.6      0.000      0.000
REMARK  3 active torsions:
REMARK  status: ('A' for Active; 'I' for Inactive)
REMARK    1  A    between atoms: C2_2  and  C3_3 
REMARK    2  A    between atoms: C3_3  and  C7_7 
REMARK    3  A    between atoms: C8_8  and  C11_11 
ROOT
HETATM    1  C4  UNL     1     -35.152  14.213  -6.841  1.00 20.00     0.013 C 
HETATM    2  C5  UNL     1     -34.290  15.395  -7.262  1.00 20.00     0.005 C 
HETATM    3  C6  UNL     1     -35.622  16.156  -5.420  1.00 20.00     0.017 C 
HETATM    4  C7  UNL     1     -35.765  14.631  -5.501  1.00 20.00     0.060 C 
HETATM    5  C8  UNL     1     -35.108  16.593  -6.793  1.00 20.00    -0.014 C 
ENDROOT
BRANCH   4   6
HETATM    6  C3  UNL     1     -35.040  13.981  -4.363  1.00 20.00     0.158 C 
HETATM    7  O12 UNL     1     -35.113  12.763  -4.195  1.00 20.00    -0.292 OA
BRANCH   6   8
HETATM    8  C2  UNL     1     -34.225  14.820  -3.424  1.00 20.00    -0.025 C 
HETATM    9  C1  UNL     1     -34.796  15.499  -2.419  1.00 20.00     0.022 C 
HETATM   10  C9  UNL     1     -32.745  14.856  -3.668  1.00 20.00     0.051 C 
ENDBRANCH   6   8
ENDBRANCH   4   6
BRANCH   5  11
HETATM   11  C11 UNL     1     -34.306  17.883  -6.751  1.00 20.00     0.000 C 
HETATM   12  C10 UNL     1     -33.585  18.052  -5.451  1.00 20.00     0.005 C 
ENDBRANCH   5  11
TORSDOF 3
ENDMDL
MODEL 2
REMARK VINA RESULT:      -4.6      1.058      3.192
REMARK  3 active torsions:
REMARK  status: ('A' for Active; 'I' for Inactive)
REMARK    1  A    between atoms: C2_2  and  C3_3 
REMARK    2  A    between atoms: C3_3  and  C7_7 
REMARK    3  A    between atoms: C8_8  and  C11_11 
ROOT
HETATM    1  C4  UNL     1     -34.762  15.159  -2.751  1.00 20.00     0.013 C 
HETATM    2  C5  UNL     1     -35.000  16.630  -3.062  1.00 20.00     0.005 C 
HETATM    3  C6  UNL     1     -33.210  15.922  -4.492  1.00 20.00     0.017 C 
HETATM    4  C7  UNL     1     -33.834  14.668  -3.866  1.00 20.00     0.060 C 
HETATM    5  C8  UNL     1     -33.647  17.085  -3.599  1.00 20.00    -0.014 C 
ENDROOT
BRANCH   4   6
HETATM    6  C3  UNL     1     -34.605  13.901  -4.896  1.00 20.00     0.158 C 
HETATM    7  O12 UNL     1     -34.762  12.686  -4.778  1.00 20.00    -0.292 OA
BRANCH   6   8
HETATM    8  C2  UNL     1     -35.185  14.621  -6.078  1.00 20.00    -0.025 C 
HETATM    9  C1  UNL     1     -34.484  14.784  -7.210  1.00 20.00     0.022 C 
HETATM   10  C9  UNL     1     -36.583  15.144  -5.926  1.00 20.00     0.051 C 
ENDBRANCH   6   8
ENDBRANCH   4   6
BRANCH   5  11
HETATM   11  C11 UNL     1     -33.712  18.413  -4.333  1.00 20.00     0.000 C 
HETATM   12  C10 UNL     1     -33.639  18.237  -5.817  1.00 20.00     0.005 C 
ENDBRANCH   5  11
TORSDOF 3
ENDMDL
MODEL 3
REMARK VINA RESULT:      -4.6      2.057      4.404
REMARK  3 active torsions:
REMARK  status: ('A' for Active; 'I' for Inactive)
REMARK    1  A    between atoms: C2_2  and  C3_3 
REMARK    2  A    between atoms: C3_3  and  C7_7 
REMARK    3  A    between atoms: C8_8  and  C11_11 
ROOT
HETATM    1  C4  UNL     1     -35.901  15.781  -3.852  1.00 20.00     0.013 C 
HETATM    2  C5  UNL     1     -35.782  16.788  -2.716  1.00 20.00     0.005 C 
HETATM    3  C6  UNL     1     -33.682  15.634  -2.816  1.00 20.00     0.017 C 
HETATM    4  C7  UNL     1     -34.474  15.275  -4.079  1.00 20.00     0.060 C 
HETATM    5  C8  UNL     1     -34.718  16.162  -1.820  1.00 20.00    -0.014 C 
ENDROOT
BRANCH   4   6
HETATM    6  C3  UNL     1     -33.865  15.936  -5.279  1.00 20.00     0.158 C 
HETATM    7  O12 UNL     1     -32.850  16.622  -5.161  1.00 20.00    -0.292 OA
BRANCH   6   8
HETATM    8  C2  UNL     1     -34.499  15.758  -6.627  1.00 20.00    -0.025 C 
HETATM    9  C1  UNL     1     -34.835  14.544  -7.087  1.00 20.00     0.022 C 
HETATM   10  C9  UNL     1     -34.737  17.006  -7.426  1.00 20.00     0.051 C 
ENDBRANCH   6   8
ENDBRANCH   4   6
BRANCH   5  11
HETATM   11  C11 UNL     1     -34.137  17.139  -0.812  1.00 20.00     0.000 C 
HETATM   12  C10 UNL     1     -35.037  17.324   0.370  1.00 20.00     0.005 C 
ENDBRANCH   5  11
TORSDOF 3
ENDMDL
MODEL 4
REMARK VINA RESULT:      -4.4      1.878      2.912
REMARK  3 active torsions:
REMARK  status: ('A' for Active; 'I' for Inactive)
REMARK    1  A    between atoms: C2_2  and  C3_3 
REMARK    2  A    between atoms: C3_3  and  C7_7 
REMARK    3  A    between atoms: C8_8  and  C11_11 
ROOT
HETATM    1  C4  UNL     1     -34.739  13.557  -3.705  1.00 20.00     0.013 C 
HETATM    2  C5  UNL     1     -34.719  13.528  -5.228  1.00 20.00     0.005 C 
HETATM    3  C6  UNL     1     -35.778  15.588  -4.607  1.00 20.00     0.017 C 
HETATM    4  C7  UNL     1     -35.144  14.989  -3.346  1.00 20.00     0.060 C 
HETATM    5  C8  UNL     1     -35.894  14.427  -5.598  1.00 20.00    -0.014 C 
ENDROOT
BRANCH   4   6
HETATM    6  C3  UNL     1     -33.947  15.790  -2.935  1.00 20.00     0.158 C 
HETATM    7  O12 UNL     1     -32.838  15.535  -3.406  1.00 20.00    -0.292 OA
BRANCH   6   8
HETATM    8  C2  UNL     1     -34.103  16.904  -1.943  1.00 20.00    -0.025 C 
HETATM    9  C1  UNL     1     -34.589  16.683  -0.714  1.00 20.00     0.022 C 
HETATM   10  C9  UNL     1     -33.685  18.272  -2.399  1.00 20.00     0.051 C 
ENDBRANCH   6   8
ENDBRANCH   4   6
BRANCH   5  11
HETATM   11  C11 UNL     1     -35.871  14.873  -7.050  1.00 20.00     0.000 C 
HETATM   12  C10 UNL     1     -34.476  15.093  -7.546  1.00 20.00     0.005 C 
ENDBRANCH   5  11
TORSDOF 3
ENDMDL
MODEL 5
REMARK VINA RESULT:      -4.4     10.988     12.675
REMARK  3 active torsions:
REMARK  status: ('A' for Active; 'I' for Inactive)
REMARK    1  A    between atoms: C2_2  and  C3_3 
REMARK    2  A    between atoms: C3_3  and  C7_7 
REMARK    3  A    between atoms: C8_8  and  C11_11 
ROOT
HETATM    1  C4  UNL     1     -32.194   5.803   3.864  1.00 20.00     0.013 C 
HETATM    2  C5  UNL     1     -31.832   7.275   3.720  1.00 20.00     0.005 C 
HETATM    3  C6  UNL     1     -33.574   6.852   2.128  1.00 20.00     0.017 C 
HETATM    4  C7  UNL     1     -33.486   5.637   3.060  1.00 20.00     0.060 C 
HETATM    5  C8  UNL     1     -32.239   7.583   2.283  1.00 20.00    -0.014 C 
ENDROOT
BRANCH   4   6
HETATM    6  C3  UNL     1     -34.674   5.595   3.972  1.00 20.00     0.158 C 
HETATM    7  O12 UNL     1     -35.802   5.822   3.534  1.00 20.00    -0.292 OA
BRANCH   6   8
HETATM    8  C2  UNL     1     -34.484   5.276   5.426  1.00 20.00    -0.025 C 
HETATM    9  C1  UNL     1     -34.604   4.024   5.889  1.00 20.00     0.022 C 
HETATM   10  C9  UNL     1     -34.152   6.429   6.328  1.00 20.00     0.051 C 
ENDBRANCH   6   8
ENDBRANCH   4   6
BRANCH   5  11
HETATM   11  C11 UNL     1     -32.334   9.072   1.996  1.00 20.00     0.000 C 
HETATM   12  C10 UNL     1     -32.309   9.363   0.528  1.00 20.00     0.005 C 
ENDBRANCH   5  11
TORSDOF 3
ENDMDL
MODEL 6
REMARK VINA RESULT:      -4.4      1.619      2.302
REMARK  3 active torsions:
REMARK  status: ('A' for Active; 'I' for Inactive)
REMARK    1  A    between atoms: C2_2  and  C3_3 
REMARK    2  A    between atoms: C3_3  and  C7_7 
REMARK    3  A    between atoms: C8_8  and  C11_11 
ROOT
HETATM    1  C4  UNL     1     -35.134  13.866  -5.980  1.00 20.00     0.013 C 
HETATM    2  C5  UNL     1     -35.909  15.141  -6.287  1.00 20.00     0.005 C 
HETATM    3  C6  UNL     1     -36.475  14.534  -4.037  1.00 20.00     0.017 C 
HETATM    4  C7  UNL     1     -35.282  13.672  -4.469  1.00 20.00     0.060 C 
HETATM    5  C8  UNL     1     -37.098  15.049  -5.336  1.00 20.00    -0.014 C 
ENDROOT
BRANCH   4   6
HETATM    6  C3  UNL     1     -34.040  14.110  -3.755  1.00 20.00     0.158 C 
HETATM    7  O12 UNL     1     -33.123  13.312  -3.557  1.00 20.00    -0.292 OA
BRANCH   6   8
HETATM    8  C2  UNL     1     -33.917  15.527  -3.279  1.00 20.00    -0.025 C 
HETATM    9  C1  UNL     1     -34.347  15.897  -2.065  1.00 20.00     0.022 C 
HETATM   10  C9  UNL     1     -33.287  16.502  -4.231  1.00 20.00     0.051 C 
ENDBRANCH   6   8
ENDBRANCH   4   6
BRANCH   5  11
HETATM   11  C11 UNL     1     -37.830  16.369  -5.168  1.00 20.00     0.000 C 
HETATM   12  C10 UNL     1     -37.191  17.236  -4.129  1.00 20.00     0.005 C 
ENDBRANCH   5  11
TORSDOF 3
ENDMDL
MODEL 7
REMARK VINA RESULT:      -4.3      1.782      3.070
REMARK  3 active torsions:
REMARK  status: ('A' for Active; 'I' for Inactive)
REMARK    1  A    between atoms: C2_2  and  C3_3 
REMARK    2  A    between atoms: C3_3  and  C7_7 
REMARK    3  A    between atoms: C8_8  and  C11_11 
ROOT
HETATM    1  C4  UNL     1     -34.765  18.148  -4.074  1.00 20.00     0.013 C 
HETATM    2  C5  UNL     1     -35.370  17.802  -5.428  1.00 20.00     0.005 C 
HETATM    3  C6  UNL     1     -33.409  16.442  -5.200  1.00 20.00     0.017 C 
HETATM    4  C7  UNL     1     -33.703  17.073  -3.833  1.00 20.00     0.060 C 
HETATM    5  C8  UNL     1     -34.166  17.299  -6.217  1.00 20.00    -0.014 C 
ENDROOT
BRANCH   4   6
HETATM    6  C3  UNL     1     -34.210  16.034  -2.880  1.00 20.00     0.158 C 
HETATM    7  O12 UNL     1     -34.188  16.241  -1.666  1.00 20.00    -0.292 OA
BRANCH   6   8
HETATM    8  C2  UNL     1     -34.744  14.736  -3.411  1.00 20.00    -0.025 C 
HETATM    9  C1  UNL     1     -33.943  13.679  -3.607  1.00 20.00     0.022 C 
HETATM   10  C9  UNL     1     -36.215  14.686  -3.705  1.00 20.00     0.051 C 
ENDBRANCH   6   8
ENDBRANCH   4   6
BRANCH   5  11
HETATM   11  C11 UNL     1     -34.552  16.537  -7.474  1.00 20.00     0.000 C 
HETATM   12  C10 UNL     1     -34.528  15.056  -7.261  1.00 20.00     0.005 C 
ENDBRANCH   5  11
TORSDOF 3
ENDMDL
MODEL 8
REMARK VINA RESULT:      -4.2      1.822      3.570
REMARK  3 active torsions:
REMARK  status: ('A' for Active; 'I' for Inactive)
REMARK    1  A    between atoms: C2_2  and  C3_3 
REMARK    2  A    between atoms: C3_3  and  C7_7 
REMARK    3  A    between atoms: C8_8  and  C11_11 
ROOT
HETATM    1  C4  UNL     1     -34.410  13.432  -4.932  1.00 20.00     0.013 C 
HETATM    2  C5  UNL     1     -34.379  14.011  -3.524  1.00 20.00     0.005 C 
HETATM    3  C6  UNL     1     -33.942  15.838  -5.013  1.00 20.00     0.017 C 
HETATM    4  C7  UNL     1     -34.422  14.651  -5.857  1.00 20.00     0.060 C 
HETATM    5  C8  UNL     1     -33.485  15.236  -3.683  1.00 20.00    -0.014 C 
ENDROOT
BRANCH   4   6
HETATM    6  C3  UNL     1     -35.804  14.908  -6.375  1.00 20.00     0.158 C 
HETATM    7  O12 UNL     1     -36.157  14.443  -7.460  1.00 20.00    -0.292 OA
BRANCH   6   8
HETATM    8  C2  UNL     1     -36.759  15.735  -5.567  1.00 20.00    -0.025 C 
HETATM    9  C1  UNL     1     -36.835  17.065  -5.721  1.00 20.00     0.022 C 
HETATM   10  C9  UNL     1     -37.621  14.998  -4.584  1.00 20.00     0.051 C 
ENDBRANCH   6   8
ENDBRANCH   4   6
BRANCH   5  11
HETATM   11  C11 UNL     1     -33.589  16.206  -2.518  1.00 20.00     0.000 C 
HETATM   12  C10 UNL     1     -34.958  16.212  -1.915  1.00 20.00     0.005 C 
ENDBRANCH   5  11
TORSDOF 3
ENDMDL
MODEL 9
REMARK VINA RESULT:      -4.2      2.116      3.394
REMARK  3 active torsions:
REMARK  status: ('A' for Active; 'I' for Inactive)
REMARK    1  A    between atoms: C2_2  and  C3_3 
REMARK    2  A    between atoms: C3_3  and  C7_7 
REMARK    3  A    between atoms: C8_8  and  C11_11 
ROOT
HETATM    1  C4  UNL     1     -34.732  18.106  -4.310  1.00 20.00     0.013 C 
HETATM    2  C5  UNL     1     -35.256  17.241  -5.449  1.00 20.00     0.005 C 
HETATM    3  C6  UNL     1     -33.213  16.222  -4.715  1.00 20.00     0.017 C 
HETATM    4  C7  UNL     1     -33.606  17.282  -3.679  1.00 20.00     0.060 C 
HETATM    5  C8  UNL     1     -33.988  16.584  -5.984  1.00 20.00    -0.014 C 
ENDROOT
BRANCH   4   6
HETATM    6  C3  UNL     1     -34.076  16.625  -2.416  1.00 20.00     0.158 C 
HETATM    7  O12 UNL     1     -34.488  15.465  -2.436  1.00 20.00    -0.292 OA
BRANCH   6   8
HETATM    8  C2  UNL     1     -34.044  17.389  -1.125  1.00 20.00    -0.025 C 
HETATM    9  C1  UNL     1     -34.821  17.043  -0.089  1.00 20.00     0.022 C 
HETATM   10  C9  UNL     1     -33.099  18.553  -1.057  1.00 20.00     0.051 C 
ENDBRANCH   6   8
ENDBRANCH   4   6
BRANCH   5  11
HETATM   11  C11 UNL     1     -34.268  15.387  -6.878  1.00 20.00     0.000 C 
HETATM   12  C10 UNL     1     -34.942  14.278  -6.133  1.00 20.00     0.005 C 
ENDBRANCH   5  11
TORSDOF 3
ENDMDL
