MODEL 1
REMARK VINA RESULT:      -5.0      0.000      0.000
REMARK  4 active torsions:
REMARK  status: ('A' for Active; 'I' for Inactive)
REMARK    1  A    between atoms: C2_2  and  C5_5 
REMARK    2  A    between atoms: C5_5  and  C6_6 
REMARK    3  A    between atoms: C6_6  and  C7_7 
REMARK    4  A    between atoms: C7_7  and  C8_8 
ROOT
HETATM    1  C6  UNL     1     -33.925   5.409   2.874  1.00 20.00     0.006 C 
ENDROOT
BRANCH   1   2
HETATM    2  C5  UNL     1     -34.825   5.984   3.976  1.00 20.00     0.033 C 
BRANCH   2   3
HETATM    3  C2  UNL     1     -34.567   5.433   5.359  1.00 20.00    -0.093 C 
HETATM    4  C1  UNL     1     -34.837   4.155   5.666  1.00 20.00     0.014 C 
HETATM    5  C3  UNL     1     -34.032   6.387   6.386  1.00 20.00     0.042 C 
ENDBRANCH   2   3
ENDBRANCH   1   2
BRANCH   1   6
HETATM    6  C7  UNL     1     -32.473   5.900   2.968  1.00 20.00     0.020 C 
BRANCH   6   7
HETATM    7  C8  UNL     1     -32.357   7.423   3.118  1.00 20.00     0.078 C 
HETATM    8  C4  UNL     1     -31.276   7.794   4.127  1.00 20.00     0.026 C 
HETATM    9 CL9  UNL     1     -31.972   8.198   1.552  1.00 20.00    -0.125 Cl
ENDBRANCH   6   7
ENDBRANCH   1   6
TORSDOF 4
ENDMDL
MODEL 2
REMARK VINA RESULT:      -4.8      2.337      4.191
REMARK  4 active torsions:
REMARK  status: ('A' for Active; 'I' for Inactive)
REMARK    1  A    between atoms: C2_2  and  C5_5 
REMARK    2  A    between atoms: C5_5  and  C6_6 
REMARK    3  A    between atoms: C6_6  and  C7_7 
REMARK    4  A    between atoms: C7_7  and  C8_8 
ROOT
HETATM    1  C6  UNL     1     -33.804   5.729   2.795  1.00 20.00     0.006 C 
ENDROOT
BRANCH   1   2
HETATM    2  C5  UNL     1     -32.316   5.927   3.112  1.00 20.00     0.033 C 
BRANCH   2   3
HETATM    3  C2  UNL     1     -31.857   7.367   3.129  1.00 20.00    -0.093 C 
HETATM    4  C1  UNL     1     -31.268   7.903   4.209  1.00 20.00     0.014 C 
HETATM    5  C3  UNL     1     -32.123   8.183   1.898  1.00 20.00     0.042 C 
ENDBRANCH   2   3
ENDBRANCH   1   2
BRANCH   1   6
HETATM    6  C7  UNL     1     -34.713   5.955   4.011  1.00 20.00     0.020 C 
BRANCH   6   7
HETATM    7  C8  UNL     1     -34.122   5.412   5.319  1.00 20.00     0.078 C 
HETATM    8  C4  UNL     1     -34.058   6.499   6.386  1.00 20.00     0.026 C 
HETATM    9 CL9  UNL     1     -35.091   4.046   5.948  1.00 20.00    -0.125 Cl
ENDBRANCH   6   7
ENDBRANCH   1   6
TORSDOF 4
ENDMDL
MODEL 3
REMARK VINA RESULT:      -4.7      1.265      1.427
REMARK  4 active torsions:
REMARK  status: ('A' for Active; 'I' for Inactive)
REMARK    1  A    between atoms: C2_2  and  C5_5 
REMARK    2  A    between atoms: C5_5  and  C6_6 
REMARK    3  A    between atoms: C6_6  and  C7_7 
REMARK    4  A    between atoms: C7_7  and  C8_8 
ROOT
HETATM    1  C6  UNL     1     -33.990   6.575   3.545  1.00 20.00     0.006 C 
ENDROOT
BRANCH   1   2
HETATM    2  C5  UNL     1     -34.771   5.407   4.162  1.00 20.00     0.033 C 
BRANCH   2   3
HETATM    3  C2  UNL     1     -34.651   5.287   5.664  1.00 20.00    -0.093 C 
HETATM    4  C1  UNL     1     -35.093   4.202   6.319  1.00 20.00     0.014 C 
HETATM    5  C3  UNL     1     -34.050   6.451   6.397  1.00 20.00     0.042 C 
ENDBRANCH   2   3
ENDBRANCH   1   2
BRANCH   1   6
HETATM    6  C7  UNL     1     -32.651   6.145   2.931  1.00 20.00     0.020 C 
BRANCH   6   7
HETATM    7  C8  UNL     1     -31.647   7.298   2.796  1.00 20.00     0.078 C 
HETATM    8  C4  UNL     1     -32.215   8.422   1.935  1.00 20.00     0.026 C 
HETATM    9 CL9  UNL     1     -31.211   7.965   4.398  1.00 20.00    -0.125 Cl
ENDBRANCH   6   7
ENDBRANCH   1   6
TORSDOF 4
ENDMDL
MODEL 4
REMARK VINA RESULT:      -4.7      2.537      4.655
REMARK  4 active torsions:
REMARK  status: ('A' for Active; 'I' for Inactive)
REMARK    1  A    between atoms: C2_2  and  C5_5 
REMARK    2  A    between atoms: C5_5  and  C6_6 
REMARK    3  A    between atoms: C6_6  and  C7_7 
REMARK    4  A    between atoms: C7_7  and  C8_8 
ROOT
HETATM    1  C6  UNL     1     -32.728   6.414   2.959  1.00 20.00     0.006 C 
ENDROOT
BRANCH   1   2
HETATM    2  C5  UNL     1     -31.917   7.716   3.007  1.00 20.00     0.033 C 
BRANCH   2   3
HETATM    3  C2  UNL     1     -32.107   8.626   1.815  1.00 20.00    -0.093 C 
HETATM    4  C1  UNL     1     -31.664   8.285   0.595  1.00 20.00     0.014 C 
HETATM    5  C3  UNL     1     -32.778   9.945   2.062  1.00 20.00     0.042 C 
ENDBRANCH   2   3
ENDBRANCH   1   2
BRANCH   1   6
HETATM    6  C7  UNL     1     -34.000   6.465   3.817  1.00 20.00     0.020 C 
BRANCH   6   7
HETATM    7  C8  UNL     1     -33.933   5.559   5.053  1.00 20.00     0.078 C 
HETATM    8  C4  UNL     1     -34.133   6.362   6.334  1.00 20.00     0.026 C 
HETATM    9 CL9  UNL     1     -35.177   4.274   4.980  1.00 20.00    -0.125 Cl
ENDBRANCH   6   7
ENDBRANCH   1   6
TORSDOF 4
ENDMDL
MODEL 5
REMARK VINA RESULT:      -4.6      1.246      1.617
REMARK  4 active torsions:
REMARK  status: ('A' for Active; 'I' for Inactive)
REMARK    1  A    between atoms: C2_2  and  C5_5 
REMARK    2  A    between atoms: C5_5  and  C6_6 
REMARK    3  A    between atoms: C6_6  and  C7_7 
REMARK    4  A    between atoms: C7_7  and  C8_8 
ROOT
HETATM    1  C6  UNL     1     -32.465   6.362   3.389  1.00 20.00     0.006 C 
ENDROOT
BRANCH   1   2
HETATM    2  C5  UNL     1     -33.948   6.456   3.771  1.00 20.00     0.033 C 
BRANCH   2   3
HETATM    3  C2  UNL     1     -34.317   5.757   5.060  1.00 20.00    -0.093 C 
HETATM    4  C1  UNL     1     -34.970   4.585   5.060  1.00 20.00     0.014 C 
HETATM    5  C3  UNL     1     -33.954   6.450   6.341  1.00 20.00     0.042 C 
ENDBRANCH   2   3
ENDBRANCH   1   2
BRANCH   1   6
HETATM    6  C7  UNL     1     -31.832   7.729   3.096  1.00 20.00     0.020 C 
BRANCH   6   7
HETATM    7  C8  UNL     1     -32.434   8.426   1.869  1.00 20.00     0.078 C 
HETATM    8  C4  UNL     1     -32.740   9.890   2.164  1.00 20.00     0.026 C 
HETATM    9 CL9  UNL     1     -31.324   8.341   0.469  1.00 20.00    -0.125 Cl
ENDBRANCH   6   7
ENDBRANCH   1   6
TORSDOF 4
ENDMDL
MODEL 6
REMARK VINA RESULT:      -3.8     11.313     12.308
REMARK  4 active torsions:
REMARK  status: ('A' for Active; 'I' for Inactive)
REMARK    1  A    between atoms: C2_2  and  C5_5 
REMARK    2  A    between atoms: C5_5  and  C6_6 
REMARK    3  A    between atoms: C6_6  and  C7_7 
REMARK    4  A    between atoms: C7_7  and  C8_8 
ROOT
HETATM    1  C6  UNL     1     -34.601  16.347  -1.354  1.00 20.00     0.006 C 
ENDROOT
BRANCH   1   2
HETATM    2  C5  UNL     1     -33.582  17.495  -1.355  1.00 20.00     0.033 C 
BRANCH   2   3
HETATM    3  C2  UNL     1     -33.406  18.188  -0.024  1.00 20.00    -0.093 C 
HETATM    4  C1  UNL     1     -34.354  18.136   0.925  1.00 20.00     0.014 C 
HETATM    5  C3  UNL     1     -32.141  18.969   0.178  1.00 20.00     0.042 C 
ENDBRANCH   2   3
ENDBRANCH   1   2
BRANCH   1   6
HETATM    6  C7  UNL     1     -34.769  15.691  -2.732  1.00 20.00     0.020 C 
BRANCH   6   7
HETATM    7  C8  UNL     1     -33.435  15.316  -3.392  1.00 20.00     0.078 C 
HETATM    8  C4  UNL     1     -33.413  13.844  -3.787  1.00 20.00     0.026 C 
HETATM    9 CL9  UNL     1     -33.134  16.307  -4.850  1.00 20.00    -0.125 Cl
ENDBRANCH   6   7
ENDBRANCH   1   6
TORSDOF 4
ENDMDL
MODEL 7
REMARK VINA RESULT:      -3.8     11.067     12.626
REMARK  4 active torsions:
REMARK  status: ('A' for Active; 'I' for Inactive)
REMARK    1  A    between atoms: C2_2  and  C5_5 
REMARK    2  A    between atoms: C5_5  and  C6_6 
REMARK    3  A    between atoms: C6_6  and  C7_7 
REMARK    4  A    between atoms: C7_7  and  C8_8 
ROOT
HETATM    1  C6  UNL     1     -34.290  13.735  -3.673  1.00 20.00     0.006 C 
ENDROOT
BRANCH   1   2
HETATM    2  C5  UNL     1     -34.710  13.299  -5.083  1.00 20.00     0.033 C 
BRANCH   2   3
HETATM    3  C2  UNL     1     -35.270  14.405  -5.949  1.00 20.00    -0.093 C 
HETATM    4  C1  UNL     1     -34.656  14.791  -7.078  1.00 20.00     0.014 C 
HETATM    5  C3  UNL     1     -36.522  15.079  -5.470  1.00 20.00     0.042 C 
ENDBRANCH   2   3
ENDBRANCH   1   2
BRANCH   1   6
HETATM    6  C7  UNL     1     -33.127  14.737  -3.676  1.00 20.00     0.020 C 
BRANCH   6   7
HETATM    7  C8  UNL     1     -33.486  16.084  -3.033  1.00 20.00     0.078 C 
HETATM    8  C4  UNL     1     -33.688  17.161  -4.093  1.00 20.00     0.026 C 
HETATM    9 CL9  UNL     1     -34.977  15.955  -2.053  1.00 20.00    -0.125 Cl
ENDBRANCH   6   7
ENDBRANCH   1   6
TORSDOF 4
ENDMDL
MODEL 8
REMARK VINA RESULT:      -3.7     11.322     12.122
REMARK  4 active torsions:
REMARK  status: ('A' for Active; 'I' for Inactive)
REMARK    1  A    between atoms: C2_2  and  C5_5 
REMARK    2  A    between atoms: C5_5  and  C6_6 
REMARK    3  A    between atoms: C6_6  and  C7_7 
REMARK    4  A    between atoms: C7_7  and  C8_8 
ROOT
HETATM    1  C6  UNL     1     -34.074  16.675  -1.566  1.00 20.00     0.006 C 
ENDROOT
BRANCH   1   2
HETATM    2  C5  UNL     1     -34.917  15.706  -2.408  1.00 20.00     0.033 C 
BRANCH   2   3
HETATM    3  C2  UNL     1     -34.122  14.823  -3.343  1.00 20.00    -0.093 C 
HETATM    4  C1  UNL     1     -32.859  15.121  -3.685  1.00 20.00     0.014 C 
HETATM    5  C3  UNL     1     -34.820  13.618  -3.903  1.00 20.00     0.042 C 
ENDBRANCH   2   3
ENDBRANCH   1   2
BRANCH   1   6
HETATM    6  C7  UNL     1     -34.732  17.035  -0.227  1.00 20.00     0.020 C 
BRANCH   6   7
HETATM    7  C8  UNL     1     -34.201  18.342   0.377  1.00 20.00     0.078 C 
HETATM    8  C4  UNL     1     -34.355  18.348   1.894  1.00 20.00     0.026 C 
HETATM    9 CL9  UNL     1     -32.475  18.585  -0.028  1.00 20.00    -0.125 Cl
ENDBRANCH   6   7
ENDBRANCH   1   6
TORSDOF 4
ENDMDL
MODEL 9
REMARK VINA RESULT:      -3.7     11.505     12.601
REMARK  4 active torsions:
REMARK  status: ('A' for Active; 'I' for Inactive)
REMARK    1  A    between atoms: C2_2  and  C5_5 
REMARK    2  A    between atoms: C5_5  and  C6_6 
REMARK    3  A    between atoms: C6_6  and  C7_7 
REMARK    4  A    between atoms: C7_7  and  C8_8 
ROOT
HETATM    1  C6  UNL     1     -34.909  13.890  -3.811  1.00 20.00     0.006 C 
ENDROOT
BRANCH   1   2
HETATM    2  C5  UNL     1     -33.699  14.688  -3.305  1.00 20.00     0.033 C 
BRANCH   2   3
HETATM    3  C2  UNL     1     -34.007  16.106  -2.882  1.00 20.00    -0.093 C 
HETATM    4  C1  UNL     1     -33.731  17.151  -3.678  1.00 20.00     0.014 C 
HETATM    5  C3  UNL     1     -34.600  16.299  -1.517  1.00 20.00     0.042 C 
ENDBRANCH   2   3
ENDBRANCH   1   2
BRANCH   1   6
HETATM    6  C7  UNL     1     -34.733  13.380  -5.249  1.00 20.00     0.020 C 
BRANCH   6   7
HETATM    7  C8  UNL     1     -35.322  14.326  -6.304  1.00 20.00     0.078 C 
HETATM    8  C4  UNL     1     -36.484  15.131  -5.732  1.00 20.00     0.026 C 
HETATM    9 CL9  UNL     1     -34.082  15.462  -6.916  1.00 20.00    -0.125 Cl
ENDBRANCH   6   7
ENDBRANCH   1   6
TORSDOF 4
ENDMDL
