MODEL 1
REMARK VINA RESULT:      -4.5      0.000      0.000
REMARK  5 active torsions:
REMARK  status: ('A' for Active; 'I' for Inactive)
REMARK    1  A    between atoms: C2_2  and  C6_6 
REMARK    2  A    between atoms: C6_6  and  C8_8 
REMARK    3  A    between atoms: C7_7  and  C8_8 
REMARK    4  A    between atoms: C7_7  and  C9_9 
REMARK    5  A    between atoms: C9_9  and  O10_10 
ROOT
HETATM    1  C4  UNL     1     -32.038   5.296   2.868  1.00 20.00     0.010 C 
HETATM    2  C8  UNL     1     -32.862   6.565   3.113  1.00 20.00    -0.012 C 
ENDROOT
BRANCH   2   3
HETATM    3  C6  UNL     1     -33.432   6.523   4.552  1.00 20.00     0.037 C 
BRANCH   3   4
HETATM    4  C2  UNL     1     -34.583   5.565   4.758  1.00 20.00    -0.093 C 
HETATM    5  C1  UNL     1     -35.529   5.394   3.821  1.00 20.00     0.014 C 
HETATM    6  C3  UNL     1     -34.601   4.782   6.039  1.00 20.00     0.042 C 
ENDBRANCH   3   4
ENDBRANCH   2   3
BRANCH   2   7
HETATM    7  C7  UNL     1     -32.026   7.846   2.877  1.00 20.00     0.035 C 
BRANCH   7   8
HETATM    8  C9  UNL     1     -32.361   8.602   1.585  1.00 20.00     0.114 C 
HETATM    9  C5  UNL     1     -32.663  10.069   1.872  1.00 20.00     0.039 C 
BRANCH   8  10
HETATM   10  O10 UNL     1     -31.251   8.527   0.696  1.00 20.00    -0.396 OA
HETATM   11  H28 UNL     1     -30.820   9.396   0.717  1.00 20.00     0.210 HD
ENDBRANCH   8  10
ENDBRANCH   7   8
ENDBRANCH   2   7
TORSDOF 5
ENDMDL
MODEL 2
REMARK VINA RESULT:      -4.3     10.488     11.425
REMARK  5 active torsions:
REMARK  status: ('A' for Active; 'I' for Inactive)
REMARK    1  A    between atoms: C2_2  and  C6_6 
REMARK    2  A    between atoms: C6_6  and  C8_8 
REMARK    3  A    between atoms: C7_7  and  C8_8 
REMARK    4  A    between atoms: C7_7  and  C9_9 
REMARK    5  A    between atoms: C9_9  and  O10_10 
ROOT
HETATM    1  C4  UNL     1     -33.590  16.799  -4.080  1.00 20.00     0.010 C 
HETATM    2  C8  UNL     1     -33.681  15.637  -3.084  1.00 20.00    -0.012 C 
ENDROOT
BRANCH   2   3
HETATM    3  C6  UNL     1     -34.953  15.816  -2.219  1.00 20.00     0.037 C 
BRANCH   3   4
HETATM    4  C2  UNL     1     -34.985  17.073  -1.379  1.00 20.00    -0.093 C 
HETATM    5  C1  UNL     1     -34.006  17.356  -0.504  1.00 20.00     0.014 C 
HETATM    6  C3  UNL     1     -36.137  18.010  -1.592  1.00 20.00     0.042 C 
ENDBRANCH   3   4
ENDBRANCH   2   3
BRANCH   2   7
HETATM    7  C7  UNL     1     -33.679  14.266  -3.801  1.00 20.00     0.035 C 
BRANCH   7   8
HETATM    8  C9  UNL     1     -35.022  13.864  -4.422  1.00 20.00     0.114 C 
HETATM    9  C5  UNL     1     -34.983  13.991  -5.941  1.00 20.00     0.039 C 
BRANCH   8  10
HETATM   10  O10 UNL     1     -35.311  12.512  -4.081  1.00 20.00    -0.396 OA
HETATM   11  H28 UNL     1     -35.914  12.540  -3.322  1.00 20.00     0.210 HD
ENDBRANCH   8  10
ENDBRANCH   7   8
ENDBRANCH   2   7
TORSDOF 5
ENDMDL
MODEL 3
REMARK VINA RESULT:      -4.3     10.198     11.358
REMARK  5 active torsions:
REMARK  status: ('A' for Active; 'I' for Inactive)
REMARK    1  A    between atoms: C2_2  and  C6_6 
REMARK    2  A    between atoms: C6_6  and  C8_8 
REMARK    3  A    between atoms: C7_7  and  C8_8 
REMARK    4  A    between atoms: C7_7  and  C9_9 
REMARK    5  A    between atoms: C9_9  and  O10_10 
ROOT
HETATM    1  C4  UNL     1     -35.350  17.333  -3.722  1.00 20.00     0.010 C 
HETATM    2  C8  UNL     1     -34.096  16.666  -3.146  1.00 20.00    -0.012 C 
ENDROOT
BRANCH   2   3
HETATM    3  C6  UNL     1     -34.407  16.168  -1.713  1.00 20.00     0.037 C 
BRANCH   3   4
HETATM    4  C2  UNL     1     -34.259  17.209  -0.627  1.00 20.00    -0.093 C 
HETATM    5  C1  UNL     1     -35.115  17.271   0.406  1.00 20.00     0.014 C 
HETATM    6  C3  UNL     1     -33.090  18.145  -0.730  1.00 20.00     0.042 C 
ENDBRANCH   3   4
ENDBRANCH   2   3
BRANCH   2   7
HETATM    7  C7  UNL     1     -33.596  15.510  -4.045  1.00 20.00     0.035 C 
BRANCH   7   8
HETATM    8  C9  UNL     1     -33.975  14.106  -3.557  1.00 20.00     0.114 C 
HETATM    9  C5  UNL     1     -35.253  13.619  -4.231  1.00 20.00     0.039 C 
BRANCH   8  10
HETATM   10  O10 UNL     1     -32.920  13.202  -3.864  1.00 20.00    -0.396 OA
HETATM   11  H28 UNL     1     -32.119  13.558  -3.447  1.00 20.00     0.210 HD
ENDBRANCH   8  10
ENDBRANCH   7   8
ENDBRANCH   2   7
TORSDOF 5
ENDMDL
MODEL 4
REMARK VINA RESULT:      -4.2     10.141     12.387
REMARK  5 active torsions:
REMARK  status: ('A' for Active; 'I' for Inactive)
REMARK    1  A    between atoms: C2_2  and  C6_6 
REMARK    2  A    between atoms: C6_6  and  C8_8 
REMARK    3  A    between atoms: C7_7  and  C8_8 
REMARK    4  A    between atoms: C7_7  and  C9_9 
REMARK    5  A    between atoms: C9_9  and  O10_10 
ROOT
HETATM    1  C4  UNL     1     -33.682  16.524  -2.383  1.00 20.00     0.010 C 
HETATM    2  C8  UNL     1     -34.045  15.767  -3.666  1.00 20.00    -0.012 C 
ENDROOT
BRANCH   2   3
HETATM    3  C6  UNL     1     -33.208  16.338  -4.837  1.00 20.00     0.037 C 
BRANCH   3   4
HETATM    4  C2  UNL     1     -33.988  16.630  -6.100  1.00 20.00    -0.093 C 
HETATM    5  C1  UNL     1     -34.417  17.869  -6.387  1.00 20.00     0.014 C 
HETATM    6  C3  UNL     1     -34.226  15.483  -7.037  1.00 20.00     0.042 C 
ENDBRANCH   3   4
ENDBRANCH   2   3
BRANCH   2   7
HETATM    7  C7  UNL     1     -33.829  14.242  -3.514  1.00 20.00     0.035 C 
BRANCH   7   8
HETATM    8  C9  UNL     1     -35.040  13.382  -3.896  1.00 20.00     0.114 C 
HETATM    9  C5  UNL     1     -36.252  14.251  -4.211  1.00 20.00     0.039 C 
BRANCH   8  10
HETATM   10  O10 UNL     1     -34.719  12.605  -5.046  1.00 20.00    -0.396 OA
HETATM   11  H28 UNL     1     -34.908  13.163  -5.817  1.00 20.00     0.210 HD
ENDBRANCH   8  10
ENDBRANCH   7   8
ENDBRANCH   2   7
TORSDOF 5
ENDMDL
MODEL 5
REMARK VINA RESULT:      -4.2     10.272     11.555
REMARK  5 active torsions:
REMARK  status: ('A' for Active; 'I' for Inactive)
REMARK    1  A    between atoms: C2_2  and  C6_6 
REMARK    2  A    between atoms: C6_6  and  C8_8 
REMARK    3  A    between atoms: C7_7  and  C8_8 
REMARK    4  A    between atoms: C7_7  and  C9_9 
REMARK    5  A    between atoms: C9_9  and  O10_10 
ROOT
HETATM    1  C4  UNL     1     -36.532  17.140  -2.844  1.00 20.00     0.010 C 
HETATM    2  C8  UNL     1     -35.007  16.995  -2.787  1.00 20.00    -0.012 C 
ENDROOT
BRANCH   2   3
HETATM    3  C6  UNL     1     -34.614  16.362  -1.430  1.00 20.00     0.037 C 
BRANCH   3   4
HETATM    4  C2  UNL     1     -34.332  17.349  -0.320  1.00 20.00    -0.093 C 
HETATM    5  C1  UNL     1     -35.118  17.425   0.766  1.00 20.00     0.014 C 
HETATM    6  C3  UNL     1     -33.113  18.212  -0.464  1.00 20.00     0.042 C 
ENDBRANCH   3   4
ENDBRANCH   2   3
BRANCH   2   7
HETATM    7  C7  UNL     1     -34.465  16.161  -3.973  1.00 20.00     0.035 C 
BRANCH   7   8
HETATM    8  C9  UNL     1     -33.327  15.197  -3.613  1.00 20.00     0.114 C 
HETATM    9  C5  UNL     1     -33.754  13.748  -3.815  1.00 20.00     0.039 C 
BRANCH   8  10
HETATM   10  O10 UNL     1     -32.204  15.466  -4.446  1.00 20.00    -0.396 OA
HETATM   11  H28 UNL     1     -31.417  15.382  -3.885  1.00 20.00     0.210 HD
ENDBRANCH   8  10
ENDBRANCH   7   8
ENDBRANCH   2   7
TORSDOF 5
ENDMDL
MODEL 6
REMARK VINA RESULT:      -4.2      1.624      2.150
REMARK  5 active torsions:
REMARK  status: ('A' for Active; 'I' for Inactive)
REMARK    1  A    between atoms: C2_2  and  C6_6 
REMARK    2  A    between atoms: C6_6  and  C8_8 
REMARK    3  A    between atoms: C7_7  and  C8_8 
REMARK    4  A    between atoms: C7_7  and  C9_9 
REMARK    5  A    between atoms: C9_9  and  O10_10 
ROOT
HETATM    1  C4  UNL     1     -34.065   4.884   2.132  1.00 20.00     0.010 C 
HETATM    2  C8  UNL     1     -33.878   6.093   3.056  1.00 20.00    -0.012 C 
ENDROOT
BRANCH   2   3
HETATM    3  C6  UNL     1     -34.984   6.071   4.140  1.00 20.00     0.037 C 
BRANCH   3   4
HETATM    4  C2  UNL     1     -34.539   5.580   5.499  1.00 20.00    -0.093 C 
HETATM    5  C1  UNL     1     -34.041   6.421   6.420  1.00 20.00     0.014 C 
HETATM    6  C3  UNL     1     -34.713   4.118   5.790  1.00 20.00     0.042 C 
ENDBRANCH   3   4
ENDBRANCH   2   3
BRANCH   2   7
HETATM    7  C7  UNL     1     -32.468   6.116   3.693  1.00 20.00     0.035 C 
BRANCH   7   8
HETATM    8  C9  UNL     1     -31.562   7.254   3.206  1.00 20.00     0.114 C 
HETATM    9  C5  UNL     1     -32.283   8.129   2.187  1.00 20.00     0.039 C 
BRANCH   8  10
HETATM   10  O10 UNL     1     -31.184   8.060   4.318  1.00 20.00    -0.396 OA
HETATM   11  H28 UNL     1     -31.631   8.914   4.205  1.00 20.00     0.210 HD
ENDBRANCH   8  10
ENDBRANCH   7   8
ENDBRANCH   2   7
TORSDOF 5
ENDMDL
MODEL 7
REMARK VINA RESULT:      -4.1     10.090     11.974
REMARK  5 active torsions:
REMARK  status: ('A' for Active; 'I' for Inactive)
REMARK    1  A    between atoms: C2_2  and  C6_6 
REMARK    2  A    between atoms: C6_6  and  C8_8 
REMARK    3  A    between atoms: C7_7  and  C8_8 
REMARK    4  A    between atoms: C7_7  and  C9_9 
REMARK    5  A    between atoms: C9_9  and  O10_10 
ROOT
HETATM    1  C4  UNL     1     -34.042  16.832  -6.029  1.00 20.00     0.010 C 
HETATM    2  C8  UNL     1     -34.378  16.039  -4.761  1.00 20.00    -0.012 C 
ENDROOT
BRANCH   2   3
HETATM    3  C6  UNL     1     -35.166  16.954  -3.792  1.00 20.00     0.037 C 
BRANCH   3   4
HETATM    4  C2  UNL     1     -34.503  17.193  -2.454  1.00 20.00    -0.093 C 
HETATM    5  C1  UNL     1     -34.646  16.329  -1.436  1.00 20.00     0.014 C 
HETATM    6  C3  UNL     1     -33.645  18.418  -2.324  1.00 20.00     0.042 C 
ENDBRANCH   3   4
ENDBRANCH   2   3
BRANCH   2   7
HETATM    7  C7  UNL     1     -35.169  14.749  -5.083  1.00 20.00     0.035 C 
BRANCH   7   8
HETATM    8  C9  UNL     1     -34.444  13.445  -4.727  1.00 20.00     0.114 C 
HETATM    9  C5  UNL     1     -33.315  13.700  -3.734  1.00 20.00     0.039 C 
BRANCH   8  10
HETATM   10  O10 UNL     1     -35.372  12.536  -4.144  1.00 20.00    -0.396 OA
HETATM   11  H28 UNL     1     -34.847  11.853  -3.698  1.00 20.00     0.210 HD
ENDBRANCH   8  10
ENDBRANCH   7   8
ENDBRANCH   2   7
TORSDOF 5
ENDMDL
MODEL 8
REMARK VINA RESULT:      -4.1      2.819      4.960
REMARK  5 active torsions:
REMARK  status: ('A' for Active; 'I' for Inactive)
REMARK    1  A    between atoms: C2_2  and  C6_6 
REMARK    2  A    between atoms: C6_6  and  C8_8 
REMARK    3  A    between atoms: C7_7  and  C8_8 
REMARK    4  A    between atoms: C7_7  and  C9_9 
REMARK    5  A    between atoms: C9_9  and  O10_10 
ROOT
HETATM    1  C4  UNL     1     -33.749   4.915   1.949  1.00 20.00     0.010 C 
HETATM    2  C8  UNL     1     -33.680   5.642   3.297  1.00 20.00    -0.012 C 
ENDROOT
BRANCH   2   3
HETATM    3  C6  UNL     1     -33.606   7.167   3.042  1.00 20.00     0.037 C 
BRANCH   3   4
HETATM    4  C2  UNL     1     -32.214   7.711   2.812  1.00 20.00    -0.093 C 
HETATM    5  C1  UNL     1     -31.227   7.510   3.700  1.00 20.00     0.014 C 
HETATM    6  C3  UNL     1     -31.971   8.452   1.530  1.00 20.00     0.042 C 
ENDBRANCH   3   4
ENDBRANCH   2   3
BRANCH   2   7
HETATM    7  C7  UNL     1     -34.882   5.283   4.205  1.00 20.00     0.035 C 
BRANCH   7   8
HETATM    8  C9  UNL     1     -34.505   4.862   5.631  1.00 20.00     0.114 C 
HETATM    9  C5  UNL     1     -34.292   6.080   6.522  1.00 20.00     0.039 C 
BRANCH   8  10
HETATM   10  O10 UNL     1     -35.554   4.070   6.179  1.00 20.00    -0.396 OA
HETATM   11  H28 UNL     1     -36.118   4.672   6.690  1.00 20.00     0.210 HD
ENDBRANCH   8  10
ENDBRANCH   7   8
ENDBRANCH   2   7
TORSDOF 5
ENDMDL
MODEL 9
REMARK VINA RESULT:      -4.1     10.349     11.646
REMARK  5 active torsions:
REMARK  status: ('A' for Active; 'I' for Inactive)
REMARK    1  A    between atoms: C2_2  and  C6_6 
REMARK    2  A    between atoms: C6_6  and  C8_8 
REMARK    3  A    between atoms: C7_7  and  C8_8 
REMARK    4  A    between atoms: C7_7  and  C9_9 
REMARK    5  A    between atoms: C9_9  and  O10_10 
ROOT
HETATM    1  C4  UNL     1     -33.913  13.466  -4.025  1.00 20.00     0.010 C 
HETATM    2  C8  UNL     1     -34.597  14.640  -3.314  1.00 20.00    -0.012 C 
ENDROOT
BRANCH   2   3
HETATM    3  C6  UNL     1     -33.542  15.736  -3.026  1.00 20.00     0.037 C 
BRANCH   3   4
HETATM    4  C2  UNL     1     -34.009  16.852  -2.120  1.00 20.00    -0.093 C 
HETATM    5  C1  UNL     1     -34.570  16.598  -0.926  1.00 20.00     0.014 C 
HETATM    6  C3  UNL     1     -33.783  18.258  -2.593  1.00 20.00     0.042 C 
ENDBRANCH   3   4
ENDBRANCH   2   3
BRANCH   2   7
HETATM    7  C7  UNL     1     -35.778  15.202  -4.142  1.00 20.00     0.035 C 
BRANCH   7   8
HETATM    8  C9  UNL     1     -37.118  15.253  -3.396  1.00 20.00     0.114 C 
HETATM    9  C5  UNL     1     -37.854  16.556  -3.684  1.00 20.00     0.039 C 
BRANCH   8  10
HETATM   10  O10 UNL     1     -37.931  14.163  -3.818  1.00 20.00    -0.396 OA
HETATM   11  H28 UNL     1     -38.393  13.840  -3.028  1.00 20.00     0.210 HD
ENDBRANCH   8  10
ENDBRANCH   7   8
ENDBRANCH   2   7
TORSDOF 5
ENDMDL
