MODEL 1
REMARK VINA RESULT:      -4.4      0.000      0.000
REMARK  2 active torsions:
REMARK  status: ('A' for Active; 'I' for Inactive)
REMARK    1  A    between atoms: C9_9  and  C10_10 
REMARK    2  A    between atoms: C9_9  and  N12_12 
ROOT
HETATM    1  C1  UNL     1     -33.571  15.987  -4.300  1.00 20.00     0.065 C 
HETATM    2  C8  UNL     1     -34.472  13.783  -3.650  1.00 20.00     0.027 C 
HETATM    3  C10 UNL     1     -34.362  15.263  -3.285  1.00 20.00     0.114 C 
HETATM    4  N11 UNL     1     -32.949  16.557  -5.096  1.00 20.00    -0.197 NA
ENDROOT
BRANCH   3   5
HETATM    5  C9  UNL     1     -35.728  15.921  -3.061  1.00 20.00     0.253 C 
BRANCH   5   6
HETATM    6  N12 UNL     1     -35.762  16.720  -1.798  1.00 20.00    -0.069 N 
HETATM    7  C2  UNL     1     -34.594  16.450  -0.876  1.00 20.00     0.239 C 
HETATM    8  C4  UNL     1     -34.382  17.771  -0.147  1.00 20.00     0.012 C 
HETATM    9  C5  UNL     1     -34.685  18.816  -1.227  1.00 20.00     0.012 C 
HETATM   10  C6  UNL     1     -35.315  17.908   1.059  1.00 20.00     0.012 C 
HETATM   11  C3  UNL     1     -35.855  18.220  -2.010  1.00 20.00     0.239 C 
HETATM   12  C7  UNL     1     -33.479  19.066  -2.137  1.00 20.00     0.012 C 
HETATM   13  H31 UNL     1     -36.614  16.435  -1.288  1.00 20.00     0.280 HD
ENDBRANCH   5   6
ENDBRANCH   3   5
TORSDOF 2
ENDMDL
MODEL 2
REMARK VINA RESULT:      -4.4      2.142      4.010
REMARK  2 active torsions:
REMARK  status: ('A' for Active; 'I' for Inactive)
REMARK    1  A    between atoms: C9_9  and  C10_10 
REMARK    2  A    between atoms: C9_9  and  N12_12 
ROOT
HETATM    1  C1  UNL     1     -34.810  15.652  -7.188  1.00 20.00     0.065 C 
HETATM    2  C8  UNL     1     -34.993  18.111  -7.292  1.00 20.00     0.027 C 
HETATM    3  C10 UNL     1     -34.733  16.899  -6.400  1.00 20.00     0.114 C 
HETATM    4  N11 UNL     1     -34.871  14.672  -7.806  1.00 20.00    -0.197 NA
ENDROOT
BRANCH   3   5
HETATM    5  C9  UNL     1     -33.410  16.999  -5.633  1.00 20.00     0.253 C 
BRANCH   5   6
HETATM    6  N12 UNL     1     -33.586  16.714  -4.176  1.00 20.00    -0.069 N 
HETATM    7  C2  UNL     1     -35.017  16.834  -3.701  1.00 20.00     0.239 C 
HETATM    8  C4  UNL     1     -35.115  15.833  -2.558  1.00 20.00     0.012 C 
HETATM    9  C5  UNL     1     -34.230  14.675  -3.034  1.00 20.00     0.012 C 
HETATM   10  C6  UNL     1     -34.617  16.429  -1.239  1.00 20.00     0.012 C 
HETATM   11  C3  UNL     1     -33.059  15.360  -3.736  1.00 20.00     0.239 C 
HETATM   12  C7  UNL     1     -34.976  13.737  -3.987  1.00 20.00     0.012 C 
HETATM   13  H31 UNL     1     -33.043  17.429  -3.665  1.00 20.00     0.280 HD
ENDBRANCH   5   6
ENDBRANCH   3   5
TORSDOF 2
ENDMDL
MODEL 3
REMARK VINA RESULT:      -4.4      1.616      2.371
REMARK  2 active torsions:
REMARK  status: ('A' for Active; 'I' for Inactive)
REMARK    1  A    between atoms: C9_9  and  C10_10 
REMARK    2  A    between atoms: C9_9  and  N12_12 
ROOT
HETATM    1  C1  UNL     1     -34.175  14.012  -3.509  1.00 20.00     0.065 C 
HETATM    2  C8  UNL     1     -36.471  14.901  -3.681  1.00 20.00     0.027 C 
HETATM    3  C10 UNL     1     -35.091  15.074  -3.048  1.00 20.00     0.114 C 
HETATM    4  N11 UNL     1     -33.455  13.177  -3.869  1.00 20.00    -0.197 NA
ENDROOT
BRANCH   3   5
HETATM    5  C9  UNL     1     -34.501  16.468  -3.285  1.00 20.00     0.253 C 
BRANCH   5   6
HETATM    6  N12 UNL     1     -33.836  17.009  -2.060  1.00 20.00    -0.069 N 
HETATM    7  C2  UNL     1     -33.632  18.507  -2.089  1.00 20.00     0.239 C 
HETATM    8  C4  UNL     1     -33.706  18.922  -0.625  1.00 20.00     0.012 C 
HETATM    9  C5  UNL     1     -34.782  17.991  -0.055  1.00 20.00     0.012 C 
HETATM   10  C6  UNL     1     -32.360  18.742   0.082  1.00 20.00     0.012 C 
HETATM   11  C3  UNL     1     -34.540  16.657  -0.761  1.00 20.00     0.239 C 
HETATM   12  C7  UNL     1     -36.196  18.513  -0.327  1.00 20.00     0.012 C 
HETATM   13  H31 UNL     1     -32.897  16.582  -2.018  1.00 20.00     0.280 HD
ENDBRANCH   5   6
ENDBRANCH   3   5
TORSDOF 2
ENDMDL
MODEL 4
REMARK VINA RESULT:      -4.3      1.541      1.900
REMARK  2 active torsions:
REMARK  status: ('A' for Active; 'I' for Inactive)
REMARK    1  A    between atoms: C9_9  and  C10_10 
REMARK    2  A    between atoms: C9_9  and  N12_12 
ROOT
HETATM    1  C1  UNL     1     -35.469  13.706  -4.127  1.00 20.00     0.065 C 
HETATM    2  C8  UNL     1     -37.699  14.742  -4.338  1.00 20.00     0.027 C 
HETATM    3  C10 UNL     1     -36.372  14.739  -3.581  1.00 20.00     0.114 C 
HETATM    4  N11 UNL     1     -34.759  12.895  -4.555  1.00 20.00    -0.197 NA
ENDROOT
BRANCH   3   5
HETATM    5  C9  UNL     1     -35.701  16.116  -3.554  1.00 20.00     0.253 C 
BRANCH   5   6
HETATM    6  N12 UNL     1     -35.685  16.704  -2.179  1.00 20.00    -0.069 N 
HETATM    7  C2  UNL     1     -34.459  16.334  -1.374  1.00 20.00     0.239 C 
HETATM    8  C4  UNL     1     -34.243  17.529  -0.455  1.00 20.00     0.012 C 
HETATM    9  C5  UNL     1     -34.635  18.720  -1.338  1.00 20.00     0.012 C 
HETATM   10  C6  UNL     1     -35.109  17.440   0.804  1.00 20.00     0.012 C 
HETATM   11  C3  UNL     1     -35.831  18.214  -2.144  1.00 20.00     0.239 C 
HETATM   12  C7  UNL     1     -33.490  19.155  -2.257  1.00 20.00     0.012 C 
HETATM   13  H31 UNL     1     -36.498  16.311  -1.679  1.00 20.00     0.280 HD
ENDBRANCH   5   6
ENDBRANCH   3   5
TORSDOF 2
ENDMDL
MODEL 5
REMARK VINA RESULT:      -4.3      2.351      3.520
REMARK  2 active torsions:
REMARK  status: ('A' for Active; 'I' for Inactive)
REMARK    1  A    between atoms: C9_9  and  C10_10 
REMARK    2  A    between atoms: C9_9  and  N12_12 
ROOT
HETATM    1  C1  UNL     1     -35.764  14.962  -6.756  1.00 20.00     0.065 C 
HETATM    2  C8  UNL     1     -37.984  15.804  -6.083  1.00 20.00     0.027 C 
HETATM    3  C10 UNL     1     -36.507  15.694  -5.710  1.00 20.00     0.114 C 
HETATM    4  N11 UNL     1     -35.180  14.386  -7.576  1.00 20.00    -0.197 NA
ENDROOT
BRANCH   3   5
HETATM    5  C9  UNL     1     -35.867  17.054  -5.414  1.00 20.00     0.253 C 
BRANCH   5   6
HETATM    6  N12 UNL     1     -35.174  17.069  -4.089  1.00 20.00    -0.069 N 
HETATM    7  C2  UNL     1     -35.843  16.205  -3.043  1.00 20.00     0.239 C 
HETATM    8  C4  UNL     1     -34.697  15.745  -2.152  1.00 20.00     0.012 C 
HETATM    9  C5  UNL     1     -33.546  15.541  -3.144  1.00 20.00     0.012 C 
HETATM   10  C6  UNL     1     -34.355  16.789  -1.085  1.00 20.00     0.012 C 
HETATM   11  C3  UNL     1     -33.707  16.682  -4.148  1.00 20.00     0.239 C 
HETATM   12  C7  UNL     1     -33.621  14.178  -3.838  1.00 20.00     0.012 C 
HETATM   13  H31 UNL     1     -35.215  18.041  -3.742  1.00 20.00     0.280 HD
ENDBRANCH   5   6
ENDBRANCH   3   5
TORSDOF 2
ENDMDL
MODEL 6
REMARK VINA RESULT:      -4.3      1.466      4.785
REMARK  2 active torsions:
REMARK  status: ('A' for Active; 'I' for Inactive)
REMARK    1  A    between atoms: C9_9  and  C10_10 
REMARK    2  A    between atoms: C9_9  and  N12_12 
ROOT
HETATM    1  C1  UNL     1     -35.169  17.504   0.732  1.00 20.00     0.065 C 
HETATM    2  C8  UNL     1     -33.182  18.210  -0.550  1.00 20.00     0.027 C 
HETATM    3  C10 UNL     1     -34.326  17.204  -0.443  1.00 20.00     0.114 C 
HETATM    4  N11 UNL     1     -35.831  17.739   1.655  1.00 20.00    -0.197 NA
ENDROOT
BRANCH   3   5
HETATM    5  C9  UNL     1     -35.159  17.114  -1.726  1.00 20.00     0.253 C 
BRANCH   5   6
HETATM    6  N12 UNL     1     -34.912  15.838  -2.464  1.00 20.00    -0.069 N 
HETATM    7  C2  UNL     1     -35.890  15.587  -3.590  1.00 20.00     0.239 C 
HETATM    8  C4  UNL     1     -35.087  14.791  -4.610  1.00 20.00     0.012 C 
HETATM    9  C5  UNL     1     -33.689  15.413  -4.514  1.00 20.00     0.012 C 
HETATM   10  C6  UNL     1     -35.073  13.297  -4.277  1.00 20.00     0.012 C 
HETATM   11  C3  UNL     1     -33.507  15.703  -3.024  1.00 20.00     0.239 C 
HETATM   12  C7  UNL     1     -33.572  16.694  -5.346  1.00 20.00     0.012 C 
HETATM   13  H31 UNL     1     -35.040  15.071  -1.784  1.00 20.00     0.280 HD
ENDBRANCH   5   6
ENDBRANCH   3   5
TORSDOF 2
ENDMDL
MODEL 7
REMARK VINA RESULT:      -4.3      2.039      4.806
REMARK  2 active torsions:
REMARK  status: ('A' for Active; 'I' for Inactive)
REMARK    1  A    between atoms: C9_9  and  C10_10 
REMARK    2  A    between atoms: C9_9  and  N12_12 
ROOT
HETATM    1  C1  UNL     1     -33.495  18.294  -1.905  1.00 20.00     0.065 C 
HETATM    2  C8  UNL     1     -34.834  16.525  -0.826  1.00 20.00     0.027 C 
HETATM    3  C10 UNL     1     -34.277  17.065  -2.142  1.00 20.00     0.114 C 
HETATM    4  N11 UNL     1     -32.880  19.261  -1.720  1.00 20.00    -0.197 NA
ENDROOT
BRANCH   3   5
HETATM    5  C9  UNL     1     -33.465  16.021  -2.916  1.00 20.00     0.253 C 
BRANCH   5   6
HETATM    6  N12 UNL     1     -34.014  15.790  -4.287  1.00 20.00    -0.069 N 
HETATM    7  C2  UNL     1     -34.141  14.328  -4.653  1.00 20.00     0.239 C 
HETATM    8  C4  UNL     1     -35.328  14.285  -5.606  1.00 20.00     0.012 C 
HETATM    9  C5  UNL     1     -36.279  15.337  -5.024  1.00 20.00     0.012 C 
HETATM   10  C6  UNL     1     -34.915  14.619  -7.042  1.00 20.00     0.012 C 
HETATM   11  C3  UNL     1     -35.354  16.456  -4.543  1.00 20.00     0.239 C 
HETATM   12  C7  UNL     1     -37.118  14.778  -3.871  1.00 20.00     0.012 C 
HETATM   13  H31 UNL     1     -33.340  16.205  -4.951  1.00 20.00     0.280 HD
ENDBRANCH   5   6
ENDBRANCH   3   5
TORSDOF 2
ENDMDL
MODEL 8
REMARK VINA RESULT:      -4.2      2.363      3.629
REMARK  2 active torsions:
REMARK  status: ('A' for Active; 'I' for Inactive)
REMARK    1  A    between atoms: C9_9  and  C10_10 
REMARK    2  A    between atoms: C9_9  and  N12_12 
ROOT
HETATM    1  C1  UNL     1     -34.885  13.661  -5.284  1.00 20.00     0.065 C 
HETATM    2  C8  UNL     1     -35.467  14.384  -7.570  1.00 20.00     0.027 C 
HETATM    3  C10 UNL     1     -35.175  14.830  -6.139  1.00 20.00     0.114 C 
HETATM    4  N11 UNL     1     -34.659  12.744  -4.610  1.00 20.00    -0.197 NA
ENDROOT
BRANCH   3   5
HETATM    5  C9  UNL     1     -34.057  15.876  -6.060  1.00 20.00     0.253 C 
BRANCH   5   6
HETATM    6  N12 UNL     1     -34.443  17.042  -5.207  1.00 20.00    -0.069 N 
HETATM    7  C2  UNL     1     -35.901  17.045  -4.805  1.00 20.00     0.239 C 
HETATM    8  C4  UNL     1     -35.911  17.738  -3.448  1.00 20.00     0.012 C 
HETATM    9  C5  UNL     1     -34.614  17.244  -2.797  1.00 20.00     0.012 C 
HETATM   10  C6  UNL     1     -35.936  19.262  -3.591  1.00 20.00     0.012 C 
HETATM   11  C3  UNL     1     -33.609  17.196  -3.947  1.00 20.00     0.239 C 
HETATM   12  C7  UNL     1     -34.783  15.866  -2.151  1.00 20.00     0.012 C 
HETATM   13  H31 UNL     1     -34.289  17.890  -5.775  1.00 20.00     0.280 HD
ENDBRANCH   5   6
ENDBRANCH   3   5
TORSDOF 2
ENDMDL
MODEL 9
REMARK VINA RESULT:      -4.2      1.682      4.704
REMARK  2 active torsions:
REMARK  status: ('A' for Active; 'I' for Inactive)
REMARK    1  A    between atoms: C9_9  and  C10_10 
REMARK    2  A    between atoms: C9_9  and  N12_12 
ROOT
HETATM    1  C1  UNL     1     -33.415  18.562  -0.882  1.00 20.00     0.065 C 
HETATM    2  C8  UNL     1     -35.067  17.472   0.592  1.00 20.00     0.027 C 
HETATM    3  C10 UNL     1     -34.595  17.676  -0.846  1.00 20.00     0.114 C 
HETATM    4  N11 UNL     1     -32.488  19.258  -0.911  1.00 20.00    -0.197 NA
ENDROOT
BRANCH   3   5
HETATM    5  C9  UNL     1     -34.330  16.355  -1.576  1.00 20.00     0.253 C 
BRANCH   5   6
HETATM    6  N12 UNL     1     -34.527  16.483  -3.053  1.00 20.00    -0.069 N 
HETATM    7  C2  UNL     1     -33.335  16.029  -3.867  1.00 20.00     0.239 C 
HETATM    8  C4  UNL     1     -33.946  15.513  -5.164  1.00 20.00     0.012 C 
HETATM    9  C5  UNL     1     -35.247  14.852  -4.695  1.00 20.00     0.012 C 
HETATM   10  C6  UNL     1     -34.206  16.648  -6.158  1.00 20.00     0.012 C 
HETATM   11  C3  UNL     1     -35.756  15.768  -3.583  1.00 20.00     0.239 C 
HETATM   12  C7  UNL     1     -35.015  13.429  -4.179  1.00 20.00     0.012 C 
HETATM   13  H31 UNL     1     -34.655  17.489  -3.250  1.00 20.00     0.280 HD
ENDBRANCH   5   6
ENDBRANCH   3   5
TORSDOF 2
ENDMDL
