MODEL 1
REMARK VINA RESULT:      -4.9      0.000      0.000
REMARK  3 active torsions:
REMARK  status: ('A' for Active; 'I' for Inactive)
REMARK    1  A    between atoms: C2_2  and  C9_9 
REMARK    2  A    between atoms: C3_3  and  C5_5 
REMARK    3  A    between atoms: C3_3  and  C9_9 
ROOT
HETATM    1  C3  UNL     1     -33.772   5.785   3.404  1.00 20.00     0.135 C 
HETATM    2  O10 UNL     1     -34.421   5.271   2.494  1.00 20.00    -0.297 OA
ENDROOT
BRANCH   1   3
HETATM    3  C5  UNL     1     -34.458   6.325   4.633  1.00 20.00     0.060 A 
HETATM    4  C4  UNL     1     -33.737   6.239   5.933  1.00 20.00     0.017 A 
HETATM    5  C6  UNL     1     -34.947   5.382   5.679  1.00 20.00    -0.007 A 
HETATM    6  C8  UNL     1     -34.804   3.901   5.584  1.00 20.00     0.011 C 
ENDBRANCH   1   3
BRANCH   1   7
HETATM    7  C9  UNL     1     -32.261   5.958   3.355  1.00 20.00     0.111 C 
BRANCH   7   8
HETATM    8  C2  UNL     1     -31.867   7.397   3.157  1.00 20.00    -0.086 C 
HETATM    9  C1  UNL     1     -32.215   8.075   2.051  1.00 20.00     0.014 C 
HETATM   10  C7  UNL     1     -31.093   8.047   4.267  1.00 20.00     0.043 C 
ENDBRANCH   7   8
ENDBRANCH   1   7
TORSDOF 3
ENDMDL
MODEL 2
REMARK VINA RESULT:      -4.9      0.602      4.033
REMARK  3 active torsions:
REMARK  status: ('A' for Active; 'I' for Inactive)
REMARK    1  A    between atoms: C2_2  and  C9_9 
REMARK    2  A    between atoms: C3_3  and  C5_5 
REMARK    3  A    between atoms: C3_3  and  C9_9 
ROOT
HETATM    1  C3  UNL     1     -33.603   5.902   3.089  1.00 20.00     0.135 C 
HETATM    2  O10 UNL     1     -33.992   5.153   2.195  1.00 20.00    -0.297 OA
ENDROOT
BRANCH   1   3
HETATM    3  C5  UNL     1     -32.148   6.279   3.203  1.00 20.00     0.060 A 
HETATM    4  C4  UNL     1     -31.792   7.455   4.045  1.00 20.00     0.017 A 
HETATM    5  C6  UNL     1     -31.655   7.524   2.549  1.00 20.00    -0.007 A 
HETATM    6  C8  UNL     1     -32.528   8.442   1.763  1.00 20.00     0.011 C 
ENDBRANCH   1   3
BRANCH   1   7
HETATM    7  C9  UNL     1     -34.523   6.467   4.161  1.00 20.00     0.111 C 
BRANCH   7   8
HETATM    8  C2  UNL     1     -34.522   5.620   5.405  1.00 20.00    -0.086 C 
HETATM    9  C1  UNL     1     -34.159   6.122   6.597  1.00 20.00     0.014 C 
HETATM   10  C7  UNL     1     -34.975   4.196   5.257  1.00 20.00     0.043 C 
ENDBRANCH   7   8
ENDBRANCH   1   7
TORSDOF 3
ENDMDL
MODEL 3
REMARK VINA RESULT:      -4.8      0.609      3.918
REMARK  3 active torsions:
REMARK  status: ('A' for Active; 'I' for Inactive)
REMARK    1  A    between atoms: C2_2  and  C9_9 
REMARK    2  A    between atoms: C3_3  and  C5_5 
REMARK    3  A    between atoms: C3_3  and  C9_9 
ROOT
HETATM    1  C3  UNL     1     -33.624   5.898   3.075  1.00 20.00     0.135 C 
HETATM    2  O10 UNL     1     -34.016   5.149   2.181  1.00 20.00    -0.297 OA
ENDROOT
BRANCH   1   3
HETATM    3  C5  UNL     1     -32.167   6.269   3.187  1.00 20.00     0.060 A 
HETATM    4  C4  UNL     1     -31.806   7.440   4.032  1.00 20.00     0.017 A 
HETATM    5  C6  UNL     1     -31.670   7.514   2.537  1.00 20.00    -0.007 A 
HETATM    6  C8  UNL     1     -32.541   8.437   1.754  1.00 20.00     0.011 C 
ENDBRANCH   1   3
BRANCH   1   7
HETATM    7  C9  UNL     1     -34.541   6.468   4.147  1.00 20.00     0.111 C 
BRANCH   7   8
HETATM    8  C2  UNL     1     -34.544   5.622   5.391  1.00 20.00    -0.086 C 
HETATM    9  C1  UNL     1     -34.912   4.332   5.363  1.00 20.00     0.014 C 
HETATM   10  C7  UNL     1     -34.085   6.281   6.660  1.00 20.00     0.043 C 
ENDBRANCH   7   8
ENDBRANCH   1   7
TORSDOF 3
ENDMDL
MODEL 4
REMARK VINA RESULT:      -4.7      0.874      1.849
REMARK  3 active torsions:
REMARK  status: ('A' for Active; 'I' for Inactive)
REMARK    1  A    between atoms: C2_2  and  C9_9 
REMARK    2  A    between atoms: C3_3  and  C5_5 
REMARK    3  A    between atoms: C3_3  and  C9_9 
ROOT
HETATM    1  C3  UNL     1     -33.935   5.891   3.755  1.00 20.00     0.135 C 
HETATM    2  O10 UNL     1     -34.902   6.604   3.487  1.00 20.00    -0.297 OA
ENDROOT
BRANCH   1   3
HETATM    3  C5  UNL     1     -33.993   4.907   4.896  1.00 20.00     0.060 A 
HETATM    4  C4  UNL     1     -35.250   4.830   5.690  1.00 20.00     0.017 A 
HETATM    5  C6  UNL     1     -34.001   5.405   6.300  1.00 20.00    -0.007 A 
HETATM    6  C8  UNL     1     -33.946   6.850   6.661  1.00 20.00     0.011 C 
ENDBRANCH   1   3
BRANCH   1   7
HETATM    7  C9  UNL     1     -32.612   5.967   3.008  1.00 20.00     0.111 C 
BRANCH   7   8
HETATM    8  C2  UNL     1     -32.005   7.343   3.081  1.00 20.00    -0.086 C 
HETATM    9  C1  UNL     1     -31.340   7.759   4.171  1.00 20.00     0.014 C 
HETATM   10  C7  UNL     1     -32.151   8.215   1.868  1.00 20.00     0.043 C 
ENDBRANCH   7   8
ENDBRANCH   1   7
TORSDOF 3
ENDMDL
MODEL 5
REMARK VINA RESULT:      -4.3      1.320      1.938
REMARK  3 active torsions:
REMARK  status: ('A' for Active; 'I' for Inactive)
REMARK    1  A    between atoms: C2_2  and  C9_9 
REMARK    2  A    between atoms: C3_3  and  C5_5 
REMARK    3  A    between atoms: C3_3  and  C9_9 
ROOT
HETATM    1  C3  UNL     1     -33.466   6.088   4.003  1.00 20.00     0.135 C 
HETATM    2  O10 UNL     1     -33.525   6.665   5.088  1.00 20.00    -0.297 OA
ENDROOT
BRANCH   1   3
HETATM    3  C5  UNL     1     -34.587   5.191   3.543  1.00 20.00     0.060 A 
HETATM    4  C4  UNL     1     -35.974   5.531   3.964  1.00 20.00     0.017 A 
HETATM    5  C6  UNL     1     -35.286   4.319   4.529  1.00 20.00    -0.007 A 
HETATM    6  C8  UNL     1     -34.935   4.269   5.977  1.00 20.00     0.011 C 
ENDBRANCH   1   3
BRANCH   1   7
HETATM    7  C9  UNL     1     -32.268   6.189   3.070  1.00 20.00     0.111 C 
BRANCH   7   8
HETATM    8  C2  UNL     1     -31.726   7.591   3.003  1.00 20.00    -0.086 C 
HETATM    9  C1  UNL     1     -30.953   8.093   3.979  1.00 20.00     0.014 C 
HETATM   10  C7  UNL     1     -32.066   8.392   1.779  1.00 20.00     0.043 C 
ENDBRANCH   7   8
ENDBRANCH   1   7
TORSDOF 3
ENDMDL
MODEL 6
REMARK VINA RESULT:      -4.2     11.476     12.695
REMARK  3 active torsions:
REMARK  status: ('A' for Active; 'I' for Inactive)
REMARK    1  A    between atoms: C2_2  and  C9_9 
REMARK    2  A    between atoms: C3_3  and  C5_5 
REMARK    3  A    between atoms: C3_3  and  C9_9 
ROOT
HETATM    1  C3  UNL     1     -34.019  14.129  -4.201  1.00 20.00     0.135 C 
HETATM    2  O10 UNL     1     -34.367  13.229  -3.438  1.00 20.00    -0.297 OA
ENDROOT
BRANCH   1   3
HETATM    3  C5  UNL     1     -34.451  14.128  -5.645  1.00 20.00     0.060 A 
HETATM    4  C4  UNL     1     -34.440  15.423  -6.381  1.00 20.00     0.017 A 
HETATM    5  C6  UNL     1     -35.744  14.761  -6.029  1.00 20.00    -0.007 A 
HETATM    6  C8  UNL     1     -36.667  15.406  -5.051  1.00 20.00     0.011 C 
ENDBRANCH   1   3
BRANCH   1   7
HETATM    7  C9  UNL     1     -33.108  15.273  -3.779  1.00 20.00     0.111 C 
BRANCH   7   8
HETATM    8  C2  UNL     1     -33.857  16.337  -3.023  1.00 20.00    -0.086 C 
HETATM    9  C1  UNL     1     -34.482  16.067  -1.866  1.00 20.00     0.014 C 
HETATM   10  C7  UNL     1     -33.845  17.720  -3.607  1.00 20.00     0.043 C 
ENDBRANCH   7   8
ENDBRANCH   1   7
TORSDOF 3
ENDMDL
MODEL 7
REMARK VINA RESULT:      -4.2     11.518     12.414
REMARK  3 active torsions:
REMARK  status: ('A' for Active; 'I' for Inactive)
REMARK    1  A    between atoms: C2_2  and  C9_9 
REMARK    2  A    between atoms: C3_3  and  C5_5 
REMARK    3  A    between atoms: C3_3  and  C9_9 
ROOT
HETATM    1  C3  UNL     1     -35.659  15.044  -3.449  1.00 20.00     0.135 C 
HETATM    2  O10 UNL     1     -36.646  15.766  -3.308  1.00 20.00    -0.297 OA
ENDROOT
BRANCH   1   3
HETATM    3  C5  UNL     1     -35.673  13.900  -4.431  1.00 20.00     0.060 A 
HETATM    4  C4  UNL     1     -34.383  13.221  -4.733  1.00 20.00     0.017 A 
HETATM    5  C6  UNL     1     -35.053  14.074  -5.775  1.00 20.00    -0.007 A 
HETATM    6  C8  UNL     1     -34.410  15.341  -6.227  1.00 20.00     0.011 C 
ENDBRANCH   1   3
BRANCH   1   7
HETATM    7  C9  UNL     1     -34.384  15.208  -2.635  1.00 20.00     0.111 C 
BRANCH   7   8
HETATM    8  C2  UNL     1     -34.248  16.601  -2.082  1.00 20.00    -0.086 C 
HETATM    9  C1  UNL     1     -33.835  17.624  -2.848  1.00 20.00     0.014 C 
HETATM   10  C7  UNL     1     -34.623  16.799  -0.642  1.00 20.00     0.043 C 
ENDBRANCH   7   8
ENDBRANCH   1   7
TORSDOF 3
ENDMDL
MODEL 8
REMARK VINA RESULT:      -4.1     11.445     12.548
REMARK  3 active torsions:
REMARK  status: ('A' for Active; 'I' for Inactive)
REMARK    1  A    between atoms: C2_2  and  C9_9 
REMARK    2  A    between atoms: C3_3  and  C5_5 
REMARK    3  A    between atoms: C3_3  and  C9_9 
ROOT
HETATM    1  C3  UNL     1     -33.478  15.243  -3.551  1.00 20.00     0.135 C 
HETATM    2  O10 UNL     1     -32.347  14.759  -3.553  1.00 20.00    -0.297 OA
ENDROOT
BRANCH   1   3
HETATM    3  C5  UNL     1     -34.676  14.408  -3.925  1.00 20.00     0.060 A 
HETATM    4  C4  UNL     1     -34.445  13.161  -4.705  1.00 20.00     0.017 A 
HETATM    5  C6  UNL     1     -35.115  14.344  -5.348  1.00 20.00    -0.007 A 
HETATM    6  C8  UNL     1     -34.434  15.076  -6.454  1.00 20.00     0.011 C 
ENDBRANCH   1   3
BRANCH   1   7
HETATM    7  C9  UNL     1     -33.759  16.702  -3.222  1.00 20.00     0.111 C 
BRANCH   7   8
HETATM    8  C2  UNL     1     -34.829  16.845  -2.174  1.00 20.00    -0.086 C 
HETATM    9  C1  UNL     1     -34.593  16.556  -0.885  1.00 20.00     0.014 C 
HETATM   10  C7  UNL     1     -36.165  17.355  -2.634  1.00 20.00     0.043 C 
ENDBRANCH   7   8
ENDBRANCH   1   7
TORSDOF 3
ENDMDL
MODEL 9
REMARK VINA RESULT:      -4.1     11.848     13.041
REMARK  3 active torsions:
REMARK  status: ('A' for Active; 'I' for Inactive)
REMARK    1  A    between atoms: C2_2  and  C9_9 
REMARK    2  A    between atoms: C3_3  and  C5_5 
REMARK    3  A    between atoms: C3_3  and  C9_9 
ROOT
HETATM    1  C3  UNL     1     -33.728  16.109  -4.238  1.00 20.00     0.135 C 
HETATM    2  O10 UNL     1     -32.805  16.508  -4.947  1.00 20.00    -0.297 OA
ENDROOT
BRANCH   1   3
HETATM    3  C5  UNL     1     -33.560  15.991  -2.745  1.00 20.00     0.060 A 
HETATM    4  C4  UNL     1     -34.779  16.065  -1.894  1.00 20.00     0.017 A 
HETATM    5  C6  UNL     1     -33.776  17.185  -1.881  1.00 20.00    -0.007 A 
HETATM    6  C8  UNL     1     -34.151  18.527  -2.410  1.00 20.00     0.011 C 
ENDBRANCH   1   3
BRANCH   1   7
HETATM    7  C9  UNL     1     -35.075  15.670  -4.794  1.00 20.00     0.111 C 
BRANCH   7   8
HETATM    8  C2  UNL     1     -34.977  14.363  -5.534  1.00 20.00    -0.086 C 
HETATM    9  C1  UNL     1     -34.772  13.204  -4.889  1.00 20.00     0.014 C 
HETATM   10  C7  UNL     1     -35.150  14.413  -7.025  1.00 20.00     0.043 C 
ENDBRANCH   7   8
ENDBRANCH   1   7
TORSDOF 3
ENDMDL
