MODEL 1
REMARK VINA RESULT:      -5.4      0.000      0.000
REMARK  0 active torsions:
REMARK  status: ('A' for Active; 'I' for Inactive)
ROOT
HETATM    1  C1  UNL     1     -34.529  14.306  -3.331  1.00 20.00     0.063 A 
HETATM    2  C2  UNL     1     -34.381  14.590  -5.749  1.00 20.00     0.098 A 
HETATM    3  C3  UNL     1     -34.034  16.442  -4.307  1.00 20.00     0.055 A 
HETATM    4  C4  UNL     1     -34.245  15.654  -3.183  1.00 20.00    -0.037 A 
HETATM    5  C5  UNL     1     -34.597  13.775  -4.624  1.00 20.00     0.175 A 
HETATM    6  C6  UNL     1     -34.095  15.947  -5.597  1.00 20.00     0.134 A 
HETATM    7  C7  UNL     1     -33.757  17.799  -3.866  1.00 20.00     0.163 A 
HETATM    8  C8  UNL     1     -34.125  16.421  -1.905  1.00 20.00     0.047 A 
HETATM    9  C9  UNL     1     -33.801  17.856  -2.357  1.00 20.00     0.088 A 
HETATM   10  O10 UNL     1     -34.859  12.531  -4.786  1.00 20.00    -0.288 OA
HETATM   11  O11 UNL     1     -33.529  18.731  -4.614  1.00 20.00    -0.292 OA
HETATM   12  F12 UNL     1     -33.886  16.729  -6.663  1.00 20.00    -0.205 F 
ENDROOT
TORSDOF 0
ENDMDL
MODEL 2
REMARK VINA RESULT:      -5.3      1.608      2.668
REMARK  0 active torsions:
REMARK  status: ('A' for Active; 'I' for Inactive)
ROOT
HETATM    1  C1  UNL     1     -34.604  14.492  -5.928  1.00 20.00     0.063 A 
HETATM    2  C2  UNL     1     -34.101  14.261  -3.553  1.00 20.00     0.098 A 
HETATM    3  C3  UNL     1     -33.922  16.378  -4.610  1.00 20.00     0.055 A 
HETATM    4  C4  UNL     1     -34.311  15.843  -5.831  1.00 20.00    -0.037 A 
HETATM    5  C5  UNL     1     -34.496  13.700  -4.780  1.00 20.00     0.175 A 
HETATM    6  C6  UNL     1     -33.807  15.622  -3.458  1.00 20.00     0.134 A 
HETATM    7  C7  UNL     1     -33.682  17.800  -4.793  1.00 20.00     0.163 A 
HETATM    8  C8  UNL     1     -34.360  16.862  -6.923  1.00 20.00     0.047 A 
HETATM    9  C9  UNL     1     -33.939  18.173  -6.234  1.00 20.00     0.088 A 
HETATM   10  O10 UNL     1     -34.761  12.448  -4.845  1.00 20.00    -0.288 OA
HETATM   11  O11 UNL     1     -33.327  18.556  -3.908  1.00 20.00    -0.292 OA
HETATM   12  F12 UNL     1     -33.432  16.164  -2.294  1.00 20.00    -0.205 F 
ENDROOT
TORSDOF 0
ENDMDL
MODEL 3
REMARK VINA RESULT:      -5.2      1.840      3.884
REMARK  0 active torsions:
REMARK  status: ('A' for Active; 'I' for Inactive)
ROOT
HETATM    1  C1  UNL     1     -33.667  17.053  -5.612  1.00 20.00     0.063 A 
HETATM    2  C2  UNL     1     -34.858  16.103  -7.516  1.00 20.00     0.098 A 
HETATM    3  C3  UNL     1     -34.377  14.760  -5.620  1.00 20.00     0.055 A 
HETATM    4  C4  UNL     1     -33.748  15.821  -4.982  1.00 20.00    -0.037 A 
HETATM    5  C5  UNL     1     -34.226  17.190  -6.887  1.00 20.00     0.175 A 
HETATM    6  C6  UNL     1     -34.940  14.864  -6.880  1.00 20.00     0.134 A 
HETATM    7  C7  UNL     1     -34.321  13.603  -4.742  1.00 20.00     0.163 A 
HETATM    8  C8  UNL     1     -33.223  15.457  -3.631  1.00 20.00     0.047 A 
HETATM    9  C9  UNL     1     -33.602  13.974  -3.467  1.00 20.00     0.088 A 
HETATM   10  O10 UNL     1     -34.162  18.318  -7.490  1.00 20.00    -0.288 OA
HETATM   11  O11 UNL     1     -34.786  12.512  -5.014  1.00 20.00    -0.292 OA
HETATM   12  F12 UNL     1     -35.541  13.826  -7.471  1.00 20.00    -0.205 F 
ENDROOT
TORSDOF 0
ENDMDL
MODEL 4
REMARK VINA RESULT:      -5.0     11.785     13.436
REMARK  0 active torsions:
REMARK  status: ('A' for Active; 'I' for Inactive)
ROOT
HETATM    1  C1  UNL     1     -32.612   7.455   4.437  1.00 20.00     0.063 A 
HETATM    2  C2  UNL     1     -32.857   6.308   2.298  1.00 20.00     0.098 A 
HETATM    3  C3  UNL     1     -34.009   5.516   4.215  1.00 20.00     0.055 A 
HETATM    4  C4  UNL     1     -33.473   6.528   5.001  1.00 20.00    -0.037 A 
HETATM    5  C5  UNL     1     -32.304   7.340   3.077  1.00 20.00     0.175 A 
HETATM    6  C6  UNL     1     -33.725   5.376   2.869  1.00 20.00     0.134 A 
HETATM    7  C7  UNL     1     -34.870   4.697   5.052  1.00 20.00     0.163 A 
HETATM    8  C8  UNL     1     -33.933   6.464   6.422  1.00 20.00     0.047 A 
HETATM    9  C9  UNL     1     -34.866   5.240   6.461  1.00 20.00     0.088 A 
HETATM   10  O10 UNL     1     -31.510   8.185   2.533  1.00 20.00    -0.288 OA
HETATM   11  O11 UNL     1     -35.489   3.726   4.659  1.00 20.00    -0.292 OA
HETATM   12  F12 UNL     1     -34.257   4.393   2.134  1.00 20.00    -0.205 F 
ENDROOT
TORSDOF 0
ENDMDL
MODEL 5
REMARK VINA RESULT:      -5.0      2.390      2.594
REMARK  0 active torsions:
REMARK  status: ('A' for Active; 'I' for Inactive)
ROOT
HETATM    1  C1  UNL     1     -34.070  14.434  -3.412  1.00 20.00     0.063 A 
HETATM    2  C2  UNL     1     -36.349  14.114  -4.220  1.00 20.00     0.098 A 
HETATM    3  C3  UNL     1     -35.810  16.003  -2.889  1.00 20.00     0.055 A 
HETATM    4  C4  UNL     1     -34.484  15.600  -2.789  1.00 20.00    -0.037 A 
HETATM    5  C5  UNL     1     -35.012  13.689  -4.131  1.00 20.00     0.175 A 
HETATM    6  C6  UNL     1     -36.763  15.289  -3.592  1.00 20.00     0.134 A 
HETATM    7  C7  UNL     1     -35.965  17.245  -2.151  1.00 20.00     0.163 A 
HETATM    8  C8  UNL     1     -33.652  16.539  -1.977  1.00 20.00     0.047 A 
HETATM    9  C9  UNL     1     -34.639  17.640  -1.547  1.00 20.00     0.088 A 
HETATM   10  O10 UNL     1     -34.653  12.607  -4.715  1.00 20.00    -0.288 OA
HETATM   11  O11 UNL     1     -37.012  17.856  -2.047  1.00 20.00    -0.292 OA
HETATM   12  F12 UNL     1     -38.034  15.701  -3.674  1.00 20.00    -0.205 F 
ENDROOT
TORSDOF 0
ENDMDL
MODEL 6
REMARK VINA RESULT:      -4.9      2.232      4.241
REMARK  0 active torsions:
REMARK  status: ('A' for Active; 'I' for Inactive)
ROOT
HETATM    1  C1  UNL     1     -34.232  16.970  -2.859  1.00 20.00     0.063 A 
HETATM    2  C2  UNL     1     -36.642  16.643  -3.038  1.00 20.00     0.098 A 
HETATM    3  C3  UNL     1     -35.156  14.864  -3.545  1.00 20.00     0.055 A 
HETATM    4  C4  UNL     1     -34.051  15.657  -3.263  1.00 20.00    -0.037 A 
HETATM    5  C5  UNL     1     -35.537  17.462  -2.747  1.00 20.00     0.175 A 
HETATM    6  C6  UNL     1     -36.458  15.321  -3.444  1.00 20.00     0.134 A 
HETATM    7  C7  UNL     1     -34.682  13.547  -3.939  1.00 20.00     0.163 A 
HETATM    8  C8  UNL     1     -32.756  14.934  -3.446  1.00 20.00     0.047 A 
HETATM    9  C9  UNL     1     -33.173  13.524  -3.900  1.00 20.00     0.088 A 
HETATM   10  O10 UNL     1     -35.729  18.673  -2.376  1.00 20.00    -0.288 OA
HETATM   11  O11 UNL     1     -35.408  12.621  -4.250  1.00 20.00    -0.292 OA
HETATM   12  F12 UNL     1     -37.504  14.534  -3.720  1.00 20.00    -0.205 F 
ENDROOT
TORSDOF 0
ENDMDL
MODEL 7
REMARK VINA RESULT:      -4.9      1.689      4.446
REMARK  0 active torsions:
REMARK  status: ('A' for Active; 'I' for Inactive)
ROOT
HETATM    1  C1  UNL     1     -33.898  17.512  -5.077  1.00 20.00     0.063 A 
HETATM    2  C2  UNL     1     -33.842  16.400  -2.908  1.00 20.00     0.098 A 
HETATM    3  C3  UNL     1     -34.366  15.167  -4.866  1.00 20.00     0.055 A 
HETATM    4  C4  UNL     1     -34.233  16.299  -5.659  1.00 20.00    -0.037 A 
HETATM    5  C5  UNL     1     -33.703  17.558  -3.693  1.00 20.00     0.175 A 
HETATM    6  C6  UNL     1     -34.179  15.180  -3.495  1.00 20.00     0.134 A 
HETATM    7  C7  UNL     1     -34.717  14.048  -5.725  1.00 20.00     0.163 A 
HETATM    8  C8  UNL     1     -34.485  16.027  -7.107  1.00 20.00     0.047 A 
HETATM    9  C9  UNL     1     -34.810  14.523  -7.155  1.00 20.00     0.088 A 
HETATM   10  O10 UNL     1     -33.393  18.667  -3.133  1.00 20.00    -0.288 OA
HETATM   11  O11 UNL     1     -34.903  12.912  -5.331  1.00 20.00    -0.292 OA
HETATM   12  F12 UNL     1     -34.311  14.074  -2.755  1.00 20.00    -0.205 F 
ENDROOT
TORSDOF 0
ENDMDL
MODEL 8
REMARK VINA RESULT:      -4.8      2.371      4.405
REMARK  0 active torsions:
REMARK  status: ('A' for Active; 'I' for Inactive)
ROOT
HETATM    1  C1  UNL     1     -33.515  16.297  -2.644  1.00 20.00     0.063 A 
HETATM    2  C2  UNL     1     -35.515  17.625  -2.216  1.00 20.00     0.098 A 
HETATM    3  C3  UNL     1     -35.698  15.487  -3.228  1.00 20.00     0.055 A 
HETATM    4  C4  UNL     1     -34.321  15.307  -3.182  1.00 20.00    -0.037 A 
HETATM    5  C5  UNL     1     -34.120  17.462  -2.159  1.00 20.00     0.175 A 
HETATM    6  C6  UNL     1     -36.325  16.627  -2.758  1.00 20.00     0.134 A 
HETATM    7  C7  UNL     1     -36.292  14.306  -3.833  1.00 20.00     0.163 A 
HETATM    8  C8  UNL     1     -33.888  13.994  -3.752  1.00 20.00     0.047 A 
HETATM    9  C9  UNL     1     -35.203  13.322  -4.190  1.00 20.00     0.088 A 
HETATM   10  O10 UNL     1     -33.395  18.391  -1.658  1.00 20.00    -0.288 OA
HETATM   11  O11 UNL     1     -37.485  14.155  -4.016  1.00 20.00    -0.292 OA
HETATM   12  F12 UNL     1     -37.653  16.774  -2.813  1.00 20.00    -0.205 F 
ENDROOT
TORSDOF 0
ENDMDL
MODEL 9
REMARK VINA RESULT:      -4.8      2.576      2.939
REMARK  0 active torsions:
REMARK  status: ('A' for Active; 'I' for Inactive)
ROOT
HETATM    1  C1  UNL     1     -36.365  14.215  -4.196  1.00 20.00     0.063 A 
HETATM    2  C2  UNL     1     -34.068  14.371  -3.392  1.00 20.00     0.098 A 
HETATM    3  C3  UNL     1     -35.623  16.093  -2.899  1.00 20.00     0.055 A 
HETATM    4  C4  UNL     1     -36.631  15.432  -3.589  1.00 20.00    -0.037 A 
HETATM    5  C5  UNL     1     -35.074  13.685  -4.095  1.00 20.00     0.175 A 
HETATM    6  C6  UNL     1     -34.338  15.596  -2.781  1.00 20.00     0.134 A 
HETATM    7  C7  UNL     1     -36.172  17.330  -2.366  1.00 20.00     0.163 A 
HETATM    8  C8  UNL     1     -37.929  16.173  -3.572  1.00 20.00     0.047 A 
HETATM    9  C9  UNL     1     -37.626  17.444  -2.757  1.00 20.00     0.088 A 
HETATM   10  O10 UNL     1     -34.805  12.562  -4.649  1.00 20.00    -0.288 OA
HETATM   11  O11 UNL     1     -35.538  18.136  -1.711  1.00 20.00    -0.292 OA
HETATM   12  F12 UNL     1     -33.386  16.253  -2.109  1.00 20.00    -0.205 F 
ENDROOT
TORSDOF 0
ENDMDL
