MODEL 1
REMARK VINA RESULT:      -4.6      0.000      0.000
REMARK  4 active torsions:
REMARK  status: ('A' for Active; 'I' for Inactive)
REMARK    1  A    between atoms: C2_2  and  C8_8 
REMARK    2  A    between atoms: C6_6  and  C9_9 
REMARK    3  A    between atoms: C8_8  and  C9_9 
REMARK    4  A    between atoms: C9_9  and  O11_11 
ROOT
HETATM    1  C9  UNL     1     -35.145  14.058  -4.294  1.00 20.00     0.151 C 
ENDROOT
BRANCH   1   2
HETATM    2  C6  UNL     1     -34.545  14.319  -5.663  1.00 20.00     0.150 C 
HETATM    3  C4  UNL     1     -35.569  14.317  -6.784  1.00 20.00     0.036 C 
HETATM    4  C3  UNL     1     -34.893  15.194  -7.809  1.00 20.00     0.029 C 
HETATM    5  C5  UNL     1     -34.239  16.245  -6.937  1.00 20.00     0.168 C 
HETATM    6  O10 UNL     1     -33.927  15.617  -5.685  1.00 20.00    -0.383 OA
ENDBRANCH   1   2
BRANCH   1   7
HETATM    7  C8  UNL     1     -34.325  14.750  -3.197  1.00 20.00     0.067 C 
BRANCH   7   8
HETATM    8  C2  UNL     1     -35.081  15.845  -2.476  1.00 20.00    -0.091 C 
HETATM    9  C1  UNL     1     -34.623  16.378  -1.333  1.00 20.00     0.014 C 
HETATM   10  C7  UNL     1     -36.346  16.339  -3.117  1.00 20.00     0.042 C 
ENDBRANCH   7   8
ENDBRANCH   1   7
BRANCH   1  11
HETATM   11  O11 UNL     1     -35.139  12.647  -4.089  1.00 20.00    -0.393 OA
HETATM   12  H27 UNL     1     -35.865  12.290  -4.622  1.00 20.00     0.210 HD
ENDBRANCH   1  11
TORSDOF 4
ENDMDL
MODEL 2
REMARK VINA RESULT:      -4.5      1.280      4.116
REMARK  4 active torsions:
REMARK  status: ('A' for Active; 'I' for Inactive)
REMARK    1  A    between atoms: C2_2  and  C8_8 
REMARK    2  A    between atoms: C6_6  and  C9_9 
REMARK    3  A    between atoms: C8_8  and  C9_9 
REMARK    4  A    between atoms: C9_9  and  O11_11 
ROOT
HETATM    1  C9  UNL     1     -34.725  13.889  -4.509  1.00 20.00     0.151 C 
ENDROOT
BRANCH   1   2
HETATM    2  C6  UNL     1     -34.619  14.631  -3.191  1.00 20.00     0.150 C 
HETATM    3  C4  UNL     1     -33.464  15.616  -3.141  1.00 20.00     0.036 C 
HETATM    4  C3  UNL     1     -33.957  16.605  -2.113  1.00 20.00     0.029 C 
HETATM    5  C5  UNL     1     -35.435  16.679  -2.435  1.00 20.00     0.168 C 
HETATM    6  O10 UNL     1     -35.812  15.401  -2.967  1.00 20.00    -0.383 OA
ENDBRANCH   1   2
BRANCH   1   7
HETATM    7  C8  UNL     1     -35.757  14.554  -5.429  1.00 20.00     0.067 C 
BRANCH   7   8
HETATM    8  C2  UNL     1     -35.188  14.990  -6.762  1.00 20.00    -0.091 C 
HETATM    9  C1  UNL     1     -35.638  14.478  -7.918  1.00 20.00     0.014 C 
HETATM   10  C7  UNL     1     -34.126  16.051  -6.738  1.00 20.00     0.042 C 
ENDBRANCH   7   8
ENDBRANCH   1   7
BRANCH   1  11
HETATM   11  O11 UNL     1     -35.126  12.553  -4.213  1.00 20.00    -0.393 OA
HETATM   12  H27 UNL     1     -34.431  11.974  -4.561  1.00 20.00     0.210 HD
ENDBRANCH   1  11
TORSDOF 4
ENDMDL
MODEL 3
REMARK VINA RESULT:      -4.5      1.161      1.276
REMARK  4 active torsions:
REMARK  status: ('A' for Active; 'I' for Inactive)
REMARK    1  A    between atoms: C2_2  and  C8_8 
REMARK    2  A    between atoms: C6_6  and  C9_9 
REMARK    3  A    between atoms: C8_8  and  C9_9 
REMARK    4  A    between atoms: C9_9  and  O11_11 
ROOT
HETATM    1  C9  UNL     1     -35.361  13.974  -4.138  1.00 20.00     0.151 C 
ENDROOT
BRANCH   1   2
HETATM    2  C6  UNL     1     -35.537  14.312  -5.606  1.00 20.00     0.150 C 
HETATM    3  C4  UNL     1     -36.362  15.564  -5.844  1.00 20.00     0.036 C 
HETATM    4  C3  UNL     1     -35.848  16.011  -7.191  1.00 20.00     0.029 C 
HETATM    5  C5  UNL     1     -34.373  15.687  -7.084  1.00 20.00     0.168 C 
HETATM    6  O10 UNL     1     -34.255  14.557  -6.208  1.00 20.00    -0.383 OA
ENDBRANCH   1   2
BRANCH   1   7
HETATM    7  C8  UNL     1     -34.038  14.537  -3.603  1.00 20.00     0.067 C 
BRANCH   7   8
HETATM    8  C2  UNL     1     -34.175  15.903  -2.966  1.00 20.00    -0.091 C 
HETATM    9  C1  UNL     1     -34.719  16.058  -1.749  1.00 20.00     0.014 C 
HETATM   10  C7  UNL     1     -33.637  17.074  -3.737  1.00 20.00     0.042 C 
ENDBRANCH   7   8
ENDBRANCH   1   7
BRANCH   1  11
HETATM   11  O11 UNL     1     -35.365  12.552  -4.026  1.00 20.00    -0.393 OA
HETATM   12  H27 UNL     1     -34.937  12.342  -3.182  1.00 20.00     0.210 HD
ENDBRANCH   1  11
TORSDOF 4
ENDMDL
MODEL 4
REMARK VINA RESULT:      -4.4      1.700      3.008
REMARK  4 active torsions:
REMARK  status: ('A' for Active; 'I' for Inactive)
REMARK    1  A    between atoms: C2_2  and  C8_8 
REMARK    2  A    between atoms: C6_6  and  C9_9 
REMARK    3  A    between atoms: C8_8  and  C9_9 
REMARK    4  A    between atoms: C9_9  and  O11_11 
ROOT
HETATM    1  C9  UNL     1     -33.834  16.593  -3.140  1.00 20.00     0.151 C 
ENDROOT
BRANCH   1   2
HETATM    2  C6  UNL     1     -33.554  15.336  -3.941  1.00 20.00     0.150 C 
HETATM    3  C4  UNL     1     -34.331  14.124  -3.457  1.00 20.00     0.036 C 
HETATM    4  C3  UNL     1     -34.396  13.289  -4.712  1.00 20.00     0.029 C 
HETATM    5  C5  UNL     1     -34.586  14.346  -5.780  1.00 20.00     0.168 C 
HETATM    6  O10 UNL     1     -33.936  15.536  -5.312  1.00 20.00    -0.383 OA
ENDBRANCH   1   2
BRANCH   1   7
HETATM    7  C8  UNL     1     -34.467  16.249  -1.785  1.00 20.00     0.067 C 
BRANCH   7   8
HETATM    8  C2  UNL     1     -34.164  17.260  -0.701  1.00 20.00    -0.091 C 
HETATM    9  C1  UNL     1     -33.117  18.094  -0.793  1.00 20.00     0.014 C 
HETATM   10  C7  UNL     1     -35.112  17.320   0.462  1.00 20.00     0.042 C 
ENDBRANCH   7   8
ENDBRANCH   1   7
BRANCH   1  11
HETATM   11  O11 UNL     1     -34.731  17.394  -3.907  1.00 20.00    -0.393 OA
HETATM   12  H27 UNL     1     -35.420  17.696  -3.295  1.00 20.00     0.210 HD
ENDBRANCH   1  11
TORSDOF 4
ENDMDL
MODEL 5
REMARK VINA RESULT:      -4.4      2.181      3.412
REMARK  4 active torsions:
REMARK  status: ('A' for Active; 'I' for Inactive)
REMARK    1  A    between atoms: C2_2  and  C8_8 
REMARK    2  A    between atoms: C6_6  and  C9_9 
REMARK    3  A    between atoms: C8_8  and  C9_9 
REMARK    4  A    between atoms: C9_9  and  O11_11 
ROOT
HETATM    1  C9  UNL     1     -35.323  16.658  -2.610  1.00 20.00     0.151 C 
ENDROOT
BRANCH   1   2
HETATM    2  C6  UNL     1     -34.939  15.724  -3.742  1.00 20.00     0.150 C 
HETATM    3  C4  UNL     1     -33.701  14.896  -3.451  1.00 20.00     0.036 C 
HETATM    4  C3  UNL     1     -33.927  13.695  -4.337  1.00 20.00     0.029 C 
HETATM    5  C5  UNL     1     -35.422  13.493  -4.212  1.00 20.00     0.168 C 
HETATM    6  O10 UNL     1     -36.002  14.786  -3.982  1.00 20.00    -0.383 OA
ENDBRANCH   1   2
BRANCH   1   7
HETATM    7  C8  UNL     1     -34.657  16.227  -1.297  1.00 20.00     0.067 C 
BRANCH   7   8
HETATM    8  C2  UNL     1     -34.312  17.385  -0.386  1.00 20.00    -0.091 C 
HETATM    9  C1  UNL     1     -33.307  18.227  -0.672  1.00 20.00     0.014 C 
HETATM   10  C7  UNL     1     -35.169  17.576   0.832  1.00 20.00     0.042 C 
ENDBRANCH   7   8
ENDBRANCH   1   7
BRANCH   1  11
HETATM   11  O11 UNL     1     -36.742  16.603  -2.477  1.00 20.00    -0.393 OA
HETATM   12  H27 UNL     1     -37.075  17.479  -2.726  1.00 20.00     0.210 HD
ENDBRANCH   1  11
TORSDOF 4
ENDMDL
MODEL 6
REMARK VINA RESULT:      -4.3      2.037      3.089
REMARK  4 active torsions:
REMARK  status: ('A' for Active; 'I' for Inactive)
REMARK    1  A    between atoms: C2_2  and  C8_8 
REMARK    2  A    between atoms: C6_6  and  C9_9 
REMARK    3  A    between atoms: C8_8  and  C9_9 
REMARK    4  A    between atoms: C9_9  and  O11_11 
ROOT
HETATM    1  C9  UNL     1     -33.156  15.828  -3.238  1.00 20.00     0.151 C 
ENDROOT
BRANCH   1   2
HETATM    2  C6  UNL     1     -34.121  14.659  -3.291  1.00 20.00     0.150 C 
HETATM    3  C4  UNL     1     -35.522  15.049  -3.731  1.00 20.00     0.036 C 
HETATM    4  C3  UNL     1     -36.027  13.750  -4.309  1.00 20.00     0.029 C 
HETATM    5  C5  UNL     1     -34.787  13.207  -4.987  1.00 20.00     0.168 C 
HETATM    6  O10 UNL     1     -33.658  13.687  -4.243  1.00 20.00    -0.383 OA
ENDBRANCH   1   2
BRANCH   1   7
HETATM    7  C8  UNL     1     -33.889  17.126  -2.875  1.00 20.00     0.067 C 
BRANCH   7   8
HETATM    8  C2  UNL     1     -33.794  17.485  -1.408  1.00 20.00    -0.091 C 
HETATM    9  C1  UNL     1     -32.942  18.425  -0.969  1.00 20.00     0.014 C 
HETATM   10  C7  UNL     1     -34.725  16.774  -0.469  1.00 20.00     0.042 C 
ENDBRANCH   7   8
ENDBRANCH   1   7
BRANCH   1  11
HETATM   11  O11 UNL     1     -32.564  15.948  -4.529  1.00 20.00    -0.393 OA
HETATM   12  H27 UNL     1     -33.294  16.059  -5.157  1.00 20.00     0.210 HD
ENDBRANCH   1  11
TORSDOF 4
ENDMDL
MODEL 7
REMARK VINA RESULT:      -4.3      1.902      2.124
REMARK  4 active torsions:
REMARK  status: ('A' for Active; 'I' for Inactive)
REMARK    1  A    between atoms: C2_2  and  C8_8 
REMARK    2  A    between atoms: C6_6  and  C9_9 
REMARK    3  A    between atoms: C8_8  and  C9_9 
REMARK    4  A    between atoms: C9_9  and  O11_11 
ROOT
HETATM    1  C9  UNL     1     -33.197  15.447  -3.855  1.00 20.00     0.151 C 
ENDROOT
BRANCH   1   2
HETATM    2  C6  UNL     1     -33.164  16.186  -5.179  1.00 20.00     0.150 C 
HETATM    3  C4  UNL     1     -34.266  15.766  -6.135  1.00 20.00     0.036 C 
HETATM    4  C3  UNL     1     -34.413  17.003  -6.986  1.00 20.00     0.029 C 
HETATM    5  C5  UNL     1     -34.221  18.107  -5.968  1.00 20.00     0.168 C 
HETATM    6  O10 UNL     1     -33.342  17.595  -4.955  1.00 20.00    -0.383 OA
ENDBRANCH   1   2
BRANCH   1   7
HETATM    7  C8  UNL     1     -33.332  16.429  -2.684  1.00 20.00     0.067 C 
BRANCH   7   8
HETATM    8  C2  UNL     1     -34.640  16.301  -1.934  1.00 20.00    -0.091 C 
HETATM    9  C1  UNL     1     -34.751  16.669  -0.648  1.00 20.00     0.014 C 
HETATM   10  C7  UNL     1     -35.821  15.784  -2.704  1.00 20.00     0.042 C 
ENDBRANCH   7   8
ENDBRANCH   1   7
BRANCH   1  11
HETATM   11  O11 UNL     1     -31.975  14.721  -3.743  1.00 20.00    -0.393 OA
HETATM   12  H27 UNL     1     -32.211  13.781  -3.777  1.00 20.00     0.210 HD
ENDBRANCH   1  11
TORSDOF 4
ENDMDL
MODEL 8
REMARK VINA RESULT:      -4.3      1.334      1.903
REMARK  4 active torsions:
REMARK  status: ('A' for Active; 'I' for Inactive)
REMARK    1  A    between atoms: C2_2  and  C8_8 
REMARK    2  A    between atoms: C6_6  and  C9_9 
REMARK    3  A    between atoms: C8_8  and  C9_9 
REMARK    4  A    between atoms: C9_9  and  O11_11 
ROOT
HETATM    1  C9  UNL     1     -34.691  14.813  -3.420  1.00 20.00     0.151 C 
ENDROOT
BRANCH   1   2
HETATM    2  C6  UNL     1     -35.100  15.284  -4.803  1.00 20.00     0.150 C 
HETATM    3  C4  UNL     1     -33.940  15.808  -5.632  1.00 20.00     0.036 C 
HETATM    4  C3  UNL     1     -34.445  15.576  -7.035  1.00 20.00     0.029 C 
HETATM    5  C5  UNL     1     -35.167  14.252  -6.891  1.00 20.00     0.168 C 
HETATM    6  O10 UNL     1     -35.661  14.188  -5.545  1.00 20.00    -0.383 OA
ENDBRANCH   1   2
BRANCH   1   7
HETATM    7  C8  UNL     1     -33.518  15.644  -2.885  1.00 20.00     0.067 C 
BRANCH   7   8
HETATM    8  C2  UNL     1     -33.948  16.857  -2.090  1.00 20.00    -0.091 C 
HETATM    9  C1  UNL     1     -33.753  18.103  -2.550  1.00 20.00     0.014 C 
HETATM   10  C7  UNL     1     -34.643  16.607  -0.783  1.00 20.00     0.042 C 
ENDBRANCH   7   8
ENDBRANCH   1   7
BRANCH   1  11
HETATM   11  O11 UNL     1     -34.307  13.444  -3.534  1.00 20.00    -0.393 OA
HETATM   12  H27 UNL     1     -34.615  13.144  -4.403  1.00 20.00     0.210 HD
ENDBRANCH   1  11
TORSDOF 4
ENDMDL
MODEL 9
REMARK VINA RESULT:      -4.2      2.120      4.702
REMARK  4 active torsions:
REMARK  status: ('A' for Active; 'I' for Inactive)
REMARK    1  A    between atoms: C2_2  and  C8_8 
REMARK    2  A    between atoms: C6_6  and  C9_9 
REMARK    3  A    between atoms: C8_8  and  C9_9 
REMARK    4  A    between atoms: C9_9  and  O11_11 
ROOT
HETATM    1  C9  UNL     1     -34.293  16.821  -4.296  1.00 20.00     0.151 C 
ENDROOT
BRANCH   1   2
HETATM    2  C6  UNL     1     -34.701  17.243  -2.898  1.00 20.00     0.150 C 
HETATM    3  C4  UNL     1     -34.822  16.083  -1.925  1.00 20.00     0.036 C 
HETATM    4  C3  UNL     1     -34.577  16.771  -0.605  1.00 20.00     0.029 C 
HETATM    5  C5  UNL     1     -33.504  17.775  -0.971  1.00 20.00     0.168 C 
HETATM    6  O10 UNL     1     -33.711  18.127  -2.347  1.00 20.00    -0.383 OA
ENDBRANCH   1   2
BRANCH   1   7
HETATM    7  C8  UNL     1     -33.611  15.446  -4.275  1.00 20.00     0.067 C 
BRANCH   7   8
HETATM    8  C2  UNL     1     -34.288  14.422  -5.159  1.00 20.00    -0.091 C 
HETATM    9  C1  UNL     1     -34.662  13.223  -4.685  1.00 20.00     0.014 C 
HETATM   10  C7  UNL     1     -34.562  14.820  -6.580  1.00 20.00     0.042 C 
ENDBRANCH   7   8
ENDBRANCH   1   7
BRANCH   1  11
HETATM   11  O11 UNL     1     -33.387  17.805  -4.789  1.00 20.00    -0.393 OA
HETATM   12  H27 UNL     1     -32.496  17.496  -4.565  1.00 20.00     0.210 HD
ENDBRANCH   1  11
TORSDOF 4
ENDMDL
