MODEL 1
REMARK VINA RESULT:      -5.1      0.000      0.000
REMARK  5 active torsions:
REMARK  status: ('A' for Active; 'I' for Inactive)
REMARK    1  A    between atoms: C2_2  and  C5_5 
REMARK    2  A    between atoms: C5_5  and  C7_7 
REMARK    3  A    between atoms: C6_6  and  C9_9 
REMARK    4  A    between atoms: C7_7  and  C8_8 
REMARK    5  A    between atoms: C8_8  and  C9_9 
ROOT
HETATM    1  C7  UNL     1     -34.050   6.632   3.486  1.00 20.00     0.006 C 
ENDROOT
BRANCH   1   2
HETATM    2  C5  UNL     1     -34.859   5.443   4.023  1.00 20.00     0.033 C 
BRANCH   2   3
HETATM    3  C2  UNL     1     -34.710   5.201   5.508  1.00 20.00    -0.093 C 
HETATM    4  C1  UNL     1     -35.096   4.044   6.069  1.00 20.00     0.014 C 
HETATM    5  C3  UNL     1     -34.147   6.322   6.332  1.00 20.00     0.042 C 
ENDBRANCH   2   3
ENDBRANCH   1   2
BRANCH   1   6
HETATM    6  C8  UNL     1     -32.666   6.226   2.959  1.00 20.00     0.020 C 
BRANCH   6   7
HETATM    7  C9  UNL     1     -31.716   7.418   2.762  1.00 20.00     0.082 C 
HETATM    8 CL10 UNL     1     -31.022   7.923   4.336  1.00 20.00    -0.125 Cl
BRANCH   7   9
HETATM    9  C6  UNL     1     -32.452   8.593   2.101  1.00 20.00     0.016 C 
HETATM   10  C4  UNL     1     -31.947   8.919   0.702  1.00 20.00     0.006 C 
ENDBRANCH   7   9
ENDBRANCH   6   7
ENDBRANCH   1   6
TORSDOF 5
ENDMDL
MODEL 2
REMARK VINA RESULT:      -5.0      1.999      5.085
REMARK  5 active torsions:
REMARK  status: ('A' for Active; 'I' for Inactive)
REMARK    1  A    between atoms: C2_2  and  C5_5 
REMARK    2  A    between atoms: C5_5  and  C7_7 
REMARK    3  A    between atoms: C6_6  and  C9_9 
REMARK    4  A    between atoms: C7_7  and  C8_8 
REMARK    5  A    between atoms: C8_8  and  C9_9 
ROOT
HETATM    1  C7  UNL     1     -32.772   6.406   3.011  1.00 20.00     0.006 C 
ENDROOT
BRANCH   1   2
HETATM    2  C5  UNL     1     -31.919   7.682   3.043  1.00 20.00     0.033 C 
BRANCH   2   3
HETATM    3  C2  UNL     1     -32.114   8.598   1.857  1.00 20.00    -0.093 C 
HETATM    4  C1  UNL     1     -31.665   8.267   0.636  1.00 20.00     0.014 C 
HETATM    5  C3  UNL     1     -32.797   9.911   2.110  1.00 20.00     0.042 C 
ENDBRANCH   2   3
ENDBRANCH   1   2
BRANCH   1   6
HETATM    6  C8  UNL     1     -34.006   6.487   3.922  1.00 20.00     0.020 C 
BRANCH   6   7
HETATM    7  C9  UNL     1     -34.030   5.401   5.010  1.00 20.00     0.082 C 
HETATM    8 CL10 UNL     1     -35.256   4.155   4.613  1.00 20.00    -0.125 Cl
BRANCH   7   9
HETATM    9  C6  UNL     1     -34.322   6.020   6.385  1.00 20.00     0.016 C 
HETATM   10  C4  UNL     1     -33.495   7.264   6.682  1.00 20.00     0.006 C 
ENDBRANCH   7   9
ENDBRANCH   6   7
ENDBRANCH   1   6
TORSDOF 5
ENDMDL
MODEL 3
REMARK VINA RESULT:      -5.0      1.517      5.193
REMARK  5 active torsions:
REMARK  status: ('A' for Active; 'I' for Inactive)
REMARK    1  A    between atoms: C2_2  and  C5_5 
REMARK    2  A    between atoms: C5_5  and  C7_7 
REMARK    3  A    between atoms: C6_6  and  C9_9 
REMARK    4  A    between atoms: C7_7  and  C8_8 
REMARK    5  A    between atoms: C8_8  and  C9_9 
ROOT
HETATM    1  C7  UNL     1     -32.790   6.636   2.722  1.00 20.00     0.006 C 
ENDROOT
BRANCH   1   2
HETATM    2  C5  UNL     1     -31.823   7.827   2.663  1.00 20.00     0.033 C 
BRANCH   2   3
HETATM    3  C2  UNL     1     -32.090   8.799   1.537  1.00 20.00    -0.093 C 
HETATM    4  C1  UNL     1     -31.710   8.532   0.278  1.00 20.00     0.014 C 
HETATM    5  C3  UNL     1     -32.766  10.091   1.893  1.00 20.00     0.042 C 
ENDBRANCH   2   3
ENDBRANCH   1   2
BRANCH   1   6
HETATM    6  C8  UNL     1     -32.896   6.018   4.124  1.00 20.00     0.020 C 
BRANCH   6   7
HETATM    7  C9  UNL     1     -34.260   6.254   4.791  1.00 20.00     0.082 C 
HETATM    8 CL10 UNL     1     -34.039   6.665   6.522  1.00 20.00    -0.125 Cl
BRANCH   7   9
HETATM    9  C6  UNL     1     -35.155   5.014   4.646  1.00 20.00     0.016 C 
HETATM   10  C4  UNL     1     -34.934   3.972   5.736  1.00 20.00     0.006 C 
ENDBRANCH   7   9
ENDBRANCH   6   7
ENDBRANCH   1   6
TORSDOF 5
ENDMDL
MODEL 4
REMARK VINA RESULT:      -4.4      1.359      5.126
REMARK  5 active torsions:
REMARK  status: ('A' for Active; 'I' for Inactive)
REMARK    1  A    between atoms: C2_2  and  C5_5 
REMARK    2  A    between atoms: C5_5  and  C7_7 
REMARK    3  A    between atoms: C6_6  and  C9_9 
REMARK    4  A    between atoms: C7_7  and  C8_8 
REMARK    5  A    between atoms: C8_8  and  C9_9 
ROOT
HETATM    1  C7  UNL     1     -32.519   7.121   3.883  1.00 20.00     0.006 C 
ENDROOT
BRANCH   1   2
HETATM    2  C5  UNL     1     -32.125   7.114   2.399  1.00 20.00     0.033 C 
BRANCH   2   3
HETATM    3  C2  UNL     1     -32.150   8.472   1.736  1.00 20.00    -0.093 C 
HETATM    4  C1  UNL     1     -32.714   9.533   2.335  1.00 20.00     0.014 C 
HETATM    5  C3  UNL     1     -31.549   8.576   0.364  1.00 20.00     0.042 C 
ENDBRANCH   2   3
ENDBRANCH   1   2
BRANCH   1   6
HETATM    6  C8  UNL     1     -33.564   6.051   4.230  1.00 20.00     0.020 C 
BRANCH   6   7
HETATM    7  C9  UNL     1     -34.298   6.324   5.552  1.00 20.00     0.082 C 
HETATM    8 CL10 UNL     1     -33.228   7.214   6.682  1.00 20.00    -0.125 Cl
BRANCH   7   9
HETATM    9  C6  UNL     1     -34.774   5.010   6.189  1.00 20.00     0.016 C 
HETATM   10  C4  UNL     1     -34.955   3.877   5.187  1.00 20.00     0.006 C 
ENDBRANCH   7   9
ENDBRANCH   6   7
ENDBRANCH   1   6
TORSDOF 5
ENDMDL
MODEL 5
REMARK VINA RESULT:      -4.3     11.002     11.945
REMARK  5 active torsions:
REMARK  status: ('A' for Active; 'I' for Inactive)
REMARK    1  A    between atoms: C2_2  and  C5_5 
REMARK    2  A    between atoms: C5_5  and  C7_7 
REMARK    3  A    between atoms: C6_6  and  C9_9 
REMARK    4  A    between atoms: C7_7  and  C8_8 
REMARK    5  A    between atoms: C8_8  and  C9_9 
ROOT
HETATM    1  C7  UNL     1     -34.651  16.358  -1.377  1.00 20.00     0.006 C 
ENDROOT
BRANCH   1   2
HETATM    2  C5  UNL     1     -33.589  17.466  -1.379  1.00 20.00     0.033 C 
BRANCH   2   3
HETATM    3  C2  UNL     1     -33.418  18.175  -0.055  1.00 20.00    -0.093 C 
HETATM    4  C1  UNL     1     -34.359  18.110   0.899  1.00 20.00     0.014 C 
HETATM    5  C3  UNL     1     -32.168  18.984   0.132  1.00 20.00     0.042 C 
ENDBRANCH   2   3
ENDBRANCH   1   2
BRANCH   1   6
HETATM    6  C8  UNL     1     -34.814  15.681  -2.746  1.00 20.00     0.020 C 
BRANCH   6   7
HETATM    7  C9  UNL     1     -33.476  15.285  -3.392  1.00 20.00     0.082 C 
HETATM    8 CL10 UNL     1     -33.148  16.318  -4.819  1.00 20.00    -0.125 Cl
BRANCH   7   9
HETATM    9  C6  UNL     1     -33.489  13.803  -3.796  1.00 20.00     0.016 C 
HETATM   10  C4  UNL     1     -34.838  13.325  -4.319  1.00 20.00     0.006 C 
ENDBRANCH   7   9
ENDBRANCH   6   7
ENDBRANCH   1   6
TORSDOF 5
ENDMDL
MODEL 6
REMARK VINA RESULT:      -4.2      1.230      1.364
REMARK  5 active torsions:
REMARK  status: ('A' for Active; 'I' for Inactive)
REMARK    1  A    between atoms: C2_2  and  C5_5 
REMARK    2  A    between atoms: C5_5  and  C7_7 
REMARK    3  A    between atoms: C6_6  and  C9_9 
REMARK    4  A    between atoms: C7_7  and  C8_8 
REMARK    5  A    between atoms: C8_8  and  C9_9 
ROOT
HETATM    1  C7  UNL     1     -33.532   7.045   3.661  1.00 20.00     0.006 C 
ENDROOT
BRANCH   1   2
HETATM    2  C5  UNL     1     -34.214   5.688   3.882  1.00 20.00     0.033 C 
BRANCH   2   3
HETATM    3  C2  UNL     1     -34.450   5.332   5.332  1.00 20.00    -0.093 C 
HETATM    4  C1  UNL     1     -34.994   4.157   5.684  1.00 20.00     0.014 C 
HETATM    5  C3  UNL     1     -34.085   6.364   6.359  1.00 20.00     0.042 C 
ENDBRANCH   2   3
ENDBRANCH   1   2
BRANCH   1   6
HETATM    6  C8  UNL     1     -32.391   6.983   2.636  1.00 20.00     0.020 C 
BRANCH   6   7
HETATM    7  C9  UNL     1     -31.919   8.369   2.166  1.00 20.00     0.082 C 
HETATM    8 CL10 UNL     1     -33.201   9.589   2.453  1.00 20.00    -0.125 Cl
BRANCH   7   9
HETATM    9  C6  UNL     1     -31.536   8.335   0.679  1.00 20.00     0.016 C 
HETATM   10  C4  UNL     1     -32.589   8.948  -0.236  1.00 20.00     0.006 C 
ENDBRANCH   7   9
ENDBRANCH   6   7
ENDBRANCH   1   6
TORSDOF 5
ENDMDL
MODEL 7
REMARK VINA RESULT:      -4.1     10.858     12.485
REMARK  5 active torsions:
REMARK  status: ('A' for Active; 'I' for Inactive)
REMARK    1  A    between atoms: C2_2  and  C5_5 
REMARK    2  A    between atoms: C5_5  and  C7_7 
REMARK    3  A    between atoms: C6_6  and  C9_9 
REMARK    4  A    between atoms: C7_7  and  C8_8 
REMARK    5  A    between atoms: C8_8  and  C9_9 
ROOT
HETATM    1  C7  UNL     1     -34.257  14.065  -3.571  1.00 20.00     0.006 C 
ENDROOT
BRANCH   1   2
HETATM    2  C5  UNL     1     -34.592  13.450  -4.937  1.00 20.00     0.033 C 
BRANCH   2   3
HETATM    3  C2  UNL     1     -35.280  14.392  -5.898  1.00 20.00    -0.093 C 
HETATM    4  C1  UNL     1     -34.754  14.670  -7.101  1.00 20.00     0.014 C 
HETATM    5  C3  UNL     1     -36.558  15.030  -5.435  1.00 20.00     0.042 C 
ENDBRANCH   2   3
ENDBRANCH   1   2
BRANCH   1   6
HETATM    6  C8  UNL     1     -33.196  15.171  -3.655  1.00 20.00     0.020 C 
BRANCH   6   7
HETATM    7  C9  UNL     1     -33.603  16.461  -2.924  1.00 20.00     0.082 C 
HETATM    8 CL10 UNL     1     -34.731  16.082  -1.583  1.00 20.00    -0.125 Cl
BRANCH   7   9
HETATM    9  C6  UNL     1     -34.246  17.457  -3.900  1.00 20.00     0.016 C 
HETATM   10  C4  UNL     1     -33.480  17.611  -5.207  1.00 20.00     0.006 C 
ENDBRANCH   7   9
ENDBRANCH   6   7
ENDBRANCH   1   6
TORSDOF 5
ENDMDL
MODEL 8
REMARK VINA RESULT:      -4.1     10.671     11.575
REMARK  5 active torsions:
REMARK  status: ('A' for Active; 'I' for Inactive)
REMARK    1  A    between atoms: C2_2  and  C5_5 
REMARK    2  A    between atoms: C5_5  and  C7_7 
REMARK    3  A    between atoms: C6_6  and  C9_9 
REMARK    4  A    between atoms: C7_7  and  C8_8 
REMARK    5  A    between atoms: C8_8  and  C9_9 
ROOT
HETATM    1  C7  UNL     1     -34.133  16.219  -2.247  1.00 20.00     0.006 C 
ENDROOT
BRANCH   1   2
HETATM    2  C5  UNL     1     -34.816  16.511  -0.903  1.00 20.00     0.033 C 
BRANCH   2   3
HETATM    3  C2  UNL     1     -34.177  17.622  -0.102  1.00 20.00    -0.093 C 
HETATM    4  C1  UNL     1     -33.099  18.281  -0.556  1.00 20.00     0.014 C 
HETATM    5  C3  UNL     1     -34.776  17.932   1.239  1.00 20.00     0.042 C 
ENDBRANCH   2   3
ENDBRANCH   1   2
BRANCH   1   6
HETATM    6  C8  UNL     1     -34.888  15.182  -3.090  1.00 20.00     0.020 C 
BRANCH   6   7
HETATM    7  C9  UNL     1     -34.031  13.961  -3.464  1.00 20.00     0.082 C 
HETATM    8 CL10 UNL     1     -32.300  14.419  -3.533  1.00 20.00    -0.125 Cl
BRANCH   7   9
HETATM    9  C6  UNL     1     -34.483  13.375  -4.809  1.00 20.00     0.016 C 
HETATM   10  C4  UNL     1     -34.723  14.427  -5.884  1.00 20.00     0.006 C 
ENDBRANCH   7   9
ENDBRANCH   6   7
ENDBRANCH   1   6
TORSDOF 5
ENDMDL
MODEL 9
REMARK VINA RESULT:      -4.0     11.387     12.023
REMARK  5 active torsions:
REMARK  status: ('A' for Active; 'I' for Inactive)
REMARK    1  A    between atoms: C2_2  and  C5_5 
REMARK    2  A    between atoms: C5_5  and  C7_7 
REMARK    3  A    between atoms: C6_6  and  C9_9 
REMARK    4  A    between atoms: C7_7  and  C8_8 
REMARK    5  A    between atoms: C8_8  and  C9_9 
ROOT
HETATM    1  C7  UNL     1     -33.704  16.236  -2.554  1.00 20.00     0.006 C 
ENDROOT
BRANCH   1   2
HETATM    2  C5  UNL     1     -34.727  16.314  -1.412  1.00 20.00     0.033 C 
BRANCH   2   3
HETATM    3  C2  UNL     1     -34.391  17.319  -0.335  1.00 20.00    -0.093 C 
HETATM    4  C1  UNL     1     -35.147  17.442   0.768  1.00 20.00     0.014 C 
HETATM    5  C3  UNL     1     -33.198  18.200  -0.567  1.00 20.00     0.042 C 
ENDBRANCH   2   3
ENDBRANCH   1   2
BRANCH   1   6
HETATM    6  C8  UNL     1     -34.358  16.180  -3.941  1.00 20.00     0.020 C 
BRANCH   6   7
HETATM    7  C9  UNL     1     -34.180  14.823  -4.643  1.00 20.00     0.082 C 
HETATM    8 CL10 UNL     1     -34.298  15.026  -6.420  1.00 20.00    -0.125 Cl
BRANCH   7   9
HETATM    9  C6  UNL     1     -35.230  13.817  -4.149  1.00 20.00     0.016 C 
HETATM   10  C4  UNL     1     -36.631  14.403  -4.036  1.00 20.00     0.006 C 
ENDBRANCH   7   9
ENDBRANCH   6   7
ENDBRANCH   1   6
TORSDOF 5
ENDMDL
