MODEL 1
REMARK VINA RESULT:      -4.6      0.000      0.000
REMARK  2 active torsions:
REMARK  status: ('A' for Active; 'I' for Inactive)
REMARK    1  A    between atoms: C2_2  and  C7_7 
REMARK    2  A    between atoms: C7_7  and  O11_11 
ROOT
HETATM    1  C3  UNL     1     -34.892  14.204  -5.811  1.00 20.00     0.073 C 
HETATM    2  C4  UNL     1     -36.735  14.484  -4.108  1.00 20.00     0.073 C 
HETATM    3  C5  UNL     1     -35.245  15.595  -6.347  1.00 20.00     0.275 C 
HETATM    4  C6  UNL     1     -37.014  15.864  -4.713  1.00 20.00     0.275 C 
HETATM    5  C7  UNL     1     -35.293  14.034  -4.346  1.00 20.00     0.083 C 
HETATM    6  C9  UNL     1     -37.564  15.268  -7.007  1.00 20.00     0.309 C 
HETATM    7  N10 UNL     1     -36.644  15.986  -6.128  1.00 20.00     0.084 N 
ENDROOT
BRANCH   5   8
HETATM    8  C2  UNL     1     -34.333  14.746  -3.434  1.00 20.00    -0.059 C 
HETATM    9  C1  UNL     1     -34.756  15.555  -2.451  1.00 20.00     0.017 C 
HETATM   10  C8  UNL     1     -32.875  14.500  -3.686  1.00 20.00     0.046 C 
ENDBRANCH   5   8
BRANCH   5  11
HETATM   11  O11 UNL     1     -35.145  12.664  -3.988  1.00 20.00    -0.385 OA
HETATM   12  H28 UNL     1     -36.025  12.358  -3.721  1.00 20.00     0.211 HD
ENDBRANCH   5  11
TORSDOF 2
ENDMDL
MODEL 2
REMARK VINA RESULT:      -4.5      0.144      1.067
REMARK  2 active torsions:
REMARK  status: ('A' for Active; 'I' for Inactive)
REMARK    1  A    between atoms: C2_2  and  C7_7 
REMARK    2  A    between atoms: C7_7  and  O11_11 
ROOT
HETATM    1  C3  UNL     1     -34.782  14.184  -5.816  1.00 20.00     0.073 C 
HETATM    2  C4  UNL     1     -36.619  14.535  -4.120  1.00 20.00     0.073 C 
HETATM    3  C5  UNL     1     -35.126  15.558  -6.399  1.00 20.00     0.275 C 
HETATM    4  C6  UNL     1     -36.889  15.896  -4.771  1.00 20.00     0.275 C 
HETATM    5  C7  UNL     1     -35.181  14.066  -4.345  1.00 20.00     0.083 C 
HETATM    6  C9  UNL     1     -37.449  15.227  -7.042  1.00 20.00     0.309 C 
HETATM    7  N10 UNL     1     -36.521  15.967  -6.190  1.00 20.00     0.084 N 
ENDROOT
BRANCH   5   8
HETATM    8  C2  UNL     1     -34.213  14.802  -3.460  1.00 20.00    -0.059 C 
HETATM    9  C1  UNL     1     -32.888  14.748  -3.660  1.00 20.00     0.017 C 
HETATM   10  C8  UNL     1     -34.815  15.599  -2.342  1.00 20.00     0.046 C 
ENDBRANCH   5   8
BRANCH   5  11
HETATM   11  O11 UNL     1     -35.043  12.708  -3.941  1.00 20.00    -0.385 OA
HETATM   12  H28 UNL     1     -35.591  12.188  -4.547  1.00 20.00     0.211 HD
ENDBRANCH   5  11
TORSDOF 2
ENDMDL
MODEL 3
REMARK VINA RESULT:      -4.4      2.436      3.731
REMARK  2 active torsions:
REMARK  status: ('A' for Active; 'I' for Inactive)
REMARK    1  A    between atoms: C2_2  and  C7_7 
REMARK    2  A    between atoms: C7_7  and  O11_11 
ROOT
HETATM    1  C3  UNL     1     -33.679  16.030  -2.707  1.00 20.00     0.073 C 
HETATM    2  C4  UNL     1     -33.335  16.913  -5.047  1.00 20.00     0.073 C 
HETATM    3  C5  UNL     1     -34.972  16.849  -2.643  1.00 20.00     0.275 C 
HETATM    4  C6  UNL     1     -34.643  17.696  -4.889  1.00 20.00     0.275 C 
HETATM    5  C7  UNL     1     -33.290  15.680  -4.143  1.00 20.00     0.083 C 
HETATM    6  C9  UNL     1     -34.118  19.102  -2.975  1.00 20.00     0.309 C 
HETATM    7  N10 UNL     1     -34.972  18.040  -3.501  1.00 20.00     0.084 N 
ENDROOT
BRANCH   5   8
HETATM    8  C2  UNL     1     -34.146  14.567  -4.681  1.00 20.00    -0.059 C 
HETATM    9  C1  UNL     1     -34.587  13.570  -3.898  1.00 20.00     0.017 C 
HETATM   10  C8  UNL     1     -34.480  14.636  -6.141  1.00 20.00     0.046 C 
ENDBRANCH   5   8
BRANCH   5  11
HETATM   11  O11 UNL     1     -31.979  15.126  -4.140  1.00 20.00    -0.385 OA
HETATM   12  H28 UNL     1     -31.585  15.367  -3.289  1.00 20.00     0.211 HD
ENDBRANCH   5  11
TORSDOF 2
ENDMDL
MODEL 4
REMARK VINA RESULT:      -4.4      1.627      3.673
REMARK  2 active torsions:
REMARK  status: ('A' for Active; 'I' for Inactive)
REMARK    1  A    between atoms: C2_2  and  C7_7 
REMARK    2  A    between atoms: C7_7  and  O11_11 
ROOT
HETATM    1  C3  UNL     1     -36.429  15.100  -3.360  1.00 20.00     0.073 C 
HETATM    2  C4  UNL     1     -33.970  14.627  -3.683  1.00 20.00     0.073 C 
HETATM    3  C5  UNL     1     -36.066  16.572  -3.143  1.00 20.00     0.275 C 
HETATM    4  C6  UNL     1     -33.706  16.119  -3.454  1.00 20.00     0.275 C 
HETATM    5  C7  UNL     1     -35.386  14.368  -4.203  1.00 20.00     0.083 C 
HETATM    6  C9  UNL     1     -34.597  16.413  -1.210  1.00 20.00     0.309 C 
HETATM    7  N10 UNL     1     -34.711  16.785  -2.618  1.00 20.00     0.084 N 
ENDROOT
BRANCH   5   8
HETATM    8  C2  UNL     1     -35.516  14.724  -5.657  1.00 20.00    -0.059 C 
HETATM    9  C1  UNL     1     -34.467  14.689  -6.493  1.00 20.00     0.017 C 
HETATM   10  C8  UNL     1     -36.886  15.120  -6.121  1.00 20.00     0.046 C 
ENDBRANCH   5   8
BRANCH   5  11
HETATM   11  O11 UNL     1     -35.668  12.973  -4.170  1.00 20.00    -0.385 OA
HETATM   12  H28 UNL     1     -35.340  12.650  -3.318  1.00 20.00     0.211 HD
ENDBRANCH   5  11
TORSDOF 2
ENDMDL
MODEL 5
REMARK VINA RESULT:      -4.3      1.852      2.347
REMARK  2 active torsions:
REMARK  status: ('A' for Active; 'I' for Inactive)
REMARK    1  A    between atoms: C2_2  and  C7_7 
REMARK    2  A    between atoms: C7_7  and  O11_11 
ROOT
HETATM    1  C3  UNL     1     -33.687  16.365  -5.717  1.00 20.00     0.073 C 
HETATM    2  C4  UNL     1     -34.308  14.264  -4.462  1.00 20.00     0.073 C 
HETATM    3  C5  UNL     1     -35.151  16.475  -6.156  1.00 20.00     0.275 C 
HETATM    4  C6  UNL     1     -35.748  14.459  -4.951  1.00 20.00     0.275 C 
HETATM    5  C7  UNL     1     -33.535  15.582  -4.413  1.00 20.00     0.083 C 
HETATM    6  C9  UNL     1     -35.437  14.382  -7.363  1.00 20.00     0.309 C 
HETATM    7  N10 UNL     1     -35.856  15.189  -6.219  1.00 20.00     0.084 N 
ENDROOT
BRANCH   5   8
HETATM    8  C2  UNL     1     -33.938  16.417  -3.229  1.00 20.00    -0.059 C 
HETATM    9  C1  UNL     1     -34.448  15.869  -2.116  1.00 20.00     0.017 C 
HETATM   10  C8  UNL     1     -33.735  17.896  -3.363  1.00 20.00     0.046 C 
ENDBRANCH   5   8
BRANCH   5  11
HETATM   11  O11 UNL     1     -32.152  15.327  -4.191  1.00 20.00    -0.385 OA
HETATM   12  H28 UNL     1     -31.859  14.765  -4.924  1.00 20.00     0.211 HD
ENDBRANCH   5  11
TORSDOF 2
ENDMDL
MODEL 6
REMARK VINA RESULT:      -4.2      1.828      2.487
REMARK  2 active torsions:
REMARK  status: ('A' for Active; 'I' for Inactive)
REMARK    1  A    between atoms: C2_2  and  C7_7 
REMARK    2  A    between atoms: C7_7  and  O11_11 
ROOT
HETATM    1  C3  UNL     1     -34.653  17.107  -4.880  1.00 20.00     0.073 C 
HETATM    2  C4  UNL     1     -34.394  14.948  -6.164  1.00 20.00     0.073 C 
HETATM    3  C5  UNL     1     -36.166  16.993  -5.094  1.00 20.00     0.275 C 
HETATM    4  C6  UNL     1     -35.918  14.920  -6.325  1.00 20.00     0.275 C 
HETATM    5  C7  UNL     1     -33.961  15.745  -4.932  1.00 20.00     0.083 C 
HETATM    6  C9  UNL     1     -36.299  17.003  -7.523  1.00 20.00     0.309 C 
HETATM    7  N10 UNL     1     -36.548  16.246  -6.299  1.00 20.00     0.084 N 
ENDROOT
BRANCH   5   8
HETATM    8  C2  UNL     1     -34.189  14.972  -3.663  1.00 20.00    -0.059 C 
HETATM    9  C1  UNL     1     -34.173  13.631  -3.638  1.00 20.00     0.017 C 
HETATM   10  C8  UNL     1     -34.433  15.786  -2.428  1.00 20.00     0.046 C 
ENDBRANCH   5   8
BRANCH   5  11
HETATM   11  O11 UNL     1     -32.552  15.949  -4.956  1.00 20.00    -0.385 OA
HETATM   12  H28 UNL     1     -32.416  16.867  -5.232  1.00 20.00     0.211 HD
ENDBRANCH   5  11
TORSDOF 2
ENDMDL
MODEL 7
REMARK VINA RESULT:      -4.0      2.278      2.972
REMARK  2 active torsions:
REMARK  status: ('A' for Active; 'I' for Inactive)
REMARK    1  A    between atoms: C2_2  and  C7_7 
REMARK    2  A    between atoms: C7_7  and  O11_11 
ROOT
HETATM    1  C3  UNL     1     -33.294  16.632  -4.900  1.00 20.00     0.073 C 
HETATM    2  C4  UNL     1     -35.693  15.957  -5.307  1.00 20.00     0.073 C 
HETATM    3  C5  UNL     1     -33.770  17.380  -3.650  1.00 20.00     0.275 C 
HETATM    4  C6  UNL     1     -36.072  16.732  -4.040  1.00 20.00     0.275 C 
HETATM    5  C7  UNL     1     -34.236  15.491  -5.281  1.00 20.00     0.083 C 
HETATM    6  C9  UNL     1     -35.329  18.974  -4.623  1.00 20.00     0.309 C 
HETATM    7  N10 UNL     1     -35.163  17.838  -3.719  1.00 20.00     0.084 N 
ENDROOT
BRANCH   5   8
HETATM    8  C2  UNL     1     -34.050  14.307  -4.372  1.00 20.00    -0.059 C 
HETATM    9  C1  UNL     1     -32.953  14.161  -3.615  1.00 20.00     0.017 C 
HETATM   10  C8  UNL     1     -35.161  13.301  -4.361  1.00 20.00     0.046 C 
ENDBRANCH   5   8
BRANCH   5  11
HETATM   11  O11 UNL     1     -33.861  14.995  -6.562  1.00 20.00    -0.385 OA
HETATM   12  H28 UNL     1     -34.117  14.062  -6.577  1.00 20.00     0.211 HD
ENDBRANCH   5  11
TORSDOF 2
ENDMDL
MODEL 8
REMARK VINA RESULT:      -4.0      1.999      3.275
REMARK  2 active torsions:
REMARK  status: ('A' for Active; 'I' for Inactive)
REMARK    1  A    between atoms: C2_2  and  C7_7 
REMARK    2  A    between atoms: C7_7  and  O11_11 
ROOT
HETATM    1  C3  UNL     1     -34.707  15.114  -3.189  1.00 20.00     0.073 C 
HETATM    2  C4  UNL     1     -34.526  16.899  -4.965  1.00 20.00     0.073 C 
HETATM    3  C5  UNL     1     -36.212  15.396  -3.130  1.00 20.00     0.275 C 
HETATM    4  C6  UNL     1     -36.038  17.110  -4.835  1.00 20.00     0.275 C 
HETATM    5  C7  UNL     1     -34.103  15.491  -4.541  1.00 20.00     0.083 C 
HETATM    6  C9  UNL     1     -36.223  17.745  -2.494  1.00 20.00     0.309 C 
HETATM    7  N10 UNL     1     -36.581  16.764  -3.516  1.00 20.00     0.084 N 
ENDROOT
BRANCH   5   8
HETATM    8  C2  UNL     1     -34.444  14.471  -5.591  1.00 20.00    -0.059 C 
HETATM    9  C1  UNL     1     -34.765  13.208  -5.274  1.00 20.00     0.017 C 
HETATM   10  C8  UNL     1     -34.404  14.946  -7.013  1.00 20.00     0.046 C 
ENDBRANCH   5   8
BRANCH   5  11
HETATM   11  O11 UNL     1     -32.684  15.417  -4.445  1.00 20.00    -0.385 OA
HETATM   12  H28 UNL     1     -32.383  16.306  -4.207  1.00 20.00     0.211 HD
ENDBRANCH   5  11
TORSDOF 2
ENDMDL
MODEL 9
REMARK VINA RESULT:      -4.0      2.315      3.494
REMARK  2 active torsions:
REMARK  status: ('A' for Active; 'I' for Inactive)
REMARK    1  A    between atoms: C2_2  and  C7_7 
REMARK    2  A    between atoms: C7_7  and  O11_11 
ROOT
HETATM    1  C3  UNL     1     -35.861  17.131  -3.932  1.00 20.00     0.073 C 
HETATM    2  C4  UNL     1     -33.595  16.142  -3.420  1.00 20.00     0.073 C 
HETATM    3  C5  UNL     1     -35.383  17.351  -5.371  1.00 20.00     0.275 C 
HETATM    4  C6  UNL     1     -33.209  16.402  -4.880  1.00 20.00     0.275 C 
HETATM    5  C7  UNL     1     -35.107  15.994  -3.244  1.00 20.00     0.083 C 
HETATM    6  C9  UNL     1     -33.475  18.816  -5.012  1.00 20.00     0.309 C 
HETATM    7  N10 UNL     1     -33.931  17.518  -5.502  1.00 20.00     0.084 N 
ENDROOT
BRANCH   5   8
HETATM    8  C2  UNL     1     -35.592  14.653  -3.722  1.00 20.00    -0.059 C 
HETATM    9  C1  UNL     1     -34.758  13.616  -3.887  1.00 20.00     0.017 C 
HETATM   10  C8  UNL     1     -37.061  14.543  -4.004  1.00 20.00     0.046 C 
ENDBRANCH   5   8
BRANCH   5  11
HETATM   11  O11 UNL     1     -35.439  15.998  -1.859  1.00 20.00    -0.385 OA
HETATM   12  H28 UNL     1     -35.997  16.776  -1.717  1.00 20.00     0.211 HD
ENDBRANCH   5  11
TORSDOF 2
ENDMDL
