MODEL 1
REMARK VINA RESULT:      -5.0      0.000      0.000
REMARK  3 active torsions:
REMARK  status: ('A' for Active; 'I' for Inactive)
REMARK    1  A    between atoms: C2_2  and  C7_7 
REMARK    2  A    between atoms: C5_5  and  C7_7 
REMARK    3  A    between atoms: C7_7  and  O8_8 
ROOT
HETATM    1  C7  UNL     1     -34.161   6.238   4.061  1.00 20.00     0.150 C 
ENDROOT
BRANCH   1   2
HETATM    2  C2  UNL     1     -34.253   5.778   5.499  1.00 20.00    -0.064 C 
HETATM    3  C1  UNL     1     -33.965   6.611   6.512  1.00 20.00     0.016 C 
HETATM    4  C6  UNL     1     -34.687   4.363   5.763  1.00 20.00     0.045 C 
ENDBRANCH   1   2
BRANCH   1   5
HETATM    5  C5  UNL     1     -32.734   6.212   3.524  1.00 20.00     0.019 A 
HETATM    6  C3  UNL     1     -32.322   7.147   2.421  1.00 20.00     0.008 A 
HETATM    7  C4  UNL     1     -31.795   7.350   3.814  1.00 20.00     0.008 A 
ENDBRANCH   1   5
BRANCH   1   8
HETATM    8  O8  UNL     1     -34.985   5.400   3.252  1.00 20.00    -0.391 OA
HETATM    9  H20 UNL     1     -34.893   4.501   3.605  1.00 20.00     0.210 HD
ENDBRANCH   1   8
TORSDOF 3
ENDMDL
MODEL 2
REMARK VINA RESULT:      -4.7      0.609      1.386
REMARK  3 active torsions:
REMARK  status: ('A' for Active; 'I' for Inactive)
REMARK    1  A    between atoms: C2_2  and  C7_7 
REMARK    2  A    between atoms: C5_5  and  C7_7 
REMARK    3  A    between atoms: C7_7  and  O8_8 
ROOT
HETATM    1  C7  UNL     1     -34.616   6.177   4.076  1.00 20.00     0.150 C 
ENDROOT
BRANCH   1   2
HETATM    2  C2  UNL     1     -34.359   5.663   5.474  1.00 20.00    -0.064 C 
HETATM    3  C1  UNL     1     -34.522   4.365   5.777  1.00 20.00     0.016 C 
HETATM    4  C6  UNL     1     -33.904   6.647   6.517  1.00 20.00     0.045 C 
ENDBRANCH   1   2
BRANCH   1   5
HETATM    5  C5  UNL     1     -33.421   5.982   3.147  1.00 20.00     0.019 A 
HETATM    6  C3  UNL     1     -32.642   7.170   2.655  1.00 20.00     0.008 A 
HETATM    7  C4  UNL     1     -32.025   6.225   3.649  1.00 20.00     0.008 A 
ENDBRANCH   1   5
BRANCH   1   8
HETATM    8  O8  UNL     1     -35.749   5.500   3.534  1.00 20.00    -0.391 OA
HETATM    9  H20 UNL     1     -36.479   5.642   4.157  1.00 20.00     0.210 HD
ENDBRANCH   1   8
TORSDOF 3
ENDMDL
MODEL 3
REMARK VINA RESULT:      -4.6      1.543      2.033
REMARK  3 active torsions:
REMARK  status: ('A' for Active; 'I' for Inactive)
REMARK    1  A    between atoms: C2_2  and  C7_7 
REMARK    2  A    between atoms: C5_5  and  C7_7 
REMARK    3  A    between atoms: C7_7  and  O8_8 
ROOT
HETATM    1  C7  UNL     1     -33.535   5.947   5.136  1.00 20.00     0.150 C 
ENDROOT
BRANCH   1   2
HETATM    2  C2  UNL     1     -34.791   5.110   5.044  1.00 20.00    -0.064 C 
HETATM    3  C1  UNL     1     -35.090   4.204   5.989  1.00 20.00     0.016 C 
HETATM    4  C6  UNL     1     -35.702   5.327   3.867  1.00 20.00     0.045 C 
ENDBRANCH   1   2
BRANCH   1   5
HETATM    5  C5  UNL     1     -33.233   6.701   3.844  1.00 20.00     0.019 A 
HETATM    6  C3  UNL     1     -31.889   7.341   3.637  1.00 20.00     0.008 A 
HETATM    7  C4  UNL     1     -32.275   6.127   2.839  1.00 20.00     0.008 A 
ENDBRANCH   1   5
BRANCH   1   8
HETATM    8  O8  UNL     1     -33.676   6.881   6.205  1.00 20.00    -0.391 OA
HETATM    9  H20 UNL     1     -34.629   7.021   6.323  1.00 20.00     0.210 HD
ENDBRANCH   1   8
TORSDOF 3
ENDMDL
MODEL 4
REMARK VINA RESULT:      -4.3      1.494      3.767
REMARK  3 active torsions:
REMARK  status: ('A' for Active; 'I' for Inactive)
REMARK    1  A    between atoms: C2_2  and  C7_7 
REMARK    2  A    between atoms: C5_5  and  C7_7 
REMARK    3  A    between atoms: C7_7  and  O8_8 
ROOT
HETATM    1  C7  UNL     1     -34.310   6.286   4.728  1.00 20.00     0.150 C 
ENDROOT
BRANCH   1   2
HETATM    2  C2  UNL     1     -33.481   6.097   3.478  1.00 20.00    -0.064 C 
HETATM    3  C1  UNL     1     -33.921   5.334   2.464  1.00 20.00     0.016 C 
HETATM    4  C6  UNL     1     -32.153   6.798   3.396  1.00 20.00     0.045 C 
ENDBRANCH   1   2
BRANCH   1   5
HETATM    5  C5  UNL     1     -35.111   5.042   5.098  1.00 20.00     0.019 A 
HETATM    6  C3  UNL     1     -34.410   3.812   5.605  1.00 20.00     0.008 A 
HETATM    7  C4  UNL     1     -35.254   4.634   6.538  1.00 20.00     0.008 A 
ENDBRANCH   1   5
BRANCH   1   8
HETATM    8  O8  UNL     1     -33.446   6.629   5.810  1.00 20.00    -0.391 OA
HETATM    9  H20 UNL     1     -32.691   7.099   5.422  1.00 20.00     0.210 HD
ENDBRANCH   1   8
TORSDOF 3
ENDMDL
MODEL 5
REMARK VINA RESULT:      -4.1     11.187     12.429
REMARK  3 active torsions:
REMARK  status: ('A' for Active; 'I' for Inactive)
REMARK    1  A    between atoms: C2_2  and  C7_7 
REMARK    2  A    between atoms: C5_5  and  C7_7 
REMARK    3  A    between atoms: C7_7  and  O8_8 
ROOT
HETATM    1  C7  UNL     1     -35.220  13.892  -4.454  1.00 20.00     0.150 C 
ENDROOT
BRANCH   1   2
HETATM    2  C2  UNL     1     -34.159  14.457  -3.537  1.00 20.00    -0.064 C 
HETATM    3  C1  UNL     1     -32.915  13.951  -3.523  1.00 20.00     0.016 C 
HETATM    4  C6  UNL     1     -34.533  15.611  -2.648  1.00 20.00     0.045 C 
ENDBRANCH   1   2
BRANCH   1   5
HETATM    5  C5  UNL     1     -34.852  14.015  -5.929  1.00 20.00     0.019 A 
HETATM    6  C3  UNL     1     -35.786  14.696  -6.889  1.00 20.00     0.008 A 
HETATM    7  C4  UNL     1     -34.489  15.354  -6.508  1.00 20.00     0.008 A 
ENDBRANCH   1   5
BRANCH   1   8
HETATM    8  O8  UNL     1     -35.426  12.517  -4.133  1.00 20.00    -0.391 OA
HETATM    9  H20 UNL     1     -36.311  12.455  -3.739  1.00 20.00     0.210 HD
ENDBRANCH   1   8
TORSDOF 3
ENDMDL
MODEL 6
REMARK VINA RESULT:      -4.0     12.080     12.966
REMARK  3 active torsions:
REMARK  status: ('A' for Active; 'I' for Inactive)
REMARK    1  A    between atoms: C2_2  and  C7_7 
REMARK    2  A    between atoms: C5_5  and  C7_7 
REMARK    3  A    between atoms: C7_7  and  O8_8 
ROOT
HETATM    1  C7  UNL     1     -33.863  15.673  -4.559  1.00 20.00     0.150 C 
ENDROOT
BRANCH   1   2
HETATM    2  C2  UNL     1     -34.384  14.502  -5.362  1.00 20.00    -0.064 C 
HETATM    3  C1  UNL     1     -34.568  13.299  -4.794  1.00 20.00     0.016 C 
HETATM    4  C6  UNL     1     -34.702  14.726  -6.815  1.00 20.00     0.045 C 
ENDBRANCH   1   2
BRANCH   1   5
HETATM    5  C5  UNL     1     -33.984  15.455  -3.054  1.00 20.00     0.019 A 
HETATM    6  C3  UNL     1     -33.791  16.605  -2.104  1.00 20.00     0.008 A 
HETATM    7  C4  UNL     1     -35.160  16.014  -2.301  1.00 20.00     0.008 A 
ENDBRANCH   1   5
BRANCH   1   8
HETATM    8  O8  UNL     1     -32.494  15.892  -4.894  1.00 20.00    -0.391 OA
HETATM    9  H20 UNL     1     -32.103  15.017  -5.044  1.00 20.00     0.210 HD
ENDBRANCH   1   8
TORSDOF 3
ENDMDL
MODEL 7
REMARK VINA RESULT:      -4.0     11.515     12.600
REMARK  3 active torsions:
REMARK  status: ('A' for Active; 'I' for Inactive)
REMARK    1  A    between atoms: C2_2  and  C7_7 
REMARK    2  A    between atoms: C5_5  and  C7_7 
REMARK    3  A    between atoms: C7_7  and  O8_8 
ROOT
HETATM    1  C7  UNL     1     -34.555  13.586  -4.766  1.00 20.00     0.150 C 
ENDROOT
BRANCH   1   2
HETATM    2  C2  UNL     1     -35.400  14.413  -5.709  1.00 20.00    -0.064 C 
HETATM    3  C1  UNL     1     -36.559  14.958  -5.303  1.00 20.00     0.016 C 
HETATM    4  C6  UNL     1     -34.901  14.616  -7.113  1.00 20.00     0.045 C 
ENDBRANCH   1   2
BRANCH   1   5
HETATM    5  C5  UNL     1     -33.934  14.418  -3.648  1.00 20.00     0.019 A 
HETATM    6  C3  UNL     1     -32.439  14.527  -3.526  1.00 20.00     0.008 A 
HETATM    7  C4  UNL     1     -33.247  15.717  -3.965  1.00 20.00     0.008 A 
ENDBRANCH   1   5
BRANCH   1   8
HETATM    8  O8  UNL     1     -35.365  12.560  -4.195  1.00 20.00    -0.391 OA
HETATM    9  H20 UNL     1     -34.861  12.193  -3.452  1.00 20.00     0.210 HD
ENDBRANCH   1   8
TORSDOF 3
ENDMDL
MODEL 8
REMARK VINA RESULT:      -3.9      0.867      3.440
REMARK  3 active torsions:
REMARK  status: ('A' for Active; 'I' for Inactive)
REMARK    1  A    between atoms: C2_2  and  C7_7 
REMARK    2  A    between atoms: C5_5  and  C7_7 
REMARK    3  A    between atoms: C7_7  and  O8_8 
ROOT
HETATM    1  C7  UNL     1     -32.967   6.070   3.723  1.00 20.00     0.150 C 
ENDROOT
BRANCH   1   2
HETATM    2  C2  UNL     1     -32.116   7.275   3.391  1.00 20.00    -0.064 C 
HETATM    3  C1  UNL     1     -31.198   7.735   4.258  1.00 20.00     0.016 C 
HETATM    4  C6  UNL     1     -32.317   7.939   2.057  1.00 20.00     0.045 C 
ENDBRANCH   1   2
BRANCH   1   5
HETATM    5  C5  UNL     1     -34.107   6.400   4.681  1.00 20.00     0.019 A 
HETATM    6  C3  UNL     1     -34.771   5.309   5.474  1.00 20.00     0.008 A 
HETATM    7  C4  UNL     1     -33.896   6.316   6.167  1.00 20.00     0.008 A 
ENDBRANCH   1   5
BRANCH   1   8
HETATM    8  O8  UNL     1     -33.506   5.536   2.515  1.00 20.00    -0.391 OA
HETATM    9  H20 UNL     1     -34.317   5.063   2.761  1.00 20.00     0.210 HD
ENDBRANCH   1   8
TORSDOF 3
ENDMDL
MODEL 9
REMARK VINA RESULT:      -3.9     11.559     12.464
REMARK  3 active torsions:
REMARK  status: ('A' for Active; 'I' for Inactive)
REMARK    1  A    between atoms: C2_2  and  C7_7 
REMARK    2  A    between atoms: C5_5  and  C7_7 
REMARK    3  A    between atoms: C7_7  and  O8_8 
ROOT
HETATM    1  C7  UNL     1     -33.302  15.175  -3.419  1.00 20.00     0.150 C 
ENDROOT
BRANCH   1   2
HETATM    2  C2  UNL     1     -33.999  16.365  -2.800  1.00 20.00    -0.064 C 
HETATM    3  C1  UNL     1     -34.465  16.318  -1.542  1.00 20.00     0.016 C 
HETATM    4  C6  UNL     1     -34.146  17.610  -3.631  1.00 20.00     0.045 C 
ENDBRANCH   1   2
BRANCH   1   5
HETATM    5  C5  UNL     1     -34.206  13.950  -3.522  1.00 20.00     0.019 A 
HETATM    6  C3  UNL     1     -35.559  14.059  -4.168  1.00 20.00     0.008 A 
HETATM    7  C4  UNL     1     -34.455  13.304  -4.856  1.00 20.00     0.008 A 
ENDBRANCH   1   5
BRANCH   1   8
HETATM    8  O8  UNL     1     -32.842  15.531  -4.722  1.00 20.00    -0.391 OA
HETATM    9  H20 UNL     1     -32.113  14.927  -4.932  1.00 20.00     0.210 HD
ENDBRANCH   1   8
TORSDOF 3
ENDMDL
