MODEL 1
REMARK VINA RESULT:      -4.9      0.000      0.000
REMARK  3 active torsions:
REMARK  status: ('A' for Active; 'I' for Inactive)
REMARK    1  A    between atoms: C2_2  and  C10_10 
REMARK    2  A    between atoms: C5_5  and  C10_10 
REMARK    3  A    between atoms: C7_7  and  O11_11 
ROOT
HETATM    1  C3  UNL     1     -36.360  15.376  -3.150  1.00 20.00     0.008 C 
HETATM    2  C4  UNL     1     -36.402  14.363  -4.296  1.00 20.00     0.032 C 
HETATM    3  C5  UNL     1     -34.881  15.725  -2.965  1.00 20.00    -0.004 C 
HETATM    4  C6  UNL     1     -34.180  14.409  -3.319  1.00 20.00     0.015 C 
HETATM    5  C7  UNL     1     -34.951  13.959  -4.563  1.00 20.00     0.122 C 
HETATM    6  C9  UNL     1     -32.686  14.562  -3.577  1.00 20.00     0.013 C 
ENDROOT
BRANCH   3   7
HETATM    7  C10 UNL     1     -34.574  16.235  -1.565  1.00 20.00     0.038 C 
BRANCH   7   8
HETATM    8  C2  UNL     1     -33.855  17.561  -1.569  1.00 20.00    -0.093 C 
HETATM    9  C1  UNL     1     -33.319  18.072  -0.450  1.00 20.00     0.014 C 
HETATM   10  C8  UNL     1     -33.797  18.304  -2.873  1.00 20.00     0.042 C 
ENDBRANCH   7   8
ENDBRANCH   3   7
BRANCH   5  11
HETATM   11  O11 UNL     1     -34.858  12.559  -4.759  1.00 20.00    -0.395 OA
HETATM   12  H29 UNL     1     -33.912  12.339  -4.786  1.00 20.00     0.210 HD
ENDBRANCH   5  11
TORSDOF 3
ENDMDL
MODEL 2
REMARK VINA RESULT:      -4.7     11.498     12.286
REMARK  3 active torsions:
REMARK  status: ('A' for Active; 'I' for Inactive)
REMARK    1  A    between atoms: C2_2  and  C10_10 
REMARK    2  A    between atoms: C5_5  and  C10_10 
REMARK    3  A    between atoms: C7_7  and  O11_11 
ROOT
HETATM    1  C3  UNL     1     -34.531   5.008   3.397  1.00 20.00     0.008 C 
HETATM    2  C4  UNL     1     -34.989   4.048   4.496  1.00 20.00     0.032 C 
HETATM    3  C5  UNL     1     -33.664   6.055   4.101  1.00 20.00    -0.004 C 
HETATM    4  C6  UNL     1     -34.329   6.168   5.477  1.00 20.00     0.015 C 
HETATM    5  C7  UNL     1     -34.601   4.702   5.824  1.00 20.00     0.122 C 
HETATM    6  C9  UNL     1     -33.464   6.867   6.518  1.00 20.00     0.013 C 
ENDROOT
BRANCH   3   7
HETATM    7  C10 UNL     1     -33.598   7.367   3.334  1.00 20.00     0.038 C 
BRANCH   7   8
HETATM    8  C2  UNL     1     -32.195   7.728   2.911  1.00 20.00    -0.093 C 
HETATM    9  C1  UNL     1     -31.140   7.483   3.703  1.00 20.00     0.014 C 
HETATM   10  C8  UNL     1     -32.034   8.408   1.582  1.00 20.00     0.042 C 
ENDBRANCH   7   8
ENDBRANCH   3   7
BRANCH   5  11
HETATM   11  O11 UNL     1     -35.654   4.573   6.762  1.00 20.00    -0.395 OA
HETATM   12  H29 UNL     1     -36.124   5.423   6.780  1.00 20.00     0.210 HD
ENDBRANCH   5  11
TORSDOF 3
ENDMDL
MODEL 3
REMARK VINA RESULT:      -4.6      0.938      2.244
REMARK  3 active torsions:
REMARK  status: ('A' for Active; 'I' for Inactive)
REMARK    1  A    between atoms: C2_2  and  C10_10 
REMARK    2  A    between atoms: C5_5  and  C10_10 
REMARK    3  A    between atoms: C7_7  and  O11_11 
ROOT
HETATM    1  C3  UNL     1     -32.858  14.971  -3.365  1.00 20.00     0.008 C 
HETATM    2  C4  UNL     1     -33.193  13.567  -3.870  1.00 20.00     0.032 C 
HETATM    3  C5  UNL     1     -34.188  15.569  -2.901  1.00 20.00    -0.004 C 
HETATM    4  C6  UNL     1     -35.193  14.943  -3.874  1.00 20.00     0.015 C 
HETATM    5  C7  UNL     1     -34.719  13.488  -3.932  1.00 20.00     0.122 C 
HETATM    6  C9  UNL     1     -36.642  15.071  -3.423  1.00 20.00     0.013 C 
ENDROOT
BRANCH   3   7
HETATM    7  C10 UNL     1     -34.178  17.090  -2.914  1.00 20.00     0.038 C 
BRANCH   7   8
HETATM    8  C2  UNL     1     -34.012  17.686  -1.537  1.00 20.00    -0.093 C 
HETATM    9  C1  UNL     1     -33.286  18.797  -1.337  1.00 20.00     0.014 C 
HETATM   10  C8  UNL     1     -34.666  16.962  -0.395  1.00 20.00     0.042 C 
ENDBRANCH   7   8
ENDBRANCH   3   7
BRANCH   5  11
HETATM   11  O11 UNL     1     -35.131  12.850  -5.128  1.00 20.00    -0.395 OA
HETATM   12  H29 UNL     1     -34.615  12.030  -5.205  1.00 20.00     0.210 HD
ENDBRANCH   5  11
TORSDOF 3
ENDMDL
MODEL 4
REMARK VINA RESULT:      -4.5      1.925      2.331
REMARK  3 active torsions:
REMARK  status: ('A' for Active; 'I' for Inactive)
REMARK    1  A    between atoms: C2_2  and  C10_10 
REMARK    2  A    between atoms: C5_5  and  C10_10 
REMARK    3  A    between atoms: C7_7  and  O11_11 
ROOT
HETATM    1  C3  UNL     1     -34.784  17.648  -3.722  1.00 20.00     0.008 C 
HETATM    2  C4  UNL     1     -34.335  17.503  -5.177  1.00 20.00     0.032 C 
HETATM    3  C5  UNL     1     -33.883  16.708  -2.918  1.00 20.00    -0.004 C 
HETATM    4  C6  UNL     1     -33.637  15.558  -3.902  1.00 20.00     0.015 C 
HETATM    5  C7  UNL     1     -33.381  16.308  -5.213  1.00 20.00     0.122 C 
HETATM    6  C9  UNL     1     -32.478  14.653  -3.507  1.00 20.00     0.013 C 
ENDROOT
BRANCH   3   7
HETATM    7  C10 UNL     1     -34.518  16.275  -1.605  1.00 20.00     0.038 C 
BRANCH   7   8
HETATM    8  C2  UNL     1     -34.285  17.263  -0.488  1.00 20.00    -0.093 C 
HETATM    9  C1  UNL     1     -35.133  17.365   0.546  1.00 20.00     0.014 C 
HETATM   10  C8  UNL     1     -33.080  18.153  -0.603  1.00 20.00     0.042 C 
ENDBRANCH   7   8
ENDBRANCH   3   7
BRANCH   5  11
HETATM   11  O11 UNL     1     -33.653  15.496  -6.341  1.00 20.00    -0.395 OA
HETATM   12  H29 UNL     1     -34.578  15.657  -6.591  1.00 20.00     0.210 HD
ENDBRANCH   5  11
TORSDOF 3
ENDMDL
MODEL 5
REMARK VINA RESULT:      -4.5     10.747     11.621
REMARK  3 active torsions:
REMARK  status: ('A' for Active; 'I' for Inactive)
REMARK    1  A    between atoms: C2_2  and  C10_10 
REMARK    2  A    between atoms: C5_5  and  C10_10 
REMARK    3  A    between atoms: C7_7  and  O11_11 
ROOT
HETATM    1  C3  UNL     1     -33.346   6.750   5.452  1.00 20.00     0.008 C 
HETATM    2  C4  UNL     1     -34.486   5.844   5.919  1.00 20.00     0.032 C 
HETATM    3  C5  UNL     1     -33.439   6.775   3.925  1.00 20.00    -0.004 C 
HETATM    4  C6  UNL     1     -33.952   5.368   3.599  1.00 20.00     0.015 C 
HETATM    5  C7  UNL     1     -35.036   5.167   4.662  1.00 20.00     0.122 C 
HETATM    6  C9  UNL     1     -34.487   5.226   2.180  1.00 20.00     0.013 C 
ENDROOT
BRANCH   3   7
HETATM    7  C10 UNL     1     -32.112   7.119   3.266  1.00 20.00     0.038 C 
BRANCH   7   8
HETATM    8  C2  UNL     1     -32.242   8.191   2.211  1.00 20.00    -0.093 C 
HETATM    9  C1  UNL     1     -31.767   8.013   0.969  1.00 20.00     0.014 C 
HETATM   10  C8  UNL     1     -32.896   9.479   2.622  1.00 20.00     0.042 C 
ENDBRANCH   7   8
ENDBRANCH   3   7
BRANCH   5  11
HETATM   11  O11 UNL     1     -35.279   3.794   4.909  1.00 20.00    -0.395 OA
HETATM   12  H29 UNL     1     -36.150   3.587   4.532  1.00 20.00     0.210 HD
ENDBRANCH   5  11
TORSDOF 3
ENDMDL
MODEL 6
REMARK VINA RESULT:      -4.4      1.797      2.215
REMARK  3 active torsions:
REMARK  status: ('A' for Active; 'I' for Inactive)
REMARK    1  A    between atoms: C2_2  and  C10_10 
REMARK    2  A    between atoms: C5_5  and  C10_10 
REMARK    3  A    between atoms: C7_7  and  O11_11 
ROOT
HETATM    1  C3  UNL     1     -34.329  14.090  -3.782  1.00 20.00     0.008 C 
HETATM    2  C4  UNL     1     -34.751  13.760  -5.215  1.00 20.00     0.032 C 
HETATM    3  C5  UNL     1     -34.197  15.614  -3.734  1.00 20.00    -0.004 C 
HETATM    4  C6  UNL     1     -33.711  15.952  -5.147  1.00 20.00     0.015 C 
HETATM    5  C7  UNL     1     -34.597  15.055  -6.015  1.00 20.00     0.122 C 
HETATM    6  C9  UNL     1     -33.842  17.427  -5.503  1.00 20.00     0.013 C 
ENDROOT
BRANCH   3   7
HETATM    7  C10 UNL     1     -33.263  16.082  -2.628  1.00 20.00     0.038 C 
BRANCH   7   8
HETATM    8  C2  UNL     1     -33.916  17.065  -1.688  1.00 20.00    -0.093 C 
HETATM    9  C1  UNL     1     -34.725  16.658  -0.698  1.00 20.00     0.014 C 
HETATM   10  C8  UNL     1     -33.649  18.524  -1.929  1.00 20.00     0.042 C 
ENDBRANCH   7   8
ENDBRANCH   3   7
BRANCH   5  11
HETATM   11  O11 UNL     1     -34.001  14.788  -7.272  1.00 20.00    -0.395 OA
HETATM   12  H29 UNL     1     -34.681  14.367  -7.825  1.00 20.00     0.210 HD
ENDBRANCH   5  11
TORSDOF 3
ENDMDL
MODEL 7
REMARK VINA RESULT:      -4.1      2.319      3.312
REMARK  3 active torsions:
REMARK  status: ('A' for Active; 'I' for Inactive)
REMARK    1  A    between atoms: C2_2  and  C10_10 
REMARK    2  A    between atoms: C5_5  and  C10_10 
REMARK    3  A    between atoms: C7_7  and  O11_11 
ROOT
HETATM    1  C3  UNL     1     -33.935  15.794  -3.467  1.00 20.00     0.008 C 
HETATM    2  C4  UNL     1     -34.705  14.567  -2.976  1.00 20.00     0.032 C 
HETATM    3  C5  UNL     1     -34.338  15.973  -4.933  1.00 20.00    -0.004 C 
HETATM    4  C6  UNL     1     -34.551  14.528  -5.399  1.00 20.00     0.015 C 
HETATM    5  C7  UNL     1     -35.317  13.921  -4.220  1.00 20.00     0.122 C 
HETATM    6  C9  UNL     1     -35.312  14.416  -6.713  1.00 20.00     0.013 C 
ENDROOT
BRANCH   3   7
HETATM    7  C10 UNL     1     -33.294  16.735  -5.735  1.00 20.00     0.038 C 
BRANCH   7   8
HETATM    8  C2  UNL     1     -33.715  18.151  -6.046  1.00 20.00    -0.093 C 
HETATM    9  C1  UNL     1     -33.669  19.117  -5.116  1.00 20.00     0.014 C 
HETATM   10  C8  UNL     1     -34.221  18.425  -7.433  1.00 20.00     0.042 C 
ENDBRANCH   7   8
ENDBRANCH   3   7
BRANCH   5  11
HETATM   11  O11 UNL     1     -35.167  12.513  -4.168  1.00 20.00    -0.395 OA
HETATM   12  H29 UNL     1     -35.453  12.165  -5.028  1.00 20.00     0.210 HD
ENDBRANCH   5  11
TORSDOF 3
ENDMDL
MODEL 8
REMARK VINA RESULT:      -4.0      1.424      2.000
REMARK  3 active torsions:
REMARK  status: ('A' for Active; 'I' for Inactive)
REMARK    1  A    between atoms: C2_2  and  C10_10 
REMARK    2  A    between atoms: C5_5  and  C10_10 
REMARK    3  A    between atoms: C7_7  and  O11_11 
ROOT
HETATM    1  C3  UNL     1     -35.198  15.867  -5.625  1.00 20.00     0.008 C 
HETATM    2  C4  UNL     1     -35.539  14.387  -5.803  1.00 20.00     0.032 C 
HETATM    3  C5  UNL     1     -33.846  15.894  -4.909  1.00 20.00    -0.004 C 
HETATM    4  C6  UNL     1     -33.915  14.650  -4.017  1.00 20.00     0.015 C 
HETATM    5  C7  UNL     1     -34.522  13.610  -4.964  1.00 20.00     0.122 C 
HETATM    6  C9  UNL     1     -32.564  14.219  -3.462  1.00 20.00     0.013 C 
ENDROOT
BRANCH   3   7
HETATM    7  C10 UNL     1     -33.617  17.191  -4.147  1.00 20.00     0.038 C 
BRANCH   7   8
HETATM    8  C2  UNL     1     -34.491  17.312  -2.922  1.00 20.00    -0.093 C 
HETATM    9  C1  UNL     1     -35.783  17.664  -3.015  1.00 20.00     0.014 C 
HETATM   10  C8  UNL     1     -33.843  17.057  -1.591  1.00 20.00     0.042 C 
ENDBRANCH   7   8
ENDBRANCH   3   7
BRANCH   5  11
HETATM   11  O11 UNL     1     -35.165  12.567  -4.253  1.00 20.00    -0.395 OA
HETATM   12  H29 UNL     1     -35.882  12.237  -4.820  1.00 20.00     0.210 HD
ENDBRANCH   5  11
TORSDOF 3
ENDMDL
MODEL 9
REMARK VINA RESULT:      -4.0      1.587      2.157
REMARK  3 active torsions:
REMARK  status: ('A' for Active; 'I' for Inactive)
REMARK    1  A    between atoms: C2_2  and  C10_10 
REMARK    2  A    between atoms: C5_5  and  C10_10 
REMARK    3  A    between atoms: C7_7  and  O11_11 
ROOT
HETATM    1  C3  UNL     1     -35.957  17.060  -3.815  1.00 20.00     0.008 C 
HETATM    2  C4  UNL     1     -37.274  16.399  -4.226  1.00 20.00     0.032 C 
HETATM    3  C5  UNL     1     -34.888  15.976  -3.972  1.00 20.00    -0.004 C 
HETATM    4  C6  UNL     1     -35.654  14.697  -3.617  1.00 20.00     0.015 C 
HETATM    5  C7  UNL     1     -36.981  14.903  -4.353  1.00 20.00     0.122 C 
HETATM    6  C9  UNL     1     -34.941  13.419  -4.041  1.00 20.00     0.013 C 
ENDROOT
BRANCH   3   7
HETATM    7  C10 UNL     1     -33.668  16.231  -3.099  1.00 20.00     0.038 C 
BRANCH   7   8
HETATM    8  C2  UNL     1     -33.948  17.192  -1.970  1.00 20.00    -0.093 C 
HETATM    9  C1  UNL     1     -33.585  18.482  -2.041  1.00 20.00     0.014 C 
HETATM   10  C8  UNL     1     -34.619  16.634  -0.747  1.00 20.00     0.042 C 
ENDBRANCH   7   8
ENDBRANCH   3   7
BRANCH   5  11
HETATM   11  O11 UNL     1     -38.026  14.145  -3.769  1.00 20.00    -0.395 OA
HETATM   12  H29 UNL     1     -38.099  14.428  -2.843  1.00 20.00     0.210 HD
ENDBRANCH   5  11
TORSDOF 3
ENDMDL
