MODEL 1
REMARK VINA RESULT:      -4.0      0.000      0.000
REMARK  3 active torsions:
REMARK  status: ('A' for Active; 'I' for Inactive)
REMARK    1  A    between atoms: C1_1  and  C7_7 
REMARK    2  A    between atoms: C1_1  and  C8_8 
REMARK    3  A    between atoms: C8_8  and  O10_10 
ROOT
HETATM    1  C1  UNL     1     -34.891  15.507  -3.093  1.00 20.00     0.163 C 
HETATM    2  O9  UNL     1     -36.121  15.577  -3.019  1.00 20.00    -0.294 OA
ENDROOT
BRANCH   1   3
HETATM    3  C7  UNL     1     -34.010  16.409  -2.231  1.00 20.00     0.050 C 
HETATM    4  C2  UNL     1     -33.818  17.753  -2.926  1.00 20.00     0.017 C 
HETATM    5  C3  UNL     1     -34.643  16.579  -0.855  1.00 20.00     0.017 C 
ENDBRANCH   1   3
BRANCH   1   6
HETATM    6  C8  UNL     1     -34.208  14.518  -4.048  1.00 20.00     0.113 C 
HETATM    7  C4  UNL     1     -35.081  13.288  -4.272  1.00 20.00     0.054 C 
HETATM    8  C5  UNL     1     -32.812  14.142  -3.561  1.00 20.00     0.054 C 
BRANCH   6   9
HETATM    9  O10 UNL     1     -34.078  15.169  -5.310  1.00 20.00    -0.378 OA
HETATM   10  C6  UNL     1     -34.850  14.519  -6.309  1.00 20.00     0.203 C 
ENDBRANCH   6   9
ENDBRANCH   1   6
TORSDOF 3
ENDMDL
MODEL 2
REMARK VINA RESULT:      -3.9      0.974      1.630
REMARK  3 active torsions:
REMARK  status: ('A' for Active; 'I' for Inactive)
REMARK    1  A    between atoms: C1_1  and  C7_7 
REMARK    2  A    between atoms: C1_1  and  C8_8 
REMARK    3  A    between atoms: C8_8  and  O10_10 
ROOT
HETATM    1  C1  UNL     1     -34.686  15.648  -2.880  1.00 20.00     0.163 C 
HETATM    2  O9  UNL     1     -35.911  15.539  -2.783  1.00 20.00    -0.294 OA
ENDROOT
BRANCH   1   3
HETATM    3  C7  UNL     1     -33.924  16.641  -2.003  1.00 20.00     0.050 C 
HETATM    4  C2  UNL     1     -33.877  18.001  -2.691  1.00 20.00     0.017 C 
HETATM    5  C3  UNL     1     -34.590  16.732  -0.635  1.00 20.00     0.017 C 
ENDBRANCH   1   3
BRANCH   1   6
HETATM    6  C8  UNL     1     -33.889  14.796  -3.877  1.00 20.00     0.113 C 
HETATM    7  C4  UNL     1     -32.403  14.806  -3.534  1.00 20.00     0.054 C 
HETATM    8  C5  UNL     1     -34.142  15.236  -5.317  1.00 20.00     0.054 C 
BRANCH   6   9
HETATM    9  O10 UNL     1     -34.337  13.450  -3.738  1.00 20.00    -0.378 OA
HETATM   10  C6  UNL     1     -34.846  12.946  -4.964  1.00 20.00     0.203 C 
ENDBRANCH   6   9
ENDBRANCH   1   6
TORSDOF 3
ENDMDL
MODEL 3
REMARK VINA RESULT:      -3.8      1.650      3.751
REMARK  3 active torsions:
REMARK  status: ('A' for Active; 'I' for Inactive)
REMARK    1  A    between atoms: C1_1  and  C7_7 
REMARK    2  A    between atoms: C1_1  and  C8_8 
REMARK    3  A    between atoms: C8_8  and  O10_10 
ROOT
HETATM    1  C1  UNL     1     -33.870  15.933  -4.978  1.00 20.00     0.163 C 
HETATM    2  O9  UNL     1     -32.806  16.552  -5.072  1.00 20.00    -0.294 OA
ENDROOT
BRANCH   1   3
HETATM    3  C7  UNL     1     -34.876  15.942  -6.127  1.00 20.00     0.050 C 
HETATM    4  C2  UNL     1     -34.968  17.345  -6.717  1.00 20.00     0.017 C 
HETATM    5  C3  UNL     1     -34.460  14.922  -7.180  1.00 20.00     0.017 C 
ENDBRANCH   1   3
BRANCH   1   6
HETATM    6  C8  UNL     1     -34.217  15.138  -3.711  1.00 20.00     0.113 C 
HETATM    7  C4  UNL     1     -33.554  13.765  -3.733  1.00 20.00     0.054 C 
HETATM    8  C5  UNL     1     -35.726  15.037  -3.509  1.00 20.00     0.054 C 
BRANCH   6   9
HETATM    9  O10 UNL     1     -33.667  15.847  -2.602  1.00 20.00    -0.378 OA
HETATM   10  C6  UNL     1     -34.678  16.235  -1.685  1.00 20.00     0.203 C 
ENDBRANCH   6   9
ENDBRANCH   1   6
TORSDOF 3
ENDMDL
MODEL 4
REMARK VINA RESULT:      -3.7      1.904      2.652
REMARK  3 active torsions:
REMARK  status: ('A' for Active; 'I' for Inactive)
REMARK    1  A    between atoms: C1_1  and  C7_7 
REMARK    2  A    between atoms: C1_1  and  C8_8 
REMARK    3  A    between atoms: C8_8  and  O10_10 
ROOT
HETATM    1  C1  UNL     1     -36.044  15.866  -3.221  1.00 20.00     0.163 C 
HETATM    2  O9  UNL     1     -36.777  16.819  -2.943  1.00 20.00    -0.294 OA
ENDROOT
BRANCH   1   3
HETATM    3  C7  UNL     1     -34.638  15.773  -2.631  1.00 20.00     0.050 C 
HETATM    4  C2  UNL     1     -33.649  16.484  -3.548  1.00 20.00     0.017 C 
HETATM    5  C3  UNL     1     -34.629  16.375  -1.230  1.00 20.00     0.017 C 
ENDBRANCH   1   3
BRANCH   1   6
HETATM    6  C8  UNL     1     -36.514  14.749  -4.162  1.00 20.00     0.113 C 
HETATM    7  C4  UNL     1     -35.517  13.595  -4.177  1.00 20.00     0.054 C 
HETATM    8  C5  UNL     1     -36.790  15.279  -5.566  1.00 20.00     0.054 C 
BRANCH   6   9
HETATM    9  O10 UNL     1     -37.735  14.235  -3.633  1.00 20.00    -0.378 OA
HETATM   10  C6  UNL     1     -38.854  14.701  -4.372  1.00 20.00     0.203 C 
ENDBRANCH   6   9
ENDBRANCH   1   6
TORSDOF 3
ENDMDL
MODEL 5
REMARK VINA RESULT:      -3.7      1.450      3.713
REMARK  3 active torsions:
REMARK  status: ('A' for Active; 'I' for Inactive)
REMARK    1  A    between atoms: C1_1  and  C7_7 
REMARK    2  A    between atoms: C1_1  and  C8_8 
REMARK    3  A    between atoms: C8_8  and  O10_10 
ROOT
HETATM    1  C1  UNL     1     -34.788  14.073  -5.046  1.00 20.00     0.163 C 
HETATM    2  O9  UNL     1     -34.956  12.853  -5.126  1.00 20.00    -0.294 OA
ENDROOT
BRANCH   1   3
HETATM    3  C7  UNL     1     -35.466  15.016  -6.039  1.00 20.00     0.050 C 
HETATM    4  C2  UNL     1     -35.358  14.440  -7.447  1.00 20.00     0.017 C 
HETATM    5  C3  UNL     1     -36.920  15.226  -5.634  1.00 20.00     0.017 C 
ENDBRANCH   1   3
BRANCH   1   6
HETATM    6  C8  UNL     1     -33.897  14.682  -3.955  1.00 20.00     0.113 C 
HETATM    7  C4  UNL     1     -33.291  16.001  -4.422  1.00 20.00     0.054 C 
HETATM    8  C5  UNL     1     -32.826  13.698  -3.492  1.00 20.00     0.054 C 
BRANCH   6   9
HETATM    9  O10 UNL     1     -34.736  14.982  -2.841  1.00 20.00    -0.378 OA
HETATM   10  C6  UNL     1     -34.472  16.280  -2.331  1.00 20.00     0.203 C 
ENDBRANCH   6   9
ENDBRANCH   1   6
TORSDOF 3
ENDMDL
MODEL 6
REMARK VINA RESULT:      -3.7      1.749      3.257
REMARK  3 active torsions:
REMARK  status: ('A' for Active; 'I' for Inactive)
REMARK    1  A    between atoms: C1_1  and  C7_7 
REMARK    2  A    between atoms: C1_1  and  C8_8 
REMARK    3  A    between atoms: C8_8  and  O10_10 
ROOT
HETATM    1  C1  UNL     1     -33.816  15.951  -4.543  1.00 20.00     0.163 C 
HETATM    2  O9  UNL     1     -32.587  15.913  -4.443  1.00 20.00    -0.294 OA
ENDROOT
BRANCH   1   3
HETATM    3  C7  UNL     1     -34.476  16.577  -5.771  1.00 20.00     0.050 C 
HETATM    4  C2  UNL     1     -33.904  17.971  -6.005  1.00 20.00     0.017 C 
HETATM    5  C3  UNL     1     -34.260  15.677  -6.982  1.00 20.00     0.017 C 
ENDBRANCH   1   3
BRANCH   1   6
HETATM    6  C8  UNL     1     -34.721  15.376  -3.444  1.00 20.00     0.113 C 
HETATM    7  C4  UNL     1     -36.189  15.463  -3.848  1.00 20.00     0.054 C 
HETATM    8  C5  UNL     1     -34.462  16.046  -2.097  1.00 20.00     0.054 C 
BRANCH   6   9
HETATM    9  O10 UNL     1     -34.407  13.990  -3.319  1.00 20.00    -0.378 OA
HETATM   10  C6  UNL     1     -35.064  13.220  -4.314  1.00 20.00     0.203 C 
ENDBRANCH   6   9
ENDBRANCH   1   6
TORSDOF 3
ENDMDL
MODEL 7
REMARK VINA RESULT:      -3.6      1.705      2.982
REMARK  3 active torsions:
REMARK  status: ('A' for Active; 'I' for Inactive)
REMARK    1  A    between atoms: C1_1  and  C7_7 
REMARK    2  A    between atoms: C1_1  and  C8_8 
REMARK    3  A    between atoms: C8_8  and  O10_10 
ROOT
HETATM    1  C1  UNL     1     -34.832  16.203  -4.629  1.00 20.00     0.163 C 
HETATM    2  O9  UNL     1     -36.005  16.582  -4.676  1.00 20.00    -0.294 OA
ENDROOT
BRANCH   1   3
HETATM    3  C7  UNL     1     -33.840  16.615  -5.715  1.00 20.00     0.050 C 
HETATM    4  C2  UNL     1     -34.362  16.178  -7.079  1.00 20.00     0.017 C 
HETATM    5  C3  UNL     1     -33.619  18.123  -5.662  1.00 20.00     0.017 C 
ENDBRANCH   1   3
BRANCH   1   6
HETATM    6  C8  UNL     1     -34.331  15.311  -3.485  1.00 20.00     0.113 C 
HETATM    7  C4  UNL     1     -34.593  15.964  -2.132  1.00 20.00     0.054 C 
HETATM    8  C5  UNL     1     -32.860  14.945  -3.663  1.00 20.00     0.054 C 
BRANCH   6   9
HETATM    9  O10 UNL     1     -35.096  14.108  -3.519  1.00 20.00    -0.378 OA
HETATM   10  C6  UNL     1     -34.689  13.268  -4.589  1.00 20.00     0.203 C 
ENDBRANCH   6   9
ENDBRANCH   1   6
TORSDOF 3
ENDMDL
MODEL 8
REMARK VINA RESULT:      -3.6      1.721      3.158
REMARK  3 active torsions:
REMARK  status: ('A' for Active; 'I' for Inactive)
REMARK    1  A    between atoms: C1_1  and  C7_7 
REMARK    2  A    between atoms: C1_1  and  C8_8 
REMARK    3  A    between atoms: C8_8  and  O10_10 
ROOT
HETATM    1  C1  UNL     1     -33.858  15.838  -4.988  1.00 20.00     0.163 C 
HETATM    2  O9  UNL     1     -32.769  16.403  -4.855  1.00 20.00    -0.294 OA
ENDROOT
BRANCH   1   3
HETATM    3  C7  UNL     1     -34.387  14.909  -3.896  1.00 20.00     0.050 C 
HETATM    4  C2  UNL     1     -33.481  13.689  -3.777  1.00 20.00     0.017 C 
HETATM    5  C3  UNL     1     -34.475  15.668  -2.577  1.00 20.00     0.017 C 
ENDBRANCH   1   3
BRANCH   1   6
HETATM    6  C8  UNL     1     -34.713  16.046  -6.245  1.00 20.00     0.113 C 
HETATM    7  C4  UNL     1     -34.500  14.910  -7.241  1.00 20.00     0.054 C 
HETATM    8  C5  UNL     1     -34.457  17.411  -6.878  1.00 20.00     0.054 C 
BRANCH   6   9
HETATM    9  O10 UNL     1     -36.080  15.993  -5.842  1.00 20.00    -0.378 OA
HETATM   10  C6  UNL     1     -36.859  15.236  -6.756  1.00 20.00     0.203 C 
ENDBRANCH   6   9
ENDBRANCH   1   6
TORSDOF 3
ENDMDL
MODEL 9
REMARK VINA RESULT:      -3.6      1.852      3.214
REMARK  3 active torsions:
REMARK  status: ('A' for Active; 'I' for Inactive)
REMARK    1  A    between atoms: C1_1  and  C7_7 
REMARK    2  A    between atoms: C1_1  and  C8_8 
REMARK    3  A    between atoms: C8_8  and  O10_10 
ROOT
HETATM    1  C1  UNL     1     -33.873  15.827  -5.001  1.00 20.00     0.163 C 
HETATM    2  O9  UNL     1     -32.798  16.428  -4.914  1.00 20.00    -0.294 OA
ENDROOT
BRANCH   1   3
HETATM    3  C7  UNL     1     -34.357  14.936  -3.858  1.00 20.00     0.050 C 
HETATM    4  C2  UNL     1     -33.481  13.690  -3.774  1.00 20.00     0.017 C 
HETATM    5  C3  UNL     1     -34.335  15.721  -2.552  1.00 20.00     0.017 C 
ENDBRANCH   1   3
BRANCH   1   6
HETATM    6  C8  UNL     1     -34.754  15.953  -6.251  1.00 20.00     0.113 C 
HETATM    7  C4  UNL     1     -34.465  17.255  -6.991  1.00 20.00     0.054 C 
HETATM    8  C5  UNL     1     -36.235  15.810  -5.909  1.00 20.00     0.054 C 
BRANCH   6   9
HETATM    9  O10 UNL     1     -34.396  14.888  -7.130  1.00 20.00    -0.378 OA
HETATM   10  C6  UNL     1     -35.509  14.460  -7.901  1.00 20.00     0.203 C 
ENDBRANCH   6   9
ENDBRANCH   1   6
TORSDOF 3
ENDMDL
