MODEL 1
REMARK VINA RESULT:      -3.4      0.000      0.000
REMARK  4 active torsions:
REMARK  status: ('A' for Active; 'I' for Inactive)
REMARK    1  A    between atoms: C2_2  and  C7_7 
REMARK    2  A    between atoms: C6_6  and  C7_7 
REMARK    3  A    between atoms: C6_6  and  S9_9 
REMARK    4  A    between atoms: C7_7  and  N8_8 
ROOT
HETATM    1  C7  UNL     1     -33.956  15.263  -3.301  1.00 20.00     0.257 C 
ENDROOT
BRANCH   1   2
HETATM    2  C2  UNL     1     -35.047  14.356  -3.852  1.00 20.00    -0.060 C 
HETATM    3  C1  UNL     1     -34.740  13.209  -4.481  1.00 20.00     0.016 C 
HETATM    4  C3  UNL     1     -36.484  14.772  -3.680  1.00 20.00     0.044 C 
ENDBRANCH   1   2
BRANCH   1   5
HETATM    5  C6  UNL     1     -34.458  16.631  -2.807  1.00 20.00     0.113 C 
BRANCH   5   6
HETATM    6  S9  UNL     1     -34.587  16.719  -0.992  1.00 20.00    -0.171 SA
HETATM    7  C5  UNL     1     -33.364  18.018  -0.711  1.00 20.00     0.089 C 
ENDBRANCH   5   6
ENDBRANCH   1   5
BRANCH   1   8
HETATM    8  N8  UNL     1     -32.907  15.488  -4.308  1.00 20.00     0.088 N 
HETATM    9  C4  UNL     1     -33.245  16.622  -5.147  1.00 20.00     0.307 C 
HETATM   10  H24 UNL     1     -32.823  14.650  -4.877  1.00 20.00     0.316 HD
ENDBRANCH   1   8
TORSDOF 4
ENDMDL
MODEL 2
REMARK VINA RESULT:      -3.4      2.242      4.198
REMARK  4 active torsions:
REMARK  status: ('A' for Active; 'I' for Inactive)
REMARK    1  A    between atoms: C2_2  and  C7_7 
REMARK    2  A    between atoms: C6_6  and  C7_7 
REMARK    3  A    between atoms: C6_6  and  S9_9 
REMARK    4  A    between atoms: C7_7  and  N8_8 
ROOT
HETATM    1  C7  UNL     1     -34.914  15.769  -2.263  1.00 20.00     0.257 C 
ENDROOT
BRANCH   1   2
HETATM    2  C2  UNL     1     -34.460  16.953  -1.421  1.00 20.00    -0.060 C 
HETATM    3  C1  UNL     1     -34.787  17.042  -0.121  1.00 20.00     0.016 C 
HETATM    4  C3  UNL     1     -33.635  18.028  -2.076  1.00 20.00     0.044 C 
ENDBRANCH   1   2
BRANCH   1   5
HETATM    5  C6  UNL     1     -34.136  15.591  -3.579  1.00 20.00     0.113 C 
BRANCH   5   6
HETATM    6  S9  UNL     1     -33.513  13.894  -3.804  1.00 20.00    -0.171 SA
HETATM    7  C5  UNL     1     -34.789  13.301  -4.935  1.00 20.00     0.089 C 
ENDBRANCH   5   6
ENDBRANCH   1   5
BRANCH   1   8
HETATM    8  N8  UNL     1     -36.347  15.873  -2.579  1.00 20.00     0.088 N 
HETATM    9  C4  UNL     1     -36.534  16.467  -3.889  1.00 20.00     0.307 C 
HETATM   10  H24 UNL     1     -36.791  16.450  -1.871  1.00 20.00     0.316 HD
ENDBRANCH   1   8
TORSDOF 4
ENDMDL
MODEL 3
REMARK VINA RESULT:      -3.3     11.810     12.600
REMARK  4 active torsions:
REMARK  status: ('A' for Active; 'I' for Inactive)
REMARK    1  A    between atoms: C2_2  and  C7_7 
REMARK    2  A    between atoms: C6_6  and  C7_7 
REMARK    3  A    between atoms: C6_6  and  S9_9 
REMARK    4  A    between atoms: C7_7  and  N8_8 
ROOT
HETATM    1  C7  UNL     1     -33.885   5.614   4.423  1.00 20.00     0.257 C 
ENDROOT
BRANCH   1   2
HETATM    2  C2  UNL     1     -34.238   5.725   5.899  1.00 20.00    -0.060 C 
HETATM    3  C1  UNL     1     -33.871   6.799   6.618  1.00 20.00     0.016 C 
HETATM    4  C3  UNL     1     -35.009   4.603   6.542  1.00 20.00     0.044 C 
ENDBRANCH   1   2
BRANCH   1   5
HETATM    5  C6  UNL     1     -33.578   6.960   3.742  1.00 20.00     0.113 C 
BRANCH   5   6
HETATM    6  S9  UNL     1     -31.848   7.088   3.185  1.00 20.00    -0.171 SA
HETATM    7  C5  UNL     1     -32.078   8.360   1.924  1.00 20.00     0.089 C 
ENDBRANCH   5   6
ENDBRANCH   1   5
BRANCH   1   8
HETATM    8  N8  UNL     1     -34.964   4.949   3.677  1.00 20.00     0.088 N 
HETATM    9  C4  UNL     1     -36.015   5.897   3.355  1.00 20.00     0.307 C 
HETATM   10  H24 UNL     1     -35.339   4.201   4.252  1.00 20.00     0.316 HD
ENDBRANCH   1   8
TORSDOF 4
ENDMDL
MODEL 4
REMARK VINA RESULT:      -3.3      1.983      3.288
REMARK  4 active torsions:
REMARK  status: ('A' for Active; 'I' for Inactive)
REMARK    1  A    between atoms: C2_2  and  C7_7 
REMARK    2  A    between atoms: C6_6  and  C7_7 
REMARK    3  A    between atoms: C6_6  and  S9_9 
REMARK    4  A    between atoms: C7_7  and  N8_8 
ROOT
HETATM    1  C7  UNL     1     -33.891  15.011  -3.512  1.00 20.00     0.257 C 
ENDROOT
BRANCH   1   2
HETATM    2  C2  UNL     1     -34.950  15.674  -2.641  1.00 20.00    -0.060 C 
HETATM    3  C1  UNL     1     -34.615  16.280  -1.490  1.00 20.00     0.016 C 
HETATM    4  C3  UNL     1     -36.384  15.636  -3.096  1.00 20.00     0.044 C 
ENDBRANCH   1   2
BRANCH   1   5
HETATM    5  C6  UNL     1     -33.868  15.509  -4.969  1.00 20.00     0.113 C 
BRANCH   5   6
HETATM    6  S9  UNL     1     -33.533  17.295  -5.097  1.00 20.00    -0.171 SA
HETATM    7  C5  UNL     1     -35.064  17.785  -5.920  1.00 20.00     0.089 C 
ENDBRANCH   5   6
ENDBRANCH   1   5
BRANCH   1   8
HETATM    8  N8  UNL     1     -34.063  13.550  -3.521  1.00 20.00     0.088 N 
HETATM    9  C4  UNL     1     -34.521  13.103  -4.823  1.00 20.00     0.307 C 
HETATM   10  H24 UNL     1     -34.746  13.303  -2.811  1.00 20.00     0.316 HD
ENDBRANCH   1   8
TORSDOF 4
ENDMDL
MODEL 5
REMARK VINA RESULT:      -3.3      2.208      3.188
REMARK  4 active torsions:
REMARK  status: ('A' for Active; 'I' for Inactive)
REMARK    1  A    between atoms: C2_2  and  C7_7 
REMARK    2  A    between atoms: C6_6  and  C7_7 
REMARK    3  A    between atoms: C6_6  and  S9_9 
REMARK    4  A    between atoms: C7_7  and  N8_8 
ROOT
HETATM    1  C7  UNL     1     -34.841  15.704  -3.503  1.00 20.00     0.257 C 
ENDROOT
BRANCH   1   2
HETATM    2  C2  UNL     1     -34.439  14.268  -3.813  1.00 20.00    -0.060 C 
HETATM    3  C1  UNL     1     -35.334  13.390  -4.297  1.00 20.00     0.016 C 
HETATM    4  C3  UNL     1     -33.015  13.849  -3.565  1.00 20.00     0.044 C 
ENDBRANCH   1   2
BRANCH   1   5
HETATM    5  C6  UNL     1     -33.681  16.714  -3.567  1.00 20.00     0.113 C 
BRANCH   5   6
HETATM    6  S9  UNL     1     -33.641  17.640  -5.135  1.00 20.00    -0.171 SA
HETATM    7  C5  UNL     1     -35.368  17.411  -5.612  1.00 20.00     0.089 C 
ENDBRANCH   5   6
ENDBRANCH   1   5
BRANCH   1   8
HETATM    8  N8  UNL     1     -35.466  15.795  -2.175  1.00 20.00     0.088 N 
HETATM    9  C4  UNL     1     -34.587  16.483  -1.248  1.00 20.00     0.307 C 
HETATM   10  H24 UNL     1     -35.651  14.854  -1.841  1.00 20.00     0.316 HD
ENDBRANCH   1   8
TORSDOF 4
ENDMDL
MODEL 6
REMARK VINA RESULT:      -3.3      2.631      4.287
REMARK  4 active torsions:
REMARK  status: ('A' for Active; 'I' for Inactive)
REMARK    1  A    between atoms: C2_2  and  C7_7 
REMARK    2  A    between atoms: C6_6  and  C7_7 
REMARK    3  A    between atoms: C6_6  and  S9_9 
REMARK    4  A    between atoms: C7_7  and  N8_8 
ROOT
HETATM    1  C7  UNL     1     -35.641  15.395  -3.425  1.00 20.00     0.257 C 
ENDROOT
BRANCH   1   2
HETATM    2  C2  UNL     1     -34.700  16.309  -2.652  1.00 20.00    -0.060 C 
HETATM    3  C1  UNL     1     -34.738  16.364  -1.310  1.00 20.00     0.016 C 
HETATM    4  C3  UNL     1     -33.722  17.155  -3.423  1.00 20.00     0.044 C 
ENDBRANCH   1   2
BRANCH   1   5
HETATM    5  C6  UNL     1     -35.761  15.731  -4.923  1.00 20.00     0.113 C 
BRANCH   5   6
HETATM    6  S9  UNL     1     -34.914  14.517  -5.986  1.00 20.00    -0.171 SA
HETATM    7  C5  UNL     1     -34.668  13.223  -4.750  1.00 20.00     0.089 C 
ENDBRANCH   5   6
ENDBRANCH   1   5
BRANCH   1   8
HETATM    8  N8  UNL     1     -36.988  15.414  -2.834  1.00 20.00     0.088 N 
HETATM    9  C4  UNL     1     -37.962  14.902  -3.780  1.00 20.00     0.307 C 
HETATM   10  H24 UNL     1     -37.217  16.371  -2.586  1.00 20.00     0.316 HD
ENDBRANCH   1   8
TORSDOF 4
ENDMDL
MODEL 7
REMARK VINA RESULT:      -3.3      3.079      3.863
REMARK  4 active torsions:
REMARK  status: ('A' for Active; 'I' for Inactive)
REMARK    1  A    between atoms: C2_2  and  C7_7 
REMARK    2  A    between atoms: C6_6  and  C7_7 
REMARK    3  A    between atoms: C6_6  and  S9_9 
REMARK    4  A    between atoms: C7_7  and  N8_8 
ROOT
HETATM    1  C7  UNL     1     -34.283  15.293  -5.459  1.00 20.00     0.257 C 
ENDROOT
BRANCH   1   2
HETATM    2  C2  UNL     1     -34.169  14.151  -4.459  1.00 20.00    -0.060 C 
HETATM    3  C1  UNL     1     -35.144  13.234  -4.343  1.00 20.00     0.016 C 
HETATM    4  C3  UNL     1     -32.938  14.070  -3.596  1.00 20.00     0.044 C 
ENDBRANCH   1   2
BRANCH   1   5
HETATM    5  C6  UNL     1     -34.469  14.840  -6.919  1.00 20.00     0.113 C 
BRANCH   5   6
HETATM    6  S9  UNL     1     -36.128  15.223  -7.567  1.00 20.00    -0.171 SA
HETATM    7  C5  UNL     1     -36.764  16.117  -6.133  1.00 20.00     0.089 C 
ENDBRANCH   5   6
ENDBRANCH   1   5
BRANCH   1   8
HETATM    8  N8  UNL     1     -33.102  16.168  -5.390  1.00 20.00     0.088 N 
HETATM    9  C4  UNL     1     -33.498  17.531  -5.091  1.00 20.00     0.307 C 
HETATM   10  H24 UNL     1     -32.625  16.135  -6.286  1.00 20.00     0.316 HD
ENDBRANCH   1   8
TORSDOF 4
ENDMDL
MODEL 8
REMARK VINA RESULT:      -3.2      1.923      2.535
REMARK  4 active torsions:
REMARK  status: ('A' for Active; 'I' for Inactive)
REMARK    1  A    between atoms: C2_2  and  C7_7 
REMARK    2  A    between atoms: C6_6  and  C7_7 
REMARK    3  A    between atoms: C6_6  and  S9_9 
REMARK    4  A    between atoms: C7_7  and  N8_8 
ROOT
HETATM    1  C7  UNL     1     -35.016  15.910  -2.847  1.00 20.00     0.257 C 
ENDROOT
BRANCH   1   2
HETATM    2  C2  UNL     1     -34.172  14.806  -3.469  1.00 20.00    -0.060 C 
HETATM    3  C1  UNL     1     -32.843  14.947  -3.606  1.00 20.00     0.016 C 
HETATM    4  C3  UNL     1     -34.859  13.548  -3.930  1.00 20.00     0.044 C 
ENDBRANCH   1   2
BRANCH   1   5
HETATM    5  C6  UNL     1     -34.613  16.281  -1.408  1.00 20.00     0.113 C 
BRANCH   5   6
HETATM    6  S9  UNL     1     -33.744  17.879  -1.311  1.00 20.00    -0.171 SA
HETATM    7  C5  UNL     1     -34.042  18.436  -3.003  1.00 20.00     0.089 C 
ENDBRANCH   5   6
ENDBRANCH   1   5
BRANCH   1   8
HETATM    8  N8  UNL     1     -36.441  15.544  -2.852  1.00 20.00     0.088 N 
HETATM    9  C4  UNL     1     -37.228  16.582  -3.491  1.00 20.00     0.307 C 
HETATM   10  H24 UNL     1     -36.745  15.422  -1.891  1.00 20.00     0.316 HD
ENDBRANCH   1   8
TORSDOF 4
ENDMDL
MODEL 9
REMARK VINA RESULT:      -3.2      1.982      3.640
REMARK  4 active torsions:
REMARK  status: ('A' for Active; 'I' for Inactive)
REMARK    1  A    between atoms: C2_2  and  C7_7 
REMARK    2  A    between atoms: C6_6  and  C7_7 
REMARK    3  A    between atoms: C6_6  and  S9_9 
REMARK    4  A    between atoms: C7_7  and  N8_8 
ROOT
HETATM    1  C7  UNL     1     -33.991  16.283  -3.794  1.00 20.00     0.257 C 
ENDROOT
BRANCH   1   2
HETATM    2  C2  UNL     1     -34.067  17.081  -2.500  1.00 20.00    -0.060 C 
HETATM    3  C1  UNL     1     -33.670  18.364  -2.456  1.00 20.00     0.016 C 
HETATM    4  C3  UNL     1     -34.596  16.403  -1.265  1.00 20.00     0.044 C 
ENDBRANCH   1   2
BRANCH   1   5
HETATM    5  C6  UNL     1     -33.286  14.921  -3.658  1.00 20.00     0.113 C 
BRANCH   5   6
HETATM    6  S9  UNL     1     -34.242  13.557  -4.396  1.00 20.00    -0.171 SA
HETATM    7  C5  UNL     1     -35.896  14.233  -4.135  1.00 20.00     0.089 C 
ENDBRANCH   5   6
ENDBRANCH   1   5
BRANCH   1   8
HETATM    8  N8  UNL     1     -33.312  17.056  -4.845  1.00 20.00     0.088 N 
HETATM    9  C4  UNL     1     -34.110  17.073  -6.057  1.00 20.00     0.307 C 
HETATM   10  H24 UNL     1     -32.412  16.624  -5.031  1.00 20.00     0.316 HD
ENDBRANCH   1   8
TORSDOF 4
ENDMDL
