MODEL 1
REMARK VINA RESULT:      -4.9      0.000      0.000
REMARK  2 active torsions:
REMARK  status: ('A' for Active; 'I' for Inactive)
REMARK    1  A    between atoms: C1_1  and  C7_7 
REMARK    2  A    between atoms: C7_7  and  O11_11 
ROOT
HETATM    1  C3  UNL     1     -35.185  13.342  -4.575  1.00 20.00     0.029 C 
HETATM    2  C4  UNL     1     -33.709  13.520  -4.227  1.00 20.00     0.046 C 
HETATM    3  C5  UNL     1     -35.605  14.346  -5.640  1.00 20.00     0.167 C 
HETATM    4  C6  UNL     1     -33.925  15.898  -5.011  1.00 20.00     0.209 C 
HETATM    5  C7  UNL     1     -33.371  14.984  -3.910  1.00 20.00     0.097 C 
HETATM    6  O10 UNL     1     -35.322  15.681  -5.222  1.00 20.00    -0.388 OA
ENDROOT
BRANCH   5   7
HETATM    7  C1  UNL     1     -33.896  15.389  -2.563  1.00 20.00     0.015 C 
HETATM    8  C2  UNL     1     -34.051  16.637  -2.080  1.00 20.00    -0.088 C 
HETATM    9  C8  UNL     1     -34.596  16.874  -0.699  1.00 20.00     0.042 C 
HETATM   10  C9  UNL     1     -33.707  17.880  -2.851  1.00 20.00     0.042 C 
ENDBRANCH   5   7
BRANCH   5  11
HETATM   11  O11 UNL     1     -31.952  15.131  -3.856  1.00 20.00    -0.384 OA
HETATM   12  H27 UNL     1     -31.665  14.716  -3.029  1.00 20.00     0.211 HD
ENDBRANCH   5  11
TORSDOF 2
ENDMDL
MODEL 2
REMARK VINA RESULT:      -4.8      1.678      4.067
REMARK  2 active torsions:
REMARK  status: ('A' for Active; 'I' for Inactive)
REMARK    1  A    between atoms: C1_1  and  C7_7 
REMARK    2  A    between atoms: C7_7  and  O11_11 
ROOT
HETATM    1  C3  UNL     1     -32.747  15.024  -3.469  1.00 20.00     0.029 C 
HETATM    2  C4  UNL     1     -33.411  13.662  -3.659  1.00 20.00     0.046 C 
HETATM    3  C5  UNL     1     -33.674  15.969  -2.718  1.00 20.00     0.167 C 
HETATM    4  C6  UNL     1     -35.623  14.841  -3.462  1.00 20.00     0.209 C 
HETATM    5  C7  UNL     1     -34.822  13.795  -4.251  1.00 20.00     0.097 C 
HETATM    6  O10 UNL     1     -34.930  16.088  -3.386  1.00 20.00    -0.388 OA
ENDROOT
BRANCH   5   7
HETATM    7  C1  UNL     1     -34.774  14.147  -5.710  1.00 20.00     0.015 C 
HETATM    8  C2  UNL     1     -35.751  14.694  -6.458  1.00 20.00    -0.088 C 
HETATM    9  C8  UNL     1     -35.540  14.988  -7.918  1.00 20.00     0.042 C 
HETATM   10  C9  UNL     1     -37.108  15.057  -5.925  1.00 20.00     0.042 C 
ENDBRANCH   5   7
BRANCH   5  11
HETATM   11  O11 UNL     1     -35.486  12.535  -4.156  1.00 20.00    -0.384 OA
HETATM   12  H27 UNL     1     -35.107  11.973  -4.849  1.00 20.00     0.211 HD
ENDBRANCH   5  11
TORSDOF 2
ENDMDL
MODEL 3
REMARK VINA RESULT:      -4.6      1.527      1.907
REMARK  2 active torsions:
REMARK  status: ('A' for Active; 'I' for Inactive)
REMARK    1  A    between atoms: C1_1  and  C7_7 
REMARK    2  A    between atoms: C7_7  and  O11_11 
ROOT
HETATM    1  C3  UNL     1     -33.494  13.806  -3.757  1.00 20.00     0.029 C 
HETATM    2  C4  UNL     1     -33.410  15.308  -4.024  1.00 20.00     0.046 C 
HETATM    3  C5  UNL     1     -34.698  13.205  -4.471  1.00 20.00     0.167 C 
HETATM    4  C6  UNL     1     -35.888  15.257  -4.447  1.00 20.00     0.209 C 
HETATM    5  C7  UNL     1     -34.748  16.010  -3.748  1.00 20.00     0.097 C 
HETATM    6  O10 UNL     1     -35.900  13.873  -4.092  1.00 20.00    -0.388 OA
ENDROOT
BRANCH   5   7
HETATM    7  C1  UNL     1     -35.011  16.130  -2.274  1.00 20.00     0.015 C 
HETATM    8  C2  UNL     1     -34.478  17.017  -1.412  1.00 20.00    -0.088 C 
HETATM    9  C8  UNL     1     -34.850  17.005   0.045  1.00 20.00     0.042 C 
HETATM   10  C9  UNL     1     -33.490  18.077  -1.808  1.00 20.00     0.042 C 
ENDBRANCH   5   7
BRANCH   5  11
HETATM   11  O11 UNL     1     -34.688  17.341  -4.262  1.00 20.00    -0.384 OA
HETATM   12  H27 UNL     1     -34.618  17.928  -3.494  1.00 20.00     0.211 HD
ENDBRANCH   5  11
TORSDOF 2
ENDMDL
MODEL 4
REMARK VINA RESULT:      -4.5      1.721      2.687
REMARK  2 active torsions:
REMARK  status: ('A' for Active; 'I' for Inactive)
REMARK    1  A    between atoms: C1_1  and  C7_7 
REMARK    2  A    between atoms: C7_7  and  O11_11 
ROOT
HETATM    1  C3  UNL     1     -34.781  15.985  -5.700  1.00 20.00     0.029 C 
HETATM    2  C4  UNL     1     -36.033  16.003  -4.826  1.00 20.00     0.046 C 
HETATM    3  C5  UNL     1     -34.429  14.557  -6.096  1.00 20.00     0.167 C 
HETATM    4  C6  UNL     1     -35.478  13.638  -4.178  1.00 20.00     0.209 C 
HETATM    5  C7  UNL     1     -35.927  15.011  -3.658  1.00 20.00     0.097 C 
HETATM    6  O10 UNL     1     -34.275  13.732  -4.942  1.00 20.00    -0.388 OA
ENDROOT
BRANCH   5   7
HETATM    7  C1  UNL     1     -34.991  15.513  -2.596  1.00 20.00     0.015 C 
HETATM    8  C2  UNL     1     -35.073  16.665  -1.902  1.00 20.00    -0.088 C 
HETATM    9  C8  UNL     1     -34.047  17.021  -0.863  1.00 20.00     0.042 C 
HETATM   10  C9  UNL     1     -36.167  17.678  -2.092  1.00 20.00     0.042 C 
ENDBRANCH   5   7
BRANCH   5  11
HETATM   11  O11 UNL     1     -37.209  14.878  -3.043  1.00 20.00    -0.384 OA
HETATM   12  H27 UNL     1     -37.079  14.326  -2.257  1.00 20.00     0.211 HD
ENDBRANCH   5  11
TORSDOF 2
ENDMDL
MODEL 5
REMARK VINA RESULT:      -4.4      1.658      3.036
REMARK  2 active torsions:
REMARK  status: ('A' for Active; 'I' for Inactive)
REMARK    1  A    between atoms: C1_1  and  C7_7 
REMARK    2  A    between atoms: C7_7  and  O11_11 
ROOT
HETATM    1  C3  UNL     1     -33.749  17.327  -4.332  1.00 20.00     0.029 C 
HETATM    2  C4  UNL     1     -35.164  17.015  -3.850  1.00 20.00     0.046 C 
HETATM    3  C5  UNL     1     -33.039  16.050  -4.760  1.00 20.00     0.167 C 
HETATM    4  C6  UNL     1     -34.350  14.696  -3.322  1.00 20.00     0.209 C 
HETATM    5  C7  UNL     1     -35.173  15.885  -2.809  1.00 20.00     0.097 C 
HETATM    6  O10 UNL     1     -33.032  15.093  -3.702  1.00 20.00    -0.388 OA
ENDROOT
BRANCH   5   7
HETATM    7  C1  UNL     1     -34.659  16.359  -1.480  1.00 20.00     0.015 C 
HETATM    8  C2  UNL     1     -35.127  17.375  -0.730  1.00 20.00    -0.088 C 
HETATM    9  C8  UNL     1     -34.494  17.723   0.589  1.00 20.00     0.042 C 
HETATM   10  C9  UNL     1     -36.294  18.235  -1.123  1.00 20.00     0.042 C 
ENDBRANCH   5   7
BRANCH   5  11
HETATM   11  O11 UNL     1     -36.520  15.460  -2.597  1.00 20.00    -0.384 OA
HETATM   12  H27 UNL     1     -36.758  15.741  -1.701  1.00 20.00     0.211 HD
ENDBRANCH   5  11
TORSDOF 2
ENDMDL
MODEL 6
REMARK VINA RESULT:      -4.4     11.899     13.880
REMARK  2 active torsions:
REMARK  status: ('A' for Active; 'I' for Inactive)
REMARK    1  A    between atoms: C1_1  and  C7_7 
REMARK    2  A    between atoms: C7_7  and  O11_11 
ROOT
HETATM    1  C3  UNL     1     -41.166   7.373  -1.187  1.00 20.00     0.029 C 
HETATM    2  C4  UNL     1     -40.822   6.265  -0.195  1.00 20.00     0.046 C 
HETATM    3  C5  UNL     1     -42.659   7.669  -1.158  1.00 20.00     0.167 C 
HETATM    4  C6  UNL     1     -43.200   5.483  -0.417  1.00 20.00     0.209 C 
HETATM    5  C7  UNL     1     -41.731   5.040  -0.372  1.00 20.00     0.097 C 
HETATM    6  O10 UNL     1     -43.417   6.488  -1.409  1.00 20.00    -0.388 OA
ENDROOT
BRANCH   5   7
HETATM    7  C1  UNL     1     -41.369   4.261  -1.604  1.00 20.00     0.015 C 
HETATM    8  C2  UNL     1     -42.069   3.270  -2.188  1.00 20.00    -0.088 C 
HETATM    9  C8  UNL     1     -41.564   2.587  -3.428  1.00 20.00     0.042 C 
HETATM   10  C9  UNL     1     -43.387   2.762  -1.673  1.00 20.00     0.042 C 
ENDBRANCH   5   7
BRANCH   5  11
HETATM   11  O11 UNL     1     -41.546   4.159   0.737  1.00 20.00    -0.384 OA
HETATM   12  H27 UNL     1     -40.862   3.527   0.472  1.00 20.00     0.211 HD
ENDBRANCH   5  11
TORSDOF 2
ENDMDL
MODEL 7
REMARK VINA RESULT:      -4.3      1.351      1.654
REMARK  2 active torsions:
REMARK  status: ('A' for Active; 'I' for Inactive)
REMARK    1  A    between atoms: C1_1  and  C7_7 
REMARK    2  A    between atoms: C7_7  and  O11_11 
ROOT
HETATM    1  C3  UNL     1     -34.208  13.583  -3.636  1.00 20.00     0.029 C 
HETATM    2  C4  UNL     1     -33.297  14.805  -3.731  1.00 20.00     0.046 C 
HETATM    3  C5  UNL     1     -34.672  13.156  -5.022  1.00 20.00     0.167 C 
HETATM    4  C6  UNL     1     -34.434  15.344  -5.907  1.00 20.00     0.209 C 
HETATM    5  C7  UNL     1     -33.926  15.920  -4.578  1.00 20.00     0.097 C 
HETATM    6  O10 UNL     1     -35.313  14.236  -5.700  1.00 20.00    -0.388 OA
ENDROOT
BRANCH   5   7
HETATM    7  C1  UNL     1     -35.034  16.613  -3.838  1.00 20.00     0.015 C 
HETATM    8  C2  UNL     1     -35.011  17.091  -2.579  1.00 20.00    -0.088 C 
HETATM    9  C8  UNL     1     -36.215  17.765  -1.981  1.00 20.00     0.042 C 
HETATM   10  C9  UNL     1     -33.815  17.002  -1.673  1.00 20.00     0.042 C 
ENDBRANCH   5   7
BRANCH   5  11
HETATM   11  O11 UNL     1     -32.936  16.912  -4.851  1.00 20.00    -0.384 OA
HETATM   12  H27 UNL     1     -33.155  17.677  -4.299  1.00 20.00     0.211 HD
ENDBRANCH   5  11
TORSDOF 2
ENDMDL
MODEL 8
REMARK VINA RESULT:      -4.3      2.086      4.321
REMARK  2 active torsions:
REMARK  status: ('A' for Active; 'I' for Inactive)
REMARK    1  A    between atoms: C1_1  and  C7_7 
REMARK    2  A    between atoms: C7_7  and  O11_11 
ROOT
HETATM    1  C3  UNL     1     -33.834  16.615  -2.388  1.00 20.00     0.029 C 
HETATM    2  C4  UNL     1     -34.915  15.538  -2.342  1.00 20.00     0.046 C 
HETATM    3  C5  UNL     1     -34.446  17.993  -2.176  1.00 20.00     0.167 C 
HETATM    4  C6  UNL     1     -36.557  17.316  -3.019  1.00 20.00     0.209 C 
HETATM    5  C7  UNL     1     -36.093  15.874  -3.268  1.00 20.00     0.097 C 
HETATM    6  O10 UNL     1     -35.477  18.244  -3.131  1.00 20.00    -0.388 OA
ENDROOT
BRANCH   5   7
HETATM    7  C1  UNL     1     -35.733  15.669  -4.711  1.00 20.00     0.015 C 
HETATM    8  C2  UNL     1     -35.228  14.560  -5.285  1.00 20.00    -0.088 C 
HETATM    9  C8  UNL     1     -34.921  14.517  -6.756  1.00 20.00     0.042 C 
HETATM   10  C9  UNL     1     -34.933  13.292  -4.535  1.00 20.00     0.042 C 
ENDBRANCH   5   7
BRANCH   5  11
HETATM   11  O11 UNL     1     -37.174  14.984  -2.986  1.00 20.00    -0.384 OA
HETATM   12  H27 UNL     1     -36.775  14.122  -2.795  1.00 20.00     0.211 HD
ENDBRANCH   5  11
TORSDOF 2
ENDMDL
MODEL 9
REMARK VINA RESULT:      -4.2      1.366      4.026
REMARK  2 active torsions:
REMARK  status: ('A' for Active; 'I' for Inactive)
REMARK    1  A    between atoms: C1_1  and  C7_7 
REMARK    2  A    between atoms: C7_7  and  O11_11 
ROOT
HETATM    1  C3  UNL     1     -35.033  17.963  -3.571  1.00 20.00     0.029 C 
HETATM    2  C4  UNL     1     -33.654  17.488  -4.025  1.00 20.00     0.046 C 
HETATM    3  C5  UNL     1     -35.558  17.077  -2.449  1.00 20.00     0.167 C 
HETATM    4  C6  UNL     1     -34.278  15.211  -3.160  1.00 20.00     0.209 C 
HETATM    5  C7  UNL     1     -33.642  15.981  -4.325  1.00 20.00     0.097 C 
HETATM    6  O10 UNL     1     -35.582  15.708  -2.849  1.00 20.00    -0.388 OA
ENDROOT
BRANCH   5   7
HETATM    7  C1  UNL     1     -34.343  15.673  -5.617  1.00 20.00     0.015 C 
HETATM    8  C2  UNL     1     -34.797  14.479  -6.044  1.00 20.00    -0.088 C 
HETATM    9  C8  UNL     1     -35.484  14.339  -7.374  1.00 20.00     0.042 C 
HETATM   10  C9  UNL     1     -34.666  13.206  -5.257  1.00 20.00     0.042 C 
ENDBRANCH   5   7
BRANCH   5  11
HETATM   11  O11 UNL     1     -32.290  15.550  -4.482  1.00 20.00    -0.384 OA
HETATM   12  H27 UNL     1     -31.802  15.898  -3.720  1.00 20.00     0.211 HD
ENDBRANCH   5  11
TORSDOF 2
ENDMDL
