MODEL 1
REMARK VINA RESULT:      -4.5      0.000      0.000
REMARK  3 active torsions:
REMARK  status: ('A' for Active; 'I' for Inactive)
REMARK    1  A    between atoms: C2_2  and  C9_9 
REMARK    2  A    between atoms: C7_7  and  C9_9 
REMARK    3  A    between atoms: C9_9  and  O11_11 
ROOT
HETATM    1  C3  UNL     1     -34.762  16.091  -1.784  1.00 20.00     0.034 C 
HETATM    2  C4  UNL     1     -33.706  18.029  -2.974  1.00 20.00     0.034 C 
HETATM    3  C5  UNL     1     -34.662  16.913  -0.504  1.00 20.00     0.168 C 
HETATM    4  C6  UNL     1     -33.665  18.744  -1.628  1.00 20.00     0.168 C 
HETATM    5  C7  UNL     1     -33.677  16.509  -2.782  1.00 20.00     0.023 C 
HETATM    6  O10 UNL     1     -34.737  18.308  -0.792  1.00 20.00    -0.391 OA
ENDROOT
BRANCH   5   7
HETATM    7  C9  UNL     1     -33.844  15.783  -4.114  1.00 20.00     0.150 C 
BRANCH   7   8
HETATM    8  C2  UNL     1     -33.929  14.282  -3.953  1.00 20.00    -0.064 C 
HETATM    9  C1  UNL     1     -32.882  13.575  -3.498  1.00 20.00     0.016 C 
HETATM   10  C8  UNL     1     -35.224  13.603  -4.306  1.00 20.00     0.045 C 
ENDBRANCH   7   8
BRANCH   7  11
HETATM   11  O11 UNL     1     -32.745  16.100  -4.963  1.00 20.00    -0.391 OA
HETATM   12  H27 UNL     1     -32.046  16.451  -4.390  1.00 20.00     0.210 HD
ENDBRANCH   7  11
ENDBRANCH   5   7
TORSDOF 3
ENDMDL
MODEL 2
REMARK VINA RESULT:      -4.4      2.904      4.993
REMARK  3 active torsions:
REMARK  status: ('A' for Active; 'I' for Inactive)
REMARK    1  A    between atoms: C2_2  and  C9_9 
REMARK    2  A    between atoms: C7_7  and  C9_9 
REMARK    3  A    between atoms: C9_9  and  O11_11 
ROOT
HETATM    1  C3  UNL     1     -37.184  15.118  -5.467  1.00 20.00     0.034 C 
HETATM    2  C4  UNL     1     -35.191  13.996  -6.499  1.00 20.00     0.034 C 
HETATM    3  C5  UNL     1     -37.484  15.695  -6.846  1.00 20.00     0.168 C 
HETATM    4  C6  UNL     1     -35.602  14.636  -7.820  1.00 20.00     0.168 C 
HETATM    5  C7  UNL     1     -35.686  14.833  -5.314  1.00 20.00     0.023 C 
HETATM    6  O10 UNL     1     -37.017  14.822  -7.873  1.00 20.00    -0.391 OA
ENDROOT
BRANCH   5   7
HETATM    7  C9  UNL     1     -35.390  14.138  -3.988  1.00 20.00     0.150 C 
BRANCH   7   8
HETATM    8  C2  UNL     1     -34.180  14.713  -3.286  1.00 20.00    -0.064 C 
HETATM    9  C1  UNL     1     -32.947  14.245  -3.539  1.00 20.00     0.016 C 
HETATM   10  C8  UNL     1     -34.395  15.831  -2.303  1.00 20.00     0.045 C 
ENDBRANCH   7   8
BRANCH   7  11
HETATM   11  O11 UNL     1     -35.177  12.749  -4.222  1.00 20.00    -0.391 OA
HETATM   12  H27 UNL     1     -34.217  12.615  -4.233  1.00 20.00     0.210 HD
ENDBRANCH   7  11
ENDBRANCH   5   7
TORSDOF 3
ENDMDL
MODEL 3
REMARK VINA RESULT:      -4.4      1.550      4.409
REMARK  3 active torsions:
REMARK  status: ('A' for Active; 'I' for Inactive)
REMARK    1  A    between atoms: C2_2  and  C9_9 
REMARK    2  A    between atoms: C7_7  and  C9_9 
REMARK    3  A    between atoms: C9_9  and  O11_11 
ROOT
HETATM    1  C3  UNL     1     -33.136  15.107  -3.503  1.00 20.00     0.034 C 
HETATM    2  C4  UNL     1     -35.564  15.735  -3.500  1.00 20.00     0.034 C 
HETATM    3  C5  UNL     1     -33.572  13.705  -3.917  1.00 20.00     0.168 C 
HETATM    4  C6  UNL     1     -35.865  14.299  -3.913  1.00 20.00     0.168 C 
HETATM    5  C7  UNL     1     -34.248  15.810  -2.718  1.00 20.00     0.023 C 
HETATM    6  O10 UNL     1     -34.783  13.754  -4.668  1.00 20.00    -0.391 OA
ENDROOT
BRANCH   5   7
HETATM    7  C9  UNL     1     -33.874  17.257  -2.408  1.00 20.00     0.150 C 
BRANCH   7   8
HETATM    8  C2  UNL     1     -33.883  17.557  -0.926  1.00 20.00    -0.064 C 
HETATM    9  C1  UNL     1     -34.807  17.014  -0.117  1.00 20.00     0.016 C 
HETATM   10  C8  UNL     1     -32.821  18.471  -0.382  1.00 20.00     0.045 C 
ENDBRANCH   7   8
BRANCH   7  11
HETATM   11  O11 UNL     1     -34.788  18.130  -3.066  1.00 20.00    -0.391 OA
HETATM   12  H27 UNL     1     -34.912  18.892  -2.480  1.00 20.00     0.210 HD
ENDBRANCH   7  11
ENDBRANCH   5   7
TORSDOF 3
ENDMDL
MODEL 4
REMARK VINA RESULT:      -4.4      2.917      5.059
REMARK  3 active torsions:
REMARK  status: ('A' for Active; 'I' for Inactive)
REMARK    1  A    between atoms: C2_2  and  C9_9 
REMARK    2  A    between atoms: C7_7  and  C9_9 
REMARK    3  A    between atoms: C9_9  and  O11_11 
ROOT
HETATM    1  C3  UNL     1     -37.226  15.118  -5.524  1.00 20.00     0.034 C 
HETATM    2  C4  UNL     1     -35.183  14.018  -6.477  1.00 20.00     0.034 C 
HETATM    3  C5  UNL     1     -37.495  15.667  -6.920  1.00 20.00     0.168 C 
HETATM    4  C6  UNL     1     -35.566  14.628  -7.820  1.00 20.00     0.168 C 
HETATM    5  C7  UNL     1     -35.728  14.864  -5.321  1.00 20.00     0.023 C 
HETATM    6  O10 UNL     1     -36.981  14.787  -7.918  1.00 20.00    -0.391 OA
ENDROOT
BRANCH   5   7
HETATM    7  C9  UNL     1     -35.460  14.196  -3.976  1.00 20.00     0.150 C 
BRANCH   7   8
HETATM    8  C2  UNL     1     -34.296  14.819  -3.237  1.00 20.00    -0.064 C 
HETATM    9  C1  UNL     1     -34.494  15.782  -2.324  1.00 20.00     0.016 C 
HETATM   10  C8  UNL     1     -32.911  14.321  -3.548  1.00 20.00     0.045 C 
ENDBRANCH   7   8
BRANCH   7  11
HETATM   11  O11 UNL     1     -35.194  12.811  -4.182  1.00 20.00    -0.391 OA
HETATM   12  H27 UNL     1     -35.238  12.662  -5.139  1.00 20.00     0.210 HD
ENDBRANCH   7  11
ENDBRANCH   5   7
TORSDOF 3
ENDMDL
MODEL 5
REMARK VINA RESULT:      -4.3      1.636      2.155
REMARK  3 active torsions:
REMARK  status: ('A' for Active; 'I' for Inactive)
REMARK    1  A    between atoms: C2_2  and  C9_9 
REMARK    2  A    between atoms: C7_7  and  C9_9 
REMARK    3  A    between atoms: C9_9  and  O11_11 
ROOT
HETATM    1  C3  UNL     1     -35.591  17.413  -3.762  1.00 20.00     0.034 C 
HETATM    2  C4  UNL     1     -33.798  16.179  -2.515  1.00 20.00     0.034 C 
HETATM    3  C5  UNL     1     -36.290  17.609  -2.421  1.00 20.00     0.168 C 
HETATM    4  C6  UNL     1     -34.596  16.444  -1.244  1.00 20.00     0.168 C 
HETATM    5  C7  UNL     1     -34.720  16.152  -3.739  1.00 20.00     0.023 C 
HETATM    6  O10 UNL     1     -35.340  17.657  -1.358  1.00 20.00    -0.391 OA
ENDROOT
BRANCH   5   7
HETATM    7  C9  UNL     1     -33.917  16.013  -5.029  1.00 20.00     0.150 C 
BRANCH   7   8
HETATM    8  C2  UNL     1     -34.372  14.845  -5.876  1.00 20.00    -0.064 C 
HETATM    9  C1  UNL     1     -34.518  14.971  -7.205  1.00 20.00     0.016 C 
HETATM   10  C8  UNL     1     -34.648  13.536  -5.190  1.00 20.00     0.045 C 
ENDBRANCH   7   8
BRANCH   7  11
HETATM   11  O11 UNL     1     -32.538  15.848  -4.710  1.00 20.00    -0.391 OA
HETATM   12  H27 UNL     1     -32.499  15.607  -3.772  1.00 20.00     0.210 HD
ENDBRANCH   7  11
ENDBRANCH   5   7
TORSDOF 3
ENDMDL
MODEL 6
REMARK VINA RESULT:      -4.3      1.297      1.362
REMARK  3 active torsions:
REMARK  status: ('A' for Active; 'I' for Inactive)
REMARK    1  A    between atoms: C2_2  and  C9_9 
REMARK    2  A    between atoms: C7_7  and  C9_9 
REMARK    3  A    between atoms: C9_9  and  O11_11 
ROOT
HETATM    1  C3  UNL     1     -34.636  16.602  -0.828  1.00 20.00     0.034 C 
HETATM    2  C4  UNL     1     -34.252  17.662  -3.068  1.00 20.00     0.034 C 
HETATM    3  C5  UNL     1     -33.900  17.790  -0.218  1.00 20.00     0.168 C 
HETATM    4  C6  UNL     1     -33.538  18.790  -2.334  1.00 20.00     0.168 C 
HETATM    5  C7  UNL     1     -34.171  16.358  -2.267  1.00 20.00     0.023 C 
HETATM    6  O10 UNL     1     -34.071  18.957  -1.021  1.00 20.00    -0.391 OA
ENDROOT
BRANCH   5   7
HETATM    7  C9  UNL     1     -34.989  15.253  -2.931  1.00 20.00     0.150 C 
BRANCH   7   8
HETATM    8  C2  UNL     1     -34.129  14.260  -3.680  1.00 20.00    -0.064 C 
HETATM    9  C1  UNL     1     -32.793  14.260  -3.539  1.00 20.00     0.016 C 
HETATM   10  C8  UNL     1     -34.811  13.267  -4.579  1.00 20.00     0.045 C 
ENDBRANCH   7   8
BRANCH   7  11
HETATM   11  O11 UNL     1     -35.923  15.838  -3.835  1.00 20.00    -0.391 OA
HETATM   12  H27 UNL     1     -35.621  16.745  -3.994  1.00 20.00     0.210 HD
ENDBRANCH   7  11
ENDBRANCH   5   7
TORSDOF 3
ENDMDL
MODEL 7
REMARK VINA RESULT:      -4.2      1.332      4.513
REMARK  3 active torsions:
REMARK  status: ('A' for Active; 'I' for Inactive)
REMARK    1  A    between atoms: C2_2  and  C9_9 
REMARK    2  A    between atoms: C7_7  and  C9_9 
REMARK    3  A    between atoms: C9_9  and  O11_11 
ROOT
HETATM    1  C3  UNL     1     -33.898  17.345  -4.043  1.00 20.00     0.034 C 
HETATM    2  C4  UNL     1     -34.617  15.357  -2.693  1.00 20.00     0.034 C 
HETATM    3  C5  UNL     1     -33.183  16.369  -4.970  1.00 20.00     0.168 C 
HETATM    4  C6  UNL     1     -33.861  14.492  -3.695  1.00 20.00     0.168 C 
HETATM    5  C7  UNL     1     -34.014  16.765  -2.629  1.00 20.00     0.023 C 
HETATM    6  O10 UNL     1     -33.846  15.106  -4.983  1.00 20.00    -0.391 OA
ENDROOT
BRANCH   5   7
HETATM    7  C9  UNL     1     -34.838  17.676  -1.725  1.00 20.00     0.150 C 
BRANCH   7   8
HETATM    8  C2  UNL     1     -34.228  17.841  -0.351  1.00 20.00    -0.064 C 
HETATM    9  C1  UNL     1     -32.982  18.317  -0.201  1.00 20.00     0.016 C 
HETATM   10  C8  UNL     1     -35.060  17.466   0.844  1.00 20.00     0.045 C 
ENDBRANCH   7   8
BRANCH   7  11
HETATM   11  O11 UNL     1     -36.153  17.142  -1.591  1.00 20.00    -0.391 OA
HETATM   12  H27 UNL     1     -36.227  16.819  -0.680  1.00 20.00     0.210 HD
ENDBRANCH   7  11
ENDBRANCH   5   7
TORSDOF 3
ENDMDL
MODEL 8
REMARK VINA RESULT:      -4.1      1.923      4.677
REMARK  3 active torsions:
REMARK  status: ('A' for Active; 'I' for Inactive)
REMARK    1  A    between atoms: C2_2  and  C9_9 
REMARK    2  A    between atoms: C7_7  and  C9_9 
REMARK    3  A    between atoms: C9_9  and  O11_11 
ROOT
HETATM    1  C3  UNL     1     -35.794  15.187  -5.246  1.00 20.00     0.034 C 
HETATM    2  C4  UNL     1     -34.437  14.316  -3.325  1.00 20.00     0.034 C 
HETATM    3  C5  UNL     1     -35.158  14.095  -6.099  1.00 20.00     0.168 C 
HETATM    4  C6  UNL     1     -33.876  13.273  -4.284  1.00 20.00     0.168 C 
HETATM    5  C7  UNL     1     -34.872  15.574  -4.085  1.00 20.00     0.023 C 
HETATM    6  O10 UNL     1     -34.827  12.959  -5.302  1.00 20.00    -0.391 OA
ENDROOT
BRANCH   5   7
HETATM    7  C9  UNL     1     -35.549  16.574  -3.153  1.00 20.00     0.150 C 
BRANCH   7   8
HETATM    8  C2  UNL     1     -34.590  17.182  -2.154  1.00 20.00    -0.064 C 
HETATM    9  C1  UNL     1     -33.706  18.121  -2.529  1.00 20.00     0.016 C 
HETATM   10  C8  UNL     1     -34.661  16.713  -0.727  1.00 20.00     0.045 C 
ENDBRANCH   7   8
BRANCH   7  11
HETATM   11  O11 UNL     1     -36.604  15.922  -2.450  1.00 20.00    -0.391 OA
HETATM   12  H27 UNL     1     -36.183  15.308  -1.829  1.00 20.00     0.210 HD
ENDBRANCH   7  11
ENDBRANCH   5   7
TORSDOF 3
ENDMDL
MODEL 9
REMARK VINA RESULT:      -4.0      2.449      4.717
REMARK  3 active torsions:
REMARK  status: ('A' for Active; 'I' for Inactive)
REMARK    1  A    between atoms: C2_2  and  C9_9 
REMARK    2  A    between atoms: C7_7  and  C9_9 
REMARK    3  A    between atoms: C9_9  and  O11_11 
ROOT
HETATM    1  C3  UNL     1     -36.122  15.385  -5.180  1.00 20.00     0.034 C 
HETATM    2  C4  UNL     1     -34.235  15.037  -6.795  1.00 20.00     0.034 C 
HETATM    3  C5  UNL     1     -37.049  15.459  -6.388  1.00 20.00     0.168 C 
HETATM    4  C6  UNL     1     -35.267  15.130  -7.913  1.00 20.00     0.168 C 
HETATM    5  C7  UNL     1     -34.702  15.816  -5.560  1.00 20.00     0.023 C 
HETATM    6  O10 UNL     1     -36.541  14.671  -7.464  1.00 20.00    -0.391 OA
ENDROOT
BRANCH   5   7
HETATM    7  C9  UNL     1     -33.737  15.625  -4.393  1.00 20.00     0.150 C 
BRANCH   7   8
HETATM    8  C2  UNL     1     -33.993  16.595  -3.261  1.00 20.00    -0.064 C 
HETATM    9  C1  UNL     1     -34.286  16.155  -2.027  1.00 20.00     0.016 C 
HETATM   10  C8  UNL     1     -33.901  18.067  -3.554  1.00 20.00     0.045 C 
ENDBRANCH   7   8
BRANCH   7  11
HETATM   11  O11 UNL     1     -32.400  15.791  -4.857  1.00 20.00    -0.391 OA
HETATM   12  H27 UNL     1     -32.048  14.900  -5.008  1.00 20.00     0.210 HD
ENDBRANCH   7  11
ENDBRANCH   5   7
TORSDOF 3
ENDMDL
