MODEL 1
REMARK VINA RESULT:      -4.0      0.000      0.000
REMARK  2 active torsions:
REMARK  status: ('A' for Active; 'I' for Inactive)
REMARK    1  A    between atoms: C7_7  and  C8_8 
REMARK    2  A    between atoms: C7_7  and  N9_9 
ROOT
HETATM    1  C1  UNL     1     -33.367  16.486  -5.297  1.00 20.00     0.277 C 
HETATM    2  C2  UNL     1     -33.616  14.965  -3.572  1.00 20.00     0.277 C 
HETATM    3  C3  UNL     1     -34.564  15.623  -5.713  1.00 20.00     0.015 C 
HETATM    4  C4  UNL     1     -34.730  14.609  -4.563  1.00 20.00     0.015 C 
HETATM    5  C5  UNL     1     -34.399  15.063  -7.119  1.00 20.00     0.012 C 
HETATM    6  C6  UNL     1     -34.713  13.131  -4.930  1.00 20.00     0.012 C 
HETATM    7  N9  UNL     1     -33.268  16.367  -3.836  1.00 20.00     0.090 N 
ENDROOT
BRANCH   7   8
HETATM    8  C7  UNL     1     -34.170  17.292  -3.150  1.00 20.00     0.287 C 
BRANCH   8   9
HETATM    9  C8  UNL     1     -33.729  17.592  -1.728  1.00 20.00     0.144 C 
HETATM   10 CL10 UNL     1     -34.688  16.673  -0.543  1.00 20.00    -0.129 Cl
ENDBRANCH   8   9
ENDBRANCH   7   8
TORSDOF 2
ENDMDL
MODEL 2
REMARK VINA RESULT:      -3.8     11.191     12.421
REMARK  2 active torsions:
REMARK  status: ('A' for Active; 'I' for Inactive)
REMARK    1  A    between atoms: C7_7  and  C8_8 
REMARK    2  A    between atoms: C7_7  and  N9_9 
ROOT
HETATM    1  C1  UNL     1     -33.554   5.342   3.019  1.00 20.00     0.277 C 
HETATM    2  C2  UNL     1     -32.640   6.744   4.616  1.00 20.00     0.277 C 
HETATM    3  C3  UNL     1     -34.699   5.603   4.004  1.00 20.00     0.015 C 
HETATM    4  C4  UNL     1     -34.090   6.536   5.069  1.00 20.00     0.015 C 
HETATM    5  C5  UNL     1     -35.334   4.308   4.492  1.00 20.00     0.012 C 
HETATM    6  C6  UNL     1     -34.173   6.085   6.521  1.00 20.00     0.012 C 
HETATM    7  N9  UNL     1     -32.620   6.465   3.174  1.00 20.00     0.090 N 
ENDROOT
BRANCH   7   8
HETATM    8  C7  UNL     1     -33.028   7.628   2.388  1.00 20.00     0.287 C 
BRANCH   8   9
HETATM    9  C8  UNL     1     -31.855   8.319   1.712  1.00 20.00     0.144 C 
HETATM   10 CL10 UNL     1     -32.302   9.942   1.136  1.00 20.00    -0.129 Cl
ENDBRANCH   8   9
ENDBRANCH   7   8
TORSDOF 2
ENDMDL
MODEL 3
REMARK VINA RESULT:      -3.8      1.596      1.957
REMARK  2 active torsions:
REMARK  status: ('A' for Active; 'I' for Inactive)
REMARK    1  A    between atoms: C7_7  and  C8_8 
REMARK    2  A    between atoms: C7_7  and  N9_9 
ROOT
HETATM    1  C1  UNL     1     -35.417  16.556  -3.499  1.00 20.00     0.277 C 
HETATM    2  C2  UNL     1     -33.385  15.496  -3.811  1.00 20.00     0.277 C 
HETATM    3  C3  UNL     1     -35.721  15.069  -3.283  1.00 20.00     0.015 C 
HETATM    4  C4  UNL     1     -34.366  14.362  -3.492  1.00 20.00     0.015 C 
HETATM    5  C5  UNL     1     -36.891  14.599  -4.136  1.00 20.00     0.012 C 
HETATM    6  C6  UNL     1     -34.312  13.253  -4.534  1.00 20.00     0.012 C 
HETATM    7  N9  UNL     1     -33.978  16.718  -3.252  1.00 20.00     0.090 N 
ENDROOT
BRANCH   7   8
HETATM    8  C7  UNL     1     -33.681  16.866  -1.828  1.00 20.00     0.287 C 
BRANCH   8   9
HETATM    9  C8  UNL     1     -34.642  17.810  -1.125  1.00 20.00     0.144 C 
HETATM   10 CL10 UNL     1     -35.030  17.238   0.515  1.00 20.00    -0.129 Cl
ENDBRANCH   8   9
ENDBRANCH   7   8
TORSDOF 2
ENDMDL
MODEL 4
REMARK VINA RESULT:      -3.8      2.774      4.434
REMARK  2 active torsions:
REMARK  status: ('A' for Active; 'I' for Inactive)
REMARK    1  A    between atoms: C7_7  and  C8_8 
REMARK    2  A    between atoms: C7_7  and  N9_9 
ROOT
HETATM    1  C1  UNL     1     -33.519  15.889  -3.145  1.00 20.00     0.277 C 
HETATM    2  C2  UNL     1     -35.311  16.504  -4.473  1.00 20.00     0.277 C 
HETATM    3  C3  UNL     1     -34.728  15.853  -2.203  1.00 20.00     0.015 C 
HETATM    4  C4  UNL     1     -35.922  16.263  -3.088  1.00 20.00     0.015 C 
HETATM    5  C5  UNL     1     -34.486  16.664  -0.938  1.00 20.00     0.012 C 
HETATM    6  C6  UNL     1     -36.760  17.446  -2.623  1.00 20.00     0.012 C 
HETATM    7  N9  UNL     1     -34.057  15.739  -4.504  1.00 20.00     0.090 N 
ENDROOT
BRANCH   7   8
HETATM    8  C7  UNL     1     -34.282  14.336  -4.851  1.00 20.00     0.287 C 
BRANCH   8   9
HETATM    9  C8  UNL     1     -35.197  14.170  -6.053  1.00 20.00     0.144 C 
HETATM   10 CL10 UNL     1     -34.459  14.841  -7.527  1.00 20.00    -0.129 Cl
ENDBRANCH   8   9
ENDBRANCH   7   8
TORSDOF 2
ENDMDL
MODEL 5
REMARK VINA RESULT:      -3.7      2.106      4.612
REMARK  2 active torsions:
REMARK  status: ('A' for Active; 'I' for Inactive)
REMARK    1  A    between atoms: C7_7  and  C8_8 
REMARK    2  A    between atoms: C7_7  and  N9_9 
ROOT
HETATM    1  C1  UNL     1     -33.775  17.892  -2.882  1.00 20.00     0.277 C 
HETATM    2  C2  UNL     1     -35.282  16.429  -1.911  1.00 20.00     0.277 C 
HETATM    3  C3  UNL     1     -33.348  17.817  -1.412  1.00 20.00     0.015 C 
HETATM    4  C4  UNL     1     -34.352  16.843  -0.764  1.00 20.00     0.015 C 
HETATM    5  C5  UNL     1     -33.216  19.200  -0.788  1.00 20.00     0.012 C 
HETATM    6  C6  UNL     1     -35.130  17.345   0.445  1.00 20.00     0.012 C 
HETATM    7  N9  UNL     1     -34.528  16.658  -3.151  1.00 20.00     0.090 N 
ENDROOT
BRANCH   7   8
HETATM    8  C7  UNL     1     -33.643  15.537  -3.467  1.00 20.00     0.287 C 
BRANCH   8   9
HETATM    9  C8  UNL     1     -34.124  14.733  -4.663  1.00 20.00     0.144 C 
HETATM   10 CL10 UNL     1     -34.990  13.265  -4.151  1.00 20.00    -0.129 Cl
ENDBRANCH   8   9
ENDBRANCH   7   8
TORSDOF 2
ENDMDL
MODEL 6
REMARK VINA RESULT:      -3.7      0.921      2.045
REMARK  2 active torsions:
REMARK  status: ('A' for Active; 'I' for Inactive)
REMARK    1  A    between atoms: C7_7  and  C8_8 
REMARK    2  A    between atoms: C7_7  and  N9_9 
ROOT
HETATM    1  C1  UNL     1     -35.037  15.056  -3.330  1.00 20.00     0.277 C 
HETATM    2  C2  UNL     1     -34.883  16.738  -4.911  1.00 20.00     0.277 C 
HETATM    3  C3  UNL     1     -34.125  14.480  -4.418  1.00 20.00     0.015 C 
HETATM    4  C4  UNL     1     -34.023  15.600  -5.473  1.00 20.00     0.015 C 
HETATM    5  C5  UNL     1     -34.602  13.115  -4.895  1.00 20.00     0.012 C 
HETATM    6  C6  UNL     1     -34.409  15.249  -6.903  1.00 20.00     0.012 C 
HETATM    7  N9  UNL     1     -34.954  16.517  -3.460  1.00 20.00     0.090 N 
ENDROOT
BRANCH   7   8
HETATM    8  C7  UNL     1     -33.787  17.063  -2.768  1.00 20.00     0.287 C 
BRANCH   8   9
HETATM    9  C8  UNL     1     -34.163  17.906  -1.561  1.00 20.00     0.144 C 
HETATM   10 CL10 UNL     1     -34.745  16.893  -0.218  1.00 20.00    -0.129 Cl
ENDBRANCH   8   9
ENDBRANCH   7   8
TORSDOF 2
ENDMDL
MODEL 7
REMARK VINA RESULT:      -3.7      2.707      4.368
REMARK  2 active torsions:
REMARK  status: ('A' for Active; 'I' for Inactive)
REMARK    1  A    between atoms: C7_7  and  C8_8 
REMARK    2  A    between atoms: C7_7  and  N9_9 
ROOT
HETATM    1  C1  UNL     1     -34.745  17.228  -4.316  1.00 20.00     0.277 C 
HETATM    2  C2  UNL     1     -35.476  15.620  -2.822  1.00 20.00     0.277 C 
HETATM    3  C3  UNL     1     -33.788  17.345  -3.124  1.00 20.00     0.015 C 
HETATM    4  C4  UNL     1     -34.276  16.274  -2.128  1.00 20.00     0.015 C 
HETATM    5  C5  UNL     1     -33.688  18.776  -2.615  1.00 20.00     0.012 C 
HETATM    6  C6  UNL     1     -34.618  16.736  -0.718  1.00 20.00     0.012 C 
HETATM    7  N9  UNL     1     -35.302  15.870  -4.259  1.00 20.00     0.090 N 
ENDROOT
BRANCH   7   8
HETATM    8  C7  UNL     1     -34.413  14.888  -4.880  1.00 20.00     0.287 C 
BRANCH   8   9
HETATM    9  C8  UNL     1     -35.066  14.160  -6.042  1.00 20.00     0.144 C 
HETATM   10 CL10 UNL     1     -34.641  14.911  -7.599  1.00 20.00    -0.129 Cl
ENDBRANCH   8   9
ENDBRANCH   7   8
TORSDOF 2
ENDMDL
MODEL 8
REMARK VINA RESULT:      -3.6      2.854      4.291
REMARK  2 active torsions:
REMARK  status: ('A' for Active; 'I' for Inactive)
REMARK    1  A    between atoms: C7_7  and  C8_8 
REMARK    2  A    between atoms: C7_7  and  N9_9 
ROOT
HETATM    1  C1  UNL     1     -36.160  15.136  -3.332  1.00 20.00     0.277 C 
HETATM    2  C2  UNL     1     -34.747  13.838  -4.624  1.00 20.00     0.277 C 
HETATM    3  C3  UNL     1     -34.812  15.862  -3.277  1.00 20.00     0.015 C 
HETATM    4  C4  UNL     1     -33.870  14.996  -4.137  1.00 20.00     0.015 C 
HETATM    5  C5  UNL     1     -34.381  16.151  -1.846  1.00 20.00     0.012 C 
HETATM    6  C6  UNL     1     -32.587  14.501  -3.484  1.00 20.00     0.012 C 
HETATM    7  N9  UNL     1     -36.134  14.318  -4.553  1.00 20.00     0.090 N 
ENDROOT
BRANCH   7   8
HETATM    8  C7  UNL     1     -36.504  15.092  -5.737  1.00 20.00     0.287 C 
BRANCH   8   9
HETATM    9  C8  UNL     1     -35.821  14.593  -6.999  1.00 20.00     0.144 C 
HETATM   10 CL10 UNL     1     -34.697  15.808  -7.652  1.00 20.00    -0.129 Cl
ENDBRANCH   8   9
ENDBRANCH   7   8
TORSDOF 2
ENDMDL
MODEL 9
REMARK VINA RESULT:      -3.6      1.354      1.957
REMARK  2 active torsions:
REMARK  status: ('A' for Active; 'I' for Inactive)
REMARK    1  A    between atoms: C7_7  and  C8_8 
REMARK    2  A    between atoms: C7_7  and  N9_9 
ROOT
HETATM    1  C1  UNL     1     -35.593  16.712  -4.267  1.00 20.00     0.277 C 
HETATM    2  C2  UNL     1     -33.535  16.333  -5.254  1.00 20.00     0.277 C 
HETATM    3  C3  UNL     1     -35.782  15.420  -5.069  1.00 20.00     0.015 C 
HETATM    4  C4  UNL     1     -34.411  15.167  -5.727  1.00 20.00     0.015 C 
HETATM    5  C5  UNL     1     -36.994  15.494  -5.987  1.00 20.00     0.012 C 
HETATM    6  C6  UNL     1     -34.383  15.013  -7.242  1.00 20.00     0.012 C 
HETATM    7  N9  UNL     1     -34.150  16.828  -4.015  1.00 20.00     0.090 N 
ENDROOT
BRANCH   7   8
HETATM    8  C7  UNL     1     -33.734  16.047  -2.850  1.00 20.00     0.287 C 
BRANCH   8   9
HETATM    9  C8  UNL     1     -34.642  16.258  -1.651  1.00 20.00     0.144 C 
HETATM   10 CL10 UNL     1     -33.945  17.431  -0.508  1.00 20.00    -0.129 Cl
ENDBRANCH   8   9
ENDBRANCH   7   8
TORSDOF 2
ENDMDL
