MODEL 1
REMARK VINA RESULT:      -4.0      0.000      0.000
REMARK  3 active torsions:
REMARK  status: ('A' for Active; 'I' for Inactive)
REMARK    1  A    between atoms: C7_7  and  C8_8 
REMARK    2  A    between atoms: C7_7  and  C9_9 
REMARK    3  A    between atoms: C8_8  and  N10_10 
ROOT
HETATM    1  C1  UNL     1     -34.037  16.816  -4.432  1.00 20.00     0.239 C 
HETATM    2  C2  UNL     1     -35.816  16.119  -2.903  1.00 20.00     0.239 C 
HETATM    3  C3  UNL     1     -33.708  17.297  -3.023  1.00 20.00     0.012 C 
HETATM    4  C4  UNL     1     -34.487  16.287  -2.171  1.00 20.00     0.012 C 
HETATM    5  C5  UNL     1     -34.107  18.759  -2.816  1.00 20.00     0.012 C 
HETATM    6  C6  UNL     1     -34.665  16.656  -0.706  1.00 20.00     0.012 C 
HETATM    7  N10 UNL     1     -35.500  16.432  -4.354  1.00 20.00    -0.070 N 
HETATM    8  H30 UNL     1     -36.041  17.271  -4.606  1.00 20.00     0.279 HD
ENDROOT
BRANCH   7   9
HETATM    9  C8  UNL     1     -35.892  15.357  -5.316  1.00 20.00     0.236 C 
BRANCH   9  10
HETATM   10  C7  UNL     1     -34.686  14.500  -5.689  1.00 20.00     0.043 C 
BRANCH  10  11
HETATM   11  C9  UNL     1     -34.481  13.240  -4.852  1.00 20.00     0.116 C 
HETATM   12 CL11 UNL     1     -33.136  13.413  -3.701  1.00 20.00    -0.130 Cl
ENDBRANCH  10  11
ENDBRANCH   9  10
ENDBRANCH   7   9
TORSDOF 3
ENDMDL
MODEL 2
REMARK VINA RESULT:      -4.0     11.327     12.555
REMARK  3 active torsions:
REMARK  status: ('A' for Active; 'I' for Inactive)
REMARK    1  A    between atoms: C7_7  and  C8_8 
REMARK    2  A    between atoms: C7_7  and  C9_9 
REMARK    3  A    between atoms: C8_8  and  N10_10 
ROOT
HETATM    1  C1  UNL     1     -34.719   5.260   3.416  1.00 20.00     0.239 C 
HETATM    2  C2  UNL     1     -32.950   6.337   4.721  1.00 20.00     0.239 C 
HETATM    3  C3  UNL     1     -35.113   5.270   4.889  1.00 20.00     0.012 C 
HETATM    4  C4  UNL     1     -34.307   6.466   5.409  1.00 20.00     0.012 C 
HETATM    5  C5  UNL     1     -34.797   3.936   5.569  1.00 20.00     0.012 C 
HETATM    6  C6  UNL     1     -34.190   6.580   6.921  1.00 20.00     0.012 C 
HETATM    7  N10 UNL     1     -33.240   5.589   3.432  1.00 20.00    -0.070 N 
HETATM    8  H30 UNL     1     -32.738   4.693   3.485  1.00 20.00     0.279 HD
ENDROOT
BRANCH   7   9
HETATM    9  C8  UNL     1     -32.765   6.283   2.196  1.00 20.00     0.236 C 
BRANCH   9  10
HETATM   10  C7  UNL     1     -32.041   7.578   2.549  1.00 20.00     0.043 C 
BRANCH  10  11
HETATM   11  C9  UNL     1     -31.821   8.552   1.394  1.00 20.00     0.116 C 
HETATM   12 CL11 UNL     1     -32.648  10.104   1.662  1.00 20.00    -0.130 Cl
ENDBRANCH  10  11
ENDBRANCH   9  10
ENDBRANCH   7   9
TORSDOF 3
ENDMDL
MODEL 3
REMARK VINA RESULT:      -3.9      2.195      4.368
REMARK  3 active torsions:
REMARK  status: ('A' for Active; 'I' for Inactive)
REMARK    1  A    between atoms: C7_7  and  C8_8 
REMARK    2  A    between atoms: C7_7  and  C9_9 
REMARK    3  A    between atoms: C8_8  and  N10_10 
ROOT
HETATM    1  C1  UNL     1     -34.626  14.313  -5.568  1.00 20.00     0.239 C 
HETATM    2  C2  UNL     1     -35.592  16.561  -5.566  1.00 20.00     0.239 C 
HETATM    3  C3  UNL     1     -34.456  14.936  -6.949  1.00 20.00     0.012 C 
HETATM    4  C4  UNL     1     -34.486  16.431  -6.610  1.00 20.00     0.012 C 
HETATM    5  C5  UNL     1     -35.545  14.473  -7.918  1.00 20.00     0.012 C 
HETATM    6  C6  UNL     1     -34.677  17.374  -7.789  1.00 20.00     0.012 C 
HETATM    7  N10 UNL     1     -35.645  15.204  -4.888  1.00 20.00    -0.070 N 
HETATM    8  H30 UNL     1     -36.571  14.803  -5.090  1.00 20.00     0.279 HD
ENDROOT
BRANCH   7   9
HETATM    9  C8  UNL     1     -35.506  15.251  -3.401  1.00 20.00     0.236 C 
BRANCH   9  10
HETATM   10  C7  UNL     1     -34.046  15.444  -3.001  1.00 20.00     0.043 C 
BRANCH  10  11
HETATM   11  C9  UNL     1     -33.755  16.650  -2.112  1.00 20.00     0.116 C 
HETATM   12 CL11 UNL     1     -34.721  16.628  -0.618  1.00 20.00    -0.130 Cl
ENDBRANCH  10  11
ENDBRANCH   9  10
ENDBRANCH   7   9
TORSDOF 3
ENDMDL
MODEL 4
REMARK VINA RESULT:      -3.9      2.408      4.594
REMARK  3 active torsions:
REMARK  status: ('A' for Active; 'I' for Inactive)
REMARK    1  A    between atoms: C7_7  and  C8_8 
REMARK    2  A    between atoms: C7_7  and  C9_9 
REMARK    3  A    between atoms: C8_8  and  N10_10 
ROOT
HETATM    1  C1  UNL     1     -34.238  14.852  -3.083  1.00 20.00     0.239 C 
HETATM    2  C2  UNL     1     -35.414  16.240  -4.719  1.00 20.00     0.239 C 
HETATM    3  C3  UNL     1     -33.943  14.336  -4.487  1.00 20.00     0.012 C 
HETATM    4  C4  UNL     1     -34.169  15.600  -5.326  1.00 20.00     0.012 C 
HETATM    5  C5  UNL     1     -34.837  13.151  -4.855  1.00 20.00     0.012 C 
HETATM    6  C6  UNL     1     -34.289  15.386  -6.827  1.00 20.00     0.012 C 
HETATM    7  N10 UNL     1     -35.424  15.774  -3.274  1.00 20.00    -0.070 N 
HETATM    8  H30 UNL     1     -36.269  15.200  -3.149  1.00 20.00     0.279 HD
ENDROOT
BRANCH   7   9
HETATM    9  C8  UNL     1     -35.495  16.879  -2.270  1.00 20.00     0.236 C 
BRANCH   9  10
HETATM   10  C7  UNL     1     -34.604  16.576  -1.070  1.00 20.00     0.043 C 
BRANCH  10  11
HETATM   11  C9  UNL     1     -34.946  17.322   0.217  1.00 20.00     0.116 C 
HETATM   12 CL11 UNL     1     -33.598  18.340   0.777  1.00 20.00    -0.130 Cl
ENDBRANCH  10  11
ENDBRANCH   9  10
ENDBRANCH   7   9
TORSDOF 3
ENDMDL
MODEL 5
REMARK VINA RESULT:      -3.9      2.584      4.706
REMARK  3 active torsions:
REMARK  status: ('A' for Active; 'I' for Inactive)
REMARK    1  A    between atoms: C7_7  and  C8_8 
REMARK    2  A    between atoms: C7_7  and  C9_9 
REMARK    3  A    between atoms: C8_8  and  N10_10 
ROOT
HETATM    1  C1  UNL     1     -35.795  16.113  -2.713  1.00 20.00     0.239 C 
HETATM    2  C2  UNL     1     -33.602  15.320  -3.456  1.00 20.00     0.239 C 
HETATM    3  C3  UNL     1     -35.981  14.982  -3.717  1.00 20.00     0.012 C 
HETATM    4  C4  UNL     1     -34.658  14.223  -3.566  1.00 20.00     0.012 C 
HETATM    5  C5  UNL     1     -36.263  15.514  -5.124  1.00 20.00     0.012 C 
HETATM    6  C6  UNL     1     -34.344  13.213  -4.660  1.00 20.00     0.012 C 
HETATM    7  N10 UNL     1     -34.343  16.513  -2.879  1.00 20.00    -0.070 N 
HETATM    8  H30 UNL     1     -34.320  17.255  -3.591  1.00 20.00     0.279 HD
ENDROOT
BRANCH   7   9
HETATM    9  C8  UNL     1     -33.729  17.080  -1.639  1.00 20.00     0.236 C 
BRANCH   9  10
HETATM   10  C7  UNL     1     -34.660  16.897  -0.444  1.00 20.00     0.043 C 
BRANCH  10  11
HETATM   11  C9  UNL     1     -34.520  17.930   0.671  1.00 20.00     0.116 C 
HETATM   12 CL11 UNL     1     -35.387  17.443   2.146  1.00 20.00    -0.130 Cl
ENDBRANCH  10  11
ENDBRANCH   9  10
ENDBRANCH   7   9
TORSDOF 3
ENDMDL
MODEL 6
REMARK VINA RESULT:      -3.9      2.395      3.475
REMARK  3 active torsions:
REMARK  status: ('A' for Active; 'I' for Inactive)
REMARK    1  A    between atoms: C7_7  and  C8_8 
REMARK    2  A    between atoms: C7_7  and  C9_9 
REMARK    3  A    between atoms: C8_8  and  N10_10 
ROOT
HETATM    1  C1  UNL     1     -34.548  13.746  -5.448  1.00 20.00     0.239 C 
HETATM    2  C2  UNL     1     -34.184  16.090  -4.847  1.00 20.00     0.239 C 
HETATM    3  C3  UNL     1     -34.430  13.866  -3.933  1.00 20.00     0.012 C 
HETATM    4  C4  UNL     1     -34.856  15.322  -3.712  1.00 20.00     0.012 C 
HETATM    5  C5  UNL     1     -33.021  13.525  -3.446  1.00 20.00     0.012 C 
HETATM    6  C6  UNL     1     -34.541  15.904  -2.342  1.00 20.00     0.012 C 
HETATM    7  N10 UNL     1     -34.024  15.071  -5.961  1.00 20.00    -0.070 N 
HETATM    8  H30 UNL     1     -33.013  14.951  -6.115  1.00 20.00     0.279 HD
ENDROOT
BRANCH   7   9
HETATM    9  C8  UNL     1     -34.617  15.488  -7.269  1.00 20.00     0.236 C 
BRANCH   9  10
HETATM   10  C7  UNL     1     -35.674  14.486  -7.725  1.00 20.00     0.043 C 
BRANCH  10  11
HETATM   11  C9  UNL     1     -37.107  15.009  -7.771  1.00 20.00     0.116 C 
HETATM   12 CL11 UNL     1     -37.702  15.473  -6.160  1.00 20.00    -0.130 Cl
ENDBRANCH  10  11
ENDBRANCH   9  10
ENDBRANCH   7   9
TORSDOF 3
ENDMDL
MODEL 7
REMARK VINA RESULT:      -3.8      2.313      4.325
REMARK  3 active torsions:
REMARK  status: ('A' for Active; 'I' for Inactive)
REMARK    1  A    between atoms: C7_7  and  C8_8 
REMARK    2  A    between atoms: C7_7  and  C9_9 
REMARK    3  A    between atoms: C8_8  and  N10_10 
ROOT
HETATM    1  C1  UNL     1     -35.023  16.949  -4.512  1.00 20.00     0.239 C 
HETATM    2  C2  UNL     1     -33.788  15.176  -3.363  1.00 20.00     0.239 C 
HETATM    3  C3  UNL     1     -35.143  15.654  -5.306  1.00 20.00     0.012 C 
HETATM    4  C4  UNL     1     -34.923  14.606  -4.210  1.00 20.00     0.012 C 
HETATM    5  C5  UNL     1     -34.140  15.601  -6.460  1.00 20.00     0.012 C 
HETATM    6  C6  UNL     1     -34.642  13.191  -4.692  1.00 20.00     0.012 C 
HETATM    7  N10 UNL     1     -33.888  16.680  -3.546  1.00 20.00    -0.070 N 
HETATM    8  H30 UNL     1     -33.022  16.985  -4.012  1.00 20.00     0.279 HD
ENDROOT
BRANCH   7   9
HETATM    9  C8  UNL     1     -33.989  17.451  -2.269  1.00 20.00     0.236 C 
BRANCH   9  10
HETATM   10  C7  UNL     1     -34.508  16.563  -1.142  1.00 20.00     0.043 C 
BRANCH  10  11
HETATM   11  C9  UNL     1     -34.914  17.286   0.140  1.00 20.00     0.116 C 
HETATM   12 CL11 UNL     1     -33.604  18.308   0.774  1.00 20.00    -0.130 Cl
ENDBRANCH  10  11
ENDBRANCH   9  10
ENDBRANCH   7   9
TORSDOF 3
ENDMDL
MODEL 8
REMARK VINA RESULT:      -3.7     13.114     14.462
REMARK  3 active torsions:
REMARK  status: ('A' for Active; 'I' for Inactive)
REMARK    1  A    between atoms: C7_7  and  C8_8 
REMARK    2  A    between atoms: C7_7  and  C9_9 
REMARK    3  A    between atoms: C8_8  and  N10_10 
ROOT
HETATM    1  C1  UNL     1     -41.031   4.266  -1.570  1.00 20.00     0.239 C 
HETATM    2  C2  UNL     1     -43.415   4.666  -1.192  1.00 20.00     0.239 C 
HETATM    3  C3  UNL     1     -41.211   5.053  -0.278  1.00 20.00     0.012 C 
HETATM    4  C4  UNL     1     -42.637   4.655   0.121  1.00 20.00     0.012 C 
HETATM    5  C5  UNL     1     -40.997   6.552  -0.491  1.00 20.00     0.012 C 
HETATM    6  C6  UNL     1     -43.287   5.511   1.198  1.00 20.00     0.012 C 
HETATM    7  N10 UNL     1     -42.374   4.385  -2.260  1.00 20.00    -0.070 N 
HETATM    8  H30 UNL     1     -42.326   5.220  -2.861  1.00 20.00     0.279 HD
ENDROOT
BRANCH   7   9
HETATM    9  C8  UNL     1     -42.699   3.228  -3.149  1.00 20.00     0.236 C 
BRANCH   9  10
HETATM   10  C7  UNL     1     -41.483   2.322  -3.321  1.00 20.00     0.043 C 
BRANCH  10  11
HETATM   11  C9  UNL     1     -41.699   1.077  -4.178  1.00 20.00     0.116 C 
HETATM   12 CL11 UNL     1     -42.511  -0.223  -3.276  1.00 20.00    -0.130 Cl
ENDBRANCH  10  11
ENDBRANCH   9  10
ENDBRANCH   7   9
TORSDOF 3
ENDMDL
MODEL 9
REMARK VINA RESULT:      -3.7      1.766      2.672
REMARK  3 active torsions:
REMARK  status: ('A' for Active; 'I' for Inactive)
REMARK    1  A    between atoms: C7_7  and  C8_8 
REMARK    2  A    between atoms: C7_7  and  C9_9 
REMARK    3  A    between atoms: C8_8  and  N10_10 
ROOT
HETATM    1  C1  UNL     1     -35.429  15.137  -2.935  1.00 20.00     0.239 C 
HETATM    2  C2  UNL     1     -33.345  16.089  -3.793  1.00 20.00     0.239 C 
HETATM    3  C3  UNL     1     -35.247  16.541  -2.372  1.00 20.00     0.012 C 
HETATM    4  C4  UNL     1     -34.352  17.180  -3.440  1.00 20.00     0.012 C 
HETATM    5  C5  UNL     1     -34.651  16.514  -0.963  1.00 20.00     0.012 C 
HETATM    6  C6  UNL     1     -33.685  18.491  -3.049  1.00 20.00     0.012 C 
HETATM    7  N10 UNL     1     -34.065  14.787  -3.492  1.00 20.00    -0.070 N 
HETATM    8  H30 UNL     1     -33.545  14.324  -2.734  1.00 20.00     0.279 HD
ENDROOT
BRANCH   7   9
HETATM    9  C8  UNL     1     -34.111  13.827  -4.638  1.00 20.00     0.236 C 
BRANCH   9  10
HETATM   10  C7  UNL     1     -35.252  14.176  -5.588  1.00 20.00     0.043 C 
BRANCH  10  11
HETATM   11  C9  UNL     1     -34.842  14.540  -7.013  1.00 20.00     0.116 C 
HETATM   12 CL11 UNL     1     -34.436  16.265  -7.172  1.00 20.00    -0.130 Cl
ENDBRANCH  10  11
ENDBRANCH   9  10
ENDBRANCH   7   9
TORSDOF 3
ENDMDL
