MODEL 1
REMARK VINA RESULT:      -5.1      0.000      0.000
REMARK  2 active torsions:
REMARK  status: ('A' for Active; 'I' for Inactive)
REMARK    1  A    between atoms: C3_3  and  C11_11 
REMARK    2  A    between atoms: C9_9  and  C11_11 
ROOT
HETATM    1  C1  UNL     1     -34.942  13.750  -4.593  1.00 20.00     0.127 C 
HETATM    2  C4  UNL     1     -35.891  14.538  -5.469  1.00 20.00     0.078 C 
HETATM    3  C5  UNL     1     -34.227  14.464  -3.457  1.00 20.00     0.083 C 
HETATM    4  C6  UNL     1     -35.190  15.521  -6.403  1.00 20.00     0.007 C 
HETATM    5  C7  UNL     1     -33.777  15.945  -6.010  1.00 20.00     0.001 C 
HETATM    6  C8  UNL     1     -33.650  16.655  -4.662  1.00 20.00     0.005 C 
HETATM    7  C9  UNL     1     -34.357  15.992  -3.467  1.00 20.00    -0.004 C 
HETATM    8  O12 UNL     1     -34.768  12.544  -4.779  1.00 20.00    -0.298 OA
ENDROOT
BRANCH   7   9
HETATM    9  C11 UNL     1     -33.812  16.574  -2.158  1.00 20.00     0.037 C 
BRANCH   9  10
HETATM   10  C3  UNL     1     -34.899  17.150  -1.292  1.00 20.00    -0.093 C 
HETATM   11  C2  UNL     1     -34.826  17.100   0.047  1.00 20.00     0.014 C 
HETATM   12  C10 UNL     1     -36.092  17.742  -1.989  1.00 20.00     0.042 C 
ENDBRANCH   9  10
ENDBRANCH   7   9
TORSDOF 2
ENDMDL
MODEL 2
REMARK VINA RESULT:      -4.9      1.536      2.050
REMARK  2 active torsions:
REMARK  status: ('A' for Active; 'I' for Inactive)
REMARK    1  A    between atoms: C3_3  and  C11_11 
REMARK    2  A    between atoms: C9_9  and  C11_11 
ROOT
HETATM    1  C1  UNL     1     -36.729  14.720  -4.044  1.00 20.00     0.127 C 
HETATM    2  C4  UNL     1     -36.278  14.907  -5.476  1.00 20.00     0.078 C 
HETATM    3  C5  UNL     1     -35.827  15.205  -2.921  1.00 20.00     0.083 C 
HETATM    4  C6  UNL     1     -35.126  13.990  -5.880  1.00 20.00     0.007 C 
HETATM    5  C7  UNL     1     -34.282  13.416  -4.744  1.00 20.00     0.001 C 
HETATM    6  C8  UNL     1     -33.566  14.444  -3.868  1.00 20.00     0.005 C 
HETATM    7  C9  UNL     1     -34.416  15.619  -3.354  1.00 20.00    -0.004 C 
HETATM    8  O12 UNL     1     -37.821  14.207  -3.790  1.00 20.00    -0.298 OA
ENDROOT
BRANCH   7   9
HETATM    9  C11 UNL     1     -33.692  16.312  -2.195  1.00 20.00     0.037 C 
BRANCH   9  10
HETATM   10  C3  UNL     1     -34.540  17.366  -1.538  1.00 20.00    -0.093 C 
HETATM   11  C2  UNL     1     -34.952  18.451  -2.212  1.00 20.00     0.014 C 
HETATM   12  C10 UNL     1     -34.867  17.178  -0.083  1.00 20.00     0.042 C 
ENDBRANCH   9  10
ENDBRANCH   7   9
TORSDOF 2
ENDMDL
MODEL 3
REMARK VINA RESULT:      -4.8      1.711      1.979
REMARK  2 active torsions:
REMARK  status: ('A' for Active; 'I' for Inactive)
REMARK    1  A    between atoms: C3_3  and  C11_11 
REMARK    2  A    between atoms: C9_9  and  C11_11 
ROOT
HETATM    1  C1  UNL     1     -37.212  14.833  -4.160  1.00 20.00     0.127 C 
HETATM    2  C4  UNL     1     -37.209  15.618  -5.453  1.00 20.00     0.078 C 
HETATM    3  C5  UNL     1     -35.998  14.912  -3.249  1.00 20.00     0.083 C 
HETATM    4  C6  UNL     1     -36.264  15.054  -6.510  1.00 20.00     0.007 C 
HETATM    5  C7  UNL     1     -35.135  14.157  -6.006  1.00 20.00     0.001 C 
HETATM    6  C8  UNL     1     -34.155  14.813  -5.032  1.00 20.00     0.005 C 
HETATM    7  C9  UNL     1     -34.771  15.598  -3.862  1.00 20.00    -0.004 C 
HETATM    8  O12 UNL     1     -38.193  14.159  -3.835  1.00 20.00    -0.298 OA
ENDROOT
BRANCH   7   9
HETATM    9  C11 UNL     1     -33.708  15.835  -2.784  1.00 20.00     0.037 C 
BRANCH   9  10
HETATM   10  C3  UNL     1     -34.040  17.007  -1.901  1.00 20.00    -0.093 C 
HETATM   11  C2  UNL     1     -34.493  16.833  -0.649  1.00 20.00     0.014 C 
HETATM   12  C10 UNL     1     -33.887  18.379  -2.494  1.00 20.00     0.042 C 
ENDBRANCH   9  10
ENDBRANCH   7   9
TORSDOF 2
ENDMDL
MODEL 4
REMARK VINA RESULT:      -4.7      1.809      2.847
REMARK  2 active torsions:
REMARK  status: ('A' for Active; 'I' for Inactive)
REMARK    1  A    between atoms: C3_3  and  C11_11 
REMARK    2  A    between atoms: C9_9  and  C11_11 
ROOT
HETATM    1  C1  UNL     1     -33.199  15.958  -4.159  1.00 20.00     0.127 C 
HETATM    2  C4  UNL     1     -33.092  14.543  -3.634  1.00 20.00     0.078 C 
HETATM    3  C5  UNL     1     -33.997  16.978  -3.363  1.00 20.00     0.083 C 
HETATM    4  C6  UNL     1     -34.392  13.750  -3.742  1.00 20.00     0.007 C 
HETATM    5  C7  UNL     1     -35.679  14.563  -3.863  1.00 20.00     0.001 C 
HETATM    6  C8  UNL     1     -35.983  15.498  -2.692  1.00 20.00     0.005 C 
HETATM    7  C9  UNL     1     -34.831  16.398  -2.214  1.00 20.00    -0.004 C 
HETATM    8  O12 UNL     1     -32.630  16.288  -5.201  1.00 20.00    -0.298 OA
ENDROOT
BRANCH   7   9
HETATM    9  C11 UNL     1     -35.387  17.530  -1.344  1.00 20.00     0.037 C 
BRANCH   9  10
HETATM   10  C3  UNL     1     -34.623  17.691  -0.058  1.00 20.00    -0.093 C 
HETATM   11  C2  UNL     1     -35.193  17.434   1.130  1.00 20.00     0.014 C 
HETATM   12  C10 UNL     1     -33.211  18.196  -0.155  1.00 20.00     0.042 C 
ENDBRANCH   9  10
ENDBRANCH   7   9
TORSDOF 2
ENDMDL
MODEL 5
REMARK VINA RESULT:      -4.5     12.357     14.336
REMARK  2 active torsions:
REMARK  status: ('A' for Active; 'I' for Inactive)
REMARK    1  A    between atoms: C3_3  and  C11_11 
REMARK    2  A    between atoms: C9_9  and  C11_11 
ROOT
HETATM    1  C1  UNL     1     -42.450   5.231   0.228  1.00 20.00     0.127 C 
HETATM    2  C4  UNL     1     -41.068   5.802   0.001  1.00 20.00     0.078 C 
HETATM    3  C5  UNL     1     -43.135   4.490  -0.908  1.00 20.00     0.083 C 
HETATM    4  C6  UNL     1     -41.051   7.016  -0.924  1.00 20.00     0.007 C 
HETATM    5  C7  UNL     1     -42.250   7.179  -1.856  1.00 20.00     0.001 C 
HETATM    6  C8  UNL     1     -42.478   6.038  -2.847  1.00 20.00     0.005 C 
HETATM    7  C9  UNL     1     -42.444   4.611  -2.272  1.00 20.00    -0.004 C 
HETATM    8  O12 UNL     1     -43.004   5.342   1.324  1.00 20.00    -0.298 OA
ENDROOT
BRANCH   7   9
HETATM    9  C11 UNL     1     -43.077   3.637  -3.271  1.00 20.00     0.037 C 
BRANCH   9  10
HETATM   10  C3  UNL     1     -42.459   2.267  -3.204  1.00 20.00    -0.093 C 
HETATM   11  C2  UNL     1     -41.245   2.023  -3.721  1.00 20.00     0.014 C 
HETATM   12  C10 UNL     1     -43.277   1.173  -2.577  1.00 20.00     0.042 C 
ENDBRANCH   9  10
ENDBRANCH   7   9
TORSDOF 2
ENDMDL
MODEL 6
REMARK VINA RESULT:      -4.5      1.629      4.306
REMARK  2 active torsions:
REMARK  status: ('A' for Active; 'I' for Inactive)
REMARK    1  A    between atoms: C3_3  and  C11_11 
REMARK    2  A    between atoms: C9_9  and  C11_11 
ROOT
HETATM    1  C1  UNL     1     -33.685  14.004  -3.861  1.00 20.00     0.127 C 
HETATM    2  C4  UNL     1     -33.032  15.368  -3.807  1.00 20.00     0.078 C 
HETATM    3  C5  UNL     1     -35.135  13.901  -4.306  1.00 20.00     0.083 C 
HETATM    4  C6  UNL     1     -33.542  16.247  -2.668  1.00 20.00     0.007 C 
HETATM    5  C7  UNL     1     -34.908  15.887  -2.089  1.00 20.00     0.001 C 
HETATM    6  C8  UNL     1     -36.079  15.942  -3.070  1.00 20.00     0.005 C 
HETATM    7  C9  UNL     1     -35.875  15.238  -4.423  1.00 20.00    -0.004 C 
HETATM    8  O12 UNL     1     -33.047  12.989  -3.572  1.00 20.00    -0.298 OA
ENDROOT
BRANCH   7   9
HETATM    9  C11 UNL     1     -37.231  15.031  -5.106  1.00 20.00     0.037 C 
BRANCH   9  10
HETATM   10  C3  UNL     1     -37.231  15.505  -6.534  1.00 20.00    -0.093 C 
HETATM   11  C2  UNL     1     -38.194  15.136  -7.393  1.00 20.00     0.014 C 
HETATM   12  C10 UNL     1     -36.083  16.371  -6.971  1.00 20.00     0.042 C 
ENDBRANCH   9  10
ENDBRANCH   7   9
TORSDOF 2
ENDMDL
MODEL 7
REMARK VINA RESULT:      -4.5      2.160      3.047
REMARK  2 active torsions:
REMARK  status: ('A' for Active; 'I' for Inactive)
REMARK    1  A    between atoms: C3_3  and  C11_11 
REMARK    2  A    between atoms: C9_9  and  C11_11 
ROOT
HETATM    1  C1  UNL     1     -35.227  17.856  -4.513  1.00 20.00     0.127 C 
HETATM    2  C4  UNL     1     -33.787  17.886  -4.973  1.00 20.00     0.078 C 
HETATM    3  C5  UNL     1     -35.540  17.370  -3.107  1.00 20.00     0.083 C 
HETATM    4  C6  UNL     1     -33.194  16.501  -5.220  1.00 20.00     0.007 C 
HETATM    5  C7  UNL     1     -33.888  15.329  -4.528  1.00 20.00     0.001 C 
HETATM    6  C8  UNL     1     -33.916  15.385  -3.000  1.00 20.00     0.005 C 
HETATM    7  C9  UNL     1     -34.366  16.715  -2.370  1.00 20.00    -0.004 C 
HETATM    8  O12 UNL     1     -36.133  18.244  -5.255  1.00 20.00    -0.298 OA
ENDROOT
BRANCH   7   9
HETATM    9  C11 UNL     1     -34.728  16.492  -0.898  1.00 20.00     0.037 C 
BRANCH   9  10
HETATM   10  C3  UNL     1     -34.239  17.606  -0.013  1.00 20.00    -0.093 C 
HETATM   11  C2  UNL     1     -34.879  17.928   1.122  1.00 20.00     0.014 C 
HETATM   12  C10 UNL     1     -33.033  18.374  -0.477  1.00 20.00     0.042 C 
ENDBRANCH   9  10
ENDBRANCH   7   9
TORSDOF 2
ENDMDL
MODEL 8
REMARK VINA RESULT:      -4.2      2.506      4.635
REMARK  2 active torsions:
REMARK  status: ('A' for Active; 'I' for Inactive)
REMARK    1  A    between atoms: C3_3  and  C11_11 
REMARK    2  A    between atoms: C9_9  and  C11_11 
ROOT
HETATM    1  C1  UNL     1     -34.524  17.282  -0.483  1.00 20.00     0.127 C 
HETATM    2  C4  UNL     1     -33.289  18.152  -0.570  1.00 20.00     0.078 C 
HETATM    3  C5  UNL     1     -34.689  16.139  -1.471  1.00 20.00     0.083 C 
HETATM    4  C6  UNL     1     -33.275  19.076  -1.784  1.00 20.00     0.007 C 
HETATM    5  C7  UNL     1     -34.172  18.678  -2.954  1.00 20.00     0.001 C 
HETATM    6  C8  UNL     1     -33.864  17.324  -3.593  1.00 20.00     0.005 C 
HETATM    7  C9  UNL     1     -33.687  16.135  -2.632  1.00 20.00    -0.004 C 
HETATM    8  O12 UNL     1     -35.373  17.479   0.390  1.00 20.00    -0.298 OA
ENDROOT
BRANCH   7   9
HETATM    9  C11 UNL     1     -33.792  14.821  -3.412  1.00 20.00     0.037 C 
BRANCH   9  10
HETATM   10  C3  UNL     1     -34.932  14.827  -4.394  1.00 20.00    -0.093 C 
HETATM   11  C2  UNL     1     -36.199  14.632  -3.996  1.00 20.00     0.014 C 
HETATM   12  C10 UNL     1     -34.589  15.015  -5.845  1.00 20.00     0.042 C 
ENDBRANCH   9  10
ENDBRANCH   7   9
TORSDOF 2
ENDMDL
MODEL 9
REMARK VINA RESULT:      -4.2      1.859      4.000
REMARK  2 active torsions:
REMARK  status: ('A' for Active; 'I' for Inactive)
REMARK    1  A    between atoms: C3_3  and  C11_11 
REMARK    2  A    between atoms: C9_9  and  C11_11 
ROOT
HETATM    1  C1  UNL     1     -34.416  13.675  -4.851  1.00 20.00     0.127 C 
HETATM    2  C4  UNL     1     -33.711  14.343  -3.691  1.00 20.00     0.078 C 
HETATM    3  C5  UNL     1     -34.758  14.504  -6.078  1.00 20.00     0.083 C 
HETATM    4  C6  UNL     1     -34.598  15.308  -2.908  1.00 20.00     0.007 C 
HETATM    5  C7  UNL     1     -35.828  15.845  -3.635  1.00 20.00     0.001 C 
HETATM    6  C8  UNL     1     -35.547  16.646  -4.907  1.00 20.00     0.005 C 
HETATM    7  C9  UNL     1     -34.569  16.016  -5.914  1.00 20.00    -0.004 C 
HETATM    8  O12 UNL     1     -34.687  12.473  -4.814  1.00 20.00    -0.298 OA
ENDROOT
BRANCH   7   9
HETATM    9  C11 UNL     1     -34.706  16.714  -7.271  1.00 20.00     0.037 C 
BRANCH   9  10
HETATM   10  C3  UNL     1     -34.689  18.213  -7.148  1.00 20.00    -0.093 C 
HETATM   11  C2  UNL     1     -33.646  18.858  -6.602  1.00 20.00     0.014 C 
HETATM   12  C10 UNL     1     -35.908  18.956  -7.620  1.00 20.00     0.042 C 
ENDBRANCH   9  10
ENDBRANCH   7   9
TORSDOF 2
ENDMDL
