MODEL 1
REMARK VINA RESULT:      -4.9      0.000      0.000
REMARK  2 active torsions:
REMARK  status: ('A' for Active; 'I' for Inactive)
REMARK    1  A    between atoms: C2_2  and  C9_9 
REMARK    2  A    between atoms: C6_6  and  C9_9 
ROOT
HETATM    1  C3  UNL     1     -34.803   5.268   3.306  1.00 20.00     0.006 C 
HETATM    2  C4  UNL     1     -35.775   4.972   4.440  1.00 20.00     0.020 C 
HETATM    3  C5  UNL     1     -34.019   6.293   5.396  1.00 20.00     0.025 C 
HETATM    4  C6  UNL     1     -33.878   6.358   3.864  1.00 20.00    -0.009 C 
HETATM    5  C7  UNL     1     -34.917   5.094   5.694  1.00 20.00     0.082 C 
HETATM    6 CL10 UNL     1     -33.936   3.620   5.938  1.00 20.00    -0.125 Cl
ENDROOT
BRANCH   4   7
HETATM    7  C9  UNL     1     -32.440   6.190   3.395  1.00 20.00     0.037 C 
BRANCH   7   8
HETATM    8  C2  UNL     1     -31.738   7.509   3.179  1.00 20.00    -0.093 C 
HETATM    9  C1  UNL     1     -30.944   8.043   4.120  1.00 20.00     0.014 C 
HETATM   10  C8  UNL     1     -31.994   8.215   1.879  1.00 20.00     0.042 C 
ENDBRANCH   7   8
ENDBRANCH   4   7
TORSDOF 2
ENDMDL
MODEL 2
REMARK VINA RESULT:      -4.8      0.158      1.121
REMARK  2 active torsions:
REMARK  status: ('A' for Active; 'I' for Inactive)
REMARK    1  A    between atoms: C2_2  and  C9_9 
REMARK    2  A    between atoms: C6_6  and  C9_9 
ROOT
HETATM    1  C3  UNL     1     -34.808   5.138   3.416  1.00 20.00     0.006 C 
HETATM    2  C4  UNL     1     -35.725   4.910   4.611  1.00 20.00     0.020 C 
HETATM    3  C5  UNL     1     -34.003   6.395   5.368  1.00 20.00     0.025 C 
HETATM    4  C6  UNL     1     -33.918   6.316   3.832  1.00 20.00    -0.009 C 
HETATM    5  C7  UNL     1     -34.832   5.191   5.812  1.00 20.00     0.082 C 
HETATM    6 CL10 UNL     1     -33.773   3.793   6.157  1.00 20.00    -0.125 Cl
ENDROOT
BRANCH   4   7
HETATM    7  C9  UNL     1     -32.490   6.169   3.326  1.00 20.00     0.037 C 
BRANCH   7   8
HETATM    8  C2  UNL     1     -31.813   7.497   3.089  1.00 20.00    -0.093 C 
HETATM    9  C1  UNL     1     -31.973   8.170   1.940  1.00 20.00     0.014 C 
HETATM   10  C8  UNL     1     -30.925   8.015   4.183  1.00 20.00     0.042 C 
ENDBRANCH   7   8
ENDBRANCH   4   7
TORSDOF 2
ENDMDL
MODEL 3
REMARK VINA RESULT:      -4.5     11.791     12.392
REMARK  2 active torsions:
REMARK  status: ('A' for Active; 'I' for Inactive)
REMARK    1  A    between atoms: C2_2  and  C9_9 
REMARK    2  A    between atoms: C6_6  and  C9_9 
ROOT
HETATM    1  C3  UNL     1     -35.761  15.020  -3.449  1.00 20.00     0.006 C 
HETATM    2  C4  UNL     1     -35.712  13.709  -4.222  1.00 20.00     0.020 C 
HETATM    3  C5  UNL     1     -33.433  14.310  -3.786  1.00 20.00     0.025 C 
HETATM    4  C6  UNL     1     -34.333  15.210  -2.919  1.00 20.00    -0.009 C 
HETATM    5  C7  UNL     1     -34.333  13.723  -4.871  1.00 20.00     0.082 C 
HETATM    6 CL10 UNL     1     -34.326  14.763  -6.324  1.00 20.00    -0.125 Cl
ENDROOT
BRANCH   4   7
HETATM    7  C9  UNL     1     -33.901  16.669  -2.934  1.00 20.00     0.037 C 
BRANCH   7   8
HETATM    8  C2  UNL     1     -33.968  17.313  -1.571  1.00 20.00    -0.093 C 
HETATM    9  C1  UNL     1     -34.634  16.739  -0.557  1.00 20.00     0.014 C 
HETATM   10  C8  UNL     1     -33.287  18.641  -1.407  1.00 20.00     0.042 C 
ENDBRANCH   7   8
ENDBRANCH   4   7
TORSDOF 2
ENDMDL
MODEL 4
REMARK VINA RESULT:      -4.4     11.774     12.410
REMARK  2 active torsions:
REMARK  status: ('A' for Active; 'I' for Inactive)
REMARK    1  A    between atoms: C2_2  and  C9_9 
REMARK    2  A    between atoms: C6_6  and  C9_9 
ROOT
HETATM    1  C3  UNL     1     -35.779  15.139  -3.474  1.00 20.00     0.006 C 
HETATM    2  C4  UNL     1     -35.831  13.801  -4.199  1.00 20.00     0.020 C 
HETATM    3  C5  UNL     1     -33.513  14.239  -3.774  1.00 20.00     0.025 C 
HETATM    4  C6  UNL     1     -34.342  15.237  -2.944  1.00 20.00    -0.009 C 
HETATM    5  C7  UNL     1     -34.454  13.683  -4.841  1.00 20.00     0.082 C 
HETATM    6 CL10 UNL     1     -34.363  14.666  -6.331  1.00 20.00    -0.125 Cl
ENDROOT
BRANCH   4   7
HETATM    7  C9  UNL     1     -33.798  16.656  -3.010  1.00 20.00     0.037 C 
BRANCH   7   8
HETATM    8  C2  UNL     1     -33.915  17.389  -1.696  1.00 20.00    -0.093 C 
HETATM    9  C1  UNL     1     -33.368  18.601  -1.518  1.00 20.00     0.014 C 
HETATM   10  C8  UNL     1     -34.642  16.688  -0.584  1.00 20.00     0.042 C 
ENDBRANCH   7   8
ENDBRANCH   4   7
TORSDOF 2
ENDMDL
MODEL 5
REMARK VINA RESULT:      -4.2      9.452     11.324
REMARK  2 active torsions:
REMARK  status: ('A' for Active; 'I' for Inactive)
REMARK    1  A    between atoms: C2_2  and  C9_9 
REMARK    2  A    between atoms: C6_6  and  C9_9 
ROOT
HETATM    1  C3  UNL     1     -42.346   5.622  -2.569  1.00 20.00     0.006 C 
HETATM    2  C4  UNL     1     -41.485   6.587  -1.765  1.00 20.00     0.020 C 
HETATM    3  C5  UNL     1     -40.783   4.385  -1.132  1.00 20.00     0.025 C 
HETATM    4  C6  UNL     1     -41.671   4.256  -2.384  1.00 20.00    -0.009 C 
HETATM    5  C7  UNL     1     -41.061   5.770  -0.551  1.00 20.00     0.082 C 
HETATM    6 CL10 UNL     1     -42.378   5.693   0.654  1.00 20.00    -0.125 Cl
ENDROOT
BRANCH   4   7
HETATM    7  C9  UNL     1     -42.680   3.122  -2.280  1.00 20.00     0.037 C 
BRANCH   7   8
HETATM    8  C2  UNL     1     -42.284   1.910  -3.087  1.00 20.00    -0.093 C 
HETATM    9  C1  UNL     1     -41.249   1.945  -3.941  1.00 20.00     0.014 C 
HETATM   10  C8  UNL     1     -43.118   0.673  -2.918  1.00 20.00     0.042 C 
ENDBRANCH   7   8
ENDBRANCH   4   7
TORSDOF 2
ENDMDL
MODEL 6
REMARK VINA RESULT:      -4.2     11.578     12.693
REMARK  2 active torsions:
REMARK  status: ('A' for Active; 'I' for Inactive)
REMARK    1  A    between atoms: C2_2  and  C9_9 
REMARK    2  A    between atoms: C6_6  and  C9_9 
ROOT
HETATM    1  C3  UNL     1     -33.835  17.528  -3.009  1.00 20.00     0.006 C 
HETATM    2  C4  UNL     1     -33.672  18.589  -1.929  1.00 20.00     0.020 C 
HETATM    3  C5  UNL     1     -34.545  16.648  -0.828  1.00 20.00     0.025 C 
HETATM    4  C6  UNL     1     -34.088  16.226  -2.236  1.00 20.00    -0.009 C 
HETATM    5  C7  UNL     1     -34.669  18.170  -0.856  1.00 20.00     0.082 C 
HETATM    6 CL10 UNL     1     -36.328  18.657  -1.305  1.00 20.00    -0.125 Cl
ENDROOT
BRANCH   4   7
HETATM    7  C9  UNL     1     -35.092  15.324  -2.938  1.00 20.00     0.037 C 
BRANCH   7   8
HETATM    8  C2  UNL     1     -34.437  14.173  -3.663  1.00 20.00    -0.093 C 
HETATM    9  C1  UNL     1     -35.158  13.289  -4.371  1.00 20.00     0.014 C 
HETATM   10  C8  UNL     1     -32.947  14.040  -3.531  1.00 20.00     0.042 C 
ENDBRANCH   7   8
ENDBRANCH   4   7
TORSDOF 2
ENDMDL
MODEL 7
REMARK VINA RESULT:      -4.1     11.872     12.826
REMARK  2 active torsions:
REMARK  status: ('A' for Active; 'I' for Inactive)
REMARK    1  A    between atoms: C2_2  and  C9_9 
REMARK    2  A    between atoms: C6_6  and  C9_9 
ROOT
HETATM    1  C3  UNL     1     -33.370  16.292  -4.533  1.00 20.00     0.006 C 
HETATM    2  C4  UNL     1     -34.062  15.758  -5.780  1.00 20.00     0.020 C 
HETATM    3  C5  UNL     1     -35.644  15.532  -3.994  1.00 20.00     0.025 C 
HETATM    4  C6  UNL     1     -34.494  16.427  -3.496  1.00 20.00    -0.009 C 
HETATM    5  C7  UNL     1     -35.117  14.806  -5.230  1.00 20.00     0.082 C 
HETATM    6 CL10 UNL     1     -34.385  13.241  -4.774  1.00 20.00    -0.125 Cl
ENDROOT
BRANCH   4   7
HETATM    7  C9  UNL     1     -34.030  16.068  -2.092  1.00 20.00     0.037 C 
BRANCH   7   8
HETATM    8  C2  UNL     1     -34.125  17.227  -1.130  1.00 20.00    -0.093 C 
HETATM    9  C1  UNL     1     -34.879  17.159  -0.022  1.00 20.00     0.014 C 
HETATM   10  C8  UNL     1     -33.366  18.473  -1.484  1.00 20.00     0.042 C 
ENDBRANCH   7   8
ENDBRANCH   4   7
TORSDOF 2
ENDMDL
MODEL 8
REMARK VINA RESULT:      -4.1     11.829     12.771
REMARK  2 active torsions:
REMARK  status: ('A' for Active; 'I' for Inactive)
REMARK    1  A    between atoms: C2_2  and  C9_9 
REMARK    2  A    between atoms: C6_6  and  C9_9 
ROOT
HETATM    1  C3  UNL     1     -33.389  16.066  -4.409  1.00 20.00     0.006 C 
HETATM    2  C4  UNL     1     -34.062  15.570  -5.682  1.00 20.00     0.020 C 
HETATM    3  C5  UNL     1     -35.777  15.651  -4.011  1.00 20.00     0.025 C 
HETATM    4  C6  UNL     1     -34.550  16.405  -3.465  1.00 20.00    -0.009 C 
HETATM    5  C7  UNL     1     -35.274  14.800  -5.175  1.00 20.00     0.082 C 
HETATM    6 CL10 UNL     1     -34.800  13.174  -4.604  1.00 20.00    -0.125 Cl
ENDROOT
BRANCH   4   7
HETATM    7  C9  UNL     1     -34.238  16.055  -2.017  1.00 20.00     0.037 C 
BRANCH   7   8
HETATM    8  C2  UNL     1     -34.161  17.271  -1.125  1.00 20.00    -0.093 C 
HETATM    9  C1  UNL     1     -33.423  18.340  -1.460  1.00 20.00     0.014 C 
HETATM   10  C8  UNL     1     -34.920  17.218   0.169  1.00 20.00     0.042 C 
ENDBRANCH   7   8
ENDBRANCH   4   7
TORSDOF 2
ENDMDL
MODEL 9
REMARK VINA RESULT:      -4.0      9.514     11.389
REMARK  2 active torsions:
REMARK  status: ('A' for Active; 'I' for Inactive)
REMARK    1  A    between atoms: C2_2  and  C9_9 
REMARK    2  A    between atoms: C6_6  and  C9_9 
ROOT
HETATM    1  C3  UNL     1     -40.800   4.602  -1.199  1.00 20.00     0.006 C 
HETATM    2  C4  UNL     1     -40.913   5.733  -0.185  1.00 20.00     0.020 C 
HETATM    3  C5  UNL     1     -43.145   5.281  -0.930  1.00 20.00     0.025 C 
HETATM    4  C6  UNL     1     -42.244   4.130  -1.414  1.00 20.00    -0.009 C 
HETATM    5  C7  UNL     1     -42.211   6.434  -0.567  1.00 20.00     0.082 C 
HETATM    6 CL10 UNL     1     -41.963   7.507  -1.974  1.00 20.00    -0.125 Cl
ENDROOT
BRANCH   4   7
HETATM    7  C9  UNL     1     -42.514   3.736  -2.859  1.00 20.00     0.037 C 
BRANCH   7   8
HETATM    8  C2  UNL     1     -42.289   2.266  -3.116  1.00 20.00    -0.093 C 
HETATM    9  C1  UNL     1     -41.273   1.835  -3.879  1.00 20.00     0.014 C 
HETATM   10  C8  UNL     1     -43.273   1.308  -2.509  1.00 20.00     0.042 C 
ENDBRANCH   7   8
ENDBRANCH   4   7
TORSDOF 2
ENDMDL
