MODEL 1
REMARK VINA RESULT:      -3.5      0.000      0.000
REMARK  4 active torsions:
REMARK  status: ('A' for Active; 'I' for Inactive)
REMARK    1  A    between atoms: C2_2  and  C7_7 
REMARK    2  A    between atoms: C6_6  and  C7_7 
REMARK    3  A    between atoms: C6_6  and  S9_9 
REMARK    4  A    between atoms: C7_7  and  N8_8 
ROOT
HETATM    1  C7  UNL     1     -34.038   6.320   4.201  1.00 20.00     0.257 C 
ENDROOT
BRANCH   1   2
HETATM    2  C2  UNL     1     -34.184   5.948   5.669  1.00 20.00    -0.060 C 
HETATM    3  C1  UNL     1     -33.824   6.806   6.638  1.00 20.00     0.016 C 
HETATM    4  C3  UNL     1     -34.741   4.594   6.017  1.00 20.00     0.044 C 
ENDBRANCH   1   2
BRANCH   1   5
HETATM    5  C6  UNL     1     -32.619   6.114   3.637  1.00 20.00     0.113 C 
BRANCH   5   6
HETATM    6  S9  UNL     1     -31.647   7.655   3.602  1.00 20.00    -0.171 SA
HETATM    7  C5  UNL     1     -32.102   8.209   1.944  1.00 20.00     0.089 C 
ENDBRANCH   5   6
ENDBRANCH   1   5
BRANCH   1   8
HETATM    8  N8  UNL     1     -34.993   5.566   3.375  1.00 20.00     0.088 N 
HETATM    9  C4  UNL     1     -34.327   5.003   2.215  1.00 20.00     0.307 C 
HETATM   10  H24 UNL     1     -35.390   4.822   3.940  1.00 20.00     0.316 HD
ENDBRANCH   1   8
TORSDOF 4
ENDMDL
MODEL 2
REMARK VINA RESULT:      -3.3     11.772     12.505
REMARK  4 active torsions:
REMARK  status: ('A' for Active; 'I' for Inactive)
REMARK    1  A    between atoms: C2_2  and  C7_7 
REMARK    2  A    between atoms: C6_6  and  C7_7 
REMARK    3  A    between atoms: C6_6  and  S9_9 
REMARK    4  A    between atoms: C7_7  and  N8_8 
ROOT
HETATM    1  C7  UNL     1     -34.518  15.057  -2.957  1.00 20.00     0.257 C 
ENDROOT
BRANCH   1   2
HETATM    2  C2  UNL     1     -35.362  14.224  -3.911  1.00 20.00    -0.060 C 
HETATM    3  C1  UNL     1     -34.812  13.237  -4.637  1.00 20.00     0.016 C 
HETATM    4  C3  UNL     1     -36.832  14.529  -4.026  1.00 20.00     0.044 C 
ENDBRANCH   1   2
BRANCH   1   5
HETATM    5  C6  UNL     1     -33.394  15.856  -3.644  1.00 20.00     0.113 C 
BRANCH   5   6
HETATM    6  S9  UNL     1     -34.011  16.920  -4.989  1.00 20.00    -0.171 SA
HETATM    7  C5  UNL     1     -33.673  18.522  -4.225  1.00 20.00     0.089 C 
ENDBRANCH   5   6
ENDBRANCH   1   5
BRANCH   1   8
HETATM    8  N8  UNL     1     -35.363  15.985  -2.189  1.00 20.00     0.088 N 
HETATM    9  C4  UNL     1     -34.617  16.549  -1.080  1.00 20.00     0.307 C 
HETATM   10  H24 UNL     1     -35.673  16.726  -2.809  1.00 20.00     0.316 HD
ENDBRANCH   1   8
TORSDOF 4
ENDMDL
MODEL 3
REMARK VINA RESULT:      -3.3     11.925     12.504
REMARK  4 active torsions:
REMARK  status: ('A' for Active; 'I' for Inactive)
REMARK    1  A    between atoms: C2_2  and  C7_7 
REMARK    2  A    between atoms: C6_6  and  C7_7 
REMARK    3  A    between atoms: C6_6  and  S9_9 
REMARK    4  A    between atoms: C7_7  and  N8_8 
ROOT
HETATM    1  C7  UNL     1     -35.675  15.367  -3.763  1.00 20.00     0.257 C 
ENDROOT
BRANCH   1   2
HETATM    2  C2  UNL     1     -34.466  15.657  -2.884  1.00 20.00    -0.060 C 
HETATM    3  C1  UNL     1     -33.222  15.376  -3.307  1.00 20.00     0.016 C 
HETATM    4  C3  UNL     1     -34.692  16.266  -1.526  1.00 20.00     0.044 C 
ENDBRANCH   1   2
BRANCH   1   5
HETATM    5  C6  UNL     1     -35.569  14.058  -4.568  1.00 20.00     0.113 C 
BRANCH   5   6
HETATM    6  S9  UNL     1     -35.211  14.346  -6.331  1.00 20.00    -0.171 SA
HETATM    7  C5  UNL     1     -35.597  16.110  -6.387  1.00 20.00     0.089 C 
ENDBRANCH   5   6
ENDBRANCH   1   5
BRANCH   1   8
HETATM    8  N8  UNL     1     -36.906  15.333  -2.958  1.00 20.00     0.088 N 
HETATM    9  C4  UNL     1     -38.027  14.892  -3.767  1.00 20.00     0.307 C 
HETATM   10  H24 UNL     1     -36.767  14.694  -2.183  1.00 20.00     0.316 HD
ENDBRANCH   1   8
TORSDOF 4
ENDMDL
MODEL 4
REMARK VINA RESULT:      -3.3     11.931     13.167
REMARK  4 active torsions:
REMARK  status: ('A' for Active; 'I' for Inactive)
REMARK    1  A    between atoms: C2_2  and  C7_7 
REMARK    2  A    between atoms: C6_6  and  C7_7 
REMARK    3  A    between atoms: C6_6  and  S9_9 
REMARK    4  A    between atoms: C7_7  and  N8_8 
ROOT
HETATM    1  C7  UNL     1     -34.186  15.646  -4.642  1.00 20.00     0.257 C 
ENDROOT
BRANCH   1   2
HETATM    2  C2  UNL     1     -34.586  14.394  -5.410  1.00 20.00    -0.060 C 
HETATM    3  C1  UNL     1     -34.700  13.208  -4.788  1.00 20.00     0.016 C 
HETATM    4  C3  UNL     1     -34.853  14.510  -6.887  1.00 20.00     0.044 C 
ENDBRANCH   1   2
BRANCH   1   5
HETATM    5  C6  UNL     1     -33.709  15.376  -3.202  1.00 20.00     0.113 C 
BRANCH   5   6
HETATM    6  S9  UNL     1     -34.787  16.145  -1.950  1.00 20.00    -0.171 SA
HETATM    7  C5  UNL     1     -33.628  17.392  -1.345  1.00 20.00     0.089 C 
ENDBRANCH   5   6
ENDBRANCH   1   5
BRANCH   1   8
HETATM    8  N8  UNL     1     -33.136  16.383  -5.361  1.00 20.00     0.088 N 
HETATM    9  C4  UNL     1     -33.469  17.794  -5.435  1.00 20.00     0.307 C 
HETATM   10  H24 UNL     1     -32.259  16.261  -4.866  1.00 20.00     0.316 HD
ENDBRANCH   1   8
TORSDOF 4
ENDMDL
MODEL 5
REMARK VINA RESULT:      -3.2     11.724     13.113
REMARK  4 active torsions:
REMARK  status: ('A' for Active; 'I' for Inactive)
REMARK    1  A    between atoms: C2_2  and  C7_7 
REMARK    2  A    between atoms: C6_6  and  C7_7 
REMARK    3  A    between atoms: C6_6  and  S9_9 
REMARK    4  A    between atoms: C7_7  and  N8_8 
ROOT
HETATM    1  C7  UNL     1     -33.791  16.021  -4.009  1.00 20.00     0.257 C 
ENDROOT
BRANCH   1   2
HETATM    2  C2  UNL     1     -33.998  16.912  -2.792  1.00 20.00    -0.060 C 
HETATM    3  C1  UNL     1     -33.708  18.223  -2.838  1.00 20.00     0.016 C 
HETATM    4  C3  UNL     1     -34.536  16.293  -1.529  1.00 20.00     0.044 C 
ENDBRANCH   1   2
BRANCH   1   5
HETATM    5  C6  UNL     1     -33.373  16.780  -5.282  1.00 20.00     0.113 C 
BRANCH   5   6
HETATM    6  S9  UNL     1     -34.662  16.752  -6.570  1.00 20.00    -0.171 SA
HETATM    7  C5  UNL     1     -34.416  15.056  -7.142  1.00 20.00     0.089 C 
ENDBRANCH   5   6
ENDBRANCH   1   5
BRANCH   1   8
HETATM    8  N8  UNL     1     -32.792  14.979  -3.726  1.00 20.00     0.088 N 
HETATM    9  C4  UNL     1     -33.390  13.661  -3.834  1.00 20.00     0.307 C 
HETATM   10  H24 UNL     1     -32.034  15.069  -4.394  1.00 20.00     0.316 HD
ENDBRANCH   1   8
TORSDOF 4
ENDMDL
MODEL 6
REMARK VINA RESULT:      -3.2     11.567     12.266
REMARK  4 active torsions:
REMARK  status: ('A' for Active; 'I' for Inactive)
REMARK    1  A    between atoms: C2_2  and  C7_7 
REMARK    2  A    between atoms: C6_6  and  C7_7 
REMARK    3  A    between atoms: C6_6  and  S9_9 
REMARK    4  A    between atoms: C7_7  and  N8_8 
ROOT
HETATM    1  C7  UNL     1     -35.218  14.618  -3.213  1.00 20.00     0.257 C 
ENDROOT
BRANCH   1   2
HETATM    2  C2  UNL     1     -34.405  15.823  -2.760  1.00 20.00    -0.060 C 
HETATM    3  C1  UNL     1     -34.536  16.316  -1.517  1.00 20.00     0.016 C 
HETATM    4  C3  UNL     1     -33.448  16.455  -3.735  1.00 20.00     0.044 C 
ENDBRANCH   1   2
BRANCH   1   5
HETATM    5  C6  UNL     1     -36.160  14.904  -4.398  1.00 20.00     0.113 C 
BRANCH   5   6
HETATM    6  S9  UNL     1     -37.917  14.888  -3.917  1.00 20.00    -0.171 SA
HETATM    7  C5  UNL     1     -38.047  16.602  -3.361  1.00 20.00     0.089 C 
ENDBRANCH   5   6
ENDBRANCH   1   5
BRANCH   1   8
HETATM    8  N8  UNL     1     -34.333  13.497  -3.566  1.00 20.00     0.088 N 
HETATM    9  C4  UNL     1     -34.524  13.120  -4.954  1.00 20.00     0.307 C 
HETATM   10  H24 UNL     1     -33.372  13.786  -3.416  1.00 20.00     0.316 HD
ENDBRANCH   1   8
TORSDOF 4
ENDMDL
MODEL 7
REMARK VINA RESULT:      -3.2      1.363      2.367
REMARK  4 active torsions:
REMARK  status: ('A' for Active; 'I' for Inactive)
REMARK    1  A    between atoms: C2_2  and  C7_7 
REMARK    2  A    between atoms: C6_6  and  C7_7 
REMARK    3  A    between atoms: C6_6  and  S9_9 
REMARK    4  A    between atoms: C7_7  and  N8_8 
ROOT
HETATM    1  C7  UNL     1     -33.515   5.825   4.496  1.00 20.00     0.257 C 
ENDROOT
BRANCH   1   2
HETATM    2  C2  UNL     1     -34.860   5.113   4.461  1.00 20.00    -0.060 C 
HETATM    3  C1  UNL     1     -35.864   5.571   3.694  1.00 20.00     0.016 C 
HETATM    4  C3  UNL     1     -35.046   3.881   5.306  1.00 20.00     0.044 C 
ENDBRANCH   1   2
BRANCH   1   5
HETATM    5  C6  UNL     1     -32.964   6.199   3.107  1.00 20.00     0.113 C 
BRANCH   5   6
HETATM    6  S9  UNL     1     -31.651   7.461   3.190  1.00 20.00    -0.171 SA
HETATM    7  C5  UNL     1     -32.119   8.414   1.728  1.00 20.00     0.089 C 
ENDBRANCH   5   6
ENDBRANCH   1   5
BRANCH   1   8
HETATM    8  N8  UNL     1     -33.592   7.040   5.322  1.00 20.00     0.088 N 
HETATM    9  C4  UNL     1     -33.921   6.700   6.694  1.00 20.00     0.307 C 
HETATM   10  H24 UNL     1     -32.692   7.508   5.289  1.00 20.00     0.316 HD
ENDBRANCH   1   8
TORSDOF 4
ENDMDL
MODEL 8
REMARK VINA RESULT:      -3.2     11.587     12.798
REMARK  4 active torsions:
REMARK  status: ('A' for Active; 'I' for Inactive)
REMARK    1  A    between atoms: C2_2  and  C7_7 
REMARK    2  A    between atoms: C6_6  and  C7_7 
REMARK    3  A    between atoms: C6_6  and  S9_9 
REMARK    4  A    between atoms: C7_7  and  N8_8 
ROOT
HETATM    1  C7  UNL     1     -34.468  15.832  -4.756  1.00 20.00     0.257 C 
ENDROOT
BRANCH   1   2
HETATM    2  C2  UNL     1     -35.046  14.565  -4.143  1.00 20.00    -0.060 C 
HETATM    3  C1  UNL     1     -34.243  13.596  -3.673  1.00 20.00     0.016 C 
HETATM    4  C3  UNL     1     -36.543  14.417  -4.072  1.00 20.00     0.044 C 
ENDBRANCH   1   2
BRANCH   1   5
HETATM    5  C6  UNL     1     -33.699  16.721  -3.760  1.00 20.00     0.113 C 
BRANCH   5   6
HETATM    6  S9  UNL     1     -34.803  17.606  -2.612  1.00 20.00    -0.171 SA
HETATM    7  C5  UNL     1     -34.525  16.584  -1.149  1.00 20.00     0.089 C 
ENDBRANCH   5   6
ENDBRANCH   1   5
BRANCH   1   8
HETATM    8  N8  UNL     1     -33.583  15.506  -5.885  1.00 20.00     0.088 N 
HETATM    9  C4  UNL     1     -34.365  15.182  -7.064  1.00 20.00     0.307 C 
HETATM   10  H24 UNL     1     -32.991  16.308  -6.074  1.00 20.00     0.316 HD
ENDBRANCH   1   8
TORSDOF 4
ENDMDL
MODEL 9
REMARK VINA RESULT:      -3.2     11.800     12.720
REMARK  4 active torsions:
REMARK  status: ('A' for Active; 'I' for Inactive)
REMARK    1  A    between atoms: C2_2  and  C7_7 
REMARK    2  A    between atoms: C6_6  and  C7_7 
REMARK    3  A    between atoms: C6_6  and  S9_9 
REMARK    4  A    between atoms: C7_7  and  N8_8 
ROOT
HETATM    1  C7  UNL     1     -33.856  16.587  -3.026  1.00 20.00     0.257 C 
ENDROOT
BRANCH   1   2
HETATM    2  C2  UNL     1     -33.942  17.370  -1.723  1.00 20.00    -0.060 C 
HETATM    3  C1  UNL     1     -33.390  18.590  -1.613  1.00 20.00     0.016 C 
HETATM    4  C3  UNL     1     -34.659  16.749  -0.554  1.00 20.00     0.044 C 
ENDBRANCH   1   2
BRANCH   1   5
HETATM    5  C6  UNL     1     -34.557  15.217  -2.984  1.00 20.00     0.113 C 
BRANCH   5   6
HETATM    6  S9  UNL     1     -33.571  13.899  -3.767  1.00 20.00    -0.171 SA
HETATM    7  C5  UNL     1     -34.800  13.333  -4.962  1.00 20.00     0.089 C 
ENDBRANCH   5   6
ENDBRANCH   1   5
BRANCH   1   8
HETATM    8  N8  UNL     1     -34.407  17.372  -4.141  1.00 20.00     0.088 N 
HETATM    9  C4  UNL     1     -33.465  17.414  -5.244  1.00 20.00     0.307 C 
HETATM   10  H24 UNL     1     -35.273  16.938  -4.443  1.00 20.00     0.316 HD
ENDBRANCH   1   8
TORSDOF 4
ENDMDL
