MODEL 1
REMARK VINA RESULT:      -5.1      0.000      0.000
REMARK  4 active torsions:
REMARK  status: ('A' for Active; 'I' for Inactive)
REMARK    1  A    between atoms: C3_3  and  C5_5 
REMARK    2  A    between atoms: C3_3  and  O8_8 
REMARK    3  A    between atoms: C5_5  and  C6_6 
REMARK    4  A    between atoms: C6_6  and  C7_7 
ROOT
HETATM    1  C1  UNL     1     -32.252   5.694   3.171  1.00 20.00     0.045 A 
HETATM    2  C2  UNL     1     -32.028   7.170   3.374  1.00 20.00     0.019 A 
HETATM    3  C3  UNL     1     -33.238   6.500   3.979  1.00 20.00     0.062 A 
HETATM    4  C4  UNL     1     -32.150   8.110   2.224  1.00 20.00     0.013 C 
ENDROOT
BRANCH   3   5
HETATM    5  C5  UNL     1     -33.322   6.307   5.456  1.00 20.00     0.047 C 
BRANCH   5   6
HETATM    6  C6  UNL     1     -34.710   5.837   5.894  1.00 20.00     0.120 C 
BRANCH   6   7
HETATM    7  C7  UNL     1     -34.848   4.333   5.835  1.00 20.00     0.388 C 
HETATM    8  F9  UNL     1     -35.277   3.925   4.621  1.00 20.00    -0.171 F 
HETATM    9  F10 UNL     1     -33.673   3.720   6.091  1.00 20.00    -0.171 F 
HETATM   10  F11 UNL     1     -35.744   3.902   6.752  1.00 20.00    -0.171 F 
ENDBRANCH   6   7
ENDBRANCH   5   6
ENDBRANCH   3   5
BRANCH   3  11
HETATM   11  O8  UNL     1     -34.509   6.743   3.354  1.00 20.00    -0.389 OA
HETATM   12  H22 UNL     1     -34.310   7.049   2.460  1.00 20.00     0.210 HD
ENDBRANCH   3  11
TORSDOF 4
ENDMDL
MODEL 2
REMARK VINA RESULT:      -5.1      1.242      1.741
REMARK  4 active torsions:
REMARK  status: ('A' for Active; 'I' for Inactive)
REMARK    1  A    between atoms: C3_3  and  C5_5 
REMARK    2  A    between atoms: C3_3  and  O8_8 
REMARK    3  A    between atoms: C5_5  and  C6_6 
REMARK    4  A    between atoms: C6_6  and  C7_7 
ROOT
HETATM    1  C1  UNL     1     -31.596   7.621   3.774  1.00 20.00     0.045 A 
HETATM    2  C2  UNL     1     -32.383   8.141   2.600  1.00 20.00     0.019 A 
HETATM    3  C3  UNL     1     -32.693   6.780   3.174  1.00 20.00     0.062 A 
HETATM    4  C4  UNL     1     -31.729   8.297   1.270  1.00 20.00     0.013 C 
ENDROOT
BRANCH   3   5
HETATM    5  C5  UNL     1     -33.961   6.561   3.931  1.00 20.00     0.047 C 
BRANCH   5   6
HETATM    6  C6  UNL     1     -33.781   5.559   5.072  1.00 20.00     0.120 C 
BRANCH   6   7
HETATM    7  C7  UNL     1     -35.029   4.742   5.316  1.00 20.00     0.388 C 
HETATM    8  F9  UNL     1     -34.779   3.419   5.216  1.00 20.00    -0.171 F 
HETATM    9  F10 UNL     1     -35.540   4.978   6.543  1.00 20.00    -0.171 F 
HETATM   10  F11 UNL     1     -35.982   5.049   4.409  1.00 20.00    -0.171 F 
ENDBRANCH   6   7
ENDBRANCH   5   6
ENDBRANCH   3   5
BRANCH   3  11
HETATM   11  O8  UNL     1     -32.264   5.632   2.422  1.00 20.00    -0.389 OA
HETATM   12  H22 UNL     1     -31.616   5.180   2.978  1.00 20.00     0.210 HD
ENDBRANCH   3  11
TORSDOF 4
ENDMDL
MODEL 3
REMARK VINA RESULT:      -5.1      1.244      1.522
REMARK  4 active torsions:
REMARK  status: ('A' for Active; 'I' for Inactive)
REMARK    1  A    between atoms: C3_3  and  C5_5 
REMARK    2  A    between atoms: C3_3  and  O8_8 
REMARK    3  A    between atoms: C5_5  and  C6_6 
REMARK    4  A    between atoms: C6_6  and  C7_7 
ROOT
HETATM    1  C1  UNL     1     -31.599   7.625   3.772  1.00 20.00     0.045 A 
HETATM    2  C2  UNL     1     -32.392   8.155   2.606  1.00 20.00     0.019 A 
HETATM    3  C3  UNL     1     -32.700   6.789   3.170  1.00 20.00     0.062 A 
HETATM    4  C4  UNL     1     -31.743   8.320   1.274  1.00 20.00     0.013 C 
ENDROOT
BRANCH   3   5
HETATM    5  C5  UNL     1     -33.964   6.565   3.931  1.00 20.00     0.047 C 
BRANCH   5   6
HETATM    6  C6  UNL     1     -33.780   5.552   5.062  1.00 20.00     0.120 C 
BRANCH   6   7
HETATM    7  C7  UNL     1     -35.029   4.734   5.303  1.00 20.00     0.388 C 
HETATM    8  F9  UNL     1     -35.997   5.039   4.413  1.00 20.00    -0.171 F 
HETATM    9  F10 UNL     1     -34.777   3.411   5.207  1.00 20.00    -0.171 F 
HETATM   10  F11 UNL     1     -35.519   4.969   6.540  1.00 20.00    -0.171 F 
ENDBRANCH   6   7
ENDBRANCH   5   6
ENDBRANCH   3   5
BRANCH   3  11
HETATM   11  O8  UNL     1     -32.274   5.647   2.409  1.00 20.00    -0.389 OA
HETATM   12  H22 UNL     1     -33.048   5.361   1.906  1.00 20.00     0.210 HD
ENDBRANCH   3  11
TORSDOF 4
ENDMDL
MODEL 4
REMARK VINA RESULT:      -4.9      3.379      4.849
REMARK  4 active torsions:
REMARK  status: ('A' for Active; 'I' for Inactive)
REMARK    1  A    between atoms: C3_3  and  C5_5 
REMARK    2  A    between atoms: C3_3  and  O8_8 
REMARK    3  A    between atoms: C5_5  and  C6_6 
REMARK    4  A    between atoms: C6_6  and  C7_7 
ROOT
HETATM    1  C1  UNL     1     -34.115   6.469   5.943  1.00 20.00     0.045 A 
HETATM    2  C2  UNL     1     -34.007   4.979   5.753  1.00 20.00     0.019 A 
HETATM    3  C3  UNL     1     -33.936   5.899   4.559  1.00 20.00     0.062 A 
HETATM    4  C4  UNL     1     -35.191   4.106   5.996  1.00 20.00     0.013 C 
ENDROOT
BRANCH   3   5
HETATM    5  C5  UNL     1     -32.642   6.087   3.840  1.00 20.00     0.047 C 
BRANCH   5   6
HETATM    6  C6  UNL     1     -32.838   6.737   2.469  1.00 20.00     0.120 C 
BRANCH   6   7
HETATM    7  C7  UNL     1     -32.087   8.043   2.344  1.00 20.00     0.388 C 
HETATM    8  F9  UNL     1     -31.361   8.087   1.207  1.00 20.00    -0.171 F 
HETATM    9  F10 UNL     1     -32.930   9.097   2.341  1.00 20.00    -0.171 F 
HETATM   10  F11 UNL     1     -31.235   8.202   3.381  1.00 20.00    -0.171 F 
ENDBRANCH   6   7
ENDBRANCH   5   6
ENDBRANCH   3   5
BRANCH   3  11
HETATM   11  O8  UNL     1     -35.088   5.961   3.702  1.00 20.00    -0.389 OA
HETATM   12  H22 UNL     1     -35.511   6.809   3.890  1.00 20.00     0.210 HD
ENDBRANCH   3  11
TORSDOF 4
ENDMDL
MODEL 5
REMARK VINA RESULT:      -4.4     12.114     13.040
REMARK  4 active torsions:
REMARK  status: ('A' for Active; 'I' for Inactive)
REMARK    1  A    between atoms: C3_3  and  C5_5 
REMARK    2  A    between atoms: C3_3  and  O8_8 
REMARK    3  A    between atoms: C5_5  and  C6_6 
REMARK    4  A    between atoms: C6_6  and  C7_7 
ROOT
HETATM    1  C1  UNL     1     -33.734  18.172  -2.637  1.00 20.00     0.045 A 
HETATM    2  C2  UNL     1     -33.739  16.881  -1.861  1.00 20.00     0.019 A 
HETATM    3  C3  UNL     1     -34.206  16.901  -3.296  1.00 20.00     0.062 A 
HETATM    4  C4  UNL     1     -34.693  16.690  -0.732  1.00 20.00     0.013 C 
ENDROOT
BRANCH   3   5
HETATM    5  C5  UNL     1     -33.377  16.262  -4.359  1.00 20.00     0.047 C 
BRANCH   5   6
HETATM    6  C6  UNL     1     -34.082  15.060  -4.990  1.00 20.00     0.120 C 
BRANCH   6   7
HETATM    7  C7  UNL     1     -33.867  13.791  -4.196  1.00 20.00     0.388 C 
HETATM    8  F9  UNL     1     -34.049  12.694  -4.962  1.00 20.00    -0.171 F 
HETATM    9  F10 UNL     1     -32.621  13.738  -3.681  1.00 20.00    -0.171 F 
HETATM   10  F11 UNL     1     -34.740  13.722  -3.167  1.00 20.00    -0.171 F 
ENDBRANCH   6   7
ENDBRANCH   5   6
ENDBRANCH   3   5
BRANCH   3  11
HETATM   11  O8  UNL     1     -35.621  16.807  -3.532  1.00 20.00    -0.389 OA
HETATM   12  H22 UNL     1     -35.754  17.071  -4.452  1.00 20.00     0.210 HD
ENDBRANCH   3  11
TORSDOF 4
ENDMDL
MODEL 6
REMARK VINA RESULT:      -4.3     12.860     13.460
REMARK  4 active torsions:
REMARK  status: ('A' for Active; 'I' for Inactive)
REMARK    1  A    between atoms: C3_3  and  C5_5 
REMARK    2  A    between atoms: C3_3  and  O8_8 
REMARK    3  A    between atoms: C5_5  and  C6_6 
REMARK    4  A    between atoms: C6_6  and  C7_7 
ROOT
HETATM    1  C1  UNL     1     -34.341  16.925  -3.139  1.00 20.00     0.045 A 
HETATM    2  C2  UNL     1     -34.114  16.304  -1.786  1.00 20.00     0.019 A 
HETATM    3  C3  UNL     1     -34.913  15.565  -2.832  1.00 20.00     0.062 A 
HETATM    4  C4  UNL     1     -34.763  16.887  -0.577  1.00 20.00     0.013 C 
ENDROOT
BRANCH   3   5
HETATM    5  C5  UNL     1     -34.340  14.353  -3.487  1.00 20.00     0.047 C 
BRANCH   5   6
HETATM    6  C6  UNL     1     -35.269  13.791  -4.566  1.00 20.00     0.120 C 
BRANCH   6   7
HETATM    7  C7  UNL     1     -35.150  14.546  -5.870  1.00 20.00     0.388 C 
HETATM    8  F9  UNL     1     -33.933  15.116  -6.000  1.00 20.00    -0.171 F 
HETATM    9  F10 UNL     1     -35.344  13.732  -6.929  1.00 20.00    -0.171 F 
HETATM   10  F11 UNL     1     -36.073  15.531  -5.935  1.00 20.00    -0.171 F 
ENDBRANCH   6   7
ENDBRANCH   5   6
ENDBRANCH   3   5
BRANCH   3  11
HETATM   11  O8  UNL     1     -36.338  15.508  -2.658  1.00 20.00    -0.389 OA
HETATM   12  H22 UNL     1     -36.484  15.045  -1.822  1.00 20.00     0.210 HD
ENDBRANCH   3  11
TORSDOF 4
ENDMDL
MODEL 7
REMARK VINA RESULT:      -4.3      2.924      4.469
REMARK  4 active torsions:
REMARK  status: ('A' for Active; 'I' for Inactive)
REMARK    1  A    between atoms: C3_3  and  C5_5 
REMARK    2  A    between atoms: C3_3  and  O8_8 
REMARK    3  A    between atoms: C5_5  and  C6_6 
REMARK    4  A    between atoms: C6_6  and  C7_7 
ROOT
HETATM    1  C1  UNL     1     -34.456   6.272   5.616  1.00 20.00     0.045 A 
HETATM    2  C2  UNL     1     -34.216   4.786   5.555  1.00 20.00     0.019 A 
HETATM    3  C3  UNL     1     -34.789   5.508   4.359  1.00 20.00     0.062 A 
HETATM    4  C4  UNL     1     -35.046   3.861   6.378  1.00 20.00     0.013 C 
ENDROOT
BRANCH   3   5
HETATM    5  C5  UNL     1     -33.958   5.695   3.134  1.00 20.00     0.047 C 
BRANCH   5   6
HETATM    6  C6  UNL     1     -33.411   7.119   3.024  1.00 20.00     0.120 C 
BRANCH   6   7
HETATM    7  C7  UNL     1     -31.900   7.153   3.046  1.00 20.00     0.388 C 
HETATM    8  F9  UNL     1     -31.402   7.656   1.897  1.00 20.00    -0.171 F 
HETATM    9  F10 UNL     1     -31.439   7.908   4.066  1.00 20.00    -0.171 F 
HETATM   10  F11 UNL     1     -31.399   5.907   3.200  1.00 20.00    -0.171 F 
ENDBRANCH   6   7
ENDBRANCH   5   6
ENDBRANCH   3   5
BRANCH   3  11
HETATM   11  O8  UNL     1     -36.189   5.330   4.087  1.00 20.00    -0.389 OA
HETATM   12  H22 UNL     1     -36.237   4.707   3.349  1.00 20.00     0.210 HD
ENDBRANCH   3  11
TORSDOF 4
ENDMDL
MODEL 8
REMARK VINA RESULT:      -4.3     12.562     13.759
REMARK  4 active torsions:
REMARK  status: ('A' for Active; 'I' for Inactive)
REMARK    1  A    between atoms: C3_3  and  C5_5 
REMARK    2  A    between atoms: C3_3  and  O8_8 
REMARK    3  A    between atoms: C5_5  and  C6_6 
REMARK    4  A    between atoms: C6_6  and  C7_7 
ROOT
HETATM    1  C1  UNL     1     -34.153  16.899  -6.543  1.00 20.00     0.045 A 
HETATM    2  C2  UNL     1     -34.879  15.824  -5.778  1.00 20.00     0.019 A 
HETATM    3  C3  UNL     1     -33.767  16.602  -5.116  1.00 20.00     0.062 A 
HETATM    4  C4  UNL     1     -34.710  14.392  -6.157  1.00 20.00     0.013 C 
ENDROOT
BRANCH   3   5
HETATM    5  C5  UNL     1     -34.085  17.586  -4.040  1.00 20.00     0.047 C 
BRANCH   5   6
HETATM    6  C6  UNL     1     -33.697  17.065  -2.655  1.00 20.00     0.120 C 
BRANCH   6   7
HETATM    7  C7  UNL     1     -34.713  16.088  -2.108  1.00 20.00     0.388 C 
HETATM    8  F9  UNL     1     -34.454  14.828  -2.518  1.00 20.00    -0.171 F 
HETATM    9  F10 UNL     1     -34.724  16.094  -0.758  1.00 20.00    -0.171 F 
HETATM   10  F11 UNL     1     -35.956  16.410  -2.530  1.00 20.00    -0.171 F 
ENDBRANCH   6   7
ENDBRANCH   5   6
ENDBRANCH   3   5
BRANCH   3  11
HETATM   11  O8  UNL     1     -32.509  15.932  -4.934  1.00 20.00    -0.389 OA
HETATM   12  H22 UNL     1     -32.709  15.121  -4.447  1.00 20.00     0.210 HD
ENDBRANCH   3  11
TORSDOF 4
ENDMDL
MODEL 9
REMARK VINA RESULT:      -4.2     12.475     13.540
REMARK  4 active torsions:
REMARK  status: ('A' for Active; 'I' for Inactive)
REMARK    1  A    between atoms: C3_3  and  C5_5 
REMARK    2  A    between atoms: C3_3  and  O8_8 
REMARK    3  A    between atoms: C5_5  and  C6_6 
REMARK    4  A    between atoms: C6_6  and  C7_7 
ROOT
HETATM    1  C1  UNL     1     -35.036  16.562  -5.162  1.00 20.00     0.045 A 
HETATM    2  C2  UNL     1     -34.848  15.191  -5.756  1.00 20.00     0.019 A 
HETATM    3  C3  UNL     1     -33.958  15.654  -4.628  1.00 20.00     0.062 A 
HETATM    4  C4  UNL     1     -34.331  15.042  -7.146  1.00 20.00     0.013 C 
ENDROOT
BRANCH   3   5
HETATM    5  C5  UNL     1     -34.099  15.049  -3.271  1.00 20.00     0.047 C 
BRANCH   5   6
HETATM    6  C6  UNL     1     -35.164  15.760  -2.435  1.00 20.00     0.120 C 
BRANCH   6   7
HETATM    7  C7  UNL     1     -34.560  16.736  -1.452  1.00 20.00     0.388 C 
HETATM    8  F9  UNL     1     -35.064  17.978  -1.617  1.00 20.00    -0.171 F 
HETATM    9  F10 UNL     1     -34.792  16.358  -0.177  1.00 20.00    -0.171 F 
HETATM   10  F11 UNL     1     -33.221  16.812  -1.620  1.00 20.00    -0.171 F 
ENDBRANCH   6   7
ENDBRANCH   5   6
ENDBRANCH   3   5
BRANCH   3  11
HETATM   11  O8  UNL     1     -32.608  16.021  -4.959  1.00 20.00    -0.389 OA
HETATM   12  H22 UNL     1     -32.549  15.970  -5.922  1.00 20.00     0.210 HD
ENDBRANCH   3  11
TORSDOF 4
ENDMDL
