MODEL 1
REMARK VINA RESULT:      -4.0      0.000      0.000
REMARK  2 active torsions:
REMARK  status: ('A' for Active; 'I' for Inactive)
REMARK    1  A    between atoms: C5_5  and  C7_7 
REMARK    2  A    between atoms: C7_7  and  O9_9 
ROOT
HETATM    1  C2  UNL     1     -34.026  14.184  -3.562  1.00 20.00     0.045 A 
HETATM    2  C6  UNL     1     -34.092  15.540  -2.908  1.00 20.00     0.019 A 
HETATM    3  C7  UNL     1     -33.644  15.409  -4.339  1.00 20.00     0.066 A 
HETATM    4  C8  UNL     1     -35.407  16.126  -2.522  1.00 20.00     0.013 C 
ENDROOT
BRANCH   3   5
HETATM    5  C5  UNL     1     -34.509  15.857  -5.482  1.00 20.00     0.030 C 
HETATM    6  C1  UNL     1     -34.497  14.858  -6.639  1.00 20.00     0.018 C 
HETATM    7  C3  UNL     1     -35.254  15.511  -7.783  1.00 20.00     0.074 C 
HETATM    8  S10 UNL     1     -34.770  17.258  -7.728  1.00 20.00    -0.169 SA
HETATM    9  C4  UNL     1     -34.037  17.184  -6.070  1.00 20.00     0.081 C 
ENDBRANCH   3   5
BRANCH   3  10
HETATM   10  O9  UNL     1     -32.247  15.605  -4.589  1.00 20.00    -0.389 OA
HETATM   11  H24 UNL     1     -32.053  15.132  -5.411  1.00 20.00     0.210 HD
ENDBRANCH   3  10
TORSDOF 2
ENDMDL
MODEL 2
REMARK VINA RESULT:      -4.0      2.811      4.186
REMARK  2 active torsions:
REMARK  status: ('A' for Active; 'I' for Inactive)
REMARK    1  A    between atoms: C5_5  and  C7_7 
REMARK    2  A    between atoms: C7_7  and  O9_9 
ROOT
HETATM    1  C2  UNL     1     -34.776  13.379  -4.352  1.00 20.00     0.045 A 
HETATM    2  C6  UNL     1     -35.333  14.045  -5.583  1.00 20.00     0.019 A 
HETATM    3  C7  UNL     1     -35.800  14.467  -4.215  1.00 20.00     0.066 A 
HETATM    4  C8  UNL     1     -34.460  14.896  -6.439  1.00 20.00     0.013 C 
ENDROOT
BRANCH   3   5
HETATM    5  C5  UNL     1     -35.401  15.785  -3.616  1.00 20.00     0.030 C 
HETATM    6  C1  UNL     1     -34.506  15.613  -2.389  1.00 20.00     0.018 C 
HETATM    7  C3  UNL     1     -34.330  16.995  -1.784  1.00 20.00     0.074 C 
HETATM    8  S10 UNL     1     -35.948  17.793  -1.960  1.00 20.00    -0.169 SA
HETATM    9  C4  UNL     1     -36.611  16.587  -3.143  1.00 20.00     0.081 C 
ENDBRANCH   3   5
BRANCH   3  10
HETATM   10  O9  UNL     1     -37.124  14.064  -3.842  1.00 20.00    -0.389 OA
HETATM   11  H24 UNL     1     -37.349  13.320  -4.417  1.00 20.00     0.210 HD
ENDBRANCH   3  10
TORSDOF 2
ENDMDL
MODEL 3
REMARK VINA RESULT:      -3.9      3.003      3.709
REMARK  2 active torsions:
REMARK  status: ('A' for Active; 'I' for Inactive)
REMARK    1  A    between atoms: C5_5  and  C7_7 
REMARK    2  A    between atoms: C7_7  and  O9_9 
ROOT
HETATM    1  C2  UNL     1     -33.691  17.974  -2.138  1.00 20.00     0.045 A 
HETATM    2  C6  UNL     1     -34.910  17.787  -1.274  1.00 20.00     0.019 A 
HETATM    3  C7  UNL     1     -34.842  17.150  -2.635  1.00 20.00     0.066 A 
HETATM    4  C8  UNL     1     -34.823  17.006  -0.008  1.00 20.00     0.013 C 
ENDROOT
BRANCH   3   5
HETATM    5  C5  UNL     1     -34.668  15.668  -2.806  1.00 20.00     0.030 C 
HETATM    6  C1  UNL     1     -33.359  15.319  -3.512  1.00 20.00     0.018 C 
HETATM    7  C3  UNL     1     -33.396  13.824  -3.780  1.00 20.00     0.074 C 
HETATM    8  S10 UNL     1     -35.114  13.473  -4.241  1.00 20.00    -0.169 SA
HETATM    9  C4  UNL     1     -35.779  15.057  -3.657  1.00 20.00     0.081 C 
ENDBRANCH   3   5
BRANCH   3  10
HETATM   10  O9  UNL     1     -35.661  17.735  -3.654  1.00 20.00    -0.389 OA
HETATM   11  H24 UNL     1     -35.413  18.669  -3.695  1.00 20.00     0.210 HD
ENDBRANCH   3  10
TORSDOF 2
ENDMDL
MODEL 4
REMARK VINA RESULT:      -3.9      2.226      2.664
REMARK  2 active torsions:
REMARK  status: ('A' for Active; 'I' for Inactive)
REMARK    1  A    between atoms: C5_5  and  C7_7 
REMARK    2  A    between atoms: C7_7  and  O9_9 
ROOT
HETATM    1  C2  UNL     1     -33.764  14.056  -3.820  1.00 20.00     0.045 A 
HETATM    2  C6  UNL     1     -33.339  15.494  -3.668  1.00 20.00     0.019 A 
HETATM    3  C7  UNL     1     -34.301  15.098  -4.756  1.00 20.00     0.066 A 
HETATM    4  C8  UNL     1     -33.750  16.277  -2.470  1.00 20.00     0.013 C 
ENDROOT
BRANCH   3   5
HETATM    5  C5  UNL     1     -35.755  15.464  -4.696  1.00 20.00     0.030 C 
HETATM    6  C1  UNL     1     -36.592  14.392  -3.998  1.00 20.00     0.018 C 
HETATM    7  C3  UNL     1     -38.046  14.797  -4.167  1.00 20.00     0.074 C 
HETATM    8  S10 UNL     1     -38.154  15.467  -5.848  1.00 20.00    -0.169 SA
HETATM    9  C4  UNL     1     -36.362  15.627  -6.088  1.00 20.00     0.081 C 
ENDBRANCH   3   5
BRANCH   3  10
HETATM   10  O9  UNL     1     -33.783  15.092  -6.092  1.00 20.00    -0.389 OA
HETATM   11  H24 UNL     1     -33.024  15.693  -6.088  1.00 20.00     0.210 HD
ENDBRANCH   3  10
TORSDOF 2
ENDMDL
MODEL 5
REMARK VINA RESULT:      -3.8      2.843      4.090
REMARK  2 active torsions:
REMARK  status: ('A' for Active; 'I' for Inactive)
REMARK    1  A    between atoms: C5_5  and  C7_7 
REMARK    2  A    between atoms: C7_7  and  O9_9 
ROOT
HETATM    1  C2  UNL     1     -35.669  14.559  -3.774  1.00 20.00     0.045 A 
HETATM    2  C6  UNL     1     -34.357  14.247  -4.445  1.00 20.00     0.019 A 
HETATM    3  C7  UNL     1     -34.712  15.668  -4.097  1.00 20.00     0.066 A 
HETATM    4  C8  UNL     1     -33.307  13.475  -3.722  1.00 20.00     0.013 C 
ENDROOT
BRANCH   3   5
HETATM    5  C5  UNL     1     -34.029  16.402  -2.981  1.00 20.00     0.030 C 
HETATM    6  C1  UNL     1     -34.793  16.287  -1.662  1.00 20.00     0.018 C 
HETATM    7  C3  UNL     1     -34.101  17.212  -0.676  1.00 20.00     0.074 C 
HETATM    8  S10 UNL     1     -33.641  18.672  -1.648  1.00 20.00    -0.169 SA
HETATM    9  C4  UNL     1     -33.912  17.897  -3.267  1.00 20.00     0.081 C 
ENDBRANCH   3   5
BRANCH   3  10
HETATM   10  O9  UNL     1     -35.061  16.522  -5.193  1.00 20.00    -0.389 OA
HETATM   11  H24 UNL     1     -36.021  16.448  -5.296  1.00 20.00     0.210 HD
ENDBRANCH   3  10
TORSDOF 2
ENDMDL
MODEL 6
REMARK VINA RESULT:      -3.8      1.040      1.054
REMARK  2 active torsions:
REMARK  status: ('A' for Active; 'I' for Inactive)
REMARK    1  A    between atoms: C5_5  and  C7_7 
REMARK    2  A    between atoms: C7_7  and  O9_9 
ROOT
HETATM    1  C2  UNL     1     -34.191  13.940  -4.608  1.00 20.00     0.045 A 
HETATM    2  C6  UNL     1     -34.374  14.816  -3.397  1.00 20.00     0.019 A 
HETATM    3  C7  UNL     1     -33.679  15.350  -4.620  1.00 20.00     0.066 A 
HETATM    4  C8  UNL     1     -35.737  15.254  -2.984  1.00 20.00     0.013 C 
ENDROOT
BRANCH   3   5
HETATM    5  C5  UNL     1     -34.327  16.362  -5.519  1.00 20.00     0.030 C 
HETATM    6  C1  UNL     1     -34.300  15.933  -6.985  1.00 20.00     0.018 C 
HETATM    7  C3  UNL     1     -34.815  17.112  -7.792  1.00 20.00     0.074 C 
HETATM    8  S10 UNL     1     -34.118  18.576  -6.980  1.00 20.00    -0.169 SA
HETATM    9  C4  UNL     1     -33.615  17.712  -5.465  1.00 20.00     0.081 C 
ENDBRANCH   3   5
BRANCH   3  10
HETATM   10  O9  UNL     1     -32.259  15.521  -4.521  1.00 20.00    -0.389 OA
HETATM   11  H24 UNL     1     -32.006  16.088  -5.263  1.00 20.00     0.210 HD
ENDBRANCH   3  10
TORSDOF 2
ENDMDL
MODEL 7
REMARK VINA RESULT:      -3.8      2.081      3.314
REMARK  2 active torsions:
REMARK  status: ('A' for Active; 'I' for Inactive)
REMARK    1  A    between atoms: C5_5  and  C7_7 
REMARK    2  A    between atoms: C7_7  and  O9_9 
ROOT
HETATM    1  C2  UNL     1     -34.536  14.029  -5.519  1.00 20.00     0.045 A 
HETATM    2  C6  UNL     1     -35.323  13.678  -4.283  1.00 20.00     0.019 A 
HETATM    3  C7  UNL     1     -33.887  14.113  -4.169  1.00 20.00     0.066 A 
HETATM    4  C8  UNL     1     -36.466  14.532  -3.851  1.00 20.00     0.013 C 
ENDROOT
BRANCH   3   5
HETATM    5  C5  UNL     1     -33.511  15.456  -3.614  1.00 20.00     0.030 C 
HETATM    6  C1  UNL     1     -34.248  15.770  -2.312  1.00 20.00     0.018 C 
HETATM    7  C3  UNL     1     -33.918  17.211  -1.963  1.00 20.00     0.074 C 
HETATM    8  S10 UNL     1     -33.905  18.087  -3.551  1.00 20.00    -0.169 SA
HETATM    9  C4  UNL     1     -33.859  16.590  -4.576  1.00 20.00     0.081 C 
ENDBRANCH   3   5
BRANCH   3  10
HETATM   10  O9  UNL     1     -32.936  13.091  -3.845  1.00 20.00    -0.389 OA
HETATM   11  H24 UNL     1     -32.521  12.838  -4.681  1.00 20.00     0.210 HD
ENDBRANCH   3  10
TORSDOF 2
ENDMDL
MODEL 8
REMARK VINA RESULT:      -3.8      2.277      3.888
REMARK  2 active torsions:
REMARK  status: ('A' for Active; 'I' for Inactive)
REMARK    1  A    between atoms: C5_5  and  C7_7 
REMARK    2  A    between atoms: C7_7  and  O9_9 
ROOT
HETATM    1  C2  UNL     1     -34.244  16.832  -6.406  1.00 20.00     0.045 A 
HETATM    2  C6  UNL     1     -34.331  15.330  -6.489  1.00 20.00     0.019 A 
HETATM    3  C7  UNL     1     -33.805  15.992  -5.243  1.00 20.00     0.066 A 
HETATM    4  C8  UNL     1     -35.658  14.656  -6.549  1.00 20.00     0.013 C 
ENDROOT
BRANCH   3   5
HETATM    5  C5  UNL     1     -34.600  16.023  -3.970  1.00 20.00     0.030 C 
HETATM    6  C1  UNL     1     -35.403  17.315  -3.823  1.00 20.00     0.018 C 
HETATM    7  C3  UNL     1     -36.006  17.295  -2.429  1.00 20.00     0.074 C 
HETATM    8  S10 UNL     1     -34.718  16.581  -1.371  1.00 20.00    -0.169 SA
HETATM    9  C4  UNL     1     -33.705  15.944  -2.736  1.00 20.00     0.081 C 
ENDBRANCH   3   5
BRANCH   3  10
HETATM   10  O9  UNL     1     -32.394  15.891  -5.016  1.00 20.00    -0.389 OA
HETATM   11  H24 UNL     1     -31.983  15.866  -5.892  1.00 20.00     0.210 HD
ENDBRANCH   3  10
TORSDOF 2
ENDMDL
MODEL 9
REMARK VINA RESULT:      -3.8      2.113      2.918
REMARK  2 active torsions:
REMARK  status: ('A' for Active; 'I' for Inactive)
REMARK    1  A    between atoms: C5_5  and  C7_7 
REMARK    2  A    between atoms: C7_7  and  O9_9 
ROOT
HETATM    1  C2  UNL     1     -34.481  14.189  -5.598  1.00 20.00     0.045 A 
HETATM    2  C6  UNL     1     -35.075  13.918  -4.240  1.00 20.00     0.019 A 
HETATM    3  C7  UNL     1     -33.979  14.937  -4.398  1.00 20.00     0.066 A 
HETATM    4  C8  UNL     1     -36.489  14.288  -3.949  1.00 20.00     0.013 C 
ENDROOT
BRANCH   3   5
HETATM    5  C5  UNL     1     -34.246  16.409  -4.282  1.00 20.00     0.030 C 
HETATM    6  C1  UNL     1     -33.385  17.229  -5.243  1.00 20.00     0.018 C 
HETATM    7  C3  UNL     1     -33.620  18.690  -4.897  1.00 20.00     0.074 C 
HETATM    8  S10 UNL     1     -33.732  18.731  -3.088  1.00 20.00    -0.169 SA
HETATM    9  C4  UNL     1     -33.933  16.938  -2.884  1.00 20.00     0.081 C 
ENDBRANCH   3   5
BRANCH   3  10
HETATM   10  O9  UNL     1     -32.687  14.565  -3.901  1.00 20.00    -0.389 OA
HETATM   11  H24 UNL     1     -32.098  15.303  -4.107  1.00 20.00     0.210 HD
ENDBRANCH   3  10
TORSDOF 2
ENDMDL
