MODEL 1
REMARK VINA RESULT:      -4.2      0.000      0.000
REMARK  5 active torsions:
REMARK  status: ('A' for Active; 'I' for Inactive)
REMARK    1  A    between atoms: C4_4  and  C7_7 
REMARK    2  A    between atoms: C5_5  and  C8_8 
REMARK    3  A    between atoms: C6_6  and  C7_7 
REMARK    4  A    between atoms: C6_6  and  O9_9 
REMARK    5  A    between atoms: C7_7  and  C8_8 
ROOT
HETATM    1  C7  UNL     1     -33.727   6.541   4.271  1.00 20.00     0.027 C 
ENDROOT
BRANCH   1   2
HETATM    2  C4  UNL     1     -34.856   5.880   3.448  1.00 20.00     0.004 C 
HETATM    3  C1  UNL     1     -34.349   5.087   2.249  1.00 20.00     0.005 C 
ENDBRANCH   1   2
BRANCH   1   4
HETATM    4  C6  UNL     1     -32.364   6.367   3.569  1.00 20.00     0.173 C 
BRANCH   4   5
HETATM    5  O9  UNL     1     -31.728   7.621   3.359  1.00 20.00    -0.396 OA
HETATM    6  C3  UNL     1     -32.066   8.170   2.092  1.00 20.00     0.201 C 
ENDBRANCH   4   5
ENDBRANCH   1   4
BRANCH   1   7
HETATM    7  C8  UNL     1     -33.680   6.047   5.747  1.00 20.00     0.088 C 
HETATM    8 CL10 UNL     1     -33.447   7.451   6.852  1.00 20.00    -0.125 Cl
BRANCH   7   9
HETATM    9  C5  UNL     1     -34.910   5.234   6.181  1.00 20.00     0.016 C 
HETATM   10  C2  UNL     1     -34.794   3.746   5.866  1.00 20.00     0.006 C 
ENDBRANCH   7   9
ENDBRANCH   1   7
TORSDOF 5
ENDMDL
MODEL 2
REMARK VINA RESULT:      -4.1     11.837     12.544
REMARK  5 active torsions:
REMARK  status: ('A' for Active; 'I' for Inactive)
REMARK    1  A    between atoms: C4_4  and  C7_7 
REMARK    2  A    between atoms: C5_5  and  C8_8 
REMARK    3  A    between atoms: C6_6  and  C7_7 
REMARK    4  A    between atoms: C6_6  and  O9_9 
REMARK    5  A    between atoms: C7_7  and  C8_8 
ROOT
HETATM    1  C7  UNL     1     -35.402  14.030  -3.999  1.00 20.00     0.027 C 
ENDROOT
BRANCH   1   2
HETATM    2  C4  UNL     1     -34.666  13.625  -5.296  1.00 20.00     0.004 C 
HETATM    3  C1  UNL     1     -35.227  14.293  -6.546  1.00 20.00     0.005 C 
ENDBRANCH   1   2
BRANCH   1   4
HETATM    4  C6  UNL     1     -36.709  14.780  -4.322  1.00 20.00     0.173 C 
BRANCH   4   5
HETATM    5  O9  UNL     1     -37.836  14.123  -3.756  1.00 20.00    -0.396 OA
HETATM    6  C3  UNL     1     -39.043  14.816  -4.045  1.00 20.00     0.201 C 
ENDBRANCH   4   5
ENDBRANCH   1   4
BRANCH   1   7
HETATM    7  C8  UNL     1     -34.503  14.838  -3.016  1.00 20.00     0.088 C 
HETATM    8 CL10 UNL     1     -32.970  15.307  -3.839  1.00 20.00    -0.125 Cl
BRANCH   7   9
HETATM    9  C5  UNL     1     -35.181  16.081  -2.416  1.00 20.00     0.016 C 
HETATM   10  C2  UNL     1     -34.572  16.519  -1.088  1.00 20.00     0.006 C 
ENDBRANCH   7   9
ENDBRANCH   1   7
TORSDOF 5
ENDMDL
MODEL 3
REMARK VINA RESULT:      -4.1     11.824     13.592
REMARK  5 active torsions:
REMARK  status: ('A' for Active; 'I' for Inactive)
REMARK    1  A    between atoms: C4_4  and  C7_7 
REMARK    2  A    between atoms: C5_5  and  C8_8 
REMARK    3  A    between atoms: C6_6  and  C7_7 
REMARK    4  A    between atoms: C6_6  and  O9_9 
REMARK    5  A    between atoms: C7_7  and  C8_8 
ROOT
HETATM    1  C7  UNL     1     -33.793  15.647  -3.821  1.00 20.00     0.027 C 
ENDROOT
BRANCH   1   2
HETATM    2  C4  UNL     1     -33.613  16.402  -2.485  1.00 20.00     0.004 C 
HETATM    3  C1  UNL     1     -34.801  16.258  -1.540  1.00 20.00     0.005 C 
ENDBRANCH   1   2
BRANCH   1   4
HETATM    4  C6  UNL     1     -33.139  14.253  -3.755  1.00 20.00     0.173 C 
BRANCH   4   5
HETATM    5  O9  UNL     1     -34.096  13.247  -3.448  1.00 20.00    -0.396 OA
HETATM    6  C3  UNL     1     -35.256  13.368  -4.260  1.00 20.00     0.201 C 
ENDBRANCH   4   5
ENDBRANCH   1   4
BRANCH   1   7
HETATM    7  C8  UNL     1     -33.291  16.459  -5.051  1.00 20.00     0.088 C 
HETATM    8 CL10 UNL     1     -34.012  15.790  -6.561  1.00 20.00    -0.125 Cl
BRANCH   7   9
HETATM    9  C5  UNL     1     -33.561  17.971  -4.965  1.00 20.00     0.016 C 
HETATM   10  C2  UNL     1     -33.741  18.631  -6.328  1.00 20.00     0.006 C 
ENDBRANCH   7   9
ENDBRANCH   1   7
TORSDOF 5
ENDMDL
MODEL 4
REMARK VINA RESULT:      -4.0     11.397     12.690
REMARK  5 active torsions:
REMARK  status: ('A' for Active; 'I' for Inactive)
REMARK    1  A    between atoms: C4_4  and  C7_7 
REMARK    2  A    between atoms: C5_5  and  C8_8 
REMARK    3  A    between atoms: C6_6  and  C7_7 
REMARK    4  A    between atoms: C6_6  and  O9_9 
REMARK    5  A    between atoms: C7_7  and  C8_8 
ROOT
HETATM    1  C7  UNL     1     -35.410  14.765  -3.197  1.00 20.00     0.027 C 
ENDROOT
BRANCH   1   2
HETATM    2  C4  UNL     1     -34.370  13.722  -3.666  1.00 20.00     0.004 C 
HETATM    3  C1  UNL     1     -34.624  13.201  -5.076  1.00 20.00     0.005 C 
ENDBRANCH   1   2
BRANCH   1   4
HETATM    4  C6  UNL     1     -36.584  14.853  -4.193  1.00 20.00     0.173 C 
BRANCH   4   5
HETATM    5  O9  UNL     1     -37.728  14.164  -3.705  1.00 20.00    -0.396 OA
HETATM    6  C3  UNL     1     -38.926  14.866  -4.009  1.00 20.00     0.201 C 
ENDBRANCH   4   5
ENDBRANCH   1   4
BRANCH   1   7
HETATM    7  C8  UNL     1     -34.786  16.165  -2.920  1.00 20.00     0.088 C 
HETATM    8 CL10 UNL     1     -34.624  16.418  -1.143  1.00 20.00    -0.125 Cl
BRANCH   7   9
HETATM    9  C5  UNL     1     -33.433  16.402  -3.611  1.00 20.00     0.016 C 
HETATM   10  C2  UNL     1     -33.558  17.107  -4.958  1.00 20.00     0.006 C 
ENDBRANCH   7   9
ENDBRANCH   1   7
TORSDOF 5
ENDMDL
MODEL 5
REMARK VINA RESULT:      -4.0     11.755     12.884
REMARK  5 active torsions:
REMARK  status: ('A' for Active; 'I' for Inactive)
REMARK    1  A    between atoms: C4_4  and  C7_7 
REMARK    2  A    between atoms: C5_5  and  C8_8 
REMARK    3  A    between atoms: C6_6  and  C7_7 
REMARK    4  A    between atoms: C6_6  and  O9_9 
REMARK    5  A    between atoms: C7_7  and  C8_8 
ROOT
HETATM    1  C7  UNL     1     -33.787  16.333  -2.908  1.00 20.00     0.027 C 
ENDROOT
BRANCH   1   2
HETATM    2  C4  UNL     1     -33.614  17.064  -1.557  1.00 20.00     0.004 C 
HETATM    3  C1  UNL     1     -34.705  16.736  -0.544  1.00 20.00     0.005 C 
ENDBRANCH   1   2
BRANCH   1   4
HETATM    4  C6  UNL     1     -33.766  17.335  -4.079  1.00 20.00     0.173 C 
BRANCH   4   5
HETATM    5  O9  UNL     1     -33.025  16.826  -5.181  1.00 20.00    -0.396 OA
HETATM    6  C3  UNL     1     -33.861  16.594  -6.307  1.00 20.00     0.201 C 
ENDBRANCH   4   5
ENDBRANCH   1   4
BRANCH   1   7
HETATM    7  C8  UNL     1     -35.053  15.426  -2.951  1.00 20.00     0.088 C 
HETATM    8 CL10 UNL     1     -36.427  16.332  -3.684  1.00 20.00    -0.125 Cl
BRANCH   7   9
HETATM    9  C5  UNL     1     -34.850  14.091  -3.687  1.00 20.00     0.016 C 
HETATM   10  C2  UNL     1     -33.393  13.646  -3.740  1.00 20.00     0.006 C 
ENDBRANCH   7   9
ENDBRANCH   1   7
TORSDOF 5
ENDMDL
MODEL 6
REMARK VINA RESULT:      -3.9     11.933     12.804
REMARK  5 active torsions:
REMARK  status: ('A' for Active; 'I' for Inactive)
REMARK    1  A    between atoms: C4_4  and  C7_7 
REMARK    2  A    between atoms: C5_5  and  C8_8 
REMARK    3  A    between atoms: C6_6  and  C7_7 
REMARK    4  A    between atoms: C6_6  and  O9_9 
REMARK    5  A    between atoms: C7_7  and  C8_8 
ROOT
HETATM    1  C7  UNL     1     -34.440  15.778  -3.051  1.00 20.00     0.027 C 
ENDROOT
BRANCH   1   2
HETATM    2  C4  UNL     1     -33.813  16.617  -1.914  1.00 20.00     0.004 C 
HETATM    3  C1  UNL     1     -34.698  16.723  -0.677  1.00 20.00     0.005 C 
ENDBRANCH   1   2
BRANCH   1   4
HETATM    4  C6  UNL     1     -33.426  14.755  -3.599  1.00 20.00     0.173 C 
BRANCH   4   5
HETATM    5  O9  UNL     1     -33.961  13.437  -3.583  1.00 20.00    -0.396 OA
HETATM    6  C3  UNL     1     -34.505  13.081  -4.847  1.00 20.00     0.201 C 
ENDBRANCH   4   5
ENDBRANCH   1   4
BRANCH   1   7
HETATM    7  C8  UNL     1     -35.047  16.652  -4.188  1.00 20.00     0.088 C 
HETATM    8 CL10 UNL     1     -33.962  16.618  -5.627  1.00 20.00    -0.125 Cl
BRANCH   7   9
HETATM    9  C5  UNL     1     -36.475  16.256  -4.597  1.00 20.00     0.016 C 
HETATM   10  C2  UNL     1     -37.169  15.358  -3.578  1.00 20.00     0.006 C 
ENDBRANCH   7   9
ENDBRANCH   1   7
TORSDOF 5
ENDMDL
MODEL 7
REMARK VINA RESULT:      -3.9     12.108     13.235
REMARK  5 active torsions:
REMARK  status: ('A' for Active; 'I' for Inactive)
REMARK    1  A    between atoms: C4_4  and  C7_7 
REMARK    2  A    between atoms: C5_5  and  C8_8 
REMARK    3  A    between atoms: C6_6  and  C7_7 
REMARK    4  A    between atoms: C6_6  and  O9_9 
REMARK    5  A    between atoms: C7_7  and  C8_8 
ROOT
HETATM    1  C7  UNL     1     -34.781  16.148  -2.891  1.00 20.00     0.027 C 
ENDROOT
BRANCH   1   2
HETATM    2  C4  UNL     1     -34.656  16.358  -1.365  1.00 20.00     0.004 C 
HETATM    3  C1  UNL     1     -33.704  17.486  -0.982  1.00 20.00     0.005 C 
ENDBRANCH   1   2
BRANCH   1   4
HETATM    4  C6  UNL     1     -35.981  15.239  -3.222  1.00 20.00     0.173 C 
BRANCH   4   5
HETATM    5  O9  UNL     1     -36.811  15.821  -4.219  1.00 20.00    -0.396 OA
HETATM    6  C3  UNL     1     -36.661  15.163  -5.471  1.00 20.00     0.201 C 
ENDBRANCH   4   5
ENDBRANCH   1   4
BRANCH   1   7
HETATM    7  C8  UNL     1     -33.466  15.626  -3.543  1.00 20.00     0.088 C 
HETATM    8 CL10 UNL     1     -33.549  13.835  -3.730  1.00 20.00    -0.125 Cl
BRANCH   7   9
HETATM    9  C5  UNL     1     -33.125  16.280  -4.892  1.00 20.00     0.016 C 
HETATM   10  C2  UNL     1     -33.575  17.734  -4.989  1.00 20.00     0.006 C 
ENDBRANCH   7   9
ENDBRANCH   1   7
TORSDOF 5
ENDMDL
MODEL 8
REMARK VINA RESULT:      -3.9     12.075     12.985
REMARK  5 active torsions:
REMARK  status: ('A' for Active; 'I' for Inactive)
REMARK    1  A    between atoms: C4_4  and  C7_7 
REMARK    2  A    between atoms: C5_5  and  C8_8 
REMARK    3  A    between atoms: C6_6  and  C7_7 
REMARK    4  A    between atoms: C6_6  and  O9_9 
REMARK    5  A    between atoms: C7_7  and  C8_8 
ROOT
HETATM    1  C7  UNL     1     -33.811  16.042  -2.939  1.00 20.00     0.027 C 
ENDROOT
BRANCH   1   2
HETATM    2  C4  UNL     1     -34.760  16.133  -1.722  1.00 20.00     0.004 C 
HETATM    3  C1  UNL     1     -34.288  17.113  -0.655  1.00 20.00     0.005 C 
ENDBRANCH   1   2
BRANCH   1   4
HETATM    4  C6  UNL     1     -33.703  17.405  -3.652  1.00 20.00     0.173 C 
BRANCH   4   5
HETATM    5  O9  UNL     1     -33.110  17.270  -4.937  1.00 20.00    -0.396 OA
HETATM    6  C3  UNL     1     -33.698  18.158  -5.878  1.00 20.00     0.201 C 
ENDBRANCH   4   5
ENDBRANCH   1   4
BRANCH   1   7
HETATM    7  C8  UNL     1     -34.200  14.905  -3.930  1.00 20.00     0.088 C 
HETATM    8 CL10 UNL     1     -33.105  13.493  -3.697  1.00 20.00    -0.125 Cl
BRANCH   7   9
HETATM    9  C5  UNL     1     -35.667  14.455  -3.833  1.00 20.00     0.016 C 
HETATM   10  C2  UNL     1     -36.556  15.056  -4.916  1.00 20.00     0.006 C 
ENDBRANCH   7   9
ENDBRANCH   1   7
TORSDOF 5
ENDMDL
MODEL 9
REMARK VINA RESULT:      -3.9      1.931      2.656
REMARK  5 active torsions:
REMARK  status: ('A' for Active; 'I' for Inactive)
REMARK    1  A    between atoms: C4_4  and  C7_7 
REMARK    2  A    between atoms: C5_5  and  C8_8 
REMARK    3  A    between atoms: C6_6  and  C7_7 
REMARK    4  A    between atoms: C6_6  and  O9_9 
REMARK    5  A    between atoms: C7_7  and  C8_8 
ROOT
HETATM    1  C7  UNL     1     -33.296   6.054   4.380  1.00 20.00     0.027 C 
ENDROOT
BRANCH   1   2
HETATM    2  C4  UNL     1     -33.375   7.279   5.319  1.00 20.00     0.004 C 
HETATM    3  C1  UNL     1     -33.742   6.923   6.755  1.00 20.00     0.005 C 
ENDBRANCH   1   2
BRANCH   1   4
HETATM    4  C6  UNL     1     -32.186   6.242   3.327  1.00 20.00     0.173 C 
BRANCH   4   5
HETATM    5  O9  UNL     1     -31.746   7.593   3.275  1.00 20.00    -0.396 OA
HETATM    6  C3  UNL     1     -32.047   8.191   2.021  1.00 20.00     0.201 C 
ENDBRANCH   4   5
ENDBRANCH   1   4
BRANCH   1   7
HETATM    7  C8  UNL     1     -34.662   5.704   3.719  1.00 20.00     0.088 C 
HETATM    8 CL10 UNL     1     -34.386   5.025   2.073  1.00 20.00    -0.125 Cl
BRANCH   7   9
HETATM    9  C5  UNL     1     -35.538   4.746   4.544  1.00 20.00     0.016 C 
HETATM   10  C2  UNL     1     -34.736   3.856   5.488  1.00 20.00     0.006 C 
ENDBRANCH   7   9
ENDBRANCH   1   7
TORSDOF 5
ENDMDL
