MODEL 1
REMARK VINA RESULT:      -4.9      0.000      0.000
REMARK  2 active torsions:
REMARK  status: ('A' for Active; 'I' for Inactive)
REMARK    1  A    between atoms: C6_6  and  C9_9 
REMARK    2  A    between atoms: C8_8  and  C9_9 
ROOT
HETATM    1  C1  UNL     1     -34.235   6.381   6.258  1.00 20.00     0.027 C 
HETATM    2  C2  UNL     1     -33.087   6.502   5.257  1.00 20.00     0.008 C 
HETATM    3  C3  UNL     1     -34.295   5.567   3.176  1.00 20.00     0.032 C 
HETATM    4  C4  UNL     1     -34.877   4.999   6.330  1.00 20.00     0.167 C 
HETATM    5  C5  UNL     1     -35.443   5.005   4.004  1.00 20.00     0.168 C 
HETATM    6  C6  UNL     1     -33.570   6.760   3.818  1.00 20.00     0.006 C 
HETATM    7  O10 UNL     1     -34.916   4.280   5.107  1.00 20.00    -0.391 OA
ENDROOT
BRANCH   6   8
HETATM    8  C9  UNL     1     -32.383   7.166   2.937  1.00 20.00     0.086 C 
HETATM    9 CL11 UNL     1     -31.048   7.623   4.022  1.00 20.00    -0.125 Cl
BRANCH   8  10
HETATM   10  C8  UNL     1     -32.778   8.302   2.004  1.00 20.00     0.016 C 
HETATM   11  C7  UNL     1     -31.688   8.628   0.993  1.00 20.00     0.006 C 
ENDBRANCH   8  10
ENDBRANCH   6   8
TORSDOF 2
ENDMDL
MODEL 2
REMARK VINA RESULT:      -4.6     11.305     12.105
REMARK  2 active torsions:
REMARK  status: ('A' for Active; 'I' for Inactive)
REMARK    1  A    between atoms: C6_6  and  C9_9 
REMARK    2  A    between atoms: C8_8  and  C9_9 
ROOT
HETATM    1  C1  UNL     1     -33.697  13.803  -3.670  1.00 20.00     0.027 C 
HETATM    2  C2  UNL     1     -33.695  15.305  -3.388  1.00 20.00     0.008 C 
HETATM    3  C3  UNL     1     -36.247  15.699  -3.408  1.00 20.00     0.032 C 
HETATM    4  C4  UNL     1     -34.505  13.384  -4.894  1.00 20.00     0.167 C 
HETATM    5  C5  UNL     1     -36.526  14.344  -4.044  1.00 20.00     0.168 C 
HETATM    6  C6  UNL     1     -34.937  15.770  -2.606  1.00 20.00     0.006 C 
HETATM    7  O10 UNL     1     -35.663  14.162  -5.158  1.00 20.00    -0.391 OA
ENDROOT
BRANCH   6   8
HETATM    8  C9  UNL     1     -34.726  17.203  -2.104  1.00 20.00     0.086 C 
HETATM    9 CL11 UNL     1     -33.774  18.064  -3.337  1.00 20.00    -0.125 Cl
BRANCH   8  10
HETATM   10  C8  UNL     1     -34.034  17.195  -0.748  1.00 20.00     0.016 C 
HETATM   11  C7  UNL     1     -35.013  17.360   0.406  1.00 20.00     0.006 C 
ENDBRANCH   8  10
ENDBRANCH   6   8
TORSDOF 2
ENDMDL
MODEL 3
REMARK VINA RESULT:      -4.5     11.436     12.106
REMARK  2 active torsions:
REMARK  status: ('A' for Active; 'I' for Inactive)
REMARK    1  A    between atoms: C6_6  and  C9_9 
REMARK    2  A    between atoms: C8_8  and  C9_9 
ROOT
HETATM    1  C1  UNL     1     -35.911  14.307  -4.659  1.00 20.00     0.027 C 
HETATM    2  C2  UNL     1     -36.101  15.057  -3.341  1.00 20.00     0.008 C 
HETATM    3  C3  UNL     1     -33.624  15.581  -2.839  1.00 20.00     0.032 C 
HETATM    4  C4  UNL     1     -34.905  13.161  -4.602  1.00 20.00     0.167 C 
HETATM    5  C5  UNL     1     -33.126  14.594  -3.886  1.00 20.00     0.168 C 
HETATM    6  C6  UNL     1     -35.032  16.138  -3.105  1.00 20.00     0.006 C 
HETATM    7  O10 UNL     1     -33.806  13.356  -3.725  1.00 20.00    -0.391 OA
ENDROOT
BRANCH   6   8
HETATM    8  C9  UNL     1     -35.451  17.037  -1.937  1.00 20.00     0.086 C 
HETATM    9 CL11 UNL     1     -35.476  18.712  -2.538  1.00 20.00    -0.125 Cl
BRANCH   8  10
HETATM   10  C8  UNL     1     -34.497  16.863  -0.763  1.00 20.00     0.016 C 
HETATM   11  C7  UNL     1     -35.073  17.403   0.538  1.00 20.00     0.006 C 
ENDBRANCH   8  10
ENDBRANCH   6   8
TORSDOF 2
ENDMDL
MODEL 4
REMARK VINA RESULT:      -4.4     11.563     12.640
REMARK  2 active torsions:
REMARK  status: ('A' for Active; 'I' for Inactive)
REMARK    1  A    between atoms: C6_6  and  C9_9 
REMARK    2  A    between atoms: C8_8  and  C9_9 
ROOT
HETATM    1  C1  UNL     1     -34.714  16.805  -0.674  1.00 20.00     0.027 C 
HETATM    2  C2  UNL     1     -34.682  15.912  -1.913  1.00 20.00     0.008 C 
HETATM    3  C3  UNL     1     -33.742  17.628  -3.596  1.00 20.00     0.032 C 
HETATM    4  C4  UNL     1     -35.438  18.135  -0.864  1.00 20.00     0.167 C 
HETATM    5  C5  UNL     1     -34.006  18.801  -2.662  1.00 20.00     0.168 C 
HETATM    6  C6  UNL     1     -33.549  16.278  -2.887  1.00 20.00     0.006 C 
HETATM    7  O10 UNL     1     -35.331  18.710  -2.157  1.00 20.00    -0.391 OA
ENDROOT
BRANCH   6   8
HETATM    8  C9  UNL     1     -33.390  15.172  -3.936  1.00 20.00     0.086 C 
HETATM    9 CL11 UNL     1     -33.850  15.863  -5.511  1.00 20.00    -0.125 Cl
BRANCH   8  10
HETATM   10  C8  UNL     1     -34.241  13.965  -3.570  1.00 20.00     0.016 C 
HETATM   11  C7  UNL     1     -34.757  13.224  -4.796  1.00 20.00     0.006 C 
ENDBRANCH   8  10
ENDBRANCH   6   8
TORSDOF 2
ENDMDL
MODEL 5
REMARK VINA RESULT:      -4.4     11.575     12.739
REMARK  2 active torsions:
REMARK  status: ('A' for Active; 'I' for Inactive)
REMARK    1  A    between atoms: C6_6  and  C9_9 
REMARK    2  A    between atoms: C8_8  and  C9_9 
ROOT
HETATM    1  C1  UNL     1     -33.931  16.003  -5.984  1.00 20.00     0.027 C 
HETATM    2  C2  UNL     1     -34.792  16.354  -4.771  1.00 20.00     0.008 C 
HETATM    3  C3  UNL     1     -35.048  13.982  -3.786  1.00 20.00     0.032 C 
HETATM    4  C4  UNL     1     -34.491  14.890  -6.863  1.00 20.00     0.167 C 
HETATM    5  C5  UNL     1     -34.538  13.318  -5.059  1.00 20.00     0.168 C 
HETATM    6  C6  UNL     1     -34.548  15.420  -3.572  1.00 20.00     0.006 C 
HETATM    7  O10 UNL     1     -35.211  13.875  -6.180  1.00 20.00    -0.391 OA
ENDROOT
BRANCH   6   8
HETATM    8  C9  UNL     1     -35.206  16.004  -2.318  1.00 20.00     0.086 C 
HETATM    9 CL11 UNL     1     -36.472  17.133  -2.857  1.00 20.00    -0.125 Cl
BRANCH   8  10
HETATM   10  C8  UNL     1     -34.166  16.686  -1.440  1.00 20.00     0.016 C 
HETATM   11  C7  UNL     1     -34.740  17.144  -0.107  1.00 20.00     0.006 C 
ENDBRANCH   8  10
ENDBRANCH   6   8
TORSDOF 2
ENDMDL
MODEL 6
REMARK VINA RESULT:      -4.3     11.815     12.797
REMARK  2 active torsions:
REMARK  status: ('A' for Active; 'I' for Inactive)
REMARK    1  A    between atoms: C6_6  and  C9_9 
REMARK    2  A    between atoms: C8_8  and  C9_9 
ROOT
HETATM    1  C1  UNL     1     -34.431  16.883  -0.614  1.00 20.00     0.027 C 
HETATM    2  C2  UNL     1     -34.833  16.089  -1.856  1.00 20.00     0.008 C 
HETATM    3  C3  UNL     1     -33.842  17.659  -3.649  1.00 20.00     0.032 C 
HETATM    4  C4  UNL     1     -34.848  18.351  -0.631  1.00 20.00     0.167 C 
HETATM    5  C5  UNL     1     -33.651  18.797  -2.655  1.00 20.00     0.168 C 
HETATM    6  C6  UNL     1     -33.842  16.256  -3.022  1.00 20.00     0.006 C 
HETATM    7  O10 UNL     1     -34.847  18.971  -1.907  1.00 20.00    -0.391 OA
ENDROOT
BRANCH   6   8
HETATM    8  C9  UNL     1     -34.138  15.215  -4.107  1.00 20.00     0.086 C 
HETATM    9 CL11 UNL     1     -33.164  13.771  -3.738  1.00 20.00    -0.125 Cl
BRANCH   8  10
HETATM   10  C8  UNL     1     -33.826  15.780  -5.485  1.00 20.00     0.016 C 
HETATM   11  C7  UNL     1     -34.456  14.964  -6.605  1.00 20.00     0.006 C 
ENDBRANCH   8  10
ENDBRANCH   6   8
TORSDOF 2
ENDMDL
MODEL 7
REMARK VINA RESULT:      -4.1     11.948     13.861
REMARK  2 active torsions:
REMARK  status: ('A' for Active; 'I' for Inactive)
REMARK    1  A    between atoms: C6_6  and  C9_9 
REMARK    2  A    between atoms: C8_8  and  C9_9 
ROOT
HETATM    1  C1  UNL     1     -33.639  18.289  -6.069  1.00 20.00     0.027 C 
HETATM    2  C2  UNL     1     -33.860  17.534  -4.759  1.00 20.00     0.008 C 
HETATM    3  C3  UNL     1     -34.278  15.183  -5.740  1.00 20.00     0.032 C 
HETATM    4  C4  UNL     1     -34.741  18.102  -7.108  1.00 20.00     0.167 C 
HETATM    5  C5  UNL     1     -34.467  15.725  -7.151  1.00 20.00     0.168 C 
HETATM    6  C6  UNL     1     -33.408  16.065  -4.830  1.00 20.00     0.006 C 
HETATM    7  O10 UNL     1     -35.364  16.827  -7.114  1.00 20.00    -0.391 OA
ENDROOT
BRANCH   6   8
HETATM    8  C9  UNL     1     -33.376  15.464  -3.421  1.00 20.00     0.086 C 
HETATM    9 CL11 UNL     1     -33.012  13.729  -3.591  1.00 20.00    -0.125 Cl
BRANCH   8  10
HETATM   10  C8  UNL     1     -34.701  15.704  -2.710  1.00 20.00     0.016 C 
HETATM   11  C7  UNL     1     -34.522  16.384  -1.360  1.00 20.00     0.006 C 
ENDBRANCH   8  10
ENDBRANCH   6   8
TORSDOF 2
ENDMDL
MODEL 8
REMARK VINA RESULT:      -4.1     11.340     12.756
REMARK  2 active torsions:
REMARK  status: ('A' for Active; 'I' for Inactive)
REMARK    1  A    between atoms: C6_6  and  C9_9 
REMARK    2  A    between atoms: C8_8  and  C9_9 
ROOT
HETATM    1  C1  UNL     1     -34.095  18.247  -3.959  1.00 20.00     0.027 C 
HETATM    2  C2  UNL     1     -33.728  16.766  -3.868  1.00 20.00     0.008 C 
HETATM    3  C3  UNL     1     -34.571  16.311  -1.471  1.00 20.00     0.032 C 
HETATM    4  C4  UNL     1     -33.572  19.106  -2.811  1.00 20.00     0.167 C 
HETATM    5  C5  UNL     1     -34.697  17.795  -1.154  1.00 20.00     0.168 C 
HETATM    6  C6  UNL     1     -34.683  15.966  -2.965  1.00 20.00     0.006 C 
HETATM    7  O10 UNL     1     -33.505  18.462  -1.548  1.00 20.00    -0.391 OA
ENDROOT
BRANCH   6   8
HETATM    8  C9  UNL     1     -34.444  14.465  -3.158  1.00 20.00     0.086 C 
HETATM    9 CL11 UNL     1     -32.758  14.260  -3.693  1.00 20.00    -0.125 Cl
BRANCH   8  10
HETATM   10  C8  UNL     1     -35.436  13.892  -4.160  1.00 20.00     0.016 C 
HETATM   11  C7  UNL     1     -36.809  14.542  -4.056  1.00 20.00     0.006 C 
ENDBRANCH   8  10
ENDBRANCH   6   8
TORSDOF 2
ENDMDL
MODEL 9
REMARK VINA RESULT:      -4.1     11.328     12.884
REMARK  2 active torsions:
REMARK  status: ('A' for Active; 'I' for Inactive)
REMARK    1  A    between atoms: C6_6  and  C9_9 
REMARK    2  A    between atoms: C8_8  and  C9_9 
ROOT
HETATM    1  C1  UNL     1     -34.098  15.686  -6.361  1.00 20.00     0.027 C 
HETATM    2  C2  UNL     1     -34.409  16.504  -5.107  1.00 20.00     0.008 C 
HETATM    3  C3  UNL     1     -34.175  14.621  -3.357  1.00 20.00     0.032 C 
HETATM    4  C4  UNL     1     -34.930  14.417  -6.518  1.00 20.00     0.167 C 
HETATM    5  C5  UNL     1     -34.200  13.529  -4.418  1.00 20.00     0.168 C 
HETATM    6  C6  UNL     1     -33.676  15.986  -3.857  1.00 20.00     0.006 C 
HETATM    7  O10 UNL     1     -35.283  13.764  -5.308  1.00 20.00    -0.391 OA
ENDROOT
BRANCH   6   8
HETATM    8  C9  UNL     1     -33.791  17.014  -2.726  1.00 20.00     0.086 C 
HETATM    9 CL11 UNL     1     -34.666  16.234  -1.386  1.00 20.00    -0.125 Cl
BRANCH   8  10
HETATM   10  C8  UNL     1     -34.499  18.269  -3.218  1.00 20.00     0.016 C 
HETATM   11  C7  UNL     1     -35.624  18.703  -2.289  1.00 20.00     0.006 C 
ENDBRANCH   8  10
ENDBRANCH   6   8
TORSDOF 2
ENDMDL
