MODEL 1
REMARK VINA RESULT:      -4.5      0.000      0.000
REMARK  3 active torsions:
REMARK  status: ('A' for Active; 'I' for Inactive)
REMARK    1  A    between atoms: C3_3  and  C6_6 
REMARK    2  A    between atoms: C3_3  and  O8_8 
REMARK    3  A    between atoms: C6_6  and  C7_7 
ROOT
HETATM    1  C1  UNL     1     -33.783   4.566   5.663  1.00 20.00     0.045 A 
HETATM    2  C2  UNL     1     -34.564   5.695   6.282  1.00 20.00     0.019 A 
HETATM    3  C3  UNL     1     -34.750   5.355   4.819  1.00 20.00     0.061 A 
HETATM    4  C4  UNL     1     -33.869   6.933   6.732  1.00 20.00     0.013 C 
ENDROOT
BRANCH   3   5
HETATM    5  C6  UNL     1     -34.241   6.235   3.726  1.00 20.00     0.038 C 
BRANCH   5   6
HETATM    6  C7  UNL     1     -32.793   5.903   3.331  1.00 20.00    -0.002 C 
HETATM    7  C5  UNL     1     -31.903   7.135   3.300  1.00 20.00     0.005 C 
ENDBRANCH   5   6
ENDBRANCH   3   5
BRANCH   3   8
HETATM    8  O8  UNL     1     -35.984   4.690   4.490  1.00 20.00    -0.389 OA
HETATM    9  H22 UNL     1     -35.856   4.322   3.607  1.00 20.00     0.210 HD
ENDBRANCH   3   8
TORSDOF 3
ENDMDL
MODEL 2
REMARK VINA RESULT:      -4.4      0.963      2.891
REMARK  3 active torsions:
REMARK  status: ('A' for Active; 'I' for Inactive)
REMARK    1  A    between atoms: C3_3  and  C6_6 
REMARK    2  A    between atoms: C3_3  and  O8_8 
REMARK    3  A    between atoms: C6_6  and  C7_7 
ROOT
HETATM    1  C1  UNL     1     -35.552   5.871   4.024  1.00 20.00     0.045 A 
HETATM    2  C2  UNL     1     -34.363   5.257   3.332  1.00 20.00     0.019 A 
HETATM    3  C3  UNL     1     -34.802   4.743   4.686  1.00 20.00     0.061 A 
HETATM    4  C4  UNL     1     -33.112   6.044   3.145  1.00 20.00     0.013 C 
ENDROOT
BRANCH   3   5
HETATM    5  C6  UNL     1     -34.016   4.998   5.929  1.00 20.00     0.038 C 
BRANCH   5   6
HETATM    6  C7  UNL     1     -34.448   6.290   6.643  1.00 20.00    -0.002 C 
HETATM    7  C5  UNL     1     -33.329   7.317   6.711  1.00 20.00     0.005 C 
ENDBRANCH   5   6
ENDBRANCH   3   5
BRANCH   3   8
HETATM    8  O8  UNL     1     -35.460   3.463   4.678  1.00 20.00    -0.389 OA
HETATM    9  H22 UNL     1     -35.925   3.402   5.521  1.00 20.00     0.210 HD
ENDBRANCH   3   8
TORSDOF 3
ENDMDL
MODEL 3
REMARK VINA RESULT:      -4.0     12.227     12.994
REMARK  3 active torsions:
REMARK  status: ('A' for Active; 'I' for Inactive)
REMARK    1  A    between atoms: C3_3  and  C6_6 
REMARK    2  A    between atoms: C3_3  and  O8_8 
REMARK    3  A    between atoms: C6_6  and  C7_7 
ROOT
HETATM    1  C1  UNL     1     -33.010  14.060  -3.504  1.00 20.00     0.045 A 
HETATM    2  C2  UNL     1     -34.038  13.962  -4.600  1.00 20.00     0.019 A 
HETATM    3  C3  UNL     1     -33.530  15.316  -4.154  1.00 20.00     0.061 A 
HETATM    4  C4  UNL     1     -35.418  13.489  -4.296  1.00 20.00     0.013 C 
ENDROOT
BRANCH   3   5
HETATM    5  C6  UNL     1     -34.374  16.266  -3.371  1.00 20.00     0.038 C 
BRANCH   5   6
HETATM    6  C7  UNL     1     -33.719  16.675  -2.041  1.00 20.00    -0.002 C 
HETATM    7  C5  UNL     1     -34.680  16.574  -0.867  1.00 20.00     0.005 C 
ENDBRANCH   5   6
ENDBRANCH   3   5
BRANCH   3   8
HETATM    8  O8  UNL     1     -32.629  15.970  -5.066  1.00 20.00    -0.389 OA
HETATM    9  H22 UNL     1     -32.428  15.317  -5.748  1.00 20.00     0.210 HD
ENDBRANCH   3   8
TORSDOF 3
ENDMDL
MODEL 4
REMARK VINA RESULT:      -4.0     12.117     12.844
REMARK  3 active torsions:
REMARK  status: ('A' for Active; 'I' for Inactive)
REMARK    1  A    between atoms: C3_3  and  C6_6 
REMARK    2  A    between atoms: C3_3  and  O8_8 
REMARK    3  A    between atoms: C6_6  and  C7_7 
ROOT
HETATM    1  C1  UNL     1     -33.865  16.626  -3.872  1.00 20.00     0.045 A 
HETATM    2  C2  UNL     1     -33.608  16.300  -2.424  1.00 20.00     0.019 A 
HETATM    3  C3  UNL     1     -33.568  15.205  -3.468  1.00 20.00     0.061 A 
HETATM    4  C4  UNL     1     -34.705  16.407  -1.422  1.00 20.00     0.013 C 
ENDROOT
BRANCH   3   5
HETATM    5  C6  UNL     1     -34.631  14.162  -3.570  1.00 20.00     0.038 C 
BRANCH   5   6
HETATM    6  C7  UNL     1     -34.510  13.324  -4.854  1.00 20.00    -0.002 C 
HETATM    7  C5  UNL     1     -35.027  14.061  -6.079  1.00 20.00     0.005 C 
ENDBRANCH   5   6
ENDBRANCH   3   5
BRANCH   3   8
HETATM    8  O8  UNL     1     -32.255  14.719  -3.805  1.00 20.00    -0.389 OA
HETATM    9  H22 UNL     1     -32.118  14.955  -4.730  1.00 20.00     0.210 HD
ENDBRANCH   3   8
TORSDOF 3
ENDMDL
MODEL 5
REMARK VINA RESULT:      -4.0     12.103     13.077
REMARK  3 active torsions:
REMARK  status: ('A' for Active; 'I' for Inactive)
REMARK    1  A    between atoms: C3_3  and  C6_6 
REMARK    2  A    between atoms: C3_3  and  O8_8 
REMARK    3  A    between atoms: C6_6  and  C7_7 
ROOT
HETATM    1  C1  UNL     1     -36.163  14.691  -4.986  1.00 20.00     0.045 A 
HETATM    2  C2  UNL     1     -35.041  14.322  -5.921  1.00 20.00     0.019 A 
HETATM    3  C3  UNL     1     -34.958  13.958  -4.454  1.00 20.00     0.061 A 
HETATM    4  C4  UNL     1     -34.190  15.382  -6.529  1.00 20.00     0.013 C 
ENDROOT
BRANCH   3   5
HETATM    5  C6  UNL     1     -34.023  14.642  -3.515  1.00 20.00     0.038 C 
BRANCH   5   6
HETATM    6  C7  UNL     1     -34.752  15.581  -2.539  1.00 20.00    -0.002 C 
HETATM    7  C5  UNL     1     -33.848  16.682  -2.009  1.00 20.00     0.005 C 
ENDBRANCH   5   6
ENDBRANCH   3   5
BRANCH   3   8
HETATM    8  O8  UNL     1     -35.155  12.564  -4.151  1.00 20.00    -0.389 OA
HETATM    9  H22 UNL     1     -34.922  12.086  -4.956  1.00 20.00     0.210 HD
ENDBRANCH   3   8
TORSDOF 3
ENDMDL
MODEL 6
REMARK VINA RESULT:      -3.8     11.915     13.044
REMARK  3 active torsions:
REMARK  status: ('A' for Active; 'I' for Inactive)
REMARK    1  A    between atoms: C3_3  and  C6_6 
REMARK    2  A    between atoms: C3_3  and  O8_8 
REMARK    3  A    between atoms: C6_6  and  C7_7 
ROOT
HETATM    1  C1  UNL     1     -33.561  14.246  -3.936  1.00 20.00     0.045 A 
HETATM    2  C2  UNL     1     -34.713  14.686  -3.071  1.00 20.00     0.019 A 
HETATM    3  C3  UNL     1     -34.972  13.903  -4.340  1.00 20.00     0.061 A 
HETATM    4  C4  UNL     1     -35.048  16.131  -2.942  1.00 20.00     0.013 C 
ENDROOT
BRANCH   3   5
HETATM    5  C6  UNL     1     -35.573  14.531  -5.554  1.00 20.00     0.038 C 
BRANCH   5   6
HETATM    6  C7  UNL     1     -34.540  14.757  -6.671  1.00 20.00    -0.002 C 
HETATM    7  C5  UNL     1     -34.385  16.227  -7.028  1.00 20.00     0.005 C 
ENDBRANCH   5   6
ENDBRANCH   3   5
BRANCH   3   8
HETATM    8  O8  UNL     1     -35.363  12.531  -4.152  1.00 20.00    -0.389 OA
HETATM    9  H22 UNL     1     -34.621  12.002  -4.468  1.00 20.00     0.210 HD
ENDBRANCH   3   8
TORSDOF 3
ENDMDL
MODEL 7
REMARK VINA RESULT:      -3.8     12.369     13.807
REMARK  3 active torsions:
REMARK  status: ('A' for Active; 'I' for Inactive)
REMARK    1  A    between atoms: C3_3  and  C6_6 
REMARK    2  A    between atoms: C3_3  and  O8_8 
REMARK    3  A    between atoms: C6_6  and  C7_7 
ROOT
HETATM    1  C1  UNL     1     -34.049  15.333  -3.045  1.00 20.00     0.045 A 
HETATM    2  C2  UNL     1     -33.944  14.119  -3.931  1.00 20.00     0.019 A 
HETATM    3  C3  UNL     1     -33.756  15.503  -4.514  1.00 20.00     0.061 A 
HETATM    4  C4  UNL     1     -35.147  13.289  -4.216  1.00 20.00     0.013 C 
ENDROOT
BRANCH   3   5
HETATM    5  C6  UNL     1     -34.770  16.135  -5.408  1.00 20.00     0.038 C 
BRANCH   5   6
HETATM    6  C7  UNL     1     -34.334  16.134  -6.883  1.00 20.00    -0.002 C 
HETATM    7  C5  UNL     1     -34.751  14.866  -7.610  1.00 20.00     0.005 C 
ENDBRANCH   5   6
ENDBRANCH   3   5
BRANCH   3   8
HETATM    8  O8  UNL     1     -32.401  15.856  -4.846  1.00 20.00    -0.389 OA
HETATM    9  H22 UNL     1     -32.153  16.555  -4.228  1.00 20.00     0.210 HD
ENDBRANCH   3   8
TORSDOF 3
ENDMDL
MODEL 8
REMARK VINA RESULT:      -3.7      8.968      9.929
REMARK  3 active torsions:
REMARK  status: ('A' for Active; 'I' for Inactive)
REMARK    1  A    between atoms: C3_3  and  C6_6 
REMARK    2  A    between atoms: C3_3  and  O8_8 
REMARK    3  A    between atoms: C6_6  and  C7_7 
ROOT
HETATM    1  C1  UNL     1     -40.669   6.067  -0.032  1.00 20.00     0.045 A 
HETATM    2  C2  UNL     1     -41.651   5.003   0.383  1.00 20.00     0.019 A 
HETATM    3  C3  UNL     1     -41.157   5.065  -1.046  1.00 20.00     0.061 A 
HETATM    4  C4  UNL     1     -43.043   5.371   0.762  1.00 20.00     0.013 C 
ENDROOT
BRANCH   3   5
HETATM    5  C6  UNL     1     -42.030   5.508  -2.173  1.00 20.00     0.038 C 
BRANCH   5   6
HETATM    6  C7  UNL     1     -41.847   6.998  -2.507  1.00 20.00    -0.002 C 
HETATM    7  C5  UNL     1     -43.108   7.808  -2.251  1.00 20.00     0.005 C 
ENDBRANCH   5   6
ENDBRANCH   3   5
BRANCH   3   8
HETATM    8  O8  UNL     1     -40.216   4.042  -1.420  1.00 20.00    -0.389 OA
HETATM    9  H22 UNL     1     -40.621   3.570  -2.158  1.00 20.00     0.210 HD
ENDBRANCH   3   8
TORSDOF 3
ENDMDL
MODEL 9
REMARK VINA RESULT:      -3.7      9.224     10.241
REMARK  3 active torsions:
REMARK  status: ('A' for Active; 'I' for Inactive)
REMARK    1  A    between atoms: C3_3  and  C6_6 
REMARK    2  A    between atoms: C3_3  and  O8_8 
REMARK    3  A    between atoms: C6_6  and  C7_7 
ROOT
HETATM    1  C1  UNL     1     -40.823   6.249  -0.497  1.00 20.00     0.045 A 
HETATM    2  C2  UNL     1     -41.578   5.207   0.285  1.00 20.00     0.019 A 
HETATM    3  C3  UNL     1     -41.157   4.928  -1.142  1.00 20.00     0.061 A 
HETATM    4  C4  UNL     1     -42.999   5.436   0.667  1.00 20.00     0.013 C 
ENDROOT
BRANCH   3   5
HETATM    5  C6  UNL     1     -42.137   4.873  -2.266  1.00 20.00     0.038 C 
BRANCH   5   6
HETATM    6  C7  UNL     1     -42.295   3.455  -2.839  1.00 20.00    -0.002 C 
HETATM    7  C5  UNL     1     -43.304   2.624  -2.062  1.00 20.00     0.005 C 
ENDBRANCH   5   6
ENDBRANCH   3   5
BRANCH   3   8
HETATM    8  O8  UNL     1     -40.060   4.009  -1.295  1.00 20.00    -0.389 OA
HETATM    9  H22 UNL     1     -39.633   3.965  -0.430  1.00 20.00     0.210 HD
ENDBRANCH   3   8
TORSDOF 3
ENDMDL
