MODEL 1
REMARK VINA RESULT:      -4.7      0.000      0.000
REMARK  2 active torsions:
REMARK  status: ('A' for Active; 'I' for Inactive)
REMARK    1  A    between atoms: C3_3  and  C6_6 
REMARK    2  A    between atoms: C6_6  and  O9_9 
ROOT
HETATM    1  C2  UNL     1     -35.673   5.702   3.806  1.00 20.00     0.045 A 
HETATM    2  C5  UNL     1     -34.738   4.985   4.745  1.00 20.00     0.019 A 
HETATM    3  C6  UNL     1     -34.195   5.669   3.510  1.00 20.00     0.066 A 
HETATM    4  C8  UNL     1     -34.493   5.523   6.113  1.00 20.00     0.013 C 
ENDROOT
BRANCH   3   5
HETATM    5  C3  UNL     1     -33.331   6.927   3.537  1.00 20.00     0.024 A 
HETATM    6  C1  UNL     1     -31.841   6.883   3.753  1.00 20.00     0.012 A 
HETATM    7  C4  UNL     1     -32.395   7.288   2.413  1.00 20.00    -0.011 A 
HETATM    8  C7  UNL     1     -32.284   8.700   1.950  1.00 20.00     0.010 C 
ENDBRANCH   3   5
BRANCH   3   9
HETATM    9  O9  UNL     1     -33.822   4.758   2.450  1.00 20.00    -0.389 OA
HETATM   10  H23 UNL     1     -34.541   4.802   1.810  1.00 20.00     0.210 HD
ENDBRANCH   3   9
TORSDOF 2
ENDMDL
MODEL 2
REMARK VINA RESULT:      -4.6      0.945      3.929
REMARK  2 active torsions:
REMARK  status: ('A' for Active; 'I' for Inactive)
REMARK    1  A    between atoms: C3_3  and  C6_6 
REMARK    2  A    between atoms: C6_6  and  O9_9 
ROOT
HETATM    1  C2  UNL     1     -31.323   7.586   3.657  1.00 20.00     0.045 A 
HETATM    2  C5  UNL     1     -32.059   7.811   2.361  1.00 20.00     0.019 A 
HETATM    3  C6  UNL     1     -32.436   6.651   3.256  1.00 20.00     0.066 A 
HETATM    4  C8  UNL     1     -32.944   8.999   2.199  1.00 20.00     0.013 C 
ENDROOT
BRANCH   3   5
HETATM    5  C3  UNL     1     -33.745   6.561   4.037  1.00 20.00     0.024 A 
HETATM    6  C1  UNL     1     -34.836   5.586   3.682  1.00 20.00     0.012 A 
HETATM    7  C4  UNL     1     -34.058   5.412   4.959  1.00 20.00    -0.011 A 
HETATM    8  C7  UNL     1     -34.711   5.659   6.275  1.00 20.00     0.010 C 
ENDBRANCH   3   5
BRANCH   3   9
HETATM    9  O9  UNL     1     -31.985   5.365   2.772  1.00 20.00    -0.389 OA
HETATM   10  H23 UNL     1     -31.159   5.542   2.307  1.00 20.00     0.210 HD
ENDBRANCH   3   9
TORSDOF 2
ENDMDL
MODEL 3
REMARK VINA RESULT:      -4.5     11.141     12.834
REMARK  2 active torsions:
REMARK  status: ('A' for Active; 'I' for Inactive)
REMARK    1  A    between atoms: C3_3  and  C6_6 
REMARK    2  A    between atoms: C6_6  and  O9_9 
ROOT
HETATM    1  C2  UNL     1     -33.753  14.038  -3.738  1.00 20.00     0.045 A 
HETATM    2  C5  UNL     1     -34.078  15.361  -3.096  1.00 20.00     0.019 A 
HETATM    3  C6  UNL     1     -33.692  15.302  -4.557  1.00 20.00     0.066 A 
HETATM    4  C8  UNL     1     -35.472  15.660  -2.663  1.00 20.00     0.013 C 
ENDROOT
BRANCH   3   5
HETATM    5  C3  UNL     1     -34.656  15.572  -5.710  1.00 20.00     0.024 A 
HETATM    6  C1  UNL     1     -34.312  16.485  -6.857  1.00 20.00     0.012 A 
HETATM    7  C4  UNL     1     -34.445  15.003  -7.089  1.00 20.00    -0.011 A 
HETATM    8  C7  UNL     1     -35.597  14.465  -7.865  1.00 20.00     0.010 C 
ENDBRANCH   3   5
BRANCH   3   9
HETATM    9  O9  UNL     1     -32.351  15.769  -4.830  1.00 20.00    -0.389 OA
HETATM   10  H23 UNL     1     -32.457  16.518  -5.427  1.00 20.00     0.210 HD
ENDBRANCH   3   9
TORSDOF 2
ENDMDL
MODEL 4
REMARK VINA RESULT:      -4.3     10.933     12.488
REMARK  2 active torsions:
REMARK  status: ('A' for Active; 'I' for Inactive)
REMARK    1  A    between atoms: C3_3  and  C6_6 
REMARK    2  A    between atoms: C6_6  and  O9_9 
ROOT
HETATM    1  C2  UNL     1     -35.815  14.581  -3.782  1.00 20.00     0.045 A 
HETATM    2  C5  UNL     1     -34.366  14.501  -3.378  1.00 20.00     0.019 A 
HETATM    3  C6  UNL     1     -34.804  13.993  -4.734  1.00 20.00     0.066 A 
HETATM    4  C8  UNL     1     -33.560  15.745  -3.227  1.00 20.00     0.013 C 
ENDROOT
BRANCH   3   5
HETATM    5  C3  UNL     1     -34.445  14.664  -6.057  1.00 20.00     0.024 A 
HETATM    6  C1  UNL     1     -35.233  14.440  -7.320  1.00 20.00     0.012 A 
HETATM    7  C4  UNL     1     -35.264  15.784  -6.643  1.00 20.00    -0.011 A 
HETATM    8  C7  UNL     1     -34.595  16.957  -7.272  1.00 20.00     0.010 C 
ENDBRANCH   3   5
BRANCH   3   9
HETATM    9  O9  UNL     1     -34.851  12.551  -4.834  1.00 20.00    -0.389 OA
HETATM   10  H23 UNL     1     -33.965  12.284  -5.103  1.00 20.00     0.210 HD
ENDBRANCH   3   9
TORSDOF 2
ENDMDL
MODEL 5
REMARK VINA RESULT:      -4.3     11.036     12.040
REMARK  2 active torsions:
REMARK  status: ('A' for Active; 'I' for Inactive)
REMARK    1  A    between atoms: C3_3  and  C6_6 
REMARK    2  A    between atoms: C6_6  and  O9_9 
ROOT
HETATM    1  C2  UNL     1     -34.289  13.340  -4.578  1.00 20.00     0.045 A 
HETATM    2  C5  UNL     1     -35.075  13.947  -5.711  1.00 20.00     0.019 A 
HETATM    3  C6  UNL     1     -35.393  14.323  -4.280  1.00 20.00     0.066 A 
HETATM    4  C8  UNL     1     -34.420  14.903  -6.648  1.00 20.00     0.013 C 
ENDROOT
BRANCH   3   5
HETATM    5  C3  UNL     1     -35.118  15.696  -3.674  1.00 20.00     0.024 A 
HETATM    6  C1  UNL     1     -36.149  16.452  -2.878  1.00 20.00     0.012 A 
HETATM    7  C4  UNL     1     -34.925  15.902  -2.194  1.00 20.00    -0.011 A 
HETATM    8  C7  UNL     1     -33.867  16.823  -1.694  1.00 20.00     0.010 C 
ENDBRANCH   3   5
BRANCH   3   9
HETATM    9  O9  UNL     1     -36.604  13.719  -3.770  1.00 20.00    -0.389 OA
HETATM   10  H23 UNL     1     -36.762  12.951  -4.331  1.00 20.00     0.210 HD
ENDBRANCH   3   9
TORSDOF 2
ENDMDL
MODEL 6
REMARK VINA RESULT:      -4.3     10.871     11.554
REMARK  2 active torsions:
REMARK  status: ('A' for Active; 'I' for Inactive)
REMARK    1  A    between atoms: C3_3  and  C6_6 
REMARK    2  A    between atoms: C6_6  and  O9_9 
ROOT
HETATM    1  C2  UNL     1     -35.828  14.711  -5.354  1.00 20.00     0.045 A 
HETATM    2  C5  UNL     1     -36.794  14.444  -4.230  1.00 20.00     0.019 A 
HETATM    3  C6  UNL     1     -35.349  14.015  -4.106  1.00 20.00     0.066 A 
HETATM    4  C8  UNL     1     -37.350  15.576  -3.436  1.00 20.00     0.013 C 
ENDROOT
BRANCH   3   5
HETATM    5  C3  UNL     1     -34.344  14.656  -3.151  1.00 20.00     0.024 A 
HETATM    6  C1  UNL     1     -32.936  14.995  -3.564  1.00 20.00     0.012 A 
HETATM    7  C4  UNL     1     -33.921  16.097  -3.273  1.00 20.00    -0.011 A 
HETATM    8  C7  UNL     1     -33.764  16.941  -2.056  1.00 20.00     0.010 C 
ENDBRANCH   3   5
BRANCH   3   9
HETATM    9  O9  UNL     1     -35.143  12.592  -4.260  1.00 20.00    -0.389 OA
HETATM   10  H23 UNL     1     -34.377  12.506  -4.838  1.00 20.00     0.210 HD
ENDBRANCH   3   9
TORSDOF 2
ENDMDL
MODEL 7
REMARK VINA RESULT:      -4.2     11.157     12.984
REMARK  2 active torsions:
REMARK  status: ('A' for Active; 'I' for Inactive)
REMARK    1  A    between atoms: C3_3  and  C6_6 
REMARK    2  A    between atoms: C6_6  and  O9_9 
ROOT
HETATM    1  C2  UNL     1     -34.502  16.783  -6.489  1.00 20.00     0.045 A 
HETATM    2  C5  UNL     1     -34.290  15.322  -6.787  1.00 20.00     0.019 A 
HETATM    3  C6  UNL     1     -33.930  15.879  -5.427  1.00 20.00     0.066 A 
HETATM    4  C8  UNL     1     -35.460  14.420  -6.982  1.00 20.00     0.013 C 
ENDROOT
BRANCH   3   5
HETATM    5  C3  UNL     1     -34.686  15.555  -4.141  1.00 20.00     0.024 A 
HETATM    6  C1  UNL     1     -34.411  14.317  -3.329  1.00 20.00     0.012 A 
HETATM    7  C4  UNL     1     -34.050  15.672  -2.780  1.00 20.00    -0.011 A 
HETATM    8  C7  UNL     1     -34.815  16.247  -1.639  1.00 20.00     0.010 C 
ENDBRANCH   3   5
BRANCH   3   9
HETATM    9  O9  UNL     1     -32.508  16.038  -5.215  1.00 20.00    -0.389 OA
HETATM   10  H23 UNL     1     -32.377  15.921  -4.267  1.00 20.00     0.210 HD
ENDBRANCH   3   9
TORSDOF 2
ENDMDL
MODEL 8
REMARK VINA RESULT:      -4.1      1.158      3.487
REMARK  2 active torsions:
REMARK  status: ('A' for Active; 'I' for Inactive)
REMARK    1  A    between atoms: C3_3  and  C6_6 
REMARK    2  A    between atoms: C6_6  and  O9_9 
ROOT
HETATM    1  C2  UNL     1     -32.066   5.508   3.241  1.00 20.00     0.045 A 
HETATM    2  C5  UNL     1     -32.504   6.753   2.516  1.00 20.00     0.019 A 
HETATM    3  C6  UNL     1     -33.520   5.906   3.249  1.00 20.00     0.066 A 
HETATM    4  C8  UNL     1     -32.091   8.095   3.016  1.00 20.00     0.013 C 
ENDROOT
BRANCH   3   5
HETATM    5  C3  UNL     1     -34.238   6.341   4.524  1.00 20.00     0.024 A 
HETATM    6  C1  UNL     1     -34.820   5.356   5.503  1.00 20.00     0.012 A 
HETATM    7  C4  UNL     1     -33.623   6.184   5.890  1.00 20.00    -0.011 A 
HETATM    8  C7  UNL     1     -33.756   7.267   6.904  1.00 20.00     0.010 C 
ENDBRANCH   3   5
BRANCH   3   9
HETATM    9  O9  UNL     1     -34.359   5.111   2.379  1.00 20.00    -0.389 OA
HETATM   10  H23 UNL     1     -34.811   5.745   1.811  1.00 20.00     0.210 HD
ENDBRANCH   3   9
TORSDOF 2
ENDMDL
MODEL 9
REMARK VINA RESULT:      -4.0     10.975     12.844
REMARK  2 active torsions:
REMARK  status: ('A' for Active; 'I' for Inactive)
REMARK    1  A    between atoms: C3_3  and  C6_6 
REMARK    2  A    between atoms: C6_6  and  O9_9 
ROOT
HETATM    1  C2  UNL     1     -33.693  17.002  -3.710  1.00 20.00     0.045 A 
HETATM    2  C5  UNL     1     -33.256  16.948  -5.151  1.00 20.00     0.019 A 
HETATM    3  C6  UNL     1     -33.607  15.673  -4.417  1.00 20.00     0.066 A 
HETATM    4  C8  UNL     1     -34.131  17.507  -6.220  1.00 20.00     0.013 C 
ENDROOT
BRANCH   3   5
HETATM    5  C3  UNL     1     -34.842  14.827  -4.712  1.00 20.00     0.024 A 
HETATM    6  C1  UNL     1     -35.031  13.443  -4.149  1.00 20.00     0.012 A 
HETATM    7  C4  UNL     1     -35.912  14.572  -3.683  1.00 20.00    -0.011 A 
HETATM    8  C7  UNL     1     -37.350  14.610  -4.066  1.00 20.00     0.010 C 
ENDBRANCH   3   5
BRANCH   3   9
HETATM    9  O9  UNL     1     -32.459  14.875  -4.044  1.00 20.00    -0.389 OA
HETATM   10  H23 UNL     1     -31.759  15.134  -4.655  1.00 20.00     0.210 HD
ENDBRANCH   3   9
TORSDOF 2
ENDMDL
