MODEL 1
REMARK VINA RESULT:      -4.1      0.000      0.000
REMARK  3 active torsions:
REMARK  status: ('A' for Active; 'I' for Inactive)
REMARK    1  A    between atoms: C2_2  and  C6_6 
REMARK    2  A    between atoms: C3_3  and  C7_7 
REMARK    3  A    between atoms: C3_3  and  O8_8 
ROOT
HETATM    1  C1  UNL     1     -33.904   4.796   2.817  1.00 20.00     0.045 A 
HETATM    2  C2  UNL     1     -33.740   6.291   2.902  1.00 20.00     0.022 A 
HETATM    3  C3  UNL     1     -34.643   5.571   3.878  1.00 20.00     0.062 A 
ENDROOT
BRANCH   3   4
HETATM    4  C7  UNL     1     -34.284   5.395   5.317  1.00 20.00     0.034 C 
HETATM    5  C5  UNL     1     -34.992   4.231   5.959  1.00 20.00     0.008 C 
ENDBRANCH   3   4
BRANCH   3   6
HETATM    6  O8  UNL     1     -36.055   5.745   3.659  1.00 20.00    -0.389 OA
HETATM    7  H22 UNL     1     -36.280   6.593   4.064  1.00 20.00     0.210 HD
ENDBRANCH   3   6
BRANCH   2   8
HETATM    8  C6  UNL     1     -32.435   6.883   3.309  1.00 20.00     0.003 C 
HETATM    9  C4  UNL     1     -31.961   7.967   2.375  1.00 20.00     0.005 C 
ENDBRANCH   2   8
TORSDOF 3
ENDMDL
MODEL 2
REMARK VINA RESULT:      -4.1      1.284      3.509
REMARK  3 active torsions:
REMARK  status: ('A' for Active; 'I' for Inactive)
REMARK    1  A    between atoms: C2_2  and  C6_6 
REMARK    2  A    between atoms: C3_3  and  C7_7 
REMARK    3  A    between atoms: C3_3  and  O8_8 
ROOT
HETATM    1  C1  UNL     1     -35.593   5.787   3.940  1.00 20.00     0.045 A 
HETATM    2  C2  UNL     1     -34.928   4.498   4.346  1.00 20.00     0.022 A 
HETATM    3  C3  UNL     1     -34.201   5.476   3.450  1.00 20.00     0.062 A 
ENDROOT
BRANCH   3   4
HETATM    4  C7  UNL     1     -33.043   6.288   3.928  1.00 20.00     0.034 C 
HETATM    5  C5  UNL     1     -32.397   7.091   2.830  1.00 20.00     0.008 C 
ENDBRANCH   3   4
BRANCH   3   6
HETATM    6  O8  UNL     1     -34.095   5.088   2.068  1.00 20.00    -0.389 OA
HETATM    7  H22 UNL     1     -34.723   5.646   1.591  1.00 20.00     0.210 HD
ENDBRANCH   3   6
BRANCH   2   8
HETATM    8  C6  UNL     1     -34.532   4.270   5.765  1.00 20.00     0.003 C 
HETATM    9  C4  UNL     1     -34.865   5.432   6.665  1.00 20.00     0.005 C 
ENDBRANCH   2   8
TORSDOF 3
ENDMDL
MODEL 3
REMARK VINA RESULT:      -4.0     11.288     12.182
REMARK  3 active torsions:
REMARK  status: ('A' for Active; 'I' for Inactive)
REMARK    1  A    between atoms: C2_2  and  C6_6 
REMARK    2  A    between atoms: C3_3  and  C7_7 
REMARK    3  A    between atoms: C3_3  and  O8_8 
ROOT
HETATM    1  C1  UNL     1     -36.184  14.831  -3.678  1.00 20.00     0.045 A 
HETATM    2  C2  UNL     1     -34.857  14.761  -2.970  1.00 20.00     0.022 A 
HETATM    3  C3  UNL     1     -35.057  14.027  -4.277  1.00 20.00     0.062 A 
ENDROOT
BRANCH   3   4
HETATM    4  C7  UNL     1     -34.416  14.473  -5.549  1.00 20.00     0.034 C 
HETATM    5  C5  UNL     1     -35.347  14.399  -6.731  1.00 20.00     0.008 C 
ENDBRANCH   3   4
BRANCH   3   6
HETATM    6  O8  UNL     1     -35.181  12.597  -4.171  1.00 20.00    -0.389 OA
HETATM    7  H22 UNL     1     -34.759  12.359  -3.335  1.00 20.00     0.210 HD
ENDBRANCH   3   6
BRANCH   2   8
HETATM    8  C6  UNL     1     -33.998  15.974  -2.859  1.00 20.00     0.003 C 
HETATM    9  C4  UNL     1     -34.154  16.689  -1.541  1.00 20.00     0.005 C 
ENDBRANCH   2   8
TORSDOF 3
ENDMDL
MODEL 4
REMARK VINA RESULT:      -4.0      1.151      1.337
REMARK  3 active torsions:
REMARK  status: ('A' for Active; 'I' for Inactive)
REMARK    1  A    between atoms: C2_2  and  C6_6 
REMARK    2  A    between atoms: C3_3  and  C7_7 
REMARK    3  A    between atoms: C3_3  and  O8_8 
ROOT
HETATM    1  C1  UNL     1     -32.377   5.396   3.220  1.00 20.00     0.045 A 
HETATM    2  C2  UNL     1     -32.883   6.676   2.608  1.00 20.00     0.022 A 
HETATM    3  C3  UNL     1     -33.634   6.036   3.754  1.00 20.00     0.062 A 
ENDROOT
BRANCH   3   4
HETATM    4  C7  UNL     1     -33.647   6.623   5.127  1.00 20.00     0.034 C 
HETATM    5  C5  UNL     1     -34.365   5.757   6.128  1.00 20.00     0.008 C 
ENDBRANCH   3   4
BRANCH   3   6
HETATM    6  O8  UNL     1     -34.868   5.386   3.400  1.00 20.00    -0.389 OA
HETATM    7  H22 UNL     1     -35.504   5.644   4.079  1.00 20.00     0.210 HD
ENDBRANCH   3   6
BRANCH   2   8
HETATM    8  C6  UNL     1     -32.114   7.942   2.766  1.00 20.00     0.003 C 
HETATM    9  C4  UNL     1     -32.033   8.747   1.493  1.00 20.00     0.005 C 
ENDBRANCH   2   8
TORSDOF 3
ENDMDL
MODEL 5
REMARK VINA RESULT:      -3.9      2.195      4.250
REMARK  3 active torsions:
REMARK  status: ('A' for Active; 'I' for Inactive)
REMARK    1  A    between atoms: C2_2  and  C6_6 
REMARK    2  A    between atoms: C3_3  and  C7_7 
REMARK    3  A    between atoms: C3_3  and  O8_8 
ROOT
HETATM    1  C1  UNL     1     -32.092   5.742   2.952  1.00 20.00     0.045 A 
HETATM    2  C2  UNL     1     -33.069   6.235   3.988  1.00 20.00     0.022 A 
HETATM    3  C3  UNL     1     -32.207   7.219   3.230  1.00 20.00     0.062 A 
ENDROOT
BRANCH   3   4
HETATM    4  C7  UNL     1     -32.765   8.133   2.189  1.00 20.00     0.034 C 
HETATM    5  C5  UNL     1     -31.728   8.597   1.199  1.00 20.00     0.008 C 
ENDBRANCH   3   4
BRANCH   3   6
HETATM    6  O8  UNL     1     -31.126   7.802   3.981  1.00 20.00    -0.389 OA
HETATM    7  H22 UNL     1     -31.540   8.255   4.727  1.00 20.00     0.210 HD
ENDBRANCH   3   6
BRANCH   2   8
HETATM    8  C6  UNL     1     -34.536   6.115   3.756  1.00 20.00     0.003 C 
HETATM    9  C4  UNL     1     -35.160   4.965   4.506  1.00 20.00     0.005 C 
ENDBRANCH   2   8
TORSDOF 3
ENDMDL
MODEL 6
REMARK VINA RESULT:      -3.9     11.686     12.743
REMARK  3 active torsions:
REMARK  status: ('A' for Active; 'I' for Inactive)
REMARK    1  A    between atoms: C2_2  and  C6_6 
REMARK    2  A    between atoms: C3_3  and  C7_7 
REMARK    3  A    between atoms: C3_3  and  O8_8 
ROOT
HETATM    1  C1  UNL     1     -33.620  14.167  -3.679  1.00 20.00     0.045 A 
HETATM    2  C2  UNL     1     -33.728  15.483  -2.955  1.00 20.00     0.022 A 
HETATM    3  C3  UNL     1     -33.690  15.452  -4.466  1.00 20.00     0.062 A 
ENDROOT
BRANCH   3   4
HETATM    4  C7  UNL     1     -34.891  15.751  -5.301  1.00 20.00     0.034 C 
HETATM    5  C5  UNL     1     -35.152  14.701  -6.349  1.00 20.00     0.008 C 
ENDBRANCH   3   4
BRANCH   3   6
HETATM    6  O8  UNL     1     -32.456  15.889  -5.064  1.00 20.00    -0.389 OA
HETATM    7  H22 UNL     1     -31.754  15.555  -4.490  1.00 20.00     0.210 HD
ENDBRANCH   3   6
BRANCH   2   8
HETATM    8  C6  UNL     1     -34.963  15.825  -2.194  1.00 20.00     0.003 C 
HETATM    9  C4  UNL     1     -34.680  16.559  -0.908  1.00 20.00     0.005 C 
ENDBRANCH   2   8
TORSDOF 3
ENDMDL
MODEL 7
REMARK VINA RESULT:      -3.7      1.899      2.884
REMARK  3 active torsions:
REMARK  status: ('A' for Active; 'I' for Inactive)
REMARK    1  A    between atoms: C2_2  and  C6_6 
REMARK    2  A    between atoms: C3_3  and  C7_7 
REMARK    3  A    between atoms: C3_3  and  O8_8 
ROOT
HETATM    1  C1  UNL     1     -31.491   7.606   3.865  1.00 20.00     0.045 A 
HETATM    2  C2  UNL     1     -31.868   7.774   2.416  1.00 20.00     0.022 A 
HETATM    3  C3  UNL     1     -32.526   6.698   3.250  1.00 20.00     0.062 A 
ENDROOT
BRANCH   3   4
HETATM    4  C7  UNL     1     -33.951   6.787   3.689  1.00 20.00     0.034 C 
HETATM    5  C5  UNL     1     -34.657   5.457   3.663  1.00 20.00     0.008 C 
ENDBRANCH   3   4
BRANCH   3   6
HETATM    6  O8  UNL     1     -32.097   5.352   2.975  1.00 20.00    -0.389 OA
HETATM    7  H22 UNL     1     -31.440   5.426   2.270  1.00 20.00     0.210 HD
ENDBRANCH   3   6
BRANCH   2   8
HETATM    8  C6  UNL     1     -32.597   8.993   1.966  1.00 20.00     0.003 C 
HETATM    9  C4  UNL     1     -32.365   9.316   0.511  1.00 20.00     0.005 C 
ENDBRANCH   2   8
TORSDOF 3
ENDMDL
MODEL 8
REMARK VINA RESULT:      -3.6     11.800     13.013
REMARK  3 active torsions:
REMARK  status: ('A' for Active; 'I' for Inactive)
REMARK    1  A    between atoms: C2_2  and  C6_6 
REMARK    2  A    between atoms: C3_3  and  C7_7 
REMARK    3  A    between atoms: C3_3  and  O8_8 
ROOT
HETATM    1  C1  UNL     1     -33.349  16.711  -4.840  1.00 20.00     0.045 A 
HETATM    2  C2  UNL     1     -33.793  15.449  -5.533  1.00 20.00     0.022 A 
HETATM    3  C3  UNL     1     -33.361  15.406  -4.084  1.00 20.00     0.062 A 
ENDROOT
BRANCH   3   4
HETATM    4  C7  UNL     1     -34.332  15.200  -2.968  1.00 20.00     0.034 C 
HETATM    5  C5  UNL     1     -34.276  16.293  -1.934  1.00 20.00     0.008 C 
ENDBRANCH   3   4
BRANCH   3   6
HETATM    6  O8  UNL     1     -32.074  14.810  -3.839  1.00 20.00    -0.389 OA
HETATM    7  H22 UNL     1     -31.531  15.037  -4.605  1.00 20.00     0.210 HD
ENDBRANCH   3   6
BRANCH   2   8
HETATM    8  C6  UNL     1     -35.213  15.279  -5.948  1.00 20.00     0.003 C 
HETATM    9  C4  UNL     1     -35.367  14.466  -7.209  1.00 20.00     0.005 C 
ENDBRANCH   2   8
TORSDOF 3
ENDMDL
MODEL 9
REMARK VINA RESULT:      -3.6     11.437     12.412
REMARK  3 active torsions:
REMARK  status: ('A' for Active; 'I' for Inactive)
REMARK    1  A    between atoms: C2_2  and  C6_6 
REMARK    2  A    between atoms: C3_3  and  C7_7 
REMARK    3  A    between atoms: C3_3  and  O8_8 
ROOT
HETATM    1  C1  UNL     1     -34.787  14.037  -5.437  1.00 20.00     0.045 A 
HETATM    2  C2  UNL     1     -35.355  13.884  -4.051  1.00 20.00     0.022 A 
HETATM    3  C3  UNL     1     -33.883  14.173  -4.238  1.00 20.00     0.062 A 
ENDROOT
BRANCH   3   4
HETATM    4  C7  UNL     1     -33.281  15.499  -3.905  1.00 20.00     0.034 C 
HETATM    5  C5  UNL     1     -33.216  16.427  -5.089  1.00 20.00     0.008 C 
ENDBRANCH   3   4
BRANCH   3   6
HETATM    6  O8  UNL     1     -32.997  13.066  -3.991  1.00 20.00    -0.389 OA
HETATM    7  H22 UNL     1     -32.957  12.973  -3.031  1.00 20.00     0.210 HD
ENDBRANCH   3   6
BRANCH   2   8
HETATM    8  C6  UNL     1     -36.306  14.896  -3.510  1.00 20.00     0.003 C 
HETATM    9  C4  UNL     1     -37.708  14.730  -4.037  1.00 20.00     0.005 C 
ENDBRANCH   2   8
TORSDOF 3
ENDMDL
