MODEL 1
REMARK VINA RESULT:      -4.5      0.000      0.000
REMARK  2 active torsions:
REMARK  status: ('A' for Active; 'I' for Inactive)
REMARK    1  A    between atoms: C3_3  and  C6_6 
REMARK    2  A    between atoms: C6_6  and  O9_9 
ROOT
HETATM    1  C2  UNL     1     -32.674   5.470   2.925  1.00 20.00     0.045 A 
HETATM    2  C5  UNL     1     -32.697   6.975   3.001  1.00 20.00     0.019 A 
HETATM    3  C6  UNL     1     -33.591   6.155   3.906  1.00 20.00     0.066 A 
HETATM    4  C8  UNL     1     -31.516   7.716   3.524  1.00 20.00     0.013 C 
ENDROOT
BRANCH   3   5
HETATM    5  C3  UNL     1     -33.403   6.037   5.415  1.00 20.00     0.024 A 
HETATM    6  C1  UNL     1     -34.464   6.448   6.402  1.00 20.00     0.012 A 
HETATM    7  C4  UNL     1     -34.076   4.997   6.281  1.00 20.00    -0.011 A 
HETATM    8  C7  UNL     1     -35.039   4.009   5.720  1.00 20.00     0.010 C 
ENDBRANCH   3   5
BRANCH   3   9
HETATM    9  O9  UNL     1     -34.984   6.158   3.513  1.00 20.00    -0.389 OA
HETATM   10  H23 UNL     1     -35.022   6.696   2.715  1.00 20.00     0.210 HD
ENDBRANCH   3   9
TORSDOF 2
ENDMDL
MODEL 2
REMARK VINA RESULT:      -4.5     11.975     13.564
REMARK  2 active torsions:
REMARK  status: ('A' for Active; 'I' for Inactive)
REMARK    1  A    between atoms: C3_3  and  C6_6 
REMARK    2  A    between atoms: C6_6  and  O9_9 
ROOT
HETATM    1  C2  UNL     1     -34.965  16.646  -5.985  1.00 20.00     0.045 A 
HETATM    2  C5  UNL     1     -34.296  15.787  -7.028  1.00 20.00     0.019 A 
HETATM    3  C6  UNL     1     -33.954  15.609  -5.564  1.00 20.00     0.066 A 
HETATM    4  C8  UNL     1     -35.086  14.772  -7.780  1.00 20.00     0.013 C 
ENDROOT
BRANCH   3   5
HETATM    5  C3  UNL     1     -34.339  14.386  -4.738  1.00 20.00     0.024 A 
HETATM    6  C1  UNL     1     -33.409  13.757  -3.733  1.00 20.00     0.012 A 
HETATM    7  C4  UNL     1     -34.678  14.421  -3.266  1.00 20.00    -0.011 A 
HETATM    8  C7  UNL     1     -34.616  15.681  -2.473  1.00 20.00     0.010 C 
ENDBRANCH   3   5
BRANCH   3   9
HETATM    9  O9  UNL     1     -32.666  16.154  -5.193  1.00 20.00    -0.389 OA
HETATM   10  H23 UNL     1     -32.055  15.849  -5.873  1.00 20.00     0.210 HD
ENDBRANCH   3   9
TORSDOF 2
ENDMDL
MODEL 3
REMARK VINA RESULT:      -4.4      1.569      2.340
REMARK  2 active torsions:
REMARK  status: ('A' for Active; 'I' for Inactive)
REMARK    1  A    between atoms: C3_3  and  C6_6 
REMARK    2  A    between atoms: C6_6  and  O9_9 
ROOT
HETATM    1  C2  UNL     1     -31.608   7.676   3.901  1.00 20.00     0.045 A 
HETATM    2  C5  UNL     1     -31.792   7.728   2.405  1.00 20.00     0.019 A 
HETATM    3  C6  UNL     1     -32.508   6.674   3.222  1.00 20.00     0.066 A 
HETATM    4  C8  UNL     1     -32.519   8.868   1.780  1.00 20.00     0.013 C 
ENDROOT
BRANCH   3   5
HETATM    5  C3  UNL     1     -34.017   6.648   3.451  1.00 20.00     0.024 A 
HETATM    6  C1  UNL     1     -34.794   5.367   3.607  1.00 20.00     0.012 A 
HETATM    7  C4  UNL     1     -34.675   6.316   4.770  1.00 20.00    -0.011 A 
HETATM    8  C7  UNL     1     -33.881   5.932   5.972  1.00 20.00     0.010 C 
ENDBRANCH   3   5
BRANCH   3   9
HETATM    9  O9  UNL     1     -31.937   5.350   3.101  1.00 20.00    -0.389 OA
HETATM   10  H23 UNL     1     -31.297   5.282   3.818  1.00 20.00     0.210 HD
ENDBRANCH   3   9
TORSDOF 2
ENDMDL
MODEL 4
REMARK VINA RESULT:      -4.3     12.141     13.946
REMARK  2 active torsions:
REMARK  status: ('A' for Active; 'I' for Inactive)
REMARK    1  A    between atoms: C3_3  and  C6_6 
REMARK    2  A    between atoms: C6_6  and  O9_9 
ROOT
HETATM    1  C2  UNL     1     -34.023  14.365  -3.665  1.00 20.00     0.045 A 
HETATM    2  C5  UNL     1     -33.762  15.568  -2.796  1.00 20.00     0.019 A 
HETATM    3  C6  UNL     1     -33.688  15.689  -4.303  1.00 20.00     0.066 A 
HETATM    4  C8  UNL     1     -34.872  16.179  -2.012  1.00 20.00     0.013 C 
ENDROOT
BRANCH   3   5
HETATM    5  C3  UNL     1     -34.694  16.463  -5.150  1.00 20.00     0.024 A 
HETATM    6  C1  UNL     1     -34.287  17.306  -6.330  1.00 20.00     0.012 A 
HETATM    7  C4  UNL     1     -35.118  16.068  -6.546  1.00 20.00    -0.011 A 
HETATM    8  C7  UNL     1     -34.534  14.887  -7.242  1.00 20.00     0.010 C 
ENDBRANCH   3   5
BRANCH   3   9
HETATM    9  O9  UNL     1     -32.339  15.775  -4.818  1.00 20.00    -0.389 OA
HETATM   10  H23 UNL     1     -32.307  15.153  -5.553  1.00 20.00     0.210 HD
ENDBRANCH   3   9
TORSDOF 2
ENDMDL
MODEL 5
REMARK VINA RESULT:      -4.1     12.231     13.669
REMARK  2 active torsions:
REMARK  status: ('A' for Active; 'I' for Inactive)
REMARK    1  A    between atoms: C3_3  and  C6_6 
REMARK    2  A    between atoms: C6_6  and  O9_9 
ROOT
HETATM    1  C2  UNL     1     -33.925  15.968  -2.847  1.00 20.00     0.045 A 
HETATM    2  C5  UNL     1     -33.748  17.334  -3.461  1.00 20.00     0.019 A 
HETATM    3  C6  UNL     1     -33.686  16.097  -4.330  1.00 20.00     0.066 A 
HETATM    4  C8  UNL     1     -34.896  18.281  -3.522  1.00 20.00     0.013 C 
ENDROOT
BRANCH   3   5
HETATM    5  C3  UNL     1     -34.746  15.721  -5.362  1.00 20.00     0.024 A 
HETATM    6  C1  UNL     1     -34.415  15.004  -6.645  1.00 20.00     0.012 A 
HETATM    7  C4  UNL     1     -35.249  14.316  -5.596  1.00 20.00    -0.011 A 
HETATM    8  C7  UNL     1     -34.701  13.148  -4.851  1.00 20.00     0.010 C 
ENDBRANCH   3   5
BRANCH   3   9
HETATM    9  O9  UNL     1     -32.347  15.740  -4.748  1.00 20.00    -0.389 OA
HETATM   10  H23 UNL     1     -31.919  16.575  -4.970  1.00 20.00     0.210 HD
ENDBRANCH   3   9
TORSDOF 2
ENDMDL
MODEL 6
REMARK VINA RESULT:      -4.1     11.681     13.391
REMARK  2 active torsions:
REMARK  status: ('A' for Active; 'I' for Inactive)
REMARK    1  A    between atoms: C3_3  and  C6_6 
REMARK    2  A    between atoms: C6_6  and  O9_9 
ROOT
HETATM    1  C2  UNL     1     -35.016  14.401  -3.523  1.00 20.00     0.045 A 
HETATM    2  C5  UNL     1     -33.579  13.994  -3.728  1.00 20.00     0.019 A 
HETATM    3  C6  UNL     1     -34.549  13.968  -4.890  1.00 20.00     0.066 A 
HETATM    4  C8  UNL     1     -32.493  15.008  -3.633  1.00 20.00     0.013 C 
ENDROOT
BRANCH   3   5
HETATM    5  C3  UNL     1     -34.492  14.930  -6.073  1.00 20.00     0.024 A 
HETATM    6  C1  UNL     1     -34.953  14.547  -7.456  1.00 20.00     0.012 A 
HETATM    7  C4  UNL     1     -35.698  15.604  -6.685  1.00 20.00    -0.011 A 
HETATM    8  C7  UNL     1     -37.081  15.339  -6.196  1.00 20.00     0.010 C 
ENDBRANCH   3   5
BRANCH   3   9
HETATM    9  O9  UNL     1     -34.975  12.638  -5.269  1.00 20.00    -0.389 OA
HETATM   10  H23 UNL     1     -34.220  12.068  -5.088  1.00 20.00     0.210 HD
ENDBRANCH   3   9
TORSDOF 2
ENDMDL
MODEL 7
REMARK VINA RESULT:      -4.1     11.707     12.861
REMARK  2 active torsions:
REMARK  status: ('A' for Active; 'I' for Inactive)
REMARK    1  A    between atoms: C3_3  and  C6_6 
REMARK    2  A    between atoms: C6_6  and  O9_9 
ROOT
HETATM    1  C2  UNL     1     -35.719  17.049  -3.442  1.00 20.00     0.045 A 
HETATM    2  C5  UNL     1     -35.360  16.572  -2.058  1.00 20.00     0.019 A 
HETATM    3  C6  UNL     1     -35.686  15.571  -3.144  1.00 20.00     0.066 A 
HETATM    4  C8  UNL     1     -33.973  16.749  -1.542  1.00 20.00     0.013 C 
ENDROOT
BRANCH   3   5
HETATM    5  C3  UNL     1     -34.663  14.635  -3.781  1.00 20.00     0.024 A 
HETATM    6  C1  UNL     1     -35.012  13.246  -4.250  1.00 20.00     0.012 A 
HETATM    7  C4  UNL     1     -34.614  14.297  -5.253  1.00 20.00    -0.011 A 
HETATM    8  C7  UNL     1     -35.617  14.829  -6.217  1.00 20.00     0.010 C 
ENDBRANCH   3   5
BRANCH   3   9
HETATM    9  O9  UNL     1     -36.993  14.964  -3.009  1.00 20.00    -0.389 OA
HETATM   10  H23 UNL     1     -37.259  15.132  -2.099  1.00 20.00     0.210 HD
ENDBRANCH   3   9
TORSDOF 2
ENDMDL
MODEL 8
REMARK VINA RESULT:      -4.0      0.855      3.784
REMARK  2 active torsions:
REMARK  status: ('A' for Active; 'I' for Inactive)
REMARK    1  A    between atoms: C3_3  and  C6_6 
REMARK    2  A    between atoms: C6_6  and  O9_9 
ROOT
HETATM    1  C2  UNL     1     -33.908   6.340   6.173  1.00 20.00     0.045 A 
HETATM    2  C5  UNL     1     -34.959   5.340   5.765  1.00 20.00     0.019 A 
HETATM    3  C6  UNL     1     -34.192   6.108   4.711  1.00 20.00     0.066 A 
HETATM    4  C8  UNL     1     -34.738   3.885   5.995  1.00 20.00     0.013 C 
ENDROOT
BRANCH   3   5
HETATM    5  C3  UNL     1     -33.165   5.480   3.772  1.00 20.00     0.024 A 
HETATM    6  C1  UNL     1     -33.129   5.771   2.294  1.00 20.00     0.012 A 
HETATM    7  C4  UNL     1     -31.991   6.219   3.173  1.00 20.00    -0.011 A 
HETATM    8  C7  UNL     1     -31.763   7.670   3.423  1.00 20.00     0.010 C 
ENDBRANCH   3   5
BRANCH   3   9
HETATM    9  O9  UNL     1     -34.956   7.163   4.080  1.00 20.00    -0.389 OA
HETATM   10  H23 UNL     1     -34.689   7.151   3.154  1.00 20.00     0.210 HD
ENDBRANCH   3   9
TORSDOF 2
ENDMDL
MODEL 9
REMARK VINA RESULT:      -4.0     12.195     12.775
REMARK  2 active torsions:
REMARK  status: ('A' for Active; 'I' for Inactive)
REMARK    1  A    between atoms: C3_3  and  C6_6 
REMARK    2  A    between atoms: C6_6  and  O9_9 
ROOT
HETATM    1  C2  UNL     1     -33.333  15.893  -3.018  1.00 20.00     0.045 A 
HETATM    2  C5  UNL     1     -34.198  16.878  -2.275  1.00 20.00     0.019 A 
HETATM    3  C6  UNL     1     -34.757  16.119  -3.458  1.00 20.00     0.066 A 
HETATM    4  C8  UNL     1     -34.631  16.590  -0.879  1.00 20.00     0.013 C 
ENDROOT
BRANCH   3   5
HETATM    5  C3  UNL     1     -35.824  15.034  -3.352  1.00 20.00     0.024 A 
HETATM    6  C1  UNL     1     -36.846  14.789  -4.431  1.00 20.00     0.012 A 
HETATM    7  C4  UNL     1     -35.808  13.740  -4.133  1.00 20.00    -0.011 A 
HETATM    8  C7  UNL     1     -34.743  13.435  -5.130  1.00 20.00     0.010 C 
ENDBRANCH   3   5
BRANCH   3   9
HETATM    9  O9  UNL     1     -34.887  16.917  -4.659  1.00 20.00    -0.389 OA
HETATM   10  H23 UNL     1     -35.714  16.633  -5.065  1.00 20.00     0.210 HD
ENDBRANCH   3   9
TORSDOF 2
ENDMDL
