MODEL 1
REMARK VINA RESULT:      -4.3      0.000      0.000
REMARK  3 active torsions:
REMARK  status: ('A' for Active; 'I' for Inactive)
REMARK    1  A    between atoms: C1_1  and  C7_7 
REMARK    2  A    between atoms: C1_1  and  C8_8 
REMARK    3  A    between atoms: C8_8  and  C9_9 
ROOT
HETATM    1  C3  UNL     1     -32.618  15.063  -3.736  1.00 20.00     0.018 C 
HETATM    2  C8  UNL     1     -34.050  14.639  -3.394  1.00 20.00     0.058 C 
ENDROOT
BRANCH   2   3
HETATM    3  C1  UNL     1     -34.580  13.797  -4.562  1.00 20.00     0.131 C 
HETATM    4  O10 UNL     1     -35.106  12.698  -4.381  1.00 20.00    -0.298 OA
BRANCH   3   5
HETATM    5  C7  UNL     1     -34.446  14.407  -5.948  1.00 20.00     0.074 C 
HETATM    6  C2  UNL     1     -35.785  14.585  -6.641  1.00 20.00     0.013 C 
ENDBRANCH   3   5
ENDBRANCH   2   3
BRANCH   2   7
HETATM    7  C9  UNL     1     -35.010  15.806  -2.992  1.00 20.00    -0.041 C 
HETATM    8  C4  UNL     1     -34.751  16.229  -1.530  1.00 20.00     0.015 C 
HETATM    9  C5  UNL     1     -36.500  15.440  -3.134  1.00 20.00     0.015 C 
HETATM   10  C6  UNL     1     -34.736  17.036  -3.884  1.00 20.00     0.015 C 
ENDBRANCH   2   7
TORSDOF 3
ENDMDL
MODEL 2
REMARK VINA RESULT:      -4.1      0.888      2.252
REMARK  3 active torsions:
REMARK  status: ('A' for Active; 'I' for Inactive)
REMARK    1  A    between atoms: C1_1  and  C7_7 
REMARK    2  A    between atoms: C1_1  and  C8_8 
REMARK    3  A    between atoms: C8_8  and  C9_9 
ROOT
HETATM    1  C3  UNL     1     -36.651  15.116  -3.427  1.00 20.00     0.018 C 
HETATM    2  C8  UNL     1     -35.379  15.268  -4.268  1.00 20.00     0.058 C 
ENDROOT
BRANCH   2   3
HETATM    3  C1  UNL     1     -35.111  13.925  -4.958  1.00 20.00     0.131 C 
HETATM    4  O10 UNL     1     -34.966  12.885  -4.315  1.00 20.00    -0.298 OA
BRANCH   3   5
HETATM    5  C7  UNL     1     -35.067  13.945  -6.478  1.00 20.00     0.074 C 
HETATM    6  C2  UNL     1     -34.332  15.156  -7.025  1.00 20.00     0.013 C 
ENDBRANCH   3   5
ENDBRANCH   2   3
BRANCH   2   7
HETATM    7  C9  UNL     1     -34.136  15.824  -3.497  1.00 20.00    -0.041 C 
HETATM    8  C4  UNL     1     -33.769  17.228  -4.021  1.00 20.00     0.015 C 
HETATM    9  C5  UNL     1     -32.895  14.919  -3.620  1.00 20.00     0.015 C 
HETATM   10  C6  UNL     1     -34.475  15.964  -1.997  1.00 20.00     0.015 C 
ENDBRANCH   2   7
TORSDOF 3
ENDMDL
MODEL 3
REMARK VINA RESULT:      -4.1      1.712      3.745
REMARK  3 active torsions:
REMARK  status: ('A' for Active; 'I' for Inactive)
REMARK    1  A    between atoms: C1_1  and  C7_7 
REMARK    2  A    between atoms: C1_1  and  C8_8 
REMARK    3  A    between atoms: C8_8  and  C9_9 
ROOT
HETATM    1  C3  UNL     1     -35.287  13.349  -4.408  1.00 20.00     0.018 C 
HETATM    2  C8  UNL     1     -34.194  14.302  -4.902  1.00 20.00     0.058 C 
ENDROOT
BRANCH   2   3
HETATM    3  C1  UNL     1     -33.502  14.898  -3.670  1.00 20.00     0.131 C 
HETATM    4  O10 UNL     1     -32.275  14.936  -3.573  1.00 20.00    -0.298 OA
BRANCH   3   5
HETATM    5  C7  UNL     1     -34.413  15.466  -2.593  1.00 20.00     0.074 C 
HETATM    6  C2  UNL     1     -33.839  16.709  -1.938  1.00 20.00     0.013 C 
ENDBRANCH   3   5
ENDBRANCH   2   3
BRANCH   2   7
HETATM    7  C9  UNL     1     -34.670  15.385  -5.925  1.00 20.00    -0.041 C 
HETATM    8  C4  UNL     1     -34.561  14.841  -7.365  1.00 20.00     0.015 C 
HETATM    9  C5  UNL     1     -33.863  16.695  -5.838  1.00 20.00     0.015 C 
HETATM   10  C6  UNL     1     -36.155  15.724  -5.671  1.00 20.00     0.015 C 
ENDBRANCH   2   7
TORSDOF 3
ENDMDL
MODEL 4
REMARK VINA RESULT:      -4.1      1.446      2.829
REMARK  3 active torsions:
REMARK  status: ('A' for Active; 'I' for Inactive)
REMARK    1  A    between atoms: C1_1  and  C7_7 
REMARK    2  A    between atoms: C1_1  and  C8_8 
REMARK    3  A    between atoms: C8_8  and  C9_9 
ROOT
HETATM    1  C3  UNL     1     -34.851  14.481  -7.029  1.00 20.00     0.018 C 
HETATM    2  C8  UNL     1     -34.879  14.844  -5.540  1.00 20.00     0.058 C 
ENDROOT
BRANCH   2   3
HETATM    3  C1  UNL     1     -34.438  13.606  -4.749  1.00 20.00     0.131 C 
HETATM    4  O10 UNL     1     -34.902  12.490  -4.982  1.00 20.00    -0.298 OA
BRANCH   3   5
HETATM    5  C7  UNL     1     -33.376  13.831  -3.684  1.00 20.00     0.074 C 
HETATM    6  C2  UNL     1     -32.829  15.246  -3.693  1.00 20.00     0.013 C 
ENDBRANCH   3   5
ENDBRANCH   2   3
BRANCH   2   7
HETATM    7  C9  UNL     1     -36.226  15.454  -5.031  1.00 20.00    -0.041 C 
HETATM    8  C4  UNL     1     -36.044  16.952  -4.708  1.00 20.00     0.015 C 
HETATM    9  C5  UNL     1     -36.772  14.749  -3.774  1.00 20.00     0.015 C 
HETATM   10  C6  UNL     1     -37.297  15.346  -6.138  1.00 20.00     0.015 C 
ENDBRANCH   2   7
TORSDOF 3
ENDMDL
MODEL 5
REMARK VINA RESULT:      -4.0      1.876      4.122
REMARK  3 active torsions:
REMARK  status: ('A' for Active; 'I' for Inactive)
REMARK    1  A    between atoms: C1_1  and  C7_7 
REMARK    2  A    between atoms: C1_1  and  C8_8 
REMARK    3  A    between atoms: C8_8  and  C9_9 
ROOT
HETATM    1  C3  UNL     1     -36.826  15.080  -3.678  1.00 20.00     0.018 C 
HETATM    2  C8  UNL     1     -35.377  15.127  -3.183  1.00 20.00     0.058 C 
ENDROOT
BRANCH   2   3
HETATM    3  C1  UNL     1     -35.148  16.497  -2.534  1.00 20.00     0.131 C 
HETATM    4  O10 UNL     1     -35.367  17.546  -3.141  1.00 20.00    -0.298 OA
BRANCH   3   5
HETATM    5  C7  UNL     1     -34.666  16.487  -1.091  1.00 20.00     0.074 C 
HETATM    6  C2  UNL     1     -33.654  17.582  -0.805  1.00 20.00     0.013 C 
ENDBRANCH   3   5
ENDBRANCH   2   3
BRANCH   2   7
HETATM    7  C9  UNL     1     -34.297  14.766  -4.256  1.00 20.00    -0.041 C 
HETATM    8  C4  UNL     1     -32.884  15.061  -3.710  1.00 20.00     0.015 C 
HETATM    9  C5  UNL     1     -34.477  15.536  -5.578  1.00 20.00     0.015 C 
HETATM   10  C6  UNL     1     -34.364  13.256  -4.573  1.00 20.00     0.015 C 
ENDBRANCH   2   7
TORSDOF 3
ENDMDL
MODEL 6
REMARK VINA RESULT:      -3.9      1.931      3.856
REMARK  3 active torsions:
REMARK  status: ('A' for Active; 'I' for Inactive)
REMARK    1  A    between atoms: C1_1  and  C7_7 
REMARK    2  A    between atoms: C1_1  and  C8_8 
REMARK    3  A    between atoms: C8_8  and  C9_9 
ROOT
HETATM    1  C3  UNL     1     -32.661  14.775  -3.690  1.00 20.00     0.018 C 
HETATM    2  C8  UNL     1     -33.717  15.627  -4.401  1.00 20.00     0.058 C 
ENDROOT
BRANCH   2   3
HETATM    3  C1  UNL     1     -34.376  16.530  -3.351  1.00 20.00     0.131 C 
HETATM    4  O10 UNL     1     -34.598  17.721  -3.569  1.00 20.00    -0.298 OA
BRANCH   3   5
HETATM    5  C7  UNL     1     -34.766  15.864  -2.040  1.00 20.00     0.074 C 
HETATM    6  C2  UNL     1     -34.532  16.761  -0.838  1.00 20.00     0.013 C 
ENDBRANCH   3   5
ENDBRANCH   2   3
BRANCH   2   7
HETATM    7  C9  UNL     1     -34.749  14.825  -5.260  1.00 20.00    -0.041 C 
HETATM    8  C4  UNL     1     -34.391  14.928  -6.758  1.00 20.00     0.015 C 
HETATM    9  C5  UNL     1     -36.199  15.312  -5.072  1.00 20.00     0.015 C 
HETATM   10  C6  UNL     1     -34.697  13.330  -4.874  1.00 20.00     0.015 C 
ENDBRANCH   2   7
TORSDOF 3
ENDMDL
MODEL 7
REMARK VINA RESULT:      -3.9      1.231      3.507
REMARK  3 active torsions:
REMARK  status: ('A' for Active; 'I' for Inactive)
REMARK    1  A    between atoms: C1_1  and  C7_7 
REMARK    2  A    between atoms: C1_1  and  C8_8 
REMARK    3  A    between atoms: C8_8  and  C9_9 
ROOT
HETATM    1  C3  UNL     1     -37.089  15.326  -3.690  1.00 20.00     0.018 C 
HETATM    2  C8  UNL     1     -36.398  14.497  -4.777  1.00 20.00     0.058 C 
ENDROOT
BRANCH   2   3
HETATM    3  C1  UNL     1     -35.172  13.825  -4.145  1.00 20.00     0.131 C 
HETATM    4  O10 UNL     1     -34.848  12.672  -4.432  1.00 20.00    -0.298 OA
BRANCH   3   5
HETATM    5  C7  UNL     1     -34.366  14.671  -3.172  1.00 20.00     0.074 C 
HETATM    6  C2  UNL     1     -32.992  15.029  -3.708  1.00 20.00     0.013 C 
ENDBRANCH   3   5
ENDBRANCH   2   3
BRANCH   2   7
HETATM    7  C9  UNL     1     -36.065  15.275  -6.093  1.00 20.00    -0.041 C 
HETATM    8  C4  UNL     1     -37.272  15.239  -7.053  1.00 20.00     0.015 C 
HETATM    9  C5  UNL     1     -34.838  14.710  -6.834  1.00 20.00     0.015 C 
HETATM   10  C6  UNL     1     -35.780  16.756  -5.764  1.00 20.00     0.015 C 
ENDBRANCH   2   7
TORSDOF 3
ENDMDL
MODEL 8
REMARK VINA RESULT:      -3.9      1.574      3.707
REMARK  3 active torsions:
REMARK  status: ('A' for Active; 'I' for Inactive)
REMARK    1  A    between atoms: C1_1  and  C7_7 
REMARK    2  A    between atoms: C1_1  and  C8_8 
REMARK    3  A    between atoms: C8_8  and  C9_9 
ROOT
HETATM    1  C3  UNL     1     -33.500  17.029  -5.501  1.00 20.00     0.018 C 
HETATM    2  C8  UNL     1     -34.520  16.100  -4.834  1.00 20.00     0.058 C 
ENDROOT
BRANCH   2   3
HETATM    3  C1  UNL     1     -33.900  15.584  -3.529  1.00 20.00     0.131 C 
HETATM    4  O10 UNL     1     -32.746  15.156  -3.486  1.00 20.00    -0.298 OA
BRANCH   3   5
HETATM    5  C7  UNL     1     -34.777  15.661  -2.289  1.00 20.00     0.074 C 
HETATM    6  C2  UNL     1     -34.300  16.708  -1.299  1.00 20.00     0.013 C 
ENDBRANCH   3   5
ENDBRANCH   2   3
BRANCH   2   7
HETATM    7  C9  UNL     1     -35.073  14.957  -5.746  1.00 20.00    -0.041 C 
HETATM    8  C4  UNL     1     -36.589  15.142  -5.971  1.00 20.00     0.015 C 
HETATM    9  C5  UNL     1     -34.837  13.550  -5.164  1.00 20.00     0.015 C 
HETATM   10  C6  UNL     1     -34.390  15.019  -7.130  1.00 20.00     0.015 C 
ENDBRANCH   2   7
TORSDOF 3
ENDMDL
MODEL 9
REMARK VINA RESULT:      -3.8      1.526      3.399
REMARK  3 active torsions:
REMARK  status: ('A' for Active; 'I' for Inactive)
REMARK    1  A    between atoms: C1_1  and  C7_7 
REMARK    2  A    between atoms: C1_1  and  C8_8 
REMARK    3  A    between atoms: C8_8  and  C9_9 
ROOT
HETATM    1  C3  UNL     1     -34.839  13.316  -4.615  1.00 20.00     0.018 C 
HETATM    2  C8  UNL     1     -34.768  14.820  -4.333  1.00 20.00     0.058 C 
ENDROOT
BRANCH   2   3
HETATM    3  C1  UNL     1     -35.935  15.178  -3.404  1.00 20.00     0.131 C 
HETATM    4  O10 UNL     1     -37.009  14.578  -3.455  1.00 20.00    -0.298 OA
BRANCH   3   5
HETATM    5  C7  UNL     1     -35.680  16.292  -2.401  1.00 20.00     0.074 C 
HETATM    6  C2  UNL     1     -34.247  16.311  -1.900  1.00 20.00     0.013 C 
ENDBRANCH   3   5
ENDBRANCH   2   3
BRANCH   2   7
HETATM    7  C9  UNL     1     -34.689  15.731  -5.603  1.00 20.00    -0.041 C 
HETATM    8  C4  UNL     1     -33.507  16.716  -5.480  1.00 20.00     0.015 C 
HETATM    9  C5  UNL     1     -35.976  16.544  -5.844  1.00 20.00     0.015 C 
HETATM   10  C6  UNL     1     -34.436  14.860  -6.853  1.00 20.00     0.015 C 
ENDBRANCH   2   7
TORSDOF 3
ENDMDL
