MODEL 1
REMARK VINA RESULT:      -3.8      0.000      0.000
REMARK  4 active torsions:
REMARK  status: ('A' for Active; 'I' for Inactive)
REMARK    1  A    between atoms: C5_5  and  C8_8 
REMARK    2  A    between atoms: C6_6  and  C8_8 
REMARK    3  A    between atoms: C7_7  and  N9_9 
REMARK    4  A    between atoms: C8_8  and  N9_9 
ROOT
HETATM    1  C8  UNL     1     -34.285  15.936  -3.967  1.00 20.00     0.237 C 
ENDROOT
BRANCH   1   2
HETATM    2  C5  UNL     1     -33.788  16.821  -2.818  1.00 20.00     0.150 C 
HETATM    3 CL10 UNL     1     -34.545  16.360  -1.268  1.00 20.00    -0.128 Cl
ENDBRANCH   1   2
BRANCH   1   4
HETATM    4  C6  UNL     1     -34.586  14.490  -3.498  1.00 20.00     0.011 C 
HETATM    5  C1  UNL     1     -33.473  13.492  -3.832  1.00 20.00     0.012 C 
HETATM    6  C2  UNL     1     -35.920  13.987  -4.060  1.00 20.00     0.012 C 
ENDBRANCH   1   4
BRANCH   1   7
HETATM    7  N9  UNL     1     -33.349  15.955  -5.070  1.00 20.00     0.093 N 
HETATM    8  H28 UNL     1     -32.589  16.609  -4.867  1.00 20.00     0.316 HD
BRANCH   7   9
HETATM    9  C7  UNL     1     -34.000  16.364  -6.312  1.00 20.00     0.213 C 
HETATM   10  C3  UNL     1     -35.261  17.149  -5.978  1.00 20.00     0.042 C 
HETATM   11  C4  UNL     1     -34.313  15.122  -7.135  1.00 20.00     0.042 C 
ENDBRANCH   7   9
ENDBRANCH   1   7
TORSDOF 4
ENDMDL
MODEL 2
REMARK VINA RESULT:      -3.7     11.229     12.828
REMARK  4 active torsions:
REMARK  status: ('A' for Active; 'I' for Inactive)
REMARK    1  A    between atoms: C5_5  and  C8_8 
REMARK    2  A    between atoms: C6_6  and  C8_8 
REMARK    3  A    between atoms: C7_7  and  N9_9 
REMARK    4  A    between atoms: C8_8  and  N9_9 
ROOT
HETATM    1  C8  UNL     1     -33.703   5.965   4.226  1.00 20.00     0.237 C 
ENDROOT
BRANCH   1   2
HETATM    2  C5  UNL     1     -34.592   5.201   3.239  1.00 20.00     0.150 C 
HETATM    3 CL10 UNL     1     -36.284   5.764   3.318  1.00 20.00    -0.128 Cl
ENDBRANCH   1   2
BRANCH   1   4
HETATM    4  C6  UNL     1     -34.340   6.047   5.637  1.00 20.00     0.011 C 
HETATM    5  C1  UNL     1     -33.570   6.950   6.606  1.00 20.00     0.012 C 
HETATM    6  C2  UNL     1     -34.514   4.654   6.252  1.00 20.00     0.012 C 
ENDBRANCH   1   4
BRANCH   1   7
HETATM    7  N9  UNL     1     -33.375   7.277   3.712  1.00 20.00     0.093 N 
HETATM    8  H28 UNL     1     -34.084   7.569   3.034  1.00 20.00     0.316 HD
BRANCH   7   9
HETATM    9  C7  UNL     1     -32.070   7.279   3.056  1.00 20.00     0.213 C 
HETATM   10  C3  UNL     1     -31.008   7.699   4.062  1.00 20.00     0.042 C 
HETATM   11  C4  UNL     1     -32.120   8.222   1.863  1.00 20.00     0.042 C 
ENDBRANCH   7   9
ENDBRANCH   1   7
TORSDOF 4
ENDMDL
MODEL 3
REMARK VINA RESULT:      -3.7      2.209      3.773
REMARK  4 active torsions:
REMARK  status: ('A' for Active; 'I' for Inactive)
REMARK    1  A    between atoms: C5_5  and  C8_8 
REMARK    2  A    between atoms: C6_6  and  C8_8 
REMARK    3  A    between atoms: C7_7  and  N9_9 
REMARK    4  A    between atoms: C8_8  and  N9_9 
ROOT
HETATM    1  C8  UNL     1     -33.583  15.967  -3.289  1.00 20.00     0.237 C 
ENDROOT
BRANCH   1   2
HETATM    2  C5  UNL     1     -33.185  16.305  -4.730  1.00 20.00     0.150 C 
HETATM    3 CL10 UNL     1     -33.481  18.027  -5.100  1.00 20.00    -0.128 Cl
ENDBRANCH   1   2
BRANCH   1   4
HETATM    4  C6  UNL     1     -34.476  14.702  -3.215  1.00 20.00     0.011 C 
HETATM    5  C1  UNL     1     -34.054  13.596  -4.188  1.00 20.00     0.012 C 
HETATM    6  C2  UNL     1     -35.953  15.048  -3.433  1.00 20.00     0.012 C 
ENDBRANCH   1   4
BRANCH   1   7
HETATM    7  N9  UNL     1     -34.213  17.103  -2.652  1.00 20.00     0.093 N 
HETATM    8  H28 UNL     1     -34.049  17.946  -3.208  1.00 20.00     0.316 HD
BRANCH   7   9
HETATM    9  C7  UNL     1     -33.684  17.318  -1.308  1.00 20.00     0.213 C 
HETATM   10  C3  UNL     1     -34.766  16.993  -0.288  1.00 20.00     0.042 C 
HETATM   11  C4  UNL     1     -33.213  18.760  -1.189  1.00 20.00     0.042 C 
ENDBRANCH   7   9
ENDBRANCH   1   7
TORSDOF 4
ENDMDL
MODEL 4
REMARK VINA RESULT:      -3.7      2.587      3.795
REMARK  4 active torsions:
REMARK  status: ('A' for Active; 'I' for Inactive)
REMARK    1  A    between atoms: C5_5  and  C8_8 
REMARK    2  A    between atoms: C6_6  and  C8_8 
REMARK    3  A    between atoms: C7_7  and  N9_9 
REMARK    4  A    between atoms: C8_8  and  N9_9 
ROOT
HETATM    1  C8  UNL     1     -35.056  15.687  -3.288  1.00 20.00     0.237 C 
ENDROOT
BRANCH   1   2
HETATM    2  C5  UNL     1     -36.238  15.817  -4.255  1.00 20.00     0.150 C 
HETATM    3 CL10 UNL     1     -35.828  16.856  -5.647  1.00 20.00    -0.128 Cl
ENDBRANCH   1   2
BRANCH   1   4
HETATM    4  C6  UNL     1     -34.410  14.279  -3.347  1.00 20.00     0.011 C 
HETATM    5  C1  UNL     1     -32.915  14.304  -3.680  1.00 20.00     0.012 C 
HETATM    6  C2  UNL     1     -35.147  13.368  -4.335  1.00 20.00     0.012 C 
ENDBRANCH   1   4
BRANCH   1   7
HETATM    7  N9  UNL     1     -35.455  16.035  -1.941  1.00 20.00     0.093 N 
HETATM    8  H28 UNL     1     -36.254  16.674  -1.972  1.00 20.00     0.316 HD
BRANCH   7   9
HETATM    9  C7  UNL     1     -34.365  16.681  -1.216  1.00 20.00     0.213 C 
HETATM   10  C3  UNL     1     -34.894  17.213   0.109  1.00 20.00     0.042 C 
HETATM   11  C4  UNL     1     -33.790  17.794  -2.080  1.00 20.00     0.042 C 
ENDBRANCH   7   9
ENDBRANCH   1   7
TORSDOF 4
ENDMDL
MODEL 5
REMARK VINA RESULT:      -3.6      2.111      3.957
REMARK  4 active torsions:
REMARK  status: ('A' for Active; 'I' for Inactive)
REMARK    1  A    between atoms: C5_5  and  C8_8 
REMARK    2  A    between atoms: C6_6  and  C8_8 
REMARK    3  A    between atoms: C7_7  and  N9_9 
REMARK    4  A    between atoms: C8_8  and  N9_9 
ROOT
HETATM    1  C8  UNL     1     -34.030  15.602  -4.018  1.00 20.00     0.237 C 
ENDROOT
BRANCH   1   2
HETATM    2  C5  UNL     1     -33.684  14.109  -4.051  1.00 20.00     0.150 C 
HETATM    3 CL10 UNL     1     -35.143  13.109  -4.289  1.00 20.00    -0.128 Cl
ENDBRANCH   1   2
BRANCH   1   4
HETATM    4  C6  UNL     1     -33.418  16.366  -5.220  1.00 20.00     0.011 C 
HETATM    5  C1  UNL     1     -33.505  17.890  -5.087  1.00 20.00     0.012 C 
HETATM    6  C2  UNL     1     -34.051  15.924  -6.544  1.00 20.00     0.012 C 
ENDBRANCH   1   4
BRANCH   1   7
HETATM    7  N9  UNL     1     -33.639  16.191  -2.756  1.00 20.00     0.093 N 
HETATM    8  H28 UNL     1     -32.874  15.650  -2.345  1.00 20.00     0.316 HD
BRANCH   7   9
HETATM    9  C7  UNL     1     -34.755  16.216  -1.814  1.00 20.00     0.213 C 
HETATM   10  C3  UNL     1     -35.985  16.776  -2.514  1.00 20.00     0.042 C 
HETATM   11  C4  UNL     1     -34.362  17.058  -0.609  1.00 20.00     0.042 C 
ENDBRANCH   7   9
ENDBRANCH   1   7
TORSDOF 4
ENDMDL
MODEL 6
REMARK VINA RESULT:      -3.5      2.220      3.741
REMARK  4 active torsions:
REMARK  status: ('A' for Active; 'I' for Inactive)
REMARK    1  A    between atoms: C5_5  and  C8_8 
REMARK    2  A    between atoms: C6_6  and  C8_8 
REMARK    3  A    between atoms: C7_7  and  N9_9 
REMARK    4  A    between atoms: C8_8  and  N9_9 
ROOT
HETATM    1  C8  UNL     1     -33.873  15.927  -4.500  1.00 20.00     0.237 C 
ENDROOT
BRANCH   1   2
HETATM    2  C5  UNL     1     -33.946  16.546  -5.900  1.00 20.00     0.150 C 
HETATM    3 CL10 UNL     1     -34.214  15.298  -7.149  1.00 20.00    -0.128 Cl
ENDBRANCH   1   2
BRANCH   1   4
HETATM    4  C6  UNL     1     -34.297  14.436  -4.501  1.00 20.00     0.011 C 
HETATM    5  C1  UNL     1     -35.722  14.203  -3.989  1.00 20.00     0.012 C 
HETATM    6  C2  UNL     1     -33.311  13.575  -3.703  1.00 20.00     0.012 C 
ENDBRANCH   1   4
BRANCH   1   7
HETATM    7  N9  UNL     1     -34.650  16.702  -3.557  1.00 20.00     0.093 N 
HETATM    8  H28 UNL     1     -34.946  17.579  -3.991  1.00 20.00     0.316 HD
BRANCH   7   9
HETATM    9  C7  UNL     1     -33.875  17.010  -2.358  1.00 20.00     0.213 C 
HETATM   10  C3  UNL     1     -34.621  16.495  -1.135  1.00 20.00     0.042 C 
HETATM   11  C4  UNL     1     -33.652  18.514  -2.289  1.00 20.00     0.042 C 
ENDBRANCH   7   9
ENDBRANCH   1   7
TORSDOF 4
ENDMDL
MODEL 7
REMARK VINA RESULT:      -3.5      2.643      3.839
REMARK  4 active torsions:
REMARK  status: ('A' for Active; 'I' for Inactive)
REMARK    1  A    between atoms: C5_5  and  C8_8 
REMARK    2  A    between atoms: C6_6  and  C8_8 
REMARK    3  A    between atoms: C7_7  and  N9_9 
REMARK    4  A    between atoms: C8_8  and  N9_9 
ROOT
HETATM    1  C8  UNL     1     -35.315  15.317  -3.514  1.00 20.00     0.237 C 
ENDROOT
BRANCH   1   2
HETATM    2  C5  UNL     1     -34.903  13.881  -3.858  1.00 20.00     0.150 C 
HETATM    3 CL10 UNL     1     -33.138  13.657  -3.704  1.00 20.00    -0.128 Cl
ENDBRANCH   1   2
BRANCH   1   4
HETATM    4  C6  UNL     1     -34.227  16.051  -2.689  1.00 20.00     0.011 C 
HETATM    5  C1  UNL     1     -34.669  16.402  -1.265  1.00 20.00     0.012 C 
HETATM    6  C2  UNL     1     -33.741  17.315  -3.407  1.00 20.00     0.012 C 
ENDBRANCH   1   4
BRANCH   1   7
HETATM    7  N9  UNL     1     -36.597  15.335  -2.843  1.00 20.00     0.093 N 
HETATM    8  H28 UNL     1     -36.872  14.381  -2.598  1.00 20.00     0.316 HD
BRANCH   7   9
HETATM    9  C7  UNL     1     -37.632  15.919  -3.692  1.00 20.00     0.213 C 
HETATM   10  C3  UNL     1     -38.056  17.260  -3.110  1.00 20.00     0.042 C 
HETATM   11  C4  UNL     1     -38.801  14.949  -3.780  1.00 20.00     0.042 C 
ENDBRANCH   7   9
ENDBRANCH   1   7
TORSDOF 4
ENDMDL
MODEL 8
REMARK VINA RESULT:      -3.5      2.290      3.609
REMARK  4 active torsions:
REMARK  status: ('A' for Active; 'I' for Inactive)
REMARK    1  A    between atoms: C5_5  and  C8_8 
REMARK    2  A    between atoms: C6_6  and  C8_8 
REMARK    3  A    between atoms: C7_7  and  N9_9 
REMARK    4  A    between atoms: C8_8  and  N9_9 
ROOT
HETATM    1  C8  UNL     1     -34.106  16.047  -3.657  1.00 20.00     0.237 C 
ENDROOT
BRANCH   1   2
HETATM    2  C5  UNL     1     -33.222  16.456  -4.841  1.00 20.00     0.150 C 
HETATM    3 CL10 UNL     1     -34.134  16.423  -6.375  1.00 20.00    -0.128 Cl
ENDBRANCH   1   2
BRANCH   1   4
HETATM    4  C6  UNL     1     -33.894  16.968  -2.429  1.00 20.00     0.011 C 
HETATM    5  C1  UNL     1     -34.600  16.475  -1.162  1.00 20.00     0.012 C 
HETATM    6  C2  UNL     1     -34.320  18.409  -2.732  1.00 20.00     0.012 C 
ENDBRANCH   1   4
BRANCH   1   7
HETATM    7  N9  UNL     1     -33.900  14.654  -3.322  1.00 20.00     0.093 N 
HETATM    8  H28 UNL     1     -33.043  14.315  -3.766  1.00 20.00     0.316 HD
BRANCH   7   9
HETATM    9  C7  UNL     1     -35.019  13.830  -3.769  1.00 20.00     0.213 C 
HETATM   10  C3  UNL     1     -34.638  13.133  -5.067  1.00 20.00     0.042 C 
HETATM   11  C4  UNL     1     -36.243  14.717  -3.945  1.00 20.00     0.042 C 
ENDBRANCH   7   9
ENDBRANCH   1   7
TORSDOF 4
ENDMDL
MODEL 9
REMARK VINA RESULT:      -3.4      1.925      2.980
REMARK  4 active torsions:
REMARK  status: ('A' for Active; 'I' for Inactive)
REMARK    1  A    between atoms: C5_5  and  C8_8 
REMARK    2  A    between atoms: C6_6  and  C8_8 
REMARK    3  A    between atoms: C7_7  and  N9_9 
REMARK    4  A    between atoms: C8_8  and  N9_9 
ROOT
HETATM    1  C8  UNL     1     -34.878  15.579  -3.755  1.00 20.00     0.237 C 
ENDROOT
BRANCH   1   2
HETATM    2  C5  UNL     1     -34.730  14.061  -3.608  1.00 20.00     0.150 C 
HETATM    3 CL10 UNL     1     -33.016  13.565  -3.679  1.00 20.00    -0.128 Cl
ENDBRANCH   1   2
BRANCH   1   4
HETATM    4  C6  UNL     1     -35.566  16.217  -2.520  1.00 20.00     0.011 C 
HETATM    5  C1  UNL     1     -36.250  17.554  -2.822  1.00 20.00     0.012 C 
HETATM    6  C2  UNL     1     -34.580  16.388  -1.359  1.00 20.00     0.012 C 
ENDBRANCH   1   4
BRANCH   1   7
HETATM    7  N9  UNL     1     -35.571  15.910  -4.981  1.00 20.00     0.093 N 
HETATM    8  H28 UNL     1     -36.047  15.080  -5.344  1.00 20.00     0.316 HD
BRANCH   7   9
HETATM    9  C7  UNL     1     -34.644  16.401  -5.997  1.00 20.00     0.213 C 
HETATM   10  C3  UNL     1     -34.335  15.277  -6.976  1.00 20.00     0.042 C 
HETATM   11  C4  UNL     1     -33.385  16.910  -5.310  1.00 20.00     0.042 C 
ENDBRANCH   7   9
ENDBRANCH   1   7
TORSDOF 4
ENDMDL
