MODEL 1
REMARK VINA RESULT:      -4.4      0.000      0.000
REMARK  3 active torsions:
REMARK  status: ('A' for Active; 'I' for Inactive)
REMARK    1  A    between atoms: C3_3  and  C9_9 
REMARK    2  A    between atoms: C3_3  and  O10_10 
REMARK    3  A    between atoms: C8_8  and  C9_9 
ROOT
HETATM    1  C1  UNL     1     -33.000  14.212  -3.475  1.00 20.00     0.046 A 
HETATM    2  C2  UNL     1     -33.997  14.006  -4.586  1.00 20.00     0.019 A 
HETATM    3  C3  UNL     1     -33.556  15.405  -4.212  1.00 20.00     0.068 A 
HETATM    4  C4  UNL     1     -35.362  13.493  -4.285  1.00 20.00     0.013 C 
ENDROOT
BRANCH   3   5
HETATM    5  C9  UNL     1     -34.487  16.394  -3.485  1.00 20.00    -0.017 C 
HETATM    6  C6  UNL     1     -33.750  17.734  -3.330  1.00 20.00     0.018 C 
HETATM    7  C7  UNL     1     -35.744  16.603  -4.346  1.00 20.00     0.018 C 
BRANCH   5   8
HETATM    8  C8  UNL     1     -34.849  15.792  -2.103  1.00 20.00     0.007 C 
HETATM    9  C5  UNL     1     -34.551  16.673  -0.895  1.00 20.00     0.006 C 
ENDBRANCH   5   8
ENDBRANCH   3   5
BRANCH   3  10
HETATM   10  O10 UNL     1     -32.659  16.040  -5.142  1.00 20.00    -0.389 OA
HETATM   11  H28 UNL     1     -31.783  15.685  -4.946  1.00 20.00     0.210 HD
ENDBRANCH   3  10
TORSDOF 3
ENDMDL
MODEL 2
REMARK VINA RESULT:      -4.3      1.137      2.748
REMARK  3 active torsions:
REMARK  status: ('A' for Active; 'I' for Inactive)
REMARK    1  A    between atoms: C3_3  and  C9_9 
REMARK    2  A    between atoms: C3_3  and  O10_10 
REMARK    3  A    between atoms: C8_8  and  C9_9 
ROOT
HETATM    1  C1  UNL     1     -34.442  15.141  -6.513  1.00 20.00     0.046 A 
HETATM    2  C2  UNL     1     -34.994  16.332  -5.773  1.00 20.00     0.019 A 
HETATM    3  C3  UNL     1     -33.922  15.473  -5.137  1.00 20.00     0.068 A 
HETATM    4  C4  UNL     1     -36.404  16.331  -5.294  1.00 20.00     0.013 C 
ENDROOT
BRANCH   3   5
HETATM    5  C9  UNL     1     -34.217  14.531  -3.954  1.00 20.00    -0.017 C 
HETATM    6  C6  UNL     1     -35.131  13.398  -4.448  1.00 20.00     0.018 C 
HETATM    7  C7  UNL     1     -32.889  13.932  -3.464  1.00 20.00     0.018 C 
BRANCH   5   8
HETATM    8  C8  UNL     1     -34.904  15.357  -2.836  1.00 20.00     0.007 C 
HETATM    9  C5  UNL     1     -34.014  16.357  -2.107  1.00 20.00     0.006 C 
ENDBRANCH   5   8
ENDBRANCH   3   5
BRANCH   3  10
HETATM   10  O10 UNL     1     -32.608  16.059  -5.088  1.00 20.00    -0.389 OA
HETATM   11  H28 UNL     1     -32.736  17.004  -5.239  1.00 20.00     0.210 HD
ENDBRANCH   3  10
TORSDOF 3
ENDMDL
MODEL 3
REMARK VINA RESULT:      -4.3      1.803      3.183
REMARK  3 active torsions:
REMARK  status: ('A' for Active; 'I' for Inactive)
REMARK    1  A    between atoms: C3_3  and  C9_9 
REMARK    2  A    between atoms: C3_3  and  O10_10 
REMARK    3  A    between atoms: C8_8  and  C9_9 
ROOT
HETATM    1  C1  UNL     1     -34.193  15.320  -3.105  1.00 20.00     0.046 A 
HETATM    2  C2  UNL     1     -33.974  14.029  -3.852  1.00 20.00     0.019 A 
HETATM    3  C3  UNL     1     -33.636  15.351  -4.507  1.00 20.00     0.068 A 
HETATM    4  C4  UNL     1     -35.136  13.202  -4.280  1.00 20.00     0.013 C 
ENDROOT
BRANCH   3   5
HETATM    5  C9  UNL     1     -34.476  15.938  -5.657  1.00 20.00    -0.017 C 
HETATM    6  C6  UNL     1     -35.942  16.014  -5.202  1.00 20.00     0.018 C 
HETATM    7  C7  UNL     1     -33.966  17.357  -5.959  1.00 20.00     0.018 C 
BRANCH   5   8
HETATM    8  C8  UNL     1     -34.320  15.014  -6.892  1.00 20.00     0.007 C 
HETATM    9  C5  UNL     1     -35.597  14.728  -7.673  1.00 20.00     0.006 C 
ENDBRANCH   5   8
ENDBRANCH   3   5
BRANCH   3  10
HETATM   10  O10 UNL     1     -32.231  15.646  -4.615  1.00 20.00    -0.389 OA
HETATM   11  H28 UNL     1     -32.159  16.340  -5.282  1.00 20.00     0.210 HD
ENDBRANCH   3  10
TORSDOF 3
ENDMDL
MODEL 4
REMARK VINA RESULT:      -4.3      1.196      3.085
REMARK  3 active torsions:
REMARK  status: ('A' for Active; 'I' for Inactive)
REMARK    1  A    between atoms: C3_3  and  C9_9 
REMARK    2  A    between atoms: C3_3  and  O10_10 
REMARK    3  A    between atoms: C8_8  and  C9_9 
ROOT
HETATM    1  C1  UNL     1     -34.061  17.412  -3.903  1.00 20.00     0.046 A 
HETATM    2  C2  UNL     1     -33.667  16.523  -2.752  1.00 20.00     0.019 A 
HETATM    3  C3  UNL     1     -33.687  15.974  -4.162  1.00 20.00     0.068 A 
HETATM    4  C4  UNL     1     -34.674  16.128  -1.728  1.00 20.00     0.013 C 
ENDROOT
BRANCH   3   5
HETATM    5  C9  UNL     1     -34.758  14.974  -4.641  1.00 20.00    -0.017 C 
HETATM    6  C6  UNL     1     -34.512  14.670  -6.127  1.00 20.00     0.018 C 
HETATM    7  C7  UNL     1     -34.611  13.677  -3.828  1.00 20.00     0.018 C 
BRANCH   5   8
HETATM    8  C8  UNL     1     -36.152  15.616  -4.423  1.00 20.00     0.007 C 
HETATM    9  C5  UNL     1     -37.256  14.669  -3.968  1.00 20.00     0.006 C 
ENDBRANCH   5   8
ENDBRANCH   3   5
BRANCH   3  10
HETATM   10  O10 UNL     1     -32.396  15.761  -4.761  1.00 20.00    -0.389 OA
HETATM   11  H28 UNL     1     -31.756  16.148  -4.151  1.00 20.00     0.210 HD
ENDBRANCH   3  10
TORSDOF 3
ENDMDL
MODEL 5
REMARK VINA RESULT:      -4.3      1.403      1.745
REMARK  3 active torsions:
REMARK  status: ('A' for Active; 'I' for Inactive)
REMARK    1  A    between atoms: C3_3  and  C9_9 
REMARK    2  A    between atoms: C3_3  and  O10_10 
REMARK    3  A    between atoms: C8_8  and  C9_9 
ROOT
HETATM    1  C1  UNL     1     -35.293  13.511  -4.189  1.00 20.00     0.046 A 
HETATM    2  C2  UNL     1     -34.626  13.694  -5.528  1.00 20.00     0.019 A 
HETATM    3  C3  UNL     1     -34.060  14.373  -4.300  1.00 20.00     0.068 A 
HETATM    4  C4  UNL     1     -35.312  14.451  -6.613  1.00 20.00     0.013 C 
ENDROOT
BRANCH   3   5
HETATM    5  C9  UNL     1     -34.162  15.894  -4.080  1.00 20.00    -0.017 C 
HETATM    6  C6  UNL     1     -33.325  16.601  -5.159  1.00 20.00     0.018 C 
HETATM    7  C7  UNL     1     -35.634  16.312  -4.228  1.00 20.00     0.018 C 
BRANCH   5   8
HETATM    8  C8  UNL     1     -33.630  16.215  -2.659  1.00 20.00     0.007 C 
HETATM    9  C5  UNL     1     -34.679  16.274  -1.555  1.00 20.00     0.006 C 
ENDBRANCH   5   8
ENDBRANCH   3   5
BRANCH   3  10
HETATM   10  O10 UNL     1     -32.847  13.799  -3.780  1.00 20.00    -0.389 OA
HETATM   11  H28 UNL     1     -33.074  13.449  -2.909  1.00 20.00     0.210 HD
ENDBRANCH   3  10
TORSDOF 3
ENDMDL
MODEL 6
REMARK VINA RESULT:      -4.2      1.835      2.211
REMARK  3 active torsions:
REMARK  status: ('A' for Active; 'I' for Inactive)
REMARK    1  A    between atoms: C3_3  and  C9_9 
REMARK    2  A    between atoms: C3_3  and  O10_10 
REMARK    3  A    between atoms: C8_8  and  C9_9 
ROOT
HETATM    1  C1  UNL     1     -35.520  14.349  -5.055  1.00 20.00     0.046 A 
HETATM    2  C2  UNL     1     -34.865  13.710  -3.858  1.00 20.00     0.019 A 
HETATM    3  C3  UNL     1     -35.630  15.007  -3.702  1.00 20.00     0.068 A 
HETATM    4  C4  UNL     1     -33.381  13.643  -3.759  1.00 20.00     0.013 C 
ENDROOT
BRANCH   3   5
HETATM    5  C9  UNL     1     -34.925  16.352  -3.440  1.00 20.00    -0.017 C 
HETATM    6  C6  UNL     1     -34.074  16.706  -4.670  1.00 20.00     0.018 C 
HETATM    7  C7  UNL     1     -35.998  17.434  -3.238  1.00 20.00     0.018 C 
BRANCH   5   8
HETATM    8  C8  UNL     1     -34.043  16.197  -2.174  1.00 20.00     0.007 C 
HETATM    9  C5  UNL     1     -34.683  16.632  -0.861  1.00 20.00     0.006 C 
ENDBRANCH   5   8
ENDBRANCH   3   5
BRANCH   3  10
HETATM   10  O10 UNL     1     -36.911  14.896  -3.055  1.00 20.00    -0.389 OA
HETATM   11  H28 UNL     1     -36.746  15.059  -2.118  1.00 20.00     0.210 HD
ENDBRANCH   3  10
TORSDOF 3
ENDMDL
MODEL 7
REMARK VINA RESULT:      -4.2      1.890      3.073
REMARK  3 active torsions:
REMARK  status: ('A' for Active; 'I' for Inactive)
REMARK    1  A    between atoms: C3_3  and  C9_9 
REMARK    2  A    between atoms: C3_3  and  O10_10 
REMARK    3  A    between atoms: C8_8  and  C9_9 
ROOT
HETATM    1  C1  UNL     1     -33.138  14.051  -3.789  1.00 20.00     0.046 A 
HETATM    2  C2  UNL     1     -34.462  14.373  -3.145  1.00 20.00     0.019 A 
HETATM    3  C3  UNL     1     -34.371  14.195  -4.646  1.00 20.00     0.068 A 
HETATM    4  C4  UNL     1     -34.687  15.702  -2.512  1.00 20.00     0.013 C 
ENDROOT
BRANCH   3   5
HETATM    5  C9  UNL     1     -34.496  15.380  -5.624  1.00 20.00    -0.017 C 
HETATM    6  C6  UNL     1     -34.434  14.836  -7.060  1.00 20.00     0.018 C 
HETATM    7  C7  UNL     1     -35.857  16.058  -5.397  1.00 20.00     0.018 C 
BRANCH   5   8
HETATM    8  C8  UNL     1     -33.329  16.362  -5.346  1.00 20.00     0.007 C 
HETATM    9  C5  UNL     1     -33.651  17.842  -5.517  1.00 20.00     0.006 C 
ENDBRANCH   5   8
ENDBRANCH   3   5
BRANCH   3  10
HETATM   10  O10 UNL     1     -34.925  12.969  -5.158  1.00 20.00    -0.389 OA
HETATM   11  H28 UNL     1     -35.763  12.847  -4.696  1.00 20.00     0.210 HD
ENDBRANCH   3  10
TORSDOF 3
ENDMDL
MODEL 8
REMARK VINA RESULT:      -4.2      1.367      3.390
REMARK  3 active torsions:
REMARK  status: ('A' for Active; 'I' for Inactive)
REMARK    1  A    between atoms: C3_3  and  C9_9 
REMARK    2  A    between atoms: C3_3  and  O10_10 
REMARK    3  A    between atoms: C8_8  and  C9_9 
ROOT
HETATM    1  C1  UNL     1     -33.879  17.391  -3.859  1.00 20.00     0.046 A 
HETATM    2  C2  UNL     1     -33.645  16.446  -2.708  1.00 20.00     0.019 A 
HETATM    3  C3  UNL     1     -33.612  15.931  -4.131  1.00 20.00     0.068 A 
HETATM    4  C4  UNL     1     -34.752  16.119  -1.768  1.00 20.00     0.013 C 
ENDROOT
BRANCH   3   5
HETATM    5  C9  UNL     1     -34.727  15.039  -4.710  1.00 20.00    -0.017 C 
HETATM    6  C6  UNL     1     -34.785  13.738  -3.893  1.00 20.00     0.018 C 
HETATM    7  C7  UNL     1     -36.066  15.782  -4.573  1.00 20.00     0.018 C 
BRANCH   5   8
HETATM    8  C8  UNL     1     -34.395  14.752  -6.197  1.00 20.00     0.007 C 
HETATM    9  C5  UNL     1     -34.764  15.854  -7.184  1.00 20.00     0.006 C 
ENDBRANCH   5   8
ENDBRANCH   3   5
BRANCH   3  10
HETATM   10  O10 UNL     1     -32.304  15.620  -4.646  1.00 20.00    -0.389 OA
HETATM   11  H28 UNL     1     -32.210  14.663  -4.561  1.00 20.00     0.210 HD
ENDBRANCH   3  10
TORSDOF 3
ENDMDL
MODEL 9
REMARK VINA RESULT:      -4.2      1.576      2.628
REMARK  3 active torsions:
REMARK  status: ('A' for Active; 'I' for Inactive)
REMARK    1  A    between atoms: C3_3  and  C9_9 
REMARK    2  A    between atoms: C3_3  and  O10_10 
REMARK    3  A    between atoms: C8_8  and  C9_9 
ROOT
HETATM    1  C1  UNL     1     -34.146  15.301  -3.053  1.00 20.00     0.046 A 
HETATM    2  C2  UNL     1     -33.979  14.033  -3.850  1.00 20.00     0.019 A 
HETATM    3  C3  UNL     1     -33.610  15.368  -4.461  1.00 20.00     0.068 A 
HETATM    4  C4  UNL     1     -35.172  13.258  -4.289  1.00 20.00     0.013 C 
ENDROOT
BRANCH   3   5
HETATM    5  C9  UNL     1     -34.450  16.023  -5.575  1.00 20.00    -0.017 C 
HETATM    6  C6  UNL     1     -33.834  17.391  -5.911  1.00 20.00     0.018 C 
HETATM    7  C7  UNL     1     -34.394  15.124  -6.821  1.00 20.00     0.018 C 
BRANCH   5   8
HETATM    8  C8  UNL     1     -35.904  16.175  -5.059  1.00 20.00     0.007 C 
HETATM    9  C5  UNL     1     -37.002  15.953  -6.093  1.00 20.00     0.006 C 
ENDBRANCH   5   8
ENDBRANCH   3   5
BRANCH   3  10
HETATM   10  O10 UNL     1     -32.199  15.624  -4.583  1.00 20.00    -0.389 OA
HETATM   11  H28 UNL     1     -31.923  15.194  -5.402  1.00 20.00     0.210 HD
ENDBRANCH   3  10
TORSDOF 3
ENDMDL
