MODEL 1
REMARK VINA RESULT:      -4.2      0.000      0.000
REMARK  2 active torsions:
REMARK  status: ('A' for Active; 'I' for Inactive)
REMARK    1  A    between atoms: C4_4  and  C7_7 
REMARK    2  A    between atoms: C6_6  and  C7_7 
ROOT
HETATM    1  C1  UNL     1     -35.625  14.530  -4.130  1.00 20.00     0.034 C 
HETATM    2  C2  UNL     1     -35.120  13.132  -4.419  1.00 20.00     0.168 C 
HETATM    3  C3  UNL     1     -33.331  14.416  -3.657  1.00 20.00     0.173 C 
HETATM    4  C4  UNL     1     -34.615  15.018  -3.114  1.00 20.00     0.026 C 
HETATM    5  O8  UNL     1     -33.693  13.166  -4.266  1.00 20.00    -0.391 OA
ENDROOT
BRANCH   4   6
HETATM    6  C7  UNL     1     -34.566  16.526  -2.961  1.00 20.00     0.063 C 
HETATM    7 BR9  UNL     1     -33.668  17.268  -4.541  1.00 20.00    -0.091 Br
BRANCH   6   8
HETATM    8  C6  UNL     1     -33.820  16.946  -1.691  1.00 20.00     0.012 C 
HETATM    9  C5  UNL     1     -34.683  16.903  -0.436  1.00 20.00     0.006 C 
ENDBRANCH   6   8
ENDBRANCH   4   6
TORSDOF 2
ENDMDL
MODEL 2
REMARK VINA RESULT:      -4.0      1.582      2.135
REMARK  2 active torsions:
REMARK  status: ('A' for Active; 'I' for Inactive)
REMARK    1  A    between atoms: C4_4  and  C7_7 
REMARK    2  A    between atoms: C6_6  and  C7_7 
ROOT
HETATM    1  C1  UNL     1     -35.438  14.716  -3.888  1.00 20.00     0.034 C 
HETATM    2  C2  UNL     1     -35.223  13.289  -4.350  1.00 20.00     0.168 C 
HETATM    3  C3  UNL     1     -33.162  14.177  -3.723  1.00 20.00     0.173 C 
HETATM    4  C4  UNL     1     -34.251  14.925  -2.974  1.00 20.00     0.026 C 
HETATM    5  O8  UNL     1     -33.804  13.072  -4.379  1.00 20.00    -0.391 OA
ENDROOT
BRANCH   4   6
HETATM    6  C7  UNL     1     -33.920  16.382  -2.708  1.00 20.00     0.063 C 
HETATM    7 BR9  UNL     1     -34.566  16.832  -0.910  1.00 20.00    -0.091 Br
BRANCH   6   8
HETATM    8  C6  UNL     1     -34.565  17.310  -3.742  1.00 20.00     0.012 C 
HETATM    9  C5  UNL     1     -33.585  17.830  -4.787  1.00 20.00     0.006 C 
ENDBRANCH   6   8
ENDBRANCH   4   6
TORSDOF 2
ENDMDL
MODEL 3
REMARK VINA RESULT:      -3.8      0.943      1.440
REMARK  2 active torsions:
REMARK  status: ('A' for Active; 'I' for Inactive)
REMARK    1  A    between atoms: C4_4  and  C7_7 
REMARK    2  A    between atoms: C6_6  and  C7_7 
ROOT
HETATM    1  C1  UNL     1     -33.600  14.588  -3.929  1.00 20.00     0.034 C 
HETATM    2  C2  UNL     1     -34.192  13.295  -4.450  1.00 20.00     0.168 C 
HETATM    3  C3  UNL     1     -35.940  14.702  -3.820  1.00 20.00     0.173 C 
HETATM    4  C4  UNL     1     -34.735  15.561  -4.161  1.00 20.00     0.026 C 
HETATM    5  O8  UNL     1     -35.606  13.360  -4.211  1.00 20.00    -0.391 OA
ENDROOT
BRANCH   4   6
HETATM    6  C7  UNL     1     -34.640  16.834  -3.340  1.00 20.00     0.063 C 
HETATM    7 BR9  UNL     1     -33.813  18.217  -4.460  1.00 20.00    -0.091 Br
BRANCH   6   8
HETATM    8  C6  UNL     1     -33.814  16.630  -2.066  1.00 20.00     0.012 C 
HETATM    9  C5  UNL     1     -34.649  16.646  -0.792  1.00 20.00     0.006 C 
ENDBRANCH   6   8
ENDBRANCH   4   6
TORSDOF 2
ENDMDL
MODEL 4
REMARK VINA RESULT:      -3.7      1.602      1.916
REMARK  2 active torsions:
REMARK  status: ('A' for Active; 'I' for Inactive)
REMARK    1  A    between atoms: C4_4  and  C7_7 
REMARK    2  A    between atoms: C6_6  and  C7_7 
ROOT
HETATM    1  C1  UNL     1     -36.982  16.222  -3.737  1.00 20.00     0.034 C 
HETATM    2  C2  UNL     1     -37.736  14.915  -3.867  1.00 20.00     0.168 C 
HETATM    3  C3  UNL     1     -35.464  14.436  -3.662  1.00 20.00     0.173 C 
HETATM    4  C4  UNL     1     -35.728  15.784  -3.013  1.00 20.00     0.026 C 
HETATM    5  O8  UNL     1     -36.750  13.877  -3.975  1.00 20.00    -0.391 OA
ENDROOT
BRANCH   4   6
HETATM    6  C7  UNL     1     -34.570  16.756  -3.131  1.00 20.00     0.063 C 
HETATM    7 BR9  UNL     1     -33.387  16.120  -4.563  1.00 20.00    -0.091 Br
BRANCH   6   8
HETATM    8  C6  UNL     1     -33.787  16.872  -1.820  1.00 20.00     0.012 C 
HETATM    9  C5  UNL     1     -34.668  16.806  -0.578  1.00 20.00     0.006 C 
ENDBRANCH   6   8
ENDBRANCH   4   6
TORSDOF 2
ENDMDL
MODEL 5
REMARK VINA RESULT:      -3.7      2.009      3.816
REMARK  2 active torsions:
REMARK  status: ('A' for Active; 'I' for Inactive)
REMARK    1  A    between atoms: C4_4  and  C7_7 
REMARK    2  A    between atoms: C6_6  and  C7_7 
ROOT
HETATM    1  C1  UNL     1     -34.059  16.727  -1.431  1.00 20.00     0.034 C 
HETATM    2  C2  UNL     1     -35.340  17.448  -1.065  1.00 20.00     0.168 C 
HETATM    3  C3  UNL     1     -35.468  16.812  -3.303  1.00 20.00     0.173 C 
HETATM    4  C4  UNL     1     -34.510  15.871  -2.594  1.00 20.00     0.026 C 
HETATM    5  O8  UNL     1     -36.086  17.610  -2.281  1.00 20.00    -0.391 OA
ENDROOT
BRANCH   4   6
HETATM    6  C7  UNL     1     -33.379  15.373  -3.475  1.00 20.00     0.063 C 
HETATM    7 BR9  UNL     1     -33.496  16.306  -5.198  1.00 20.00    -0.091 Br
BRANCH   6   8
HETATM    8  C6  UNL     1     -33.453  13.859  -3.694  1.00 20.00     0.012 C 
HETATM    9  C5  UNL     1     -34.745  13.404  -4.361  1.00 20.00     0.006 C 
ENDBRANCH   6   8
ENDBRANCH   4   6
TORSDOF 2
ENDMDL
MODEL 6
REMARK VINA RESULT:      -3.6      2.933      3.222
REMARK  2 active torsions:
REMARK  status: ('A' for Active; 'I' for Inactive)
REMARK    1  A    between atoms: C4_4  and  C7_7 
REMARK    2  A    between atoms: C6_6  and  C7_7 
ROOT
HETATM    1  C1  UNL     1     -34.255  15.685  -5.976  1.00 20.00     0.034 C 
HETATM    2  C2  UNL     1     -34.382  16.767  -7.028  1.00 20.00     0.168 C 
HETATM    3  C3  UNL     1     -33.595  17.743  -5.064  1.00 20.00     0.173 C 
HETATM    4  C4  UNL     1     -33.209  16.274  -5.055  1.00 20.00     0.026 C 
HETATM    5  O8  UNL     1     -34.121  18.017  -6.373  1.00 20.00    -0.391 OA
ENDROOT
BRANCH   4   6
HETATM    6  C7  UNL     1     -33.183  15.658  -3.669  1.00 20.00     0.063 C 
HETATM    7 BR9  UNL     1     -34.361  14.087  -3.681  1.00 20.00    -0.091 Br
BRANCH   6   8
HETATM    8  C6  UNL     1     -33.646  16.649  -2.596  1.00 20.00     0.012 C 
HETATM    9  C5  UNL     1     -34.745  16.100  -1.695  1.00 20.00     0.006 C 
ENDBRANCH   6   8
ENDBRANCH   4   6
TORSDOF 2
ENDMDL
MODEL 7
REMARK VINA RESULT:      -3.6      2.457      4.212
REMARK  2 active torsions:
REMARK  status: ('A' for Active; 'I' for Inactive)
REMARK    1  A    between atoms: C4_4  and  C7_7 
REMARK    2  A    between atoms: C6_6  and  C7_7 
ROOT
HETATM    1  C1  UNL     1     -34.650  16.569  -0.798  1.00 20.00     0.034 C 
HETATM    2  C2  UNL     1     -34.892  17.839  -0.009  1.00 20.00     0.168 C 
HETATM    3  C3  UNL     1     -33.565  18.361  -1.851  1.00 20.00     0.173 C 
HETATM    4  C4  UNL     1     -34.369  17.115  -2.180  1.00 20.00     0.026 C 
HETATM    5  O8  UNL     1     -34.079  18.860  -0.606  1.00 20.00    -0.391 OA
ENDROOT
BRANCH   4   6
HETATM    6  C7  UNL     1     -33.646  16.146  -3.096  1.00 20.00     0.063 C 
HETATM    7 BR9  UNL     1     -33.529  16.966  -4.876  1.00 20.00    -0.091 Br
BRANCH   6   8
HETATM    8  C6  UNL     1     -34.372  14.801  -3.189  1.00 20.00     0.012 C 
HETATM    9  C5  UNL     1     -33.551  13.713  -3.871  1.00 20.00     0.006 C 
ENDBRANCH   6   8
ENDBRANCH   4   6
TORSDOF 2
ENDMDL
MODEL 8
REMARK VINA RESULT:      -3.6      2.580      4.344
REMARK  2 active torsions:
REMARK  status: ('A' for Active; 'I' for Inactive)
REMARK    1  A    between atoms: C4_4  and  C7_7 
REMARK    2  A    between atoms: C6_6  and  C7_7 
ROOT
HETATM    1  C1  UNL     1     -33.588  18.310  -1.836  1.00 20.00     0.034 C 
HETATM    2  C2  UNL     1     -33.732  18.539  -0.346  1.00 20.00     0.168 C 
HETATM    3  C3  UNL     1     -34.730  16.501  -0.875  1.00 20.00     0.173 C 
HETATM    4  C4  UNL     1     -33.675  16.802  -1.925  1.00 20.00     0.026 C 
HETATM    5  O8  UNL     1     -34.571  17.488   0.156  1.00 20.00    -0.391 OA
ENDROOT
BRANCH   4   6
HETATM    6  C7  UNL     1     -34.021  16.280  -3.307  1.00 20.00     0.063 C 
HETATM    7 BR9  UNL     1     -35.823  15.507  -3.230  1.00 20.00    -0.091 Br
BRANCH   6   8
HETATM    8  C6  UNL     1     -33.020  15.223  -3.783  1.00 20.00     0.012 C 
HETATM    9  C5  UNL     1     -33.580  13.806  -3.773  1.00 20.00     0.006 C 
ENDBRANCH   6   8
ENDBRANCH   4   6
TORSDOF 2
ENDMDL
MODEL 9
REMARK VINA RESULT:      -3.5      2.696      4.012
REMARK  2 active torsions:
REMARK  status: ('A' for Active; 'I' for Inactive)
REMARK    1  A    between atoms: C4_4  and  C7_7 
REMARK    2  A    between atoms: C6_6  and  C7_7 
ROOT
HETATM    1  C1  UNL     1     -34.001  16.396  -1.757  1.00 20.00     0.034 C 
HETATM    2  C2  UNL     1     -34.742  17.141  -0.667  1.00 20.00     0.168 C 
HETATM    3  C3  UNL     1     -36.086  17.097  -2.570  1.00 20.00     0.173 C 
HETATM    4  C4  UNL     1     -35.141  15.910  -2.626  1.00 20.00     0.026 C 
HETATM    5  O8  UNL     1     -35.930  17.680  -1.266  1.00 20.00    -0.391 OA
ENDROOT
BRANCH   4   6
HETATM    6  C7  UNL     1     -34.728  15.524  -4.034  1.00 20.00     0.063 C 
HETATM    7 BR9  UNL     1     -34.640  13.565  -4.124  1.00 20.00    -0.091 Br
BRANCH   6   8
HETATM    8  C6  UNL     1     -33.372  16.125  -4.416  1.00 20.00     0.012 C 
HETATM    9  C5  UNL     1     -33.480  17.320  -5.355  1.00 20.00     0.006 C 
ENDBRANCH   6   8
ENDBRANCH   4   6
TORSDOF 2
ENDMDL
