MODEL 1
REMARK VINA RESULT:      -4.9      0.000      0.000
REMARK  3 active torsions:
REMARK  status: ('A' for Active; 'I' for Inactive)
REMARK    1  A    between atoms: C1_1  and  C7_7 
REMARK    2  A    between atoms: C1_1  and  C12_12 
REMARK    3  A    between atoms: C8_8  and  C13_13 
ROOT
HETATM    1  C2  UNL     1     -37.031  16.463  -3.215  1.00 20.00     0.001 C 
HETATM    2  C3  UNL     1     -36.655  15.425  -4.268  1.00 20.00     0.012 C 
HETATM    3  C4  UNL     1     -34.445  14.898  -2.978  1.00 20.00     0.012 C 
HETATM    4  C5  UNL     1     -36.108  17.681  -3.233  1.00 20.00     0.005 C 
HETATM    5  C6  UNL     1     -33.933  16.297  -3.322  1.00 20.00     0.006 C 
HETATM    6  C7  UNL     1     -35.624  14.392  -3.816  1.00 20.00     0.055 C 
HETATM    7  C8  UNL     1     -34.693  17.470  -2.680  1.00 20.00    -0.011 C 
ENDROOT
BRANCH   6   8
HETATM    8  C1  UNL     1     -35.103  13.690  -5.038  1.00 20.00     0.130 C 
HETATM    9  O14 UNL     1     -34.477  12.636  -4.945  1.00 20.00    -0.298 OA
BRANCH   8  10
HETATM   10  C12 UNL     1     -35.398  14.358  -6.368  1.00 20.00     0.074 C 
HETATM   11  C9  UNL     1     -34.217  15.151  -6.898  1.00 20.00     0.013 C 
ENDBRANCH   8  10
ENDBRANCH   6   8
BRANCH   7  12
HETATM   12  C13 UNL     1     -34.695  17.408  -1.149  1.00 20.00    -0.019 C 
HETATM   13  C10 UNL     1     -33.346  17.854  -0.598  1.00 20.00     0.010 C 
HETATM   14  C11 UNL     1     -35.822  18.266  -0.584  1.00 20.00     0.010 C 
ENDBRANCH   7  12
TORSDOF 3
ENDMDL
MODEL 2
REMARK VINA RESULT:      -4.8      2.115      5.238
REMARK  3 active torsions:
REMARK  status: ('A' for Active; 'I' for Inactive)
REMARK    1  A    between atoms: C1_1  and  C7_7 
REMARK    2  A    between atoms: C1_1  and  C12_12 
REMARK    3  A    between atoms: C8_8  and  C13_13 
ROOT
HETATM    1  C2  UNL     1     -33.762  17.780  -4.611  1.00 20.00     0.001 C 
HETATM    2  C3  UNL     1     -33.902  18.164  -3.141  1.00 20.00     0.012 C 
HETATM    3  C4  UNL     1     -34.035  15.640  -2.480  1.00 20.00     0.012 C 
HETATM    4  C5  UNL     1     -35.033  17.153  -5.181  1.00 20.00     0.005 C 
HETATM    5  C6  UNL     1     -35.384  15.543  -3.195  1.00 20.00     0.006 C 
HETATM    6  C7  UNL     1     -33.554  17.056  -2.148  1.00 20.00     0.055 C 
HETATM    7  C8  UNL     1     -35.352  15.724  -4.722  1.00 20.00    -0.011 C 
ENDROOT
BRANCH   6   8
HETATM    8  C1  UNL     1     -34.079  17.459  -0.800  1.00 20.00     0.130 C 
HETATM    9  O14 UNL     1     -34.816  16.713  -0.158  1.00 20.00    -0.298 OA
BRANCH   8  10
HETATM   10  C12 UNL     1     -33.645  18.822  -0.295  1.00 20.00     0.074 C 
HETATM   11  C9  UNL     1     -32.210  18.833   0.201  1.00 20.00     0.013 C 
ENDBRANCH   8  10
ENDBRANCH   6   8
BRANCH   7  12
HETATM   12  C13 UNL     1     -34.452  14.700  -5.422  1.00 20.00    -0.019 C 
HETATM   13  C10 UNL     1     -34.865  13.283  -5.041  1.00 20.00     0.010 C 
HETATM   14  C11 UNL     1     -34.503  14.892  -6.934  1.00 20.00     0.010 C 
ENDBRANCH   7  12
TORSDOF 3
ENDMDL
MODEL 3
REMARK VINA RESULT:      -4.6      2.533      5.320
REMARK  3 active torsions:
REMARK  status: ('A' for Active; 'I' for Inactive)
REMARK    1  A    between atoms: C1_1  and  C7_7 
REMARK    2  A    between atoms: C1_1  and  C12_12 
REMARK    3  A    between atoms: C8_8  and  C13_13 
ROOT
HETATM    1  C2  UNL     1     -34.423  15.070  -3.126  1.00 20.00     0.001 C 
HETATM    2  C3  UNL     1     -34.455  16.002  -1.918  1.00 20.00     0.012 C 
HETATM    3  C4  UNL     1     -35.135  17.998  -3.460  1.00 20.00     0.012 C 
HETATM    4  C5  UNL     1     -33.287  15.398  -4.093  1.00 20.00     0.005 C 
HETATM    5  C6  UNL     1     -33.756  17.935  -4.119  1.00 20.00     0.006 C 
HETATM    6  C7  UNL     1     -35.267  17.282  -2.113  1.00 20.00     0.055 C 
HETATM    7  C8  UNL     1     -33.457  16.668  -4.937  1.00 20.00    -0.011 C 
ENDROOT
BRANCH   6   8
HETATM    8  C1  UNL     1     -34.909  18.231  -1.005  1.00 20.00     0.130 C 
HETATM    9  O14 UNL     1     -35.599  19.222  -0.772  1.00 20.00    -0.298 OA
BRANCH   8  10
HETATM   10  C12 UNL     1     -33.664  17.890  -0.210  1.00 20.00     0.074 C 
HETATM   11  C9  UNL     1     -32.545  18.896  -0.414  1.00 20.00     0.013 C 
ENDBRANCH   8  10
ENDBRANCH   6   8
BRANCH   7  12
HETATM   12  C13 UNL     1     -34.457  16.449  -6.078  1.00 20.00    -0.019 C 
HETATM   13  C10 UNL     1     -34.418  17.623  -7.050  1.00 20.00     0.010 C 
HETATM   14  C11 UNL     1     -34.162  15.138  -6.799  1.00 20.00     0.010 C 
ENDBRANCH   7  12
TORSDOF 3
ENDMDL
MODEL 4
REMARK VINA RESULT:      -4.5      2.254      5.315
REMARK  3 active torsions:
REMARK  status: ('A' for Active; 'I' for Inactive)
REMARK    1  A    between atoms: C1_1  and  C7_7 
REMARK    2  A    between atoms: C1_1  and  C12_12 
REMARK    3  A    between atoms: C8_8  and  C13_13 
ROOT
HETATM    1  C2  UNL     1     -35.357  14.582  -3.883  1.00 20.00     0.001 C 
HETATM    2  C3  UNL     1     -35.088  15.488  -2.684  1.00 20.00     0.012 C 
HETATM    3  C4  UNL     1     -35.208  17.591  -4.231  1.00 20.00     0.012 C 
HETATM    4  C5  UNL     1     -34.202  14.568  -4.882  1.00 20.00     0.005 C 
HETATM    5  C6  UNL     1     -33.924  17.132  -4.923  1.00 20.00     0.006 C 
HETATM    6  C7  UNL     1     -35.503  16.947  -2.872  1.00 20.00     0.055 C 
HETATM    7  C8  UNL     1     -34.023  15.830  -5.735  1.00 20.00    -0.011 C 
ENDROOT
BRANCH   6   8
HETATM    8  C1  UNL     1     -34.857  17.757  -1.785  1.00 20.00     0.130 C 
HETATM    9  O14 UNL     1     -34.697  18.970  -1.908  1.00 20.00    -0.298 OA
BRANCH   8  10
HETATM   10  C12 UNL     1     -34.425  16.991  -0.549  1.00 20.00     0.074 C 
HETATM   11  C9  UNL     1     -35.114  17.480   0.713  1.00 20.00     0.013 C 
ENDBRANCH   8  10
ENDBRANCH   6   8
BRANCH   7  12
HETATM   12  C13 UNL     1     -35.075  15.904  -6.848  1.00 20.00    -0.019 C 
HETATM   13  C10 UNL     1     -34.717  17.001  -7.844  1.00 20.00     0.010 C 
HETATM   14  C11 UNL     1     -35.203  14.556  -7.549  1.00 20.00     0.010 C 
ENDBRANCH   7  12
TORSDOF 3
ENDMDL
MODEL 5
REMARK VINA RESULT:      -4.5      1.890      4.539
REMARK  3 active torsions:
REMARK  status: ('A' for Active; 'I' for Inactive)
REMARK    1  A    between atoms: C1_1  and  C7_7 
REMARK    2  A    between atoms: C1_1  and  C12_12 
REMARK    3  A    between atoms: C8_8  and  C13_13 
ROOT
HETATM    1  C2  UNL     1     -35.838  14.852  -7.164  1.00 20.00     0.001 C 
HETATM    2  C3  UNL     1     -34.604  14.702  -6.279  1.00 20.00     0.012 C 
HETATM    3  C4  UNL     1     -36.112  13.953  -4.281  1.00 20.00     0.012 C 
HETATM    4  C5  UNL     1     -36.741  16.004  -6.726  1.00 20.00     0.005 C 
HETATM    5  C6  UNL     1     -36.708  15.361  -4.227  1.00 20.00     0.006 C 
HETATM    6  C7  UNL     1     -34.796  13.812  -5.052  1.00 20.00     0.055 C 
HETATM    7  C8  UNL     1     -37.551  15.783  -5.442  1.00 20.00    -0.011 C 
ENDROOT
BRANCH   6   8
HETATM    8  C1  UNL     1     -33.643  14.054  -4.120  1.00 20.00     0.130 C 
HETATM    9  O14 UNL     1     -33.121  13.127  -3.503  1.00 20.00    -0.298 OA
BRANCH   8  10
HETATM   10  C12 UNL     1     -33.176  15.492  -3.993  1.00 20.00     0.074 C 
HETATM   11  C9  UNL     1     -33.569  16.120  -2.668  1.00 20.00     0.013 C 
ENDBRANCH   8  10
ENDBRANCH   6   8
BRANCH   7  12
HETATM   12  C13 UNL     1     -38.744  14.852  -5.688  1.00 20.00    -0.019 C 
HETATM   13  C10 UNL     1     -39.660  14.831  -4.470  1.00 20.00     0.010 C 
HETATM   14  C11 UNL     1     -39.508  15.286  -6.935  1.00 20.00     0.010 C 
ENDBRANCH   7  12
TORSDOF 3
ENDMDL
MODEL 6
REMARK VINA RESULT:      -4.5      2.223      5.162
REMARK  3 active torsions:
REMARK  status: ('A' for Active; 'I' for Inactive)
REMARK    1  A    between atoms: C1_1  and  C7_7 
REMARK    2  A    between atoms: C1_1  and  C12_12 
REMARK    3  A    between atoms: C8_8  and  C13_13 
ROOT
HETATM    1  C2  UNL     1     -35.677  17.733  -4.169  1.00 20.00     0.001 C 
HETATM    2  C3  UNL     1     -35.210  18.139  -2.774  1.00 20.00     0.012 C 
HETATM    3  C4  UNL     1     -33.681  16.023  -2.657  1.00 20.00     0.012 C 
HETATM    4  C5  UNL     1     -36.532  16.467  -4.159  1.00 20.00     0.005 C 
HETATM    5  C6  UNL     1     -34.933  15.144  -2.626  1.00 20.00     0.006 C 
HETATM    6  C7  UNL     1     -33.895  17.503  -2.324  1.00 20.00     0.055 C 
HETATM    7  C8  UNL     1     -35.791  15.148  -3.902  1.00 20.00    -0.011 C 
ENDROOT
BRANCH   6   8
HETATM    8  C1  UNL     1     -33.765  17.706  -0.841  1.00 20.00     0.130 C 
HETATM    9  O14 UNL     1     -32.768  18.242  -0.360  1.00 20.00    -0.298 OA
BRANCH   8  10
HETATM   10  C12 UNL     1     -34.925  17.214   0.004  1.00 20.00     0.074 C 
HETATM   11  C9  UNL     1     -34.941  17.832   1.390  1.00 20.00     0.013 C 
ENDBRANCH   8  10
ENDBRANCH   6   8
BRANCH   7  12
HETATM   12  C13 UNL     1     -35.012  14.695  -5.142  1.00 20.00    -0.019 C 
HETATM   13  C10 UNL     1     -34.510  13.268  -4.961  1.00 20.00     0.010 C 
HETATM   14  C11 UNL     1     -35.884  14.809  -6.388  1.00 20.00     0.010 C 
ENDBRANCH   7  12
TORSDOF 3
ENDMDL
MODEL 7
REMARK VINA RESULT:      -4.5      1.997      3.057
REMARK  3 active torsions:
REMARK  status: ('A' for Active; 'I' for Inactive)
REMARK    1  A    between atoms: C1_1  and  C7_7 
REMARK    2  A    between atoms: C1_1  and  C12_12 
REMARK    3  A    between atoms: C8_8  and  C13_13 
ROOT
HETATM    1  C2  UNL     1     -33.215  15.578  -3.457  1.00 20.00     0.001 C 
HETATM    2  C3  UNL     1     -33.398  15.534  -4.971  1.00 20.00     0.012 C 
HETATM    3  C4  UNL     1     -34.995  17.598  -4.851  1.00 20.00     0.012 C 
HETATM    4  C5  UNL     1     -34.490  15.213  -2.699  1.00 20.00     0.005 C 
HETATM    5  C6  UNL     1     -36.020  16.739  -4.109  1.00 20.00     0.006 C 
HETATM    6  C7  UNL     1     -33.897  16.835  -5.598  1.00 20.00     0.055 C 
HETATM    7  C8  UNL     1     -35.610  16.261  -2.705  1.00 20.00    -0.011 C 
ENDROOT
BRANCH   6   8
HETATM    8  C1  UNL     1     -34.362  16.530  -6.993  1.00 20.00     0.130 C 
HETATM    9  O14 UNL     1     -34.587  17.432  -7.798  1.00 20.00    -0.298 OA
BRANCH   8  10
HETATM   10  C12 UNL     1     -34.532  15.061  -7.334  1.00 20.00     0.074 C 
HETATM   11  C9  UNL     1     -35.986  14.671  -7.530  1.00 20.00     0.013 C 
ENDBRANCH   8  10
ENDBRANCH   6   8
BRANCH   7  12
HETATM   12  C13 UNL     1     -35.294  17.420  -1.754  1.00 20.00    -0.019 C 
HETATM   13  C10 UNL     1     -36.548  18.246  -1.489  1.00 20.00     0.010 C 
HETATM   14  C11 UNL     1     -34.707  16.892  -0.449  1.00 20.00     0.010 C 
ENDBRANCH   7  12
TORSDOF 3
ENDMDL
MODEL 8
REMARK VINA RESULT:      -4.3      1.827      2.647
REMARK  3 active torsions:
REMARK  status: ('A' for Active; 'I' for Inactive)
REMARK    1  A    between atoms: C1_1  and  C7_7 
REMARK    2  A    between atoms: C1_1  and  C12_12 
REMARK    3  A    between atoms: C8_8  and  C13_13 
ROOT
HETATM    1  C2  UNL     1     -36.767  17.886  -2.392  1.00 20.00     0.001 C 
HETATM    2  C3  UNL     1     -35.791  17.194  -3.339  1.00 20.00     0.012 C 
HETATM    3  C4  UNL     1     -34.518  16.172  -1.299  1.00 20.00     0.012 C 
HETATM    4  C5  UNL     1     -36.109  18.995  -1.573  1.00 20.00     0.005 C 
HETATM    5  C6  UNL     1     -34.060  17.577  -0.903  1.00 20.00     0.006 C 
HETATM    6  C7  UNL     1     -35.032  16.014  -2.733  1.00 20.00     0.055 C 
HETATM    7  C8  UNL     1     -35.167  18.544  -0.450  1.00 20.00    -0.011 C 
ENDROOT
BRANCH   6   8
HETATM    8  C1  UNL     1     -33.883  15.685  -3.643  1.00 20.00     0.130 C 
HETATM    9  O14 UNL     1     -33.296  16.568  -4.266  1.00 20.00    -0.298 OA
BRANCH   8  10
HETATM   10  C12 UNL     1     -33.504  14.219  -3.737  1.00 20.00     0.074 C 
HETATM   11  C9  UNL     1     -34.484  13.415  -4.572  1.00 20.00     0.013 C 
ENDBRANCH   8  10
ENDBRANCH   6   8
BRANCH   7  12
HETATM   12  C13 UNL     1     -35.950  18.022   0.760  1.00 20.00    -0.019 C 
HETATM   13  C10 UNL     1     -35.031  17.881   1.967  1.00 20.00     0.010 C 
HETATM   14  C11 UNL     1     -37.121  18.948   1.074  1.00 20.00     0.010 C 
ENDBRANCH   7  12
TORSDOF 3
ENDMDL
MODEL 9
REMARK VINA RESULT:      -4.3      2.417      4.194
REMARK  3 active torsions:
REMARK  status: ('A' for Active; 'I' for Inactive)
REMARK    1  A    between atoms: C1_1  and  C7_7 
REMARK    2  A    between atoms: C1_1  and  C12_12 
REMARK    3  A    between atoms: C8_8  and  C13_13 
ROOT
HETATM    1  C2  UNL     1     -34.699  14.743  -6.590  1.00 20.00     0.001 C 
HETATM    2  C3  UNL     1     -36.122  14.647  -7.134  1.00 20.00     0.012 C 
HETATM    3  C4  UNL     1     -37.026  15.903  -5.029  1.00 20.00     0.012 C 
HETATM    4  C5  UNL     1     -34.489  13.893  -5.339  1.00 20.00     0.005 C 
HETATM    5  C6  UNL     1     -36.642  14.699  -4.168  1.00 20.00     0.006 C 
HETATM    6  C7  UNL     1     -37.110  15.649  -6.537  1.00 20.00     0.055 C 
HETATM    7  C8  UNL     1     -35.136  14.409  -4.047  1.00 20.00    -0.011 C 
ENDROOT
BRANCH   6   8
HETATM    8  C1  UNL     1     -38.498  15.198  -6.892  1.00 20.00     0.130 C 
HETATM    9  O14 UNL     1     -38.713  14.554  -7.918  1.00 20.00    -0.298 OA
BRANCH   8  10
HETATM   10  C12 UNL     1     -39.595  15.583  -5.917  1.00 20.00     0.074 C 
HETATM   11  C9  UNL     1     -40.374  14.383  -5.409  1.00 20.00     0.013 C 
ENDBRANCH   8  10
ENDBRANCH   6   8
BRANCH   7  12
HETATM   12  C13 UNL     1     -34.352  15.588  -3.462  1.00 20.00    -0.019 C 
HETATM   13  C10 UNL     1     -34.787  15.854  -2.025  1.00 20.00     0.010 C 
HETATM   14  C11 UNL     1     -32.853  15.315  -3.532  1.00 20.00     0.010 C 
ENDBRANCH   7  12
TORSDOF 3
ENDMDL
