MODEL 1
REMARK VINA RESULT:      -4.6      0.000      0.000
REMARK  3 active torsions:
REMARK  status: ('A' for Active; 'I' for Inactive)
REMARK    1  A    between atoms: C2_2  and  C6_6 
REMARK    2  A    between atoms: C3_3  and  C7_7 
REMARK    3  A    between atoms: C3_3  and  O8_8 
ROOT
HETATM    1  C1  UNL     1     -35.153   6.124   3.884  1.00 20.00     0.045 A 
HETATM    2  C2  UNL     1     -34.012   5.273   3.392  1.00 20.00     0.022 A 
HETATM    3  C3  UNL     1     -34.687   4.949   4.706  1.00 20.00     0.062 A 
ENDROOT
BRANCH   3   4
HETATM    4  C7  UNL     1     -34.021   5.175   6.022  1.00 20.00     0.034 C 
HETATM    5  C5  UNL     1     -34.138   6.599   6.502  1.00 20.00     0.008 C 
ENDBRANCH   3   4
BRANCH   3   6
HETATM    6  O8  UNL     1     -35.546   3.794   4.690  1.00 20.00    -0.389 OA
HETATM    7  H22 UNL     1     -36.432   4.128   4.504  1.00 20.00     0.210 HD
ENDBRANCH   3   6
BRANCH   2   8
HETATM    8  C6  UNL     1     -32.633   5.833   3.319  1.00 20.00     0.003 C 
HETATM    9  C4  UNL     1     -32.600   7.253   2.812  1.00 20.00     0.005 C 
ENDBRANCH   2   8
TORSDOF 3
ENDMDL
MODEL 2
REMARK VINA RESULT:      -4.4     11.731     12.689
REMARK  3 active torsions:
REMARK  status: ('A' for Active; 'I' for Inactive)
REMARK    1  A    between atoms: C2_2  and  C6_6 
REMARK    2  A    between atoms: C3_3  and  C7_7 
REMARK    3  A    between atoms: C3_3  and  O8_8 
ROOT
HETATM    1  C1  UNL     1     -33.847  16.239  -4.203  1.00 20.00     0.045 A 
HETATM    2  C2  UNL     1     -33.674  16.163  -2.708  1.00 20.00     0.022 A 
HETATM    3  C3  UNL     1     -33.354  14.962  -3.570  1.00 20.00     0.062 A 
ENDROOT
BRANCH   3   4
HETATM    4  C7  UNL     1     -34.212  13.741  -3.587  1.00 20.00     0.034 C 
HETATM    5  C5  UNL     1     -34.606  13.320  -4.979  1.00 20.00     0.008 C 
ENDBRANCH   3   4
BRANCH   3   6
HETATM    6  O8  UNL     1     -31.952  14.679  -3.740  1.00 20.00    -0.389 OA
HETATM    7  H22 UNL     1     -31.673  15.189  -4.510  1.00 20.00     0.210 HD
ENDBRANCH   3   6
BRANCH   2   8
HETATM    8  C6  UNL     1     -34.862  16.208  -1.811  1.00 20.00     0.003 C 
HETATM    9  C4  UNL     1     -34.585  16.896  -0.499  1.00 20.00     0.005 C 
ENDBRANCH   2   8
TORSDOF 3
ENDMDL
MODEL 3
REMARK VINA RESULT:      -4.2     11.655     12.667
REMARK  3 active torsions:
REMARK  status: ('A' for Active; 'I' for Inactive)
REMARK    1  A    between atoms: C2_2  and  C6_6 
REMARK    2  A    between atoms: C3_3  and  C7_7 
REMARK    3  A    between atoms: C3_3  and  O8_8 
ROOT
HETATM    1  C1  UNL     1     -33.470  14.130  -3.895  1.00 20.00     0.045 A 
HETATM    2  C2  UNL     1     -34.582  14.568  -2.978  1.00 20.00     0.022 A 
HETATM    3  C3  UNL     1     -34.906  13.896  -4.294  1.00 20.00     0.062 A 
ENDROOT
BRANCH   3   4
HETATM    4  C7  UNL     1     -35.491  14.641  -5.447  1.00 20.00     0.034 C 
HETATM    5  C5  UNL     1     -34.538  14.769  -6.607  1.00 20.00     0.008 C 
ENDBRANCH   3   4
BRANCH   3   6
HETATM    6  O8  UNL     1     -35.370  12.537  -4.195  1.00 20.00    -0.389 OA
HETATM    7  H22 UNL     1     -34.618  12.025  -3.873  1.00 20.00     0.210 HD
ENDBRANCH   3   6
BRANCH   2   8
HETATM    8  C6  UNL     1     -34.831  16.017  -2.739  1.00 20.00     0.003 C 
HETATM    9  C4  UNL     1     -34.603  16.426  -1.305  1.00 20.00     0.005 C 
ENDBRANCH   2   8
TORSDOF 3
ENDMDL
MODEL 4
REMARK VINA RESULT:      -4.1      1.161      2.880
REMARK  3 active torsions:
REMARK  status: ('A' for Active; 'I' for Inactive)
REMARK    1  A    between atoms: C2_2  and  C6_6 
REMARK    2  A    between atoms: C3_3  and  C7_7 
REMARK    3  A    between atoms: C3_3  and  O8_8 
ROOT
HETATM    1  C1  UNL     1     -35.044   4.054   4.839  1.00 20.00     0.045 A 
HETATM    2  C2  UNL     1     -34.997   5.398   5.518  1.00 20.00     0.022 A 
HETATM    3  C3  UNL     1     -34.685   5.282   4.042  1.00 20.00     0.062 A 
ENDROOT
BRANCH   3   4
HETATM    4  C7  UNL     1     -33.303   5.445   3.504  1.00 20.00     0.034 C 
HETATM    5  C5  UNL     1     -32.998   6.860   3.086  1.00 20.00     0.008 C 
ENDBRANCH   3   4
BRANCH   3   6
HETATM    6  O8  UNL     1     -35.707   5.774   3.155  1.00 20.00    -0.389 OA
HETATM    7  H22 UNL     1     -36.509   5.289   3.383  1.00 20.00     0.210 HD
ENDBRANCH   3   6
BRANCH   2   8
HETATM    8  C6  UNL     1     -33.948   5.689   6.535  1.00 20.00     0.003 C 
HETATM    9  C4  UNL     1     -33.723   7.166   6.742  1.00 20.00     0.005 C 
ENDBRANCH   2   8
TORSDOF 3
ENDMDL
MODEL 5
REMARK VINA RESULT:      -3.9     11.985     13.083
REMARK  3 active torsions:
REMARK  status: ('A' for Active; 'I' for Inactive)
REMARK    1  A    between atoms: C2_2  and  C6_6 
REMARK    2  A    between atoms: C3_3  and  C7_7 
REMARK    3  A    between atoms: C3_3  and  O8_8 
ROOT
HETATM    1  C1  UNL     1     -36.042  14.778  -4.938  1.00 20.00     0.045 A 
HETATM    2  C2  UNL     1     -35.193  14.165  -6.021  1.00 20.00     0.022 A 
HETATM    3  C3  UNL     1     -34.927  13.831  -4.569  1.00 20.00     0.062 A 
ENDROOT
BRANCH   3   4
HETATM    4  C7  UNL     1     -33.727  14.339  -3.841  1.00 20.00     0.034 C 
HETATM    5  C5  UNL     1     -34.043  15.485  -2.916  1.00 20.00     0.008 C 
ENDBRANCH   3   4
BRANCH   3   6
HETATM    6  O8  UNL     1     -35.334  12.515  -4.154  1.00 20.00    -0.389 OA
HETATM    7  H22 UNL     1     -36.299  12.530  -4.140  1.00 20.00     0.210 HD
ENDBRANCH   3   6
BRANCH   2   8
HETATM    8  C6  UNL     1     -34.272  15.016  -6.825  1.00 20.00     0.003 C 
HETATM    9  C4  UNL     1     -34.892  16.327  -7.240  1.00 20.00     0.005 C 
ENDBRANCH   2   8
TORSDOF 3
ENDMDL
MODEL 6
REMARK VINA RESULT:      -3.9     11.683     12.949
REMARK  3 active torsions:
REMARK  status: ('A' for Active; 'I' for Inactive)
REMARK    1  A    between atoms: C2_2  and  C6_6 
REMARK    2  A    between atoms: C3_3  and  C7_7 
REMARK    3  A    between atoms: C3_3  and  O8_8 
ROOT
HETATM    1  C1  UNL     1     -34.316  13.681  -3.584  1.00 20.00     0.045 A 
HETATM    2  C2  UNL     1     -34.095  14.190  -4.984  1.00 20.00     0.022 A 
HETATM    3  C3  UNL     1     -33.418  14.870  -3.814  1.00 20.00     0.062 A 
ENDROOT
BRANCH   3   4
HETATM    4  C7  UNL     1     -33.829  16.220  -3.330  1.00 20.00     0.034 C 
HETATM    5  C5  UNL     1     -34.417  16.193  -1.944  1.00 20.00     0.008 C 
ENDBRANCH   3   4
BRANCH   3   6
HETATM    6  O8  UNL     1     -32.006  14.621  -3.689  1.00 20.00    -0.389 OA
HETATM    7  H22 UNL     1     -31.681  14.491  -4.588  1.00 20.00     0.210 HD
ENDBRANCH   3   6
BRANCH   2   8
HETATM    8  C6  UNL     1     -35.212  14.824  -5.738  1.00 20.00     0.003 C 
HETATM    9  C4  UNL     1     -35.027  14.757  -7.233  1.00 20.00     0.005 C 
ENDBRANCH   2   8
TORSDOF 3
ENDMDL
MODEL 7
REMARK VINA RESULT:      -3.8     12.119     13.315
REMARK  3 active torsions:
REMARK  status: ('A' for Active; 'I' for Inactive)
REMARK    1  A    between atoms: C2_2  and  C6_6 
REMARK    2  A    between atoms: C3_3  and  C7_7 
REMARK    3  A    between atoms: C3_3  and  O8_8 
ROOT
HETATM    1  C1  UNL     1     -33.994  15.590  -2.813  1.00 20.00     0.045 A 
HETATM    2  C2  UNL     1     -34.197  14.307  -3.577  1.00 20.00     0.022 A 
HETATM    3  C3  UNL     1     -33.213  15.341  -4.079  1.00 20.00     0.062 A 
ENDROOT
BRANCH   3   4
HETATM    4  C7  UNL     1     -33.475  16.168  -5.293  1.00 20.00     0.034 C 
HETATM    5  C5  UNL     1     -33.519  17.645  -4.998  1.00 20.00     0.008 C 
ENDBRANCH   3   4
BRANCH   3   6
HETATM    6  O8  UNL     1     -31.823  15.007  -3.902  1.00 20.00    -0.389 OA
HETATM    7  H22 UNL     1     -31.721  14.113  -4.251  1.00 20.00     0.210 HD
ENDBRANCH   3   6
BRANCH   2   8
HETATM    8  C6  UNL     1     -35.492  14.038  -4.263  1.00 20.00     0.003 C 
HETATM    9  C4  UNL     1     -36.650  14.782  -3.648  1.00 20.00     0.005 C 
ENDBRANCH   2   8
TORSDOF 3
ENDMDL
MODEL 8
REMARK VINA RESULT:      -3.8     12.086     12.786
REMARK  3 active torsions:
REMARK  status: ('A' for Active; 'I' for Inactive)
REMARK    1  A    between atoms: C2_2  and  C6_6 
REMARK    2  A    between atoms: C3_3  and  C7_7 
REMARK    3  A    between atoms: C3_3  and  O8_8 
ROOT
HETATM    1  C1  UNL     1     -34.842  14.340  -5.676  1.00 20.00     0.045 A 
HETATM    2  C2  UNL     1     -33.858  14.407  -4.537  1.00 20.00     0.022 A 
HETATM    3  C3  UNL     1     -35.278  13.948  -4.287  1.00 20.00     0.062 A 
ENDROOT
BRANCH   3   4
HETATM    4  C7  UNL     1     -36.269  14.786  -3.552  1.00 20.00     0.034 C 
HETATM    5  C5  UNL     1     -37.656  14.703  -4.135  1.00 20.00     0.008 C 
ENDBRANCH   3   4
BRANCH   3   6
HETATM    6  O8  UNL     1     -35.438  12.536  -4.055  1.00 20.00    -0.389 OA
HETATM    7  H22 UNL     1     -36.388  12.370  -4.091  1.00 20.00     0.210 HD
ENDBRANCH   3   6
BRANCH   2   8
HETATM    8  C6  UNL     1     -33.350  15.724  -4.060  1.00 20.00     0.003 C 
HETATM    9  C4  UNL     1     -33.296  16.764  -5.151  1.00 20.00     0.005 C 
ENDBRANCH   2   8
TORSDOF 3
ENDMDL
MODEL 9
REMARK VINA RESULT:      -3.7      1.958      2.967
REMARK  3 active torsions:
REMARK  status: ('A' for Active; 'I' for Inactive)
REMARK    1  A    between atoms: C2_2  and  C6_6 
REMARK    2  A    between atoms: C3_3  and  C7_7 
REMARK    3  A    between atoms: C3_3  and  O8_8 
ROOT
HETATM    1  C1  UNL     1     -31.798   6.022   3.323  1.00 20.00     0.045 A 
HETATM    2  C2  UNL     1     -32.217   7.456   3.130  1.00 20.00     0.022 A 
HETATM    3  C3  UNL     1     -33.158   6.474   3.793  1.00 20.00     0.062 A 
ENDROOT
BRANCH   3   4
HETATM    4  C7  UNL     1     -34.388   5.967   3.117  1.00 20.00     0.034 C 
HETATM    5  C5  UNL     1     -35.287   5.188   4.041  1.00 20.00     0.008 C 
ENDBRANCH   3   4
BRANCH   3   6
HETATM    6  O8  UNL     1     -33.309   6.629   5.217  1.00 20.00    -0.389 OA
HETATM    7  H22 UNL     1     -33.954   7.337   5.337  1.00 20.00     0.210 HD
ENDBRANCH   3   6
BRANCH   2   8
HETATM    8  C6  UNL     1     -32.457   7.990   1.761  1.00 20.00     0.003 C 
HETATM    9  C4  UNL     1     -32.401   9.496   1.698  1.00 20.00     0.005 C 
ENDBRANCH   2   8
TORSDOF 3
ENDMDL
