MODEL 1
REMARK VINA RESULT:      -4.6      0.000      0.000
REMARK  3 active torsions:
REMARK  status: ('A' for Active; 'I' for Inactive)
REMARK    1  A    between atoms: C5_5  and  C9_9 
REMARK    2  A    between atoms: C6_6  and  C11_11 
REMARK    3  A    between atoms: C10_10  and  C11_11 
ROOT
HETATM    1  C1  UNL     1     -35.733  14.850  -3.835  1.00 20.00     0.005 C 
HETATM    2  C2  UNL     1     -34.867  16.740  -5.277  1.00 20.00     0.005 C 
HETATM    3  C3  UNL     1     -34.418  14.844  -3.053  1.00 20.00     0.006 C 
HETATM    4  C4  UNL     1     -33.553  16.735  -4.496  1.00 20.00     0.006 C 
HETATM    5  C5  UNL     1     -35.581  15.381  -5.267  1.00 20.00    -0.015 C 
HETATM    6  C6  UNL     1     -33.705  16.203  -3.063  1.00 20.00     0.004 C 
ENDROOT
BRANCH   6   7
HETATM    7  C11 UNL     1     -34.411  17.217  -2.158  1.00 20.00     0.086 C 
HETATM    8 CL12 UNL     1     -33.400  18.683  -2.102  1.00 20.00    -0.125 Cl
BRANCH   7   9
HETATM    9  C10 UNL     1     -34.640  16.629  -0.771  1.00 20.00     0.016 C 
HETATM   10  C8  UNL     1     -34.566  17.680   0.329  1.00 20.00     0.006 C 
ENDBRANCH   7   9
ENDBRANCH   6   7
BRANCH   5  11
HETATM   11  C9  UNL     1     -34.875  14.367  -6.172  1.00 20.00     0.000 C 
HETATM   12  C7  UNL     1     -34.786  14.853  -7.581  1.00 20.00     0.005 C 
ENDBRANCH   5  11
TORSDOF 3
ENDMDL
MODEL 2
REMARK VINA RESULT:      -4.5      1.844      4.897
REMARK  3 active torsions:
REMARK  status: ('A' for Active; 'I' for Inactive)
REMARK    1  A    between atoms: C5_5  and  C9_9 
REMARK    2  A    between atoms: C6_6  and  C11_11 
REMARK    3  A    between atoms: C10_10  and  C11_11 
ROOT
HETATM    1  C1  UNL     1     -34.169  14.609  -3.411  1.00 20.00     0.005 C 
HETATM    2  C2  UNL     1     -33.721  17.075  -3.757  1.00 20.00     0.005 C 
HETATM    3  C3  UNL     1     -35.472  14.735  -4.203  1.00 20.00     0.006 C 
HETATM    4  C4  UNL     1     -35.022  17.202  -4.548  1.00 20.00     0.006 C 
HETATM    5  C5  UNL     1     -33.740  15.922  -2.743  1.00 20.00    -0.015 C 
HETATM    6  C6  UNL     1     -35.452  15.888  -5.217  1.00 20.00     0.004 C 
ENDROOT
BRANCH   6   7
HETATM    7  C11 UNL     1     -34.574  15.558  -6.427  1.00 20.00     0.086 C 
HETATM    8 CL12 UNL     1     -34.420  17.044  -7.399  1.00 20.00    -0.125 Cl
BRANCH   7   9
HETATM    9  C10 UNL     1     -35.176  14.412  -7.231  1.00 20.00     0.016 C 
HETATM   10  C8  UNL     1     -36.479  14.800  -7.918  1.00 20.00     0.006 C 
ENDBRANCH   7   9
ENDBRANCH   6   7
BRANCH   5  11
HETATM   11  C9  UNL     1     -34.618  16.252  -1.532  1.00 20.00     0.000 C 
HETATM   12  C7  UNL     1     -34.048  17.371  -0.724  1.00 20.00     0.005 C 
ENDBRANCH   5  11
TORSDOF 3
ENDMDL
MODEL 3
REMARK VINA RESULT:      -4.5      1.472      2.252
REMARK  3 active torsions:
REMARK  status: ('A' for Active; 'I' for Inactive)
REMARK    1  A    between atoms: C5_5  and  C9_9 
REMARK    2  A    between atoms: C6_6  and  C11_11 
REMARK    3  A    between atoms: C10_10  and  C11_11 
ROOT
HETATM    1  C1  UNL     1     -33.309  16.276  -4.795  1.00 20.00     0.005 C 
HETATM    2  C2  UNL     1     -34.469  14.532  -3.375  1.00 20.00     0.005 C 
HETATM    3  C3  UNL     1     -34.307  17.331  -4.314  1.00 20.00     0.006 C 
HETATM    4  C4  UNL     1     -35.467  15.586  -2.895  1.00 20.00     0.006 C 
HETATM    5  C5  UNL     1     -33.873  14.850  -4.755  1.00 20.00    -0.015 C 
HETATM    6  C6  UNL     1     -34.902  17.014  -2.935  1.00 20.00     0.004 C 
ENDROOT
BRANCH   6   7
HETATM    7  C11 UNL     1     -33.885  17.250  -1.815  1.00 20.00     0.086 C 
HETATM    8 CL12 UNL     1     -34.675  16.824  -0.275  1.00 20.00    -0.125 Cl
BRANCH   7   9
HETATM    9  C10 UNL     1     -33.400  18.694  -1.826  1.00 20.00     0.016 C 
HETATM   10  C8  UNL     1     -32.686  19.082  -0.538  1.00 20.00     0.006 C 
ENDBRANCH   7   9
ENDBRANCH   6   7
BRANCH   5  11
HETATM   11  C9  UNL     1     -34.890  14.613  -5.875  1.00 20.00     0.000 C 
HETATM   12  C7  UNL     1     -34.354  15.033  -7.204  1.00 20.00     0.005 C 
ENDBRANCH   5  11
TORSDOF 3
ENDMDL
MODEL 4
REMARK VINA RESULT:      -4.5      2.109      5.134
REMARK  3 active torsions:
REMARK  status: ('A' for Active; 'I' for Inactive)
REMARK    1  A    between atoms: C5_5  and  C9_9 
REMARK    2  A    between atoms: C6_6  and  C11_11 
REMARK    3  A    between atoms: C10_10  and  C11_11 
ROOT
HETATM    1  C1  UNL     1     -34.820  17.828  -3.946  1.00 20.00     0.005 C 
HETATM    2  C2  UNL     1     -34.578  15.893  -2.334  1.00 20.00     0.005 C 
HETATM    3  C3  UNL     1     -33.640  17.297  -4.762  1.00 20.00     0.006 C 
HETATM    4  C4  UNL     1     -33.399  15.361  -3.149  1.00 20.00     0.006 C 
HETATM    5  C5  UNL     1     -34.771  17.410  -2.471  1.00 20.00    -0.015 C 
HETATM    6  C6  UNL     1     -33.449  15.780  -4.626  1.00 20.00     0.004 C 
ENDROOT
BRANCH   6   7
HETATM    7  C11 UNL     1     -34.522  15.004  -5.395  1.00 20.00     0.086 C 
HETATM    8 CL12 UNL     1     -34.403  13.295  -4.906  1.00 20.00    -0.125 Cl
BRANCH   7   9
HETATM    9  C10 UNL     1     -34.337  15.181  -6.897  1.00 20.00     0.016 C 
HETATM   10  C8  UNL     1     -35.431  14.496  -7.706  1.00 20.00     0.006 C 
ENDBRANCH   7   9
ENDBRANCH   6   7
BRANCH   5  11
HETATM   11  C9  UNL     1     -33.698  18.186  -1.701  1.00 20.00     0.000 C 
HETATM   12  C7  UNL     1     -33.734  17.877  -0.241  1.00 20.00     0.005 C 
ENDBRANCH   5  11
TORSDOF 3
ENDMDL
MODEL 5
REMARK VINA RESULT:      -4.4      2.268      4.932
REMARK  3 active torsions:
REMARK  status: ('A' for Active; 'I' for Inactive)
REMARK    1  A    between atoms: C5_5  and  C9_9 
REMARK    2  A    between atoms: C6_6  and  C11_11 
REMARK    3  A    between atoms: C10_10  and  C11_11 
ROOT
HETATM    1  C1  UNL     1     -35.730  15.612  -2.964  1.00 20.00     0.005 C 
HETATM    2  C2  UNL     1     -33.331  15.355  -3.727  1.00 20.00     0.005 C 
HETATM    3  C3  UNL     1     -35.989  16.593  -4.109  1.00 20.00     0.006 C 
HETATM    4  C4  UNL     1     -33.589  16.336  -4.871  1.00 20.00     0.006 C 
HETATM    5  C5  UNL     1     -34.260  15.572  -2.524  1.00 20.00    -0.015 C 
HETATM    6  C6  UNL     1     -35.059  16.375  -5.311  1.00 20.00     0.004 C 
ENDROOT
BRANCH   6   7
HETATM    7  C11 UNL     1     -35.445  15.121  -6.102  1.00 20.00     0.086 C 
HETATM    8 CL12 UNL     1     -34.281  14.952  -7.440  1.00 20.00    -0.125 Cl
BRANCH   7   9
HETATM    9  C10 UNL     1     -36.880  15.224  -6.604  1.00 20.00     0.016 C 
HETATM   10  C8  UNL     1     -37.026  16.203  -7.762  1.00 20.00     0.006 C 
ENDBRANCH   7   9
ENDBRANCH   6   7
BRANCH   5  11
HETATM   11  C9  UNL     1     -33.875  16.826  -1.734  1.00 20.00     0.000 C 
HETATM   12  C7  UNL     1     -34.638  16.929  -0.455  1.00 20.00     0.005 C 
ENDBRANCH   5  11
TORSDOF 3
ENDMDL
MODEL 6
REMARK VINA RESULT:      -4.3      2.020      5.103
REMARK  3 active torsions:
REMARK  status: ('A' for Active; 'I' for Inactive)
REMARK    1  A    between atoms: C5_5  and  C9_9 
REMARK    2  A    between atoms: C6_6  and  C11_11 
REMARK    3  A    between atoms: C10_10  and  C11_11 
ROOT
HETATM    1  C1  UNL     1     -33.747  16.112  -3.089  1.00 20.00     0.005 C 
HETATM    2  C2  UNL     1     -36.074  17.050  -2.760  1.00 20.00     0.005 C 
HETATM    3  C3  UNL     1     -34.342  14.724  -3.337  1.00 20.00     0.006 C 
HETATM    4  C4  UNL     1     -36.669  15.663  -3.007  1.00 20.00     0.006 C 
HETATM    5  C5  UNL     1     -34.640  17.003  -2.214  1.00 20.00    -0.015 C 
HETATM    6  C6  UNL     1     -35.776  14.772  -3.883  1.00 20.00     0.004 C 
ENDROOT
BRANCH   6   7
HETATM    7  C11 UNL     1     -35.807  15.211  -5.349  1.00 20.00     0.086 C 
HETATM    8 CL12 UNL     1     -37.515  15.283  -5.852  1.00 20.00    -0.125 Cl
BRANCH   7   9
HETATM    9  C10 UNL     1     -35.000  14.250  -6.214  1.00 20.00     0.016 C 
HETATM   10  C8  UNL     1     -34.522  14.890  -7.511  1.00 20.00     0.006 C 
ENDBRANCH   7   9
ENDBRANCH   6   7
BRANCH   5  11
HETATM   11  C9  UNL     1     -34.609  16.564  -0.748  1.00 20.00     0.000 C 
HETATM   12  C7  UNL     1     -35.117  17.636   0.160  1.00 20.00     0.005 C 
ENDBRANCH   5  11
TORSDOF 3
ENDMDL
MODEL 7
REMARK VINA RESULT:      -4.3      1.259      1.326
REMARK  3 active torsions:
REMARK  status: ('A' for Active; 'I' for Inactive)
REMARK    1  A    between atoms: C5_5  and  C9_9 
REMARK    2  A    between atoms: C6_6  and  C11_11 
REMARK    3  A    between atoms: C10_10  and  C11_11 
ROOT
HETATM    1  C1  UNL     1     -34.646  14.301  -3.997  1.00 20.00     0.005 C 
HETATM    2  C2  UNL     1     -36.087  16.041  -5.135  1.00 20.00     0.005 C 
HETATM    3  C3  UNL     1     -33.717  15.404  -3.485  1.00 20.00     0.006 C 
HETATM    4  C4  UNL     1     -35.159  17.144  -4.624  1.00 20.00     0.006 C 
HETATM    5  C5  UNL     1     -35.385  14.684  -5.286  1.00 20.00    -0.015 C 
HETATM    6  C6  UNL     1     -34.420  16.761  -3.334  1.00 20.00     0.004 C 
ENDROOT
BRANCH   6   7
HETATM    7  C11 UNL     1     -35.355  16.780  -2.122  1.00 20.00     0.086 C 
HETATM    8 CL12 UNL     1     -36.303  18.286  -2.198  1.00 20.00    -0.125 Cl
BRANCH   7   9
HETATM    9  C10 UNL     1     -34.557  16.674  -0.828  1.00 20.00     0.016 C 
HETATM   10  C8  UNL     1     -33.532  17.791  -0.680  1.00 20.00     0.006 C 
ENDBRANCH   7   9
ENDBRANCH   6   7
BRANCH   5  11
HETATM   11  C9  UNL     1     -34.450  14.665  -6.498  1.00 20.00     0.000 C 
HETATM   12  C7  UNL     1     -35.210  14.715  -7.783  1.00 20.00     0.005 C 
ENDBRANCH   5  11
TORSDOF 3
ENDMDL
MODEL 8
REMARK VINA RESULT:      -4.1      1.583      4.814
REMARK  3 active torsions:
REMARK  status: ('A' for Active; 'I' for Inactive)
REMARK    1  A    between atoms: C5_5  and  C9_9 
REMARK    2  A    between atoms: C6_6  and  C11_11 
REMARK    3  A    between atoms: C10_10  and  C11_11 
ROOT
HETATM    1  C1  UNL     1     -34.283  15.449  -2.806  1.00 20.00     0.005 C 
HETATM    2  C2  UNL     1     -33.929  17.953  -2.738  1.00 20.00     0.005 C 
HETATM    3  C3  UNL     1     -35.638  15.658  -3.487  1.00 20.00     0.006 C 
HETATM    4  C4  UNL     1     -35.283  18.163  -3.418  1.00 20.00     0.006 C 
HETATM    5  C5  UNL     1     -33.850  16.642  -1.943  1.00 20.00    -0.015 C 
HETATM    6  C6  UNL     1     -35.715  16.969  -4.281  1.00 20.00     0.004 C 
ENDROOT
BRANCH   6   7
HETATM    7  C11 UNL     1     -34.908  16.891  -5.580  1.00 20.00     0.086 C 
HETATM    8 CL12 UNL     1     -34.851  18.529  -6.277  1.00 20.00    -0.125 Cl
BRANCH   7   9
HETATM    9  C10 UNL     1     -35.532  15.885  -6.539  1.00 20.00     0.016 C 
HETATM   10  C8  UNL     1     -34.511  14.912  -7.114  1.00 20.00     0.006 C 
ENDBRANCH   7   9
ENDBRANCH   6   7
BRANCH   5  11
HETATM   11  C9  UNL     1     -34.658  16.721  -0.645  1.00 20.00     0.000 C 
HETATM   12  C7  UNL     1     -34.227  17.871   0.205  1.00 20.00     0.005 C 
ENDBRANCH   5  11
TORSDOF 3
ENDMDL
MODEL 9
REMARK VINA RESULT:      -4.1      1.930      2.592
REMARK  3 active torsions:
REMARK  status: ('A' for Active; 'I' for Inactive)
REMARK    1  A    between atoms: C5_5  and  C9_9 
REMARK    2  A    between atoms: C6_6  and  C11_11 
REMARK    3  A    between atoms: C10_10  and  C11_11 
ROOT
HETATM    1  C1  UNL     1     -36.264  16.457  -5.554  1.00 20.00     0.005 C 
HETATM    2  C2  UNL     1     -34.438  15.023  -6.559  1.00 20.00     0.005 C 
HETATM    3  C3  UNL     1     -36.400  15.471  -4.393  1.00 20.00     0.006 C 
HETATM    4  C4  UNL     1     -34.573  14.036  -5.399  1.00 20.00     0.006 C 
HETATM    5  C5  UNL     1     -35.727  15.808  -6.837  1.00 20.00    -0.015 C 
HETATM    6  C6  UNL     1     -35.110  14.686  -4.115  1.00 20.00     0.004 C 
ENDROOT
BRANCH   6   7
HETATM    7  C11 UNL     1     -34.051  15.562  -3.441  1.00 20.00     0.086 C 
HETATM    8 CL12 UNL     1     -32.500  14.689  -3.524  1.00 20.00    -0.125 Cl
BRANCH   7   9
HETATM    9  C10 UNL     1     -34.450  15.879  -2.005  1.00 20.00     0.016 C 
HETATM   10  C8  UNL     1     -33.850  17.186  -1.505  1.00 20.00     0.006 C 
ENDBRANCH   7   9
ENDBRANCH   6   7
BRANCH   5  11
HETATM   11  C9  UNL     1     -36.787  14.932  -7.511  1.00 20.00     0.000 C 
HETATM   12  C7  UNL     1     -38.061  15.678  -7.732  1.00 20.00     0.005 C 
ENDBRANCH   5  11
TORSDOF 3
ENDMDL
