MODEL 1
REMARK VINA RESULT:      -4.3      0.000      0.000
REMARK  2 active torsions:
REMARK  status: ('A' for Active; 'I' for Inactive)
REMARK    1  A    between atoms: C4_4  and  C7_7 
REMARK    2  A    between atoms: C7_7  and  C8_8 
ROOT
HETATM    1  C1  UNL     1     -35.491  15.130  -4.275  1.00 20.00     0.034 C 
HETATM    2  C2  UNL     1     -35.950  13.700  -4.468  1.00 20.00     0.168 C 
HETATM    3  C3  UNL     1     -33.776  13.664  -3.632  1.00 20.00     0.173 C 
HETATM    4  C4  UNL     1     -34.429  14.969  -3.209  1.00 20.00     0.026 C 
HETATM    5  O9  UNL     1     -34.814  12.861  -4.213  1.00 20.00    -0.391 OA
ENDROOT
BRANCH   4   6
HETATM    6  C7  UNL     1     -33.462  16.134  -3.114  1.00 20.00     0.067 C 
HETATM    7 BR10 UNL     1     -33.644  17.225  -4.741  1.00 20.00    -0.090 Br
BRANCH   6   8
HETATM    8  C8  UNL     1     -33.596  17.024  -1.863  1.00 20.00    -0.008 C 
HETATM    9  C5  UNL     1     -34.717  16.511  -0.951  1.00 20.00     0.011 C 
HETATM   10  C6  UNL     1     -33.819  18.488  -2.170  1.00 20.00     0.011 C 
ENDBRANCH   6   8
ENDBRANCH   4   6
TORSDOF 2
ENDMDL
MODEL 2
REMARK VINA RESULT:      -4.3      0.495      1.216
REMARK  2 active torsions:
REMARK  status: ('A' for Active; 'I' for Inactive)
REMARK    1  A    between atoms: C4_4  and  C7_7 
REMARK    2  A    between atoms: C7_7  and  C8_8 
ROOT
HETATM    1  C1  UNL     1     -35.387  14.869  -4.123  1.00 20.00     0.034 C 
HETATM    2  C2  UNL     1     -35.434  13.380  -4.397  1.00 20.00     0.168 C 
HETATM    3  C3  UNL     1     -33.271  13.934  -3.735  1.00 20.00     0.173 C 
HETATM    4  C4  UNL     1     -34.225  14.965  -3.158  1.00 20.00     0.026 C 
HETATM    5  O9  UNL     1     -34.087  12.897  -4.300  1.00 20.00    -0.391 OA
ENDROOT
BRANCH   4   6
HETATM    6  C7  UNL     1     -33.627  16.354  -3.041  1.00 20.00     0.067 C 
HETATM    7 BR10 UNL     1     -33.577  17.160  -4.835  1.00 20.00    -0.090 Br
BRANCH   6   8
HETATM    8  C8  UNL     1     -34.323  17.310  -2.052  1.00 20.00    -0.008 C 
HETATM    9  C5  UNL     1     -33.500  18.591  -1.868  1.00 20.00     0.011 C 
HETATM   10  C6  UNL     1     -34.614  16.694  -0.702  1.00 20.00     0.011 C 
ENDBRANCH   6   8
ENDBRANCH   4   6
TORSDOF 2
ENDMDL
MODEL 3
REMARK VINA RESULT:      -3.9      2.247      4.109
REMARK  2 active torsions:
REMARK  status: ('A' for Active; 'I' for Inactive)
REMARK    1  A    between atoms: C4_4  and  C7_7 
REMARK    2  A    between atoms: C7_7  and  C8_8 
ROOT
HETATM    1  C1  UNL     1     -34.681  16.362  -1.271  1.00 20.00     0.034 C 
HETATM    2  C2  UNL     1     -34.363  17.579  -0.428  1.00 20.00     0.168 C 
HETATM    3  C3  UNL     1     -33.734  18.027  -2.625  1.00 20.00     0.173 C 
HETATM    4  C4  UNL     1     -34.828  16.974  -2.648  1.00 20.00     0.026 C 
HETATM    5  O9  UNL     1     -33.646  18.493  -1.270  1.00 20.00    -0.391 OA
ENDROOT
BRANCH   4   6
HETATM    6  C7  UNL     1     -34.700  15.981  -3.786  1.00 20.00     0.067 C 
HETATM    7 BR10 UNL     1     -33.439  16.714  -5.108  1.00 20.00    -0.090 Br
BRANCH   6   8
HETATM    8  C8  UNL     1     -34.281  14.551  -3.394  1.00 20.00    -0.008 C 
HETATM    9  C5  UNL     1     -32.779  14.343  -3.628  1.00 20.00     0.011 C 
HETATM   10  C6  UNL     1     -35.061  13.465  -4.100  1.00 20.00     0.011 C 
ENDBRANCH   6   8
ENDBRANCH   4   6
TORSDOF 2
ENDMDL
MODEL 4
REMARK VINA RESULT:      -3.9      2.464      4.245
REMARK  2 active torsions:
REMARK  status: ('A' for Active; 'I' for Inactive)
REMARK    1  A    between atoms: C4_4  and  C7_7 
REMARK    2  A    between atoms: C7_7  and  C8_8 
ROOT
HETATM    1  C1  UNL     1     -34.442  16.437  -1.310  1.00 20.00     0.034 C 
HETATM    2  C2  UNL     1     -33.926  17.860  -1.267  1.00 20.00     0.168 C 
HETATM    3  C3  UNL     1     -34.064  17.198  -3.496  1.00 20.00     0.173 C 
HETATM    4  C4  UNL     1     -35.056  16.375  -2.692  1.00 20.00     0.026 C 
HETATM    5  O9  UNL     1     -33.565  18.212  -2.611  1.00 20.00    -0.391 OA
ENDROOT
BRANCH   4   6
HETATM    6  C7  UNL     1     -35.255  14.968  -3.221  1.00 20.00     0.067 C 
HETATM    7 BR10 UNL     1     -37.067  14.842  -3.979  1.00 20.00    -0.090 Br
BRANCH   6   8
HETATM    8  C8  UNL     1     -34.217  14.479  -4.250  1.00 20.00    -0.008 C 
HETATM    9  C5  UNL     1     -34.902  13.709  -5.386  1.00 20.00     0.011 C 
HETATM   10  C6  UNL     1     -33.113  13.633  -3.656  1.00 20.00     0.011 C 
ENDBRANCH   6   8
ENDBRANCH   4   6
TORSDOF 2
ENDMDL
MODEL 5
REMARK VINA RESULT:      -3.8      3.485      4.569
REMARK  2 active torsions:
REMARK  status: ('A' for Active; 'I' for Inactive)
REMARK    1  A    between atoms: C4_4  and  C7_7 
REMARK    2  A    between atoms: C7_7  and  C8_8 
ROOT
HETATM    1  C1  UNL     1     -34.568  16.556  -0.918  1.00 20.00     0.034 C 
HETATM    2  C2  UNL     1     -34.240  16.149  -2.340  1.00 20.00     0.168 C 
HETATM    3  C3  UNL     1     -33.824  18.430  -2.117  1.00 20.00     0.173 C 
HETATM    4  C4  UNL     1     -33.705  17.787  -0.746  1.00 20.00     0.026 C 
HETATM    5  O9  UNL     1     -33.948  17.355  -3.060  1.00 20.00    -0.391 OA
ENDROOT
BRANCH   4   6
HETATM    6  C7  UNL     1     -34.133  18.692   0.393  1.00 20.00     0.067 C 
HETATM    7 BR10 UNL     1     -35.450  17.726   1.491  1.00 20.00    -0.090 Br
BRANCH   6   8
HETATM    8  C8  UNL     1     -33.001  19.239   1.285  1.00 20.00    -0.008 C 
HETATM    9  C5  UNL     1     -31.633  18.984   0.641  1.00 20.00     0.011 C 
HETATM   10  C6  UNL     1     -33.010  18.693   2.695  1.00 20.00     0.011 C 
ENDBRANCH   6   8
ENDBRANCH   4   6
TORSDOF 2
ENDMDL
MODEL 6
REMARK VINA RESULT:      -3.8      1.790      2.509
REMARK  2 active torsions:
REMARK  status: ('A' for Active; 'I' for Inactive)
REMARK    1  A    between atoms: C4_4  and  C7_7 
REMARK    2  A    between atoms: C7_7  and  C8_8 
ROOT
HETATM    1  C1  UNL     1     -33.670  14.631  -3.625  1.00 20.00     0.034 C 
HETATM    2  C2  UNL     1     -33.740  13.233  -4.203  1.00 20.00     0.168 C 
HETATM    3  C3  UNL     1     -35.909  14.068  -4.044  1.00 20.00     0.173 C 
HETATM    4  C4  UNL     1     -34.952  15.243  -4.149  1.00 20.00     0.026 C 
HETATM    5  O9  UNL     1     -35.130  12.887  -4.287  1.00 20.00    -0.391 OA
ENDROOT
BRANCH   4   6
HETATM    6  C7  UNL     1     -35.409  16.474  -3.391  1.00 20.00     0.067 C 
HETATM    7 BR10 UNL     1     -34.646  16.404  -1.578  1.00 20.00    -0.090 Br
BRANCH   6   8
HETATM    8  C8  UNL     1     -35.088  17.831  -4.046  1.00 20.00    -0.008 C 
HETATM    9  C5  UNL     1     -34.891  17.669  -5.558  1.00 20.00     0.011 C 
HETATM   10  C6  UNL     1     -33.891  18.536  -3.449  1.00 20.00     0.011 C 
ENDBRANCH   6   8
ENDBRANCH   4   6
TORSDOF 2
ENDMDL
MODEL 7
REMARK VINA RESULT:      -3.8      2.226      4.136
REMARK  2 active torsions:
REMARK  status: ('A' for Active; 'I' for Inactive)
REMARK    1  A    between atoms: C4_4  and  C7_7 
REMARK    2  A    between atoms: C7_7  and  C8_8 
ROOT
HETATM    1  C1  UNL     1     -34.111  16.209  -2.078  1.00 20.00     0.034 C 
HETATM    2  C2  UNL     1     -34.637  16.805  -0.788  1.00 20.00     0.168 C 
HETATM    3  C3  UNL     1     -36.168  17.263  -2.483  1.00 20.00     0.173 C 
HETATM    4  C4  UNL     1     -35.388  16.018  -2.868  1.00 20.00     0.026 C 
HETATM    5  O9  UNL     1     -35.804  17.566  -1.127  1.00 20.00    -0.391 OA
ENDROOT
BRANCH   4   6
HETATM    6  C7  UNL     1     -35.177  15.867  -4.362  1.00 20.00     0.067 C 
HETATM    7 BR10 UNL     1     -33.287  16.242  -4.763  1.00 20.00    -0.090 Br
BRANCH   6   8
HETATM    8  C8  UNL     1     -35.586  14.511  -4.970  1.00 20.00    -0.008 C 
HETATM    9  C5  UNL     1     -34.936  13.355  -4.202  1.00 20.00     0.011 C 
HETATM   10  C6  UNL     1     -35.279  14.380  -6.445  1.00 20.00     0.011 C 
ENDBRANCH   6   8
ENDBRANCH   4   6
TORSDOF 2
ENDMDL
MODEL 8
REMARK VINA RESULT:      -3.8      1.955      2.326
REMARK  2 active torsions:
REMARK  status: ('A' for Active; 'I' for Inactive)
REMARK    1  A    between atoms: C4_4  and  C7_7 
REMARK    2  A    between atoms: C7_7  and  C8_8 
ROOT
HETATM    1  C1  UNL     1     -35.470  15.291  -5.351  1.00 20.00     0.034 C 
HETATM    2  C2  UNL     1     -36.824  15.379  -6.024  1.00 20.00     0.168 C 
HETATM    3  C3  UNL     1     -37.158  14.932  -3.763  1.00 20.00     0.173 C 
HETATM    4  C4  UNL     1     -35.818  15.630  -3.918  1.00 20.00     0.026 C 
HETATM    5  O9  UNL     1     -37.800  14.996  -5.045  1.00 20.00    -0.391 OA
ENDROOT
BRANCH   4   6
HETATM    6  C7  UNL     1     -34.779  15.191  -2.905  1.00 20.00     0.067 C 
HETATM    7 BR10 UNL     1     -33.544  13.938  -3.787  1.00 20.00    -0.090 Br
BRANCH   6   8
HETATM    8  C8  UNL     1     -33.985  16.319  -2.216  1.00 20.00    -0.008 C 
HETATM    9  C5  UNL     1     -34.589  16.648  -0.846  1.00 20.00     0.011 C 
HETATM   10  C6  UNL     1     -33.871  17.582  -3.040  1.00 20.00     0.011 C 
ENDBRANCH   6   8
ENDBRANCH   4   6
TORSDOF 2
ENDMDL
MODEL 9
REMARK VINA RESULT:      -3.8      2.307      3.003
REMARK  2 active torsions:
REMARK  status: ('A' for Active; 'I' for Inactive)
REMARK    1  A    between atoms: C4_4  and  C7_7 
REMARK    2  A    between atoms: C7_7  and  C8_8 
ROOT
HETATM    1  C1  UNL     1     -37.559  16.397  -3.418  1.00 20.00     0.034 C 
HETATM    2  C2  UNL     1     -38.610  15.309  -3.469  1.00 20.00     0.168 C 
HETATM    3  C3  UNL     1     -36.544  14.354  -3.962  1.00 20.00     0.173 C 
HETATM    4  C4  UNL     1     -36.306  15.599  -3.126  1.00 20.00     0.026 C 
HETATM    5  O9  UNL     1     -37.961  14.126  -3.959  1.00 20.00    -0.391 OA
ENDROOT
BRANCH   4   6
HETATM    6  C7  UNL     1     -35.016  16.323  -3.459  1.00 20.00     0.067 C 
HETATM    7 BR10 UNL     1     -34.098  16.760  -1.774  1.00 20.00    -0.090 Br
BRANCH   6   8
HETATM    8  C8  UNL     1     -34.052  15.586  -4.410  1.00 20.00    -0.008 C 
HETATM    9  C5  UNL     1     -32.865  15.005  -3.633  1.00 20.00     0.011 C 
HETATM   10  C6  UNL     1     -33.546  16.436  -5.553  1.00 20.00     0.011 C 
ENDBRANCH   6   8
ENDBRANCH   4   6
TORSDOF 2
ENDMDL
