MODEL 1
REMARK VINA RESULT:      -4.4      0.000      0.000
REMARK  2 active torsions:
REMARK  status: ('A' for Active; 'I' for Inactive)
REMARK    1  A    between atoms: C3_3  and  C7_7 
REMARK    2  A    between atoms: C3_3  and  O8_8 
ROOT
HETATM    1  C1  UNL     1     -33.654   5.345   2.691  1.00 20.00     0.045 A 
HETATM    2  C2  UNL     1     -32.571   6.178   3.324  1.00 20.00     0.019 A 
HETATM    3  C3  UNL     1     -33.912   6.040   4.003  1.00 20.00     0.065 A 
HETATM    4  C4  UNL     1     -32.145   7.457   2.691  1.00 20.00     0.013 C 
ENDROOT
BRANCH   3   5
HETATM    5  C7  UNL     1     -34.034   5.240   5.257  1.00 20.00     0.012 C 
HETATM    6  C5  UNL     1     -34.276   6.134   6.486  1.00 20.00     0.012 C 
HETATM    7  C6  UNL     1     -35.160   4.195   5.161  1.00 20.00     0.012 C 
ENDBRANCH   3   5
BRANCH   3   8
HETATM    8  O8  UNL     1     -34.799   7.169   3.951  1.00 20.00    -0.389 OA
HETATM    9  H22 UNL     1     -35.623   6.841   3.565  1.00 20.00     0.210 HD
ENDBRANCH   3   8
TORSDOF 2
ENDMDL
MODEL 2
REMARK VINA RESULT:      -3.9      1.601      2.501
REMARK  2 active torsions:
REMARK  status: ('A' for Active; 'I' for Inactive)
REMARK    1  A    between atoms: C3_3  and  C7_7 
REMARK    2  A    between atoms: C3_3  and  O8_8 
ROOT
HETATM    1  C1  UNL     1     -31.643   7.613   3.857  1.00 20.00     0.045 A 
HETATM    2  C2  UNL     1     -32.436   8.086   2.667  1.00 20.00     0.019 A 
HETATM    3  C3  UNL     1     -32.729   6.739   3.284  1.00 20.00     0.065 A 
HETATM    4  C4  UNL     1     -31.782   8.206   1.333  1.00 20.00     0.013 C 
ENDROOT
BRANCH   3   5
HETATM    5  C7  UNL     1     -33.994   6.529   4.048  1.00 20.00     0.012 C 
HETATM    6  C5  UNL     1     -34.782   5.314   3.527  1.00 20.00     0.012 C 
HETATM    7  C6  UNL     1     -33.729   6.354   5.554  1.00 20.00     0.012 C 
ENDBRANCH   3   5
BRANCH   3   8
HETATM    8  O8  UNL     1     -32.285   5.574   2.570  1.00 20.00    -0.389 OA
HETATM    9  H22 UNL     1     -32.480   5.743   1.639  1.00 20.00     0.210 HD
ENDBRANCH   3   8
TORSDOF 2
ENDMDL
MODEL 3
REMARK VINA RESULT:      -3.9      0.929      3.550
REMARK  2 active torsions:
REMARK  status: ('A' for Active; 'I' for Inactive)
REMARK    1  A    between atoms: C3_3  and  C7_7 
REMARK    2  A    between atoms: C3_3  and  O8_8 
ROOT
HETATM    1  C1  UNL     1     -34.069   6.486   5.746  1.00 20.00     0.045 A 
HETATM    2  C2  UNL     1     -34.087   4.979   5.752  1.00 20.00     0.019 A 
HETATM    3  C3  UNL     1     -34.231   5.732   4.451  1.00 20.00     0.065 A 
HETATM    4  C4  UNL     1     -35.233   4.248   6.361  1.00 20.00     0.013 C 
ENDROOT
BRANCH   3   5
HETATM    5  C7  UNL     1     -33.120   5.718   3.455  1.00 20.00     0.012 C 
HETATM    6  C5  UNL     1     -33.598   5.241   2.071  1.00 20.00     0.012 C 
HETATM    7  C6  UNL     1     -32.461   7.102   3.315  1.00 20.00     0.012 C 
ENDBRANCH   3   5
BRANCH   3   8
HETATM    8  O8  UNL     1     -35.539   5.781   3.857  1.00 20.00    -0.389 OA
HETATM    9  H22 UNL     1     -35.592   6.633   3.404  1.00 20.00     0.210 HD
ENDBRANCH   3   8
TORSDOF 2
ENDMDL
MODEL 4
REMARK VINA RESULT:      -3.8     11.411     12.592
REMARK  2 active torsions:
REMARK  status: ('A' for Active; 'I' for Inactive)
REMARK    1  A    between atoms: C3_3  and  C7_7 
REMARK    2  A    between atoms: C3_3  and  O8_8 
ROOT
HETATM    1  C1  UNL     1     -34.314  17.770  -2.436  1.00 20.00     0.045 A 
HETATM    2  C2  UNL     1     -34.002  16.977  -1.194  1.00 20.00     0.019 A 
HETATM    3  C3  UNL     1     -34.523  16.278  -2.426  1.00 20.00     0.065 A 
HETATM    4  C4  UNL     1     -34.843  17.137   0.026  1.00 20.00     0.013 C 
ENDROOT
BRANCH   3   5
HETATM    5  C7  UNL     1     -33.620  15.395  -3.220  1.00 20.00     0.012 C 
HETATM    6  C5  UNL     1     -34.276  14.038  -3.535  1.00 20.00     0.012 C 
HETATM    7  C6  UNL     1     -33.180  16.063  -4.536  1.00 20.00     0.012 C 
ENDBRANCH   3   5
BRANCH   3   8
HETATM    8  O8  UNL     1     -35.891  15.837  -2.408  1.00 20.00    -0.389 OA
HETATM    9  H22 UNL     1     -36.348  16.362  -3.078  1.00 20.00     0.210 HD
ENDBRANCH   3   8
TORSDOF 2
ENDMDL
MODEL 5
REMARK VINA RESULT:      -3.7      1.221      1.270
REMARK  2 active torsions:
REMARK  status: ('A' for Active; 'I' for Inactive)
REMARK    1  A    between atoms: C3_3  and  C7_7 
REMARK    2  A    between atoms: C3_3  and  O8_8 
ROOT
HETATM    1  C1  UNL     1     -34.298   6.749   3.502  1.00 20.00     0.045 A 
HETATM    2  C2  UNL     1     -32.890   6.215   3.537  1.00 20.00     0.019 A 
HETATM    3  C3  UNL     1     -33.763   6.127   4.766  1.00 20.00     0.065 A 
HETATM    4  C4  UNL     1     -31.734   7.152   3.468  1.00 20.00     0.013 C 
ENDROOT
BRANCH   3   5
HETATM    5  C7  UNL     1     -34.279   4.803   5.220  1.00 20.00     0.012 C 
HETATM    6  C5  UNL     1     -34.635   4.809   6.717  1.00 20.00     0.012 C 
HETATM    7  C6  UNL     1     -35.511   4.361   4.408  1.00 20.00     0.012 C 
ENDBRANCH   3   5
BRANCH   3   8
HETATM    8  O8  UNL     1     -33.484   7.037   5.842  1.00 20.00    -0.389 OA
HETATM    9  H22 UNL     1     -34.116   7.762   5.747  1.00 20.00     0.210 HD
ENDBRANCH   3   8
TORSDOF 2
ENDMDL
MODEL 6
REMARK VINA RESULT:      -3.6     11.765     13.296
REMARK  2 active torsions:
REMARK  status: ('A' for Active; 'I' for Inactive)
REMARK    1  A    between atoms: C3_3  and  C7_7 
REMARK    2  A    between atoms: C3_3  and  O8_8 
ROOT
HETATM    1  C1  UNL     1     -34.104  14.345  -3.457  1.00 20.00     0.045 A 
HETATM    2  C2  UNL     1     -34.545  15.744  -3.115  1.00 20.00     0.019 A 
HETATM    3  C3  UNL     1     -33.952  15.448  -4.472  1.00 20.00     0.065 A 
HETATM    4  C4  UNL     1     -33.801  16.534  -2.094  1.00 20.00     0.013 C 
ENDROOT
BRANCH   3   5
HETATM    5  C7  UNL     1     -34.821  15.467  -5.685  1.00 20.00     0.012 C 
HETATM    6  C5  UNL     1     -34.255  16.388  -6.781  1.00 20.00     0.012 C 
HETATM    7  C6  UNL     1     -35.024  14.055  -6.264  1.00 20.00     0.012 C 
ENDBRANCH   3   5
BRANCH   3   8
HETATM    8  O8  UNL     1     -32.608  15.894  -4.717  1.00 20.00    -0.389 OA
HETATM    9  H22 UNL     1     -32.687  16.684  -5.268  1.00 20.00     0.210 HD
ENDBRANCH   3   8
TORSDOF 2
ENDMDL
MODEL 7
REMARK VINA RESULT:      -3.5      9.694     10.406
REMARK  2 active torsions:
REMARK  status: ('A' for Active; 'I' for Inactive)
REMARK    1  A    between atoms: C3_3  and  C7_7 
REMARK    2  A    between atoms: C3_3  and  O8_8 
ROOT
HETATM    1  C1  UNL     1     -43.098   7.720  -1.407  1.00 20.00     0.045 A 
HETATM    2  C2  UNL     1     -43.044   7.050  -2.755  1.00 20.00     0.019 A 
HETATM    3  C3  UNL     1     -42.039   6.686  -1.688  1.00 20.00     0.065 A 
HETATM    4  C4  UNL     1     -42.652   7.829  -3.962  1.00 20.00     0.013 C 
ENDROOT
BRANCH   3   5
HETATM    5  C7  UNL     1     -42.108   5.352  -1.024  1.00 20.00     0.012 C 
HETATM    6  C5  UNL     1     -40.806   4.551  -1.209  1.00 20.00     0.012 C 
HETATM    7  C6  UNL     1     -42.415   5.478   0.480  1.00 20.00     0.012 C 
ENDBRANCH   3   5
BRANCH   3   8
HETATM    8  O8  UNL     1     -40.700   7.185  -1.843  1.00 20.00    -0.389 OA
HETATM    9  H22 UNL     1     -40.124   6.410  -1.823  1.00 20.00     0.210 HD
ENDBRANCH   3   8
TORSDOF 2
ENDMDL
MODEL 8
REMARK VINA RESULT:      -3.5     11.550     13.157
REMARK  2 active torsions:
REMARK  status: ('A' for Active; 'I' for Inactive)
REMARK    1  A    between atoms: C3_3  and  C7_7 
REMARK    2  A    between atoms: C3_3  and  O8_8 
ROOT
HETATM    1  C1  UNL     1     -35.717  16.039  -5.558  1.00 20.00     0.045 A 
HETATM    2  C2  UNL     1     -35.434  14.734  -6.256  1.00 20.00     0.019 A 
HETATM    3  C3  UNL     1     -34.512  15.224  -5.166  1.00 20.00     0.065 A 
HETATM    4  C4  UNL     1     -35.017  14.727  -7.686  1.00 20.00     0.013 C 
ENDROOT
BRANCH   3   5
HETATM    5  C7  UNL     1     -34.482  14.527  -3.846  1.00 20.00     0.012 C 
HETATM    6  C5  UNL     1     -33.193  13.708  -3.660  1.00 20.00     0.012 C 
HETATM    7  C6  UNL     1     -34.629  15.516  -2.675  1.00 20.00     0.012 C 
ENDBRANCH   3   5
BRANCH   3   8
HETATM    8  O8  UNL     1     -33.238  15.756  -5.567  1.00 20.00    -0.389 OA
HETATM    9  H22 UNL     1     -33.152  15.555  -6.508  1.00 20.00     0.210 HD
ENDBRANCH   3   8
TORSDOF 2
ENDMDL
MODEL 9
REMARK VINA RESULT:      -3.4     11.728     13.530
REMARK  2 active torsions:
REMARK  status: ('A' for Active; 'I' for Inactive)
REMARK    1  A    between atoms: C3_3  and  C7_7 
REMARK    2  A    between atoms: C3_3  and  O8_8 
ROOT
HETATM    1  C1  UNL     1     -34.578  17.495  -4.814  1.00 20.00     0.045 A 
HETATM    2  C2  UNL     1     -34.939  16.478  -5.866  1.00 20.00     0.019 A 
HETATM    3  C3  UNL     1     -34.000  16.105  -4.744  1.00 20.00     0.065 A 
HETATM    4  C4  UNL     1     -34.456  16.647  -7.265  1.00 20.00     0.013 C 
ENDROOT
BRANCH   3   5
HETATM    5  C7  UNL     1     -34.450  15.165  -3.677  1.00 20.00     0.012 C 
HETATM    6  C5  UNL     1     -33.610  13.875  -3.657  1.00 20.00     0.012 C 
HETATM    7  C6  UNL     1     -34.407  15.820  -2.284  1.00 20.00     0.012 C 
ENDBRANCH   3   5
BRANCH   3   8
HETATM    8  O8  UNL     1     -32.603  15.991  -5.062  1.00 20.00    -0.389 OA
HETATM    9  H22 UNL     1     -32.127  16.322  -4.289  1.00 20.00     0.210 HD
ENDBRANCH   3   8
TORSDOF 2
ENDMDL
