MODEL 1
REMARK VINA RESULT:      -4.8      0.000      0.000
REMARK  4 active torsions:
REMARK  status: ('A' for Active; 'I' for Inactive)
REMARK    1  A    between atoms: C6_6  and  C7_7 
REMARK    2  A    between atoms: C6_6  and  C9_9 
REMARK    3  A    between atoms: C8_8  and  C10_10 
REMARK    4  A    between atoms: C9_9  and  C10_10 
ROOT
HETATM    1  C5  UNL     1     -32.049   5.343   3.251  1.00 20.00     0.011 C 
HETATM    2  C9  UNL     1     -33.034   6.501   3.023  1.00 20.00     0.001 C 
ENDROOT
BRANCH   2   3
HETATM    3  C6  UNL     1     -32.300   7.861   2.929  1.00 20.00     0.009 C 
BRANCH   3   4
HETATM    4  C7  UNL     1     -32.572   8.687   1.653  1.00 20.00    -0.022 C 
HETATM    5  C1  UNL     1     -31.452   8.558   0.621  1.00 20.00     0.009 C 
HETATM    6  C2  UNL     1     -32.758  10.162   2.027  1.00 20.00     0.009 C 
ENDBRANCH   3   4
ENDBRANCH   2   3
BRANCH   2   7
HETATM    7  C10 UNL     1     -34.164   6.495   4.098  1.00 20.00     0.089 C 
HETATM    8 CL11 UNL     1     -35.617   5.635   3.457  1.00 20.00    -0.124 Cl
BRANCH   7   9
HETATM    9  C8  UNL     1     -33.775   5.911   5.486  1.00 20.00    -0.004 C 
HETATM   10  C3  UNL     1     -34.743   4.817   5.951  1.00 20.00     0.011 C 
HETATM   11  C4  UNL     1     -33.726   7.001   6.569  1.00 20.00     0.011 C 
ENDBRANCH   7   9
ENDBRANCH   2   7
TORSDOF 4
ENDMDL
MODEL 2
REMARK VINA RESULT:      -4.6     10.630     11.985
REMARK  4 active torsions:
REMARK  status: ('A' for Active; 'I' for Inactive)
REMARK    1  A    between atoms: C6_6  and  C7_7 
REMARK    2  A    between atoms: C6_6  and  C9_9 
REMARK    3  A    between atoms: C8_8  and  C10_10 
REMARK    4  A    between atoms: C9_9  and  C10_10 
ROOT
HETATM    1  C5  UNL     1     -36.743  14.799  -3.964  1.00 20.00     0.011 C 
HETATM    2  C9  UNL     1     -35.273  14.970  -4.380  1.00 20.00     0.001 C 
ENDROOT
BRANCH   2   3
HETATM    3  C6  UNL     1     -34.905  14.040  -5.562  1.00 20.00     0.009 C 
BRANCH   3   4
HETATM    4  C7  UNL     1     -34.554  14.743  -6.890  1.00 20.00    -0.022 C 
HETATM    5  C1  UNL     1     -34.359  16.250  -6.721  1.00 20.00     0.009 C 
HETATM    6  C2  UNL     1     -35.661  14.481  -7.918  1.00 20.00     0.009 C 
ENDBRANCH   3   4
ENDBRANCH   2   3
BRANCH   2   7
HETATM    7  C10 UNL     1     -34.321  14.802  -3.156  1.00 20.00     0.089 C 
HETATM    8 CL11 UNL     1     -32.894  13.797  -3.621  1.00 20.00    -0.124 Cl
BRANCH   7   9
HETATM    9  C8  UNL     1     -33.842  16.121  -2.486  1.00 20.00    -0.004 C 
HETATM   10  C3  UNL     1     -34.632  16.448  -1.213  1.00 20.00     0.011 C 
HETATM   11  C4  UNL     1     -33.956  17.320  -3.441  1.00 20.00     0.011 C 
ENDBRANCH   7   9
ENDBRANCH   2   7
TORSDOF 4
ENDMDL
MODEL 3
REMARK VINA RESULT:      -4.4     10.329     12.145
REMARK  4 active torsions:
REMARK  status: ('A' for Active; 'I' for Inactive)
REMARK    1  A    between atoms: C6_6  and  C7_7 
REMARK    2  A    between atoms: C6_6  and  C9_9 
REMARK    3  A    between atoms: C8_8  and  C10_10 
REMARK    4  A    between atoms: C9_9  and  C10_10 
ROOT
HETATM    1  C5  UNL     1     -33.387  13.657  -3.768  1.00 20.00     0.011 C 
HETATM    2  C9  UNL     1     -34.330  14.858  -3.955  1.00 20.00     0.001 C 
ENDROOT
BRANCH   2   3
HETATM    3  C6  UNL     1     -34.876  15.367  -2.599  1.00 20.00     0.009 C 
BRANCH   3   4
HETATM    4  C7  UNL     1     -34.040  16.461  -1.903  1.00 20.00    -0.022 C 
HETATM    5  C1  UNL     1     -34.634  16.888  -0.560  1.00 20.00     0.009 C 
HETATM    6  C2  UNL     1     -33.922  17.681  -2.823  1.00 20.00     0.009 C 
ENDBRANCH   3   4
ENDBRANCH   2   3
BRANCH   2   7
HETATM    7  C10 UNL     1     -35.458  14.530  -4.980  1.00 20.00     0.089 C 
HETATM    8 CL11 UNL     1     -37.074  14.710  -4.195  1.00 20.00    -0.124 Cl
BRANCH   7   9
HETATM    9  C8  UNL     1     -35.422  15.340  -6.307  1.00 20.00    -0.004 C 
HETATM   10  C3  UNL     1     -35.427  14.434  -7.544  1.00 20.00     0.011 C 
HETATM   11  C4  UNL     1     -34.187  16.251  -6.385  1.00 20.00     0.011 C 
ENDBRANCH   7   9
ENDBRANCH   2   7
TORSDOF 4
ENDMDL
MODEL 4
REMARK VINA RESULT:      -4.4     10.436     12.544
REMARK  4 active torsions:
REMARK  status: ('A' for Active; 'I' for Inactive)
REMARK    1  A    between atoms: C6_6  and  C7_7 
REMARK    2  A    between atoms: C6_6  and  C9_9 
REMARK    3  A    between atoms: C8_8  and  C10_10 
REMARK    4  A    between atoms: C9_9  and  C10_10 
ROOT
HETATM    1  C5  UNL     1     -33.473  13.509  -3.821  1.00 20.00     0.011 C 
HETATM    2  C9  UNL     1     -34.043  14.923  -4.021  1.00 20.00     0.001 C 
ENDROOT
BRANCH   2   3
HETATM    3  C6  UNL     1     -34.731  15.444  -2.737  1.00 20.00     0.009 C 
BRANCH   3   4
HETATM    4  C7  UNL     1     -33.959  16.523  -1.948  1.00 20.00    -0.022 C 
HETATM    5  C1  UNL     1     -34.615  16.849  -0.606  1.00 20.00     0.009 C 
HETATM    6  C2  UNL     1     -33.853  17.798  -2.791  1.00 20.00     0.009 C 
ENDBRANCH   3   4
ENDBRANCH   2   3
BRANCH   2   7
HETATM    7  C10 UNL     1     -34.970  14.981  -5.274  1.00 20.00     0.089 C 
HETATM    8 CL11 UNL     1     -36.439  15.964  -4.906  1.00 20.00    -0.124 Cl
BRANCH   7   9
HETATM    9  C8  UNL     1     -34.306  15.493  -6.584  1.00 20.00    -0.004 C 
HETATM   10  C3  UNL     1     -34.390  17.017  -6.723  1.00 20.00     0.011 C 
HETATM   11  C4  UNL     1     -34.946  14.862  -7.831  1.00 20.00     0.011 C 
ENDBRANCH   7   9
ENDBRANCH   2   7
TORSDOF 4
ENDMDL
MODEL 5
REMARK VINA RESULT:      -4.3     11.191     12.347
REMARK  4 active torsions:
REMARK  status: ('A' for Active; 'I' for Inactive)
REMARK    1  A    between atoms: C6_6  and  C7_7 
REMARK    2  A    between atoms: C6_6  and  C9_9 
REMARK    3  A    between atoms: C8_8  and  C10_10 
REMARK    4  A    between atoms: C9_9  and  C10_10 
ROOT
HETATM    1  C5  UNL     1     -38.156  14.928  -3.606  1.00 20.00     0.011 C 
HETATM    2  C9  UNL     1     -36.659  15.112  -3.905  1.00 20.00     0.001 C 
ENDROOT
BRANCH   2   3
HETATM    3  C6  UNL     1     -36.038  16.227  -3.029  1.00 20.00     0.009 C 
BRANCH   3   4
HETATM    4  C7  UNL     1     -34.765  15.839  -2.245  1.00 20.00    -0.022 C 
HETATM    5  C1  UNL     1     -34.646  16.585  -0.916  1.00 20.00     0.009 C 
HETATM    6  C2  UNL     1     -33.528  16.120  -3.104  1.00 20.00     0.009 C 
ENDBRANCH   3   4
ENDBRANCH   2   3
BRANCH   2   7
HETATM    7  C10 UNL     1     -36.414  15.331  -5.429  1.00 20.00     0.089 C 
HETATM    8 CL11 UNL     1     -35.918  17.040  -5.733  1.00 20.00    -0.124 Cl
BRANCH   7   9
HETATM    9  C8  UNL     1     -35.401  14.359  -6.098  1.00 20.00    -0.004 C 
HETATM   10  C3  UNL     1     -34.812  13.354  -5.101  1.00 20.00     0.011 C 
HETATM   11  C4  UNL     1     -34.237  15.116  -6.759  1.00 20.00     0.011 C 
ENDBRANCH   7   9
ENDBRANCH   2   7
TORSDOF 4
ENDMDL
MODEL 6
REMARK VINA RESULT:      -4.3     10.972     12.462
REMARK  4 active torsions:
REMARK  status: ('A' for Active; 'I' for Inactive)
REMARK    1  A    between atoms: C6_6  and  C7_7 
REMARK    2  A    between atoms: C6_6  and  C9_9 
REMARK    3  A    between atoms: C8_8  and  C10_10 
REMARK    4  A    between atoms: C9_9  and  C10_10 
ROOT
HETATM    1  C5  UNL     1     -33.317  16.884  -5.234  1.00 20.00     0.011 C 
HETATM    2  C9  UNL     1     -34.281  15.919  -4.526  1.00 20.00     0.001 C 
ENDROOT
BRANCH   2   3
HETATM    3  C6  UNL     1     -33.884  15.705  -3.045  1.00 20.00     0.009 C 
BRANCH   3   4
HETATM    4  C7  UNL     1     -34.944  16.109  -1.997  1.00 20.00    -0.022 C 
HETATM    5  C1  UNL     1     -36.103  16.895  -2.609  1.00 20.00     0.009 C 
HETATM    6  C2  UNL     1     -34.283  16.944  -0.895  1.00 20.00     0.009 C 
ENDBRANCH   3   4
ENDBRANCH   2   3
BRANCH   2   7
HETATM    7  C10 UNL     1     -34.418  14.582  -5.317  1.00 20.00     0.089 C 
HETATM    8 CL11 UNL     1     -34.648  13.208  -4.168  1.00 20.00    -0.124 Cl
BRANCH   7   9
HETATM    9  C8  UNL     1     -35.528  14.551  -6.406  1.00 20.00    -0.004 C 
HETATM   10  C3  UNL     1     -34.981  14.852  -7.806  1.00 20.00     0.011 C 
HETATM   11  C4  UNL     1     -36.651  15.558  -6.104  1.00 20.00     0.011 C 
ENDBRANCH   7   9
ENDBRANCH   2   7
TORSDOF 4
ENDMDL
MODEL 7
REMARK VINA RESULT:      -4.3     10.458     11.820
REMARK  4 active torsions:
REMARK  status: ('A' for Active; 'I' for Inactive)
REMARK    1  A    between atoms: C6_6  and  C7_7 
REMARK    2  A    between atoms: C6_6  and  C9_9 
REMARK    3  A    between atoms: C8_8  and  C10_10 
REMARK    4  A    between atoms: C9_9  and  C10_10 
ROOT
HETATM    1  C5  UNL     1     -33.471  17.012  -5.043  1.00 20.00     0.011 C 
HETATM    2  C9  UNL     1     -33.736  16.480  -3.625  1.00 20.00     0.001 C 
ENDROOT
BRANCH   2   3
HETATM    3  C6  UNL     1     -34.855  15.411  -3.620  1.00 20.00     0.009 C 
BRANCH   3   4
HETATM    4  C7  UNL     1     -34.383  13.941  -3.622  1.00 20.00    -0.022 C 
HETATM    5  C1  UNL     1     -32.867  13.812  -3.469  1.00 20.00     0.009 C 
HETATM    6  C2  UNL     1     -34.827  13.262  -4.923  1.00 20.00     0.009 C 
ENDBRANCH   3   4
ENDBRANCH   2   3
BRANCH   2   7
HETATM    7  C10 UNL     1     -34.009  17.650  -2.630  1.00 20.00     0.089 C 
HETATM    8 CL11 UNL     1     -35.746  18.137  -2.715  1.00 20.00    -0.124 Cl
BRANCH   7   9
HETATM    9  C8  UNL     1     -33.606  17.387  -1.151  1.00 20.00    -0.004 C 
HETATM   10  C3  UNL     1     -34.798  16.957  -0.289  1.00 20.00     0.011 C 
HETATM   11  C4  UNL     1     -32.970  18.628  -0.504  1.00 20.00     0.011 C 
ENDBRANCH   7   9
ENDBRANCH   2   7
TORSDOF 4
ENDMDL
MODEL 8
REMARK VINA RESULT:      -4.3     10.626     11.930
REMARK  4 active torsions:
REMARK  status: ('A' for Active; 'I' for Inactive)
REMARK    1  A    between atoms: C6_6  and  C7_7 
REMARK    2  A    between atoms: C6_6  and  C9_9 
REMARK    3  A    between atoms: C8_8  and  C10_10 
REMARK    4  A    between atoms: C9_9  and  C10_10 
ROOT
HETATM    1  C5  UNL     1     -36.313  17.357  -2.959  1.00 20.00     0.011 C 
HETATM    2  C9  UNL     1     -35.476  16.081  -2.764  1.00 20.00     0.001 C 
ENDROOT
BRANCH   2   3
HETATM    3  C6  UNL     1     -34.603  16.165  -1.489  1.00 20.00     0.009 C 
BRANCH   3   4
HETATM    4  C7  UNL     1     -34.583  17.533  -0.773  1.00 20.00    -0.022 C 
HETATM    5  C1  UNL     1     -33.190  18.163  -0.753  1.00 20.00     0.009 C 
HETATM    6  C2  UNL     1     -35.093  17.368   0.662  1.00 20.00     0.009 C 
ENDBRANCH   3   4
ENDBRANCH   2   3
BRANCH   2   7
HETATM    7  C10 UNL     1     -34.651  15.752  -4.046  1.00 20.00     0.089 C 
HETATM    8 CL11 UNL     1     -32.954  15.333  -3.592  1.00 20.00    -0.124 Cl
BRANCH   7   9
HETATM    9  C8  UNL     1     -35.241  14.644  -4.964  1.00 20.00    -0.004 C 
HETATM   10  C3  UNL     1     -35.065  13.241  -4.372  1.00 20.00     0.011 C 
HETATM   11  C4  UNL     1     -34.598  14.660  -6.361  1.00 20.00     0.011 C 
ENDBRANCH   7   9
ENDBRANCH   2   7
TORSDOF 4
ENDMDL
MODEL 9
REMARK VINA RESULT:      -4.2     10.852     12.250
REMARK  4 active torsions:
REMARK  status: ('A' for Active; 'I' for Inactive)
REMARK    1  A    between atoms: C6_6  and  C7_7 
REMARK    2  A    between atoms: C6_6  and  C9_9 
REMARK    3  A    between atoms: C8_8  and  C10_10 
REMARK    4  A    between atoms: C9_9  and  C10_10 
ROOT
HETATM    1  C5  UNL     1     -36.281  15.828  -3.368  1.00 20.00     0.011 C 
HETATM    2  C9  UNL     1     -34.935  15.123  -3.131  1.00 20.00     0.001 C 
ENDROOT
BRANCH   2   3
HETATM    3  C6  UNL     1     -34.026  15.938  -2.180  1.00 20.00     0.009 C 
BRANCH   3   4
HETATM    4  C7  UNL     1     -34.632  17.245  -1.623  1.00 20.00    -0.022 C 
HETATM    5  C1  UNL     1     -33.779  18.471  -1.949  1.00 20.00     0.009 C 
HETATM    6  C2  UNL     1     -34.799  17.125  -0.104  1.00 20.00     0.009 C 
ENDBRANCH   3   4
ENDBRANCH   2   3
BRANCH   2   7
HETATM    7  C10 UNL     1     -34.241  14.772  -4.483  1.00 20.00     0.089 C 
HETATM    8 CL11 UNL     1     -34.693  13.098  -4.989  1.00 20.00    -0.124 Cl
BRANCH   7   9
HETATM    9  C8  UNL     1     -34.497  15.765  -5.652  1.00 20.00    -0.004 C 
HETATM   10  C3  UNL     1     -34.381  15.091  -7.025  1.00 20.00     0.011 C 
HETATM   11  C4  UNL     1     -33.519  16.951  -5.616  1.00 20.00     0.011 C 
ENDBRANCH   7   9
ENDBRANCH   2   7
TORSDOF 4
ENDMDL
