MODEL 1
REMARK VINA RESULT:      -4.2      0.000      0.000
REMARK  3 active torsions:
REMARK  status: ('A' for Active; 'I' for Inactive)
REMARK    1  A    between atoms: C1_1  and  C8_8 
REMARK    2  A    between atoms: C1_1  and  C9_9 
REMARK    3  A    between atoms: C9_9  and  C10_10 
ROOT
HETATM    1  C4  UNL     1     -36.485  15.009  -3.537  1.00 20.00     0.018 C 
HETATM    2  C9  UNL     1     -35.041  15.295  -3.107  1.00 20.00     0.059 C 
ENDROOT
BRANCH   2   3
HETATM    3  C1  UNL     1     -34.970  16.757  -2.641  1.00 20.00     0.134 C 
HETATM    4  O11 UNL     1     -35.665  17.632  -3.161  1.00 20.00    -0.297 OA
BRANCH   3   5
HETATM    5  C8  UNL     1     -34.029  17.070  -1.479  1.00 20.00     0.048 C 
HETATM    6  C2  UNL     1     -34.797  16.988  -0.165  1.00 20.00     0.017 C 
HETATM    7  C3  UNL     1     -33.385  18.443  -1.651  1.00 20.00     0.017 C 
ENDBRANCH   3   5
ENDBRANCH   2   3
BRANCH   2   8
HETATM    8  C10 UNL     1     -33.950  14.941  -4.169  1.00 20.00    -0.041 C 
HETATM    9  C5  UNL     1     -34.586  14.129  -5.320  1.00 20.00     0.015 C 
HETATM   10  C6  UNL     1     -32.854  14.058  -3.534  1.00 20.00     0.015 C 
HETATM   11  C7  UNL     1     -33.277  16.184  -4.781  1.00 20.00     0.015 C 
ENDBRANCH   2   8
TORSDOF 3
ENDMDL
MODEL 2
REMARK VINA RESULT:      -4.1      1.182      1.361
REMARK  3 active torsions:
REMARK  status: ('A' for Active; 'I' for Inactive)
REMARK    1  A    between atoms: C1_1  and  C8_8 
REMARK    2  A    between atoms: C1_1  and  C9_9 
REMARK    3  A    between atoms: C9_9  and  C10_10 
ROOT
HETATM    1  C4  UNL     1     -36.098  16.661  -4.124  1.00 20.00     0.018 C 
HETATM    2  C9  UNL     1     -34.906  16.048  -3.381  1.00 20.00     0.059 C 
ENDROOT
BRANCH   2   3
HETATM    3  C1  UNL     1     -33.980  17.195  -2.949  1.00 20.00     0.134 C 
HETATM    4  O11 UNL     1     -33.586  18.041  -3.754  1.00 20.00    -0.297 OA
BRANCH   3   5
HETATM    5  C8  UNL     1     -33.599  17.261  -1.470  1.00 20.00     0.048 C 
HETATM    6  C2  UNL     1     -34.729  16.681  -0.628  1.00 20.00     0.017 C 
HETATM    7  C3  UNL     1     -33.284  18.694  -1.050  1.00 20.00     0.017 C 
ENDBRANCH   3   5
ENDBRANCH   2   3
BRANCH   2   8
HETATM    8  C10 UNL     1     -34.154  14.916  -4.153  1.00 20.00    -0.041 C 
HETATM    9  C5  UNL     1     -34.182  15.210  -5.670  1.00 20.00     0.015 C 
HETATM   10  C6  UNL     1     -34.860  13.561  -3.935  1.00 20.00     0.015 C 
HETATM   11  C7  UNL     1     -32.681  14.769  -3.727  1.00 20.00     0.015 C 
ENDBRANCH   2   8
TORSDOF 3
ENDMDL
MODEL 3
REMARK VINA RESULT:      -4.1      1.880      4.398
REMARK  3 active torsions:
REMARK  status: ('A' for Active; 'I' for Inactive)
REMARK    1  A    between atoms: C1_1  and  C8_8 
REMARK    2  A    between atoms: C1_1  and  C9_9 
REMARK    3  A    between atoms: C9_9  and  C10_10 
ROOT
HETATM    1  C4  UNL     1     -33.501  14.063  -3.749  1.00 20.00     0.018 C 
HETATM    2  C9  UNL     1     -34.538  14.908  -4.498  1.00 20.00     0.059 C 
ENDROOT
BRANCH   2   3
HETATM    3  C1  UNL     1     -33.789  15.773  -5.523  1.00 20.00     0.134 C 
HETATM    4  O11 UNL     1     -32.892  16.544  -5.179  1.00 20.00    -0.297 OA
BRANCH   3   5
HETATM    5  C8  UNL     1     -34.181  15.606  -6.990  1.00 20.00     0.048 C 
HETATM    6  C2  UNL     1     -34.623  16.950  -7.555  1.00 20.00     0.017 C 
HETATM    7  C3  UNL     1     -35.281  14.559  -7.147  1.00 20.00     0.017 C 
ENDBRANCH   3   5
ENDBRANCH   2   3
BRANCH   2   8
HETATM    8  C10 UNL     1     -35.500  15.738  -3.587  1.00 20.00    -0.041 C 
HETATM    9  C5  UNL     1     -34.895  15.870  -2.172  1.00 20.00     0.015 C 
HETATM   10  C6  UNL     1     -36.855  15.013  -3.441  1.00 20.00     0.015 C 
HETATM   11  C7  UNL     1     -35.765  17.157  -4.124  1.00 20.00     0.015 C 
ENDBRANCH   2   8
TORSDOF 3
ENDMDL
MODEL 4
REMARK VINA RESULT:      -4.1      1.733      2.893
REMARK  3 active torsions:
REMARK  status: ('A' for Active; 'I' for Inactive)
REMARK    1  A    between atoms: C1_1  and  C8_8 
REMARK    2  A    between atoms: C1_1  and  C9_9 
REMARK    3  A    between atoms: C9_9  and  C10_10 
ROOT
HETATM    1  C4  UNL     1     -33.625  17.164  -5.658  1.00 20.00     0.018 C 
HETATM    2  C9  UNL     1     -34.543  16.169  -4.939  1.00 20.00     0.059 C 
ENDROOT
BRANCH   2   3
HETATM    3  C1  UNL     1     -33.824  15.698  -3.666  1.00 20.00     0.134 C 
HETATM    4  O11 UNL     1     -32.694  15.209  -3.711  1.00 20.00    -0.297 OA
BRANCH   3   5
HETATM    5  C8  UNL     1     -34.556  15.898  -2.340  1.00 20.00     0.048 C 
HETATM    6  C2  UNL     1     -35.986  16.350  -2.612  1.00 20.00     0.017 C 
HETATM    7  C3  UNL     1     -33.823  16.904  -1.457  1.00 20.00     0.017 C 
ENDBRANCH   3   5
ENDBRANCH   2   3
BRANCH   2   8
HETATM    8  C10 UNL     1     -35.058  14.985  -5.821  1.00 20.00    -0.041 C 
HETATM    9  C5  UNL     1     -34.322  14.988  -7.179  1.00 20.00     0.015 C 
HETATM   10  C6  UNL     1     -36.564  15.154  -6.114  1.00 20.00     0.015 C 
HETATM   11  C7  UNL     1     -34.843  13.607  -5.168  1.00 20.00     0.015 C 
ENDBRANCH   2   8
TORSDOF 3
ENDMDL
MODEL 5
REMARK VINA RESULT:      -4.1      2.091      4.429
REMARK  3 active torsions:
REMARK  status: ('A' for Active; 'I' for Inactive)
REMARK    1  A    between atoms: C1_1  and  C8_8 
REMARK    2  A    between atoms: C1_1  and  C9_9 
REMARK    3  A    between atoms: C9_9  and  C10_10 
ROOT
HETATM    1  C4  UNL     1     -36.686  14.895  -3.499  1.00 20.00     0.018 C 
HETATM    2  C9  UNL     1     -35.498  15.245  -4.402  1.00 20.00     0.059 C 
ENDROOT
BRANCH   2   3
HETATM    3  C1  UNL     1     -35.254  14.055  -5.341  1.00 20.00     0.134 C 
HETATM    4  O11 UNL     1     -35.014  12.928  -4.903  1.00 20.00    -0.297 OA
BRANCH   3   5
HETATM    5  C8  UNL     1     -35.358  14.322  -6.842  1.00 20.00     0.048 C 
HETATM    6  C2  UNL     1     -34.164  15.153  -7.295  1.00 20.00     0.017 C 
HETATM    7  C3  UNL     1     -36.671  15.021  -7.183  1.00 20.00     0.017 C 
ENDBRANCH   3   5
ENDBRANCH   2   3
BRANCH   2   8
HETATM    8  C10 UNL     1     -34.206  15.704  -3.651  1.00 20.00    -0.041 C 
HETATM    9  C5  UNL     1     -34.534  15.974  -2.165  1.00 20.00     0.015 C 
HETATM   10  C6  UNL     1     -33.678  17.024  -4.253  1.00 20.00     0.015 C 
HETATM   11  C7  UNL     1     -33.074  14.660  -3.704  1.00 20.00     0.015 C 
ENDBRANCH   2   8
TORSDOF 3
ENDMDL
MODEL 6
REMARK VINA RESULT:      -4.0     12.014     13.991
REMARK  3 active torsions:
REMARK  status: ('A' for Active; 'I' for Inactive)
REMARK    1  A    between atoms: C1_1  and  C8_8 
REMARK    2  A    between atoms: C1_1  and  C9_9 
REMARK    3  A    between atoms: C9_9  and  C10_10 
ROOT
HETATM    1  C4  UNL     1     -42.248   5.092   0.628  1.00 20.00     0.018 C 
HETATM    2  C9  UNL     1     -42.475   5.330  -0.870  1.00 20.00     0.059 C 
ENDROOT
BRANCH   2   3
HETATM    3  C1  UNL     1     -41.613   4.321  -1.643  1.00 20.00     0.134 C 
HETATM    4  O11 UNL     1     -40.399   4.232  -1.451  1.00 20.00    -0.297 OA
BRANCH   3   5
HETATM    5  C8  UNL     1     -42.334   3.406  -2.632  1.00 20.00     0.048 C 
HETATM    6  C2  UNL     1     -43.407   2.609  -1.900  1.00 20.00     0.017 C 
HETATM    7  C3  UNL     1     -41.349   2.478  -3.337  1.00 20.00     0.017 C 
ENDBRANCH   3   5
ENDBRANCH   2   3
BRANCH   2   8
HETATM    8  C10 UNL     1     -42.263   6.804  -1.346  1.00 20.00    -0.041 C 
HETATM    9  C5  UNL     1     -40.952   7.362  -0.751  1.00 20.00     0.015 C 
HETATM   10  C6  UNL     1     -43.415   7.699  -0.842  1.00 20.00     0.015 C 
HETATM   11  C7  UNL     1     -42.182   6.937  -2.879  1.00 20.00     0.015 C 
ENDBRANCH   2   8
TORSDOF 3
ENDMDL
MODEL 7
REMARK VINA RESULT:      -4.0      1.390      3.979
REMARK  3 active torsions:
REMARK  status: ('A' for Active; 'I' for Inactive)
REMARK    1  A    between atoms: C1_1  and  C8_8 
REMARK    2  A    between atoms: C1_1  and  C9_9 
REMARK    3  A    between atoms: C9_9  and  C10_10 
ROOT
HETATM    1  C4  UNL     1     -35.555  17.493  -4.524  1.00 20.00     0.018 C 
HETATM    2  C9  UNL     1     -34.780  16.780  -3.410  1.00 20.00     0.059 C 
ENDROOT
BRANCH   2   3
HETATM    3  C1  UNL     1     -35.313  15.343  -3.312  1.00 20.00     0.134 C 
HETATM    4  O11 UNL     1     -36.512  15.111  -3.144  1.00 20.00    -0.297 OA
BRANCH   3   5
HETATM    5  C8  UNL     1     -34.296  14.213  -3.471  1.00 20.00     0.048 C 
HETATM    6  C2  UNL     1     -32.907  14.805  -3.679  1.00 20.00     0.017 C 
HETATM    7  C3  UNL     1     -34.677  13.293  -4.627  1.00 20.00     0.017 C 
ENDBRANCH   3   5
ENDBRANCH   2   3
BRANCH   2   8
HETATM    8  C10 UNL     1     -34.768  17.520  -2.033  1.00 20.00    -0.041 C 
HETATM    9  C5  UNL     1     -36.089  18.300  -1.847  1.00 20.00     0.015 C 
HETATM   10  C6  UNL     1     -33.617  18.548  -1.989  1.00 20.00     0.015 C 
HETATM   11  C7  UNL     1     -34.610  16.564  -0.835  1.00 20.00     0.015 C 
ENDBRANCH   2   8
TORSDOF 3
ENDMDL
MODEL 8
REMARK VINA RESULT:      -4.0      1.737      2.555
REMARK  3 active torsions:
REMARK  status: ('A' for Active; 'I' for Inactive)
REMARK    1  A    between atoms: C1_1  and  C8_8 
REMARK    2  A    between atoms: C1_1  and  C9_9 
REMARK    3  A    between atoms: C9_9  and  C10_10 
ROOT
HETATM    1  C4  UNL     1     -34.719  13.270  -4.698  1.00 20.00     0.018 C 
HETATM    2  C9  UNL     1     -34.700  14.788  -4.483  1.00 20.00     0.059 C 
ENDROOT
BRANCH   2   3
HETATM    3  C1  UNL     1     -35.749  15.126  -3.414  1.00 20.00     0.134 C 
HETATM    4  O11 UNL     1     -36.861  14.596  -3.415  1.00 20.00    -0.297 OA
BRANCH   3   5
HETATM    5  C8  UNL     1     -35.338  16.120  -2.329  1.00 20.00     0.048 C 
HETATM    6  C2  UNL     1     -36.035  17.454  -2.570  1.00 20.00     0.017 C 
HETATM    7  C3  UNL     1     -33.822  16.295  -2.293  1.00 20.00     0.017 C 
ENDBRANCH   3   5
ENDBRANCH   2   3
BRANCH   2   8
HETATM    8  C10 UNL     1     -34.856  15.642  -5.783  1.00 20.00    -0.041 C 
HETATM    9  C5  UNL     1     -34.515  14.781  -7.019  1.00 20.00     0.015 C 
HETATM   10  C6  UNL     1     -33.870  16.830  -5.763  1.00 20.00     0.015 C 
HETATM   11  C7  UNL     1     -36.280  16.199  -5.972  1.00 20.00     0.015 C 
ENDBRANCH   2   8
TORSDOF 3
ENDMDL
MODEL 9
REMARK VINA RESULT:      -4.0      0.931      2.156
REMARK  3 active torsions:
REMARK  status: ('A' for Active; 'I' for Inactive)
REMARK    1  A    between atoms: C1_1  and  C8_8 
REMARK    2  A    between atoms: C1_1  and  C9_9 
REMARK    3  A    between atoms: C9_9  and  C10_10 
ROOT
HETATM    1  C4  UNL     1     -33.159  16.520  -5.045  1.00 20.00     0.018 C 
HETATM    2  C9  UNL     1     -34.637  16.249  -4.745  1.00 20.00     0.059 C 
ENDROOT
BRANCH   2   3
HETATM    3  C1  UNL     1     -35.026  17.075  -3.510  1.00 20.00     0.134 C 
HETATM    4  O11 UNL     1     -36.109  17.659  -3.442  1.00 20.00    -0.297 OA
BRANCH   3   5
HETATM    5  C8  UNL     1     -34.027  17.108  -2.355  1.00 20.00     0.048 C 
HETATM    6  C2  UNL     1     -34.647  16.455  -1.126  1.00 20.00     0.017 C 
HETATM    7  C3  UNL     1     -33.590  18.539  -2.052  1.00 20.00     0.017 C 
ENDBRANCH   3   5
ENDBRANCH   2   3
BRANCH   2   8
HETATM    8  C10 UNL     1     -35.020  14.739  -4.614  1.00 20.00    -0.041 C 
HETATM    9  C5  UNL     1     -33.915  13.984  -3.843  1.00 20.00     0.015 C 
HETATM   10  C6  UNL     1     -35.130  14.092  -6.012  1.00 20.00     0.015 C 
HETATM   11  C7  UNL     1     -36.352  14.516  -3.872  1.00 20.00     0.015 C 
ENDBRANCH   2   8
TORSDOF 3
ENDMDL
