MODEL 1
REMARK VINA RESULT:      -4.2      0.000      0.000
REMARK  2 active torsions:
REMARK  status: ('A' for Active; 'I' for Inactive)
REMARK    1  A    between atoms: C4_4  and  C7_7 
REMARK    2  A    between atoms: C7_7  and  C8_8 
ROOT
HETATM    1  C1  UNL     1     -34.596  15.043  -5.344  1.00 20.00     0.034 C 
HETATM    2  C2  UNL     1     -34.757  13.591  -5.744  1.00 20.00     0.168 C 
HETATM    3  C3  UNL     1     -34.342  13.677  -3.453  1.00 20.00     0.173 C 
HETATM    4  C4  UNL     1     -33.753  14.924  -4.093  1.00 20.00     0.026 C 
HETATM    5  O9  UNL     1     -34.755  12.823  -4.532  1.00 20.00    -0.391 OA
ENDROOT
BRANCH   4   6
HETATM    6  C7  UNL     1     -33.794  16.147  -3.197  1.00 20.00     0.067 C 
HETATM    7 BR10 UNL     1     -33.825  17.750  -4.337  1.00 20.00    -0.090 Br
BRANCH   6   8
HETATM    8  C8  UNL     1     -34.950  16.201  -2.177  1.00 20.00    -0.008 C 
HETATM    9  C5  UNL     1     -36.082  17.099  -2.693  1.00 20.00     0.011 C 
HETATM   10  C6  UNL     1     -34.532  16.649  -0.796  1.00 20.00     0.011 C 
ENDBRANCH   6   8
ENDBRANCH   4   6
TORSDOF 2
ENDMDL
MODEL 2
REMARK VINA RESULT:      -4.2      2.433      4.380
REMARK  2 active torsions:
REMARK  status: ('A' for Active; 'I' for Inactive)
REMARK    1  A    between atoms: C4_4  and  C7_7 
REMARK    2  A    between atoms: C7_7  and  C8_8 
ROOT
HETATM    1  C1  UNL     1     -34.588  16.620  -0.872  1.00 20.00     0.034 C 
HETATM    2  C2  UNL     1     -33.761  17.845  -0.541  1.00 20.00     0.168 C 
HETATM    3  C3  UNL     1     -33.857  17.630  -2.860  1.00 20.00     0.173 C 
HETATM    4  C4  UNL     1     -34.062  16.256  -2.244  1.00 20.00     0.026 C 
HETATM    5  O9  UNL     1     -33.482  18.506  -1.784  1.00 20.00    -0.391 OA
ENDROOT
BRANCH   4   6
HETATM    6  C7  UNL     1     -34.985  15.359  -3.046  1.00 20.00     0.067 C 
HETATM    7 BR10 UNL     1     -35.554  16.335  -4.656  1.00 20.00    -0.090 Br
BRANCH   6   8
HETATM    8  C8  UNL     1     -34.415  13.980  -3.438  1.00 20.00    -0.008 C 
HETATM    9  C5  UNL     1     -32.894  14.058  -3.622  1.00 20.00     0.011 C 
HETATM   10  C6  UNL     1     -35.049  13.380  -4.671  1.00 20.00     0.011 C 
ENDBRANCH   6   8
ENDBRANCH   4   6
TORSDOF 2
ENDMDL
MODEL 3
REMARK VINA RESULT:      -4.0      1.493      2.023
REMARK  2 active torsions:
REMARK  status: ('A' for Active; 'I' for Inactive)
REMARK    1  A    between atoms: C4_4  and  C7_7 
REMARK    2  A    between atoms: C7_7  and  C8_8 
ROOT
HETATM    1  C1  UNL     1     -33.332  14.867  -3.755  1.00 20.00     0.034 C 
HETATM    2  C2  UNL     1     -34.035  13.580  -4.133  1.00 20.00     0.168 C 
HETATM    3  C3  UNL     1     -35.635  15.089  -3.360  1.00 20.00     0.173 C 
HETATM    4  C4  UNL     1     -34.295  15.457  -2.746  1.00 20.00     0.026 C 
HETATM    5  O9  UNL     1     -35.445  13.830  -4.026  1.00 20.00    -0.391 OA
ENDROOT
BRANCH   4   6
HETATM    6  C7  UNL     1     -34.118  16.946  -2.514  1.00 20.00     0.067 C 
HETATM    7 BR10 UNL     1     -35.797  17.852  -2.993  1.00 20.00    -0.090 Br
BRANCH   6   8
HETATM    8  C8  UNL     1     -33.679  17.361  -1.095  1.00 20.00    -0.008 C 
HETATM    9  C5  UNL     1     -34.813  17.125  -0.089  1.00 20.00     0.011 C 
HETATM   10  C6  UNL     1     -33.196  18.789  -0.994  1.00 20.00     0.011 C 
ENDBRANCH   6   8
ENDBRANCH   4   6
TORSDOF 2
ENDMDL
MODEL 4
REMARK VINA RESULT:      -3.8      1.801      2.732
REMARK  2 active torsions:
REMARK  status: ('A' for Active; 'I' for Inactive)
REMARK    1  A    between atoms: C4_4  and  C7_7 
REMARK    2  A    between atoms: C7_7  and  C8_8 
ROOT
HETATM    1  C1  UNL     1     -34.417  15.024  -7.377  1.00 20.00     0.034 C 
HETATM    2  C2  UNL     1     -35.784  14.562  -7.839  1.00 20.00     0.168 C 
HETATM    3  C3  UNL     1     -36.015  15.552  -5.742  1.00 20.00     0.173 C 
HETATM    4  C4  UNL     1     -34.591  15.039  -5.874  1.00 20.00     0.026 C 
HETATM    5  O9  UNL     1     -36.734  15.054  -6.882  1.00 20.00    -0.391 OA
ENDROOT
BRANCH   4   6
HETATM    6  C7  UNL     1     -33.567  15.882  -5.137  1.00 20.00     0.067 C 
HETATM    7 BR10 UNL     1     -34.249  17.724  -5.021  1.00 20.00    -0.090 Br
BRANCH   6   8
HETATM    8  C8  UNL     1     -33.160  15.380  -3.737  1.00 20.00    -0.008 C 
HETATM    9  C5  UNL     1     -33.272  13.852  -3.658  1.00 20.00     0.011 C 
HETATM   10  C6  UNL     1     -33.941  16.009  -2.607  1.00 20.00     0.011 C 
ENDBRANCH   6   8
ENDBRANCH   4   6
TORSDOF 2
ENDMDL
MODEL 5
REMARK VINA RESULT:      -3.8      1.871      2.408
REMARK  2 active torsions:
REMARK  status: ('A' for Active; 'I' for Inactive)
REMARK    1  A    between atoms: C4_4  and  C7_7 
REMARK    2  A    between atoms: C7_7  and  C8_8 
ROOT
HETATM    1  C1  UNL     1     -33.578  14.629  -3.775  1.00 20.00     0.034 C 
HETATM    2  C2  UNL     1     -33.877  13.235  -4.286  1.00 20.00     0.168 C 
HETATM    3  C3  UNL     1     -35.901  14.316  -3.878  1.00 20.00     0.173 C 
HETATM    4  C4  UNL     1     -34.836  14.946  -2.997  1.00 20.00     0.026 C 
HETATM    5  O9  UNL     1     -35.297  13.160  -4.481  1.00 20.00    -0.391 OA
ENDROOT
BRANCH   4   6
HETATM    6  C7  UNL     1     -35.053  16.426  -2.741  1.00 20.00     0.067 C 
HETATM    7 BR10 UNL     1     -34.603  16.803  -0.863  1.00 20.00    -0.090 Br
BRANCH   6   8
HETATM    8  C8  UNL     1     -34.292  17.392  -3.671  1.00 20.00    -0.008 C 
HETATM    9  C5  UNL     1     -33.738  18.582  -2.877  1.00 20.00     0.011 C 
HETATM   10  C6  UNL     1     -35.109  17.893  -4.839  1.00 20.00     0.011 C 
ENDBRANCH   6   8
ENDBRANCH   4   6
TORSDOF 2
ENDMDL
MODEL 6
REMARK VINA RESULT:      -3.8      2.366      4.283
REMARK  2 active torsions:
REMARK  status: ('A' for Active; 'I' for Inactive)
REMARK    1  A    between atoms: C4_4  and  C7_7 
REMARK    2  A    between atoms: C7_7  and  C8_8 
ROOT
HETATM    1  C1  UNL     1     -34.562  16.451  -1.134  1.00 20.00     0.034 C 
HETATM    2  C2  UNL     1     -35.150  17.505  -0.219  1.00 20.00     0.168 C 
HETATM    3  C3  UNL     1     -36.083  17.770  -2.339  1.00 20.00     0.173 C 
HETATM    4  C4  UNL     1     -34.730  17.096  -2.493  1.00 20.00     0.026 C 
HETATM    5  O9  UNL     1     -36.183  18.169  -0.962  1.00 20.00    -0.391 OA
ENDROOT
BRANCH   4   6
HETATM    6  C7  UNL     1     -34.662  16.124  -3.656  1.00 20.00     0.067 C 
HETATM    7 BR10 UNL     1     -33.504  16.899  -5.045  1.00 20.00    -0.090 Br
BRANCH   6   8
HETATM    8  C8  UNL     1     -34.194  14.695  -3.316  1.00 20.00    -0.008 C 
HETATM    9  C5  UNL     1     -32.702  14.526  -3.629  1.00 20.00     0.011 C 
HETATM   10  C6  UNL     1     -34.986  13.608  -4.005  1.00 20.00     0.011 C 
ENDBRANCH   6   8
ENDBRANCH   4   6
TORSDOF 2
ENDMDL
MODEL 7
REMARK VINA RESULT:      -3.8      2.484      3.671
REMARK  2 active torsions:
REMARK  status: ('A' for Active; 'I' for Inactive)
REMARK    1  A    between atoms: C4_4  and  C7_7 
REMARK    2  A    between atoms: C7_7  and  C8_8 
ROOT
HETATM    1  C1  UNL     1     -36.752  16.377  -3.622  1.00 20.00     0.034 C 
HETATM    2  C2  UNL     1     -38.082  15.654  -3.617  1.00 20.00     0.168 C 
HETATM    3  C3  UNL     1     -36.410  14.110  -4.121  1.00 20.00     0.173 C 
HETATM    4  C4  UNL     1     -35.924  15.491  -4.528  1.00 20.00     0.026 C 
HETATM    5  O9  UNL     1     -37.795  14.255  -3.765  1.00 20.00    -0.391 OA
ENDROOT
BRANCH   4   6
HETATM    6  C7  UNL     1     -34.426  15.678  -4.382  1.00 20.00     0.067 C 
HETATM    7 BR10 UNL     1     -33.638  13.964  -3.825  1.00 20.00    -0.090 Br
BRANCH   6   8
HETATM    8  C8  UNL     1     -33.688  16.221  -5.622  1.00 20.00    -0.008 C 
HETATM    9  C5  UNL     1     -33.617  17.753  -5.580  1.00 20.00     0.011 C 
HETATM   10  C6  UNL     1     -34.285  15.774  -6.937  1.00 20.00     0.011 C 
ENDBRANCH   6   8
ENDBRANCH   4   6
TORSDOF 2
ENDMDL
MODEL 8
REMARK VINA RESULT:      -3.7      2.569      4.214
REMARK  2 active torsions:
REMARK  status: ('A' for Active; 'I' for Inactive)
REMARK    1  A    between atoms: C4_4  and  C7_7 
REMARK    2  A    between atoms: C7_7  and  C8_8 
ROOT
HETATM    1  C1  UNL     1     -34.415  15.592  -2.509  1.00 20.00     0.034 C 
HETATM    2  C2  UNL     1     -34.035  16.827  -1.719  1.00 20.00     0.168 C 
HETATM    3  C3  UNL     1     -33.672  17.263  -3.979  1.00 20.00     0.173 C 
HETATM    4  C4  UNL     1     -33.582  15.762  -3.761  1.00 20.00     0.026 C 
HETATM    5  O9  UNL     1     -33.747  17.859  -2.674  1.00 20.00    -0.391 OA
ENDROOT
BRANCH   4   6
HETATM    6  C7  UNL     1     -34.065  14.944  -4.945  1.00 20.00     0.067 C 
HETATM    7 BR10 UNL     1     -35.053  13.387  -4.260  1.00 20.00    -0.090 Br
BRANCH   6   8
HETATM    8  C8  UNL     1     -34.919  15.697  -5.984  1.00 20.00    -0.008 C 
HETATM    9  C5  UNL     1     -36.410  15.402  -5.773  1.00 20.00     0.011 C 
HETATM   10  C6  UNL     1     -34.540  15.407  -7.418  1.00 20.00     0.011 C 
ENDBRANCH   6   8
ENDBRANCH   4   6
TORSDOF 2
ENDMDL
MODEL 9
REMARK VINA RESULT:      -3.7      2.244      2.687
REMARK  2 active torsions:
REMARK  status: ('A' for Active; 'I' for Inactive)
REMARK    1  A    between atoms: C4_4  and  C7_7 
REMARK    2  A    between atoms: C7_7  and  C8_8 
ROOT
HETATM    1  C1  UNL     1     -37.030  15.322  -4.482  1.00 20.00     0.034 C 
HETATM    2  C2  UNL     1     -37.399  15.399  -5.949  1.00 20.00     0.168 C 
HETATM    3  C3  UNL     1     -35.153  14.798  -5.790  1.00 20.00     0.173 C 
HETATM    4  C4  UNL     1     -35.535  15.557  -4.530  1.00 20.00     0.026 C 
HETATM    5  O9  UNL     1     -36.269  14.914  -6.688  1.00 20.00    -0.391 OA
ENDROOT
BRANCH   4   6
HETATM    6  C7  UNL     1     -34.792  15.095  -3.290  1.00 20.00     0.067 C 
HETATM    7 BR10 UNL     1     -33.592  13.622  -3.799  1.00 20.00    -0.090 Br
BRANCH   6   8
HETATM    8  C8  UNL     1     -34.004  16.181  -2.531  1.00 20.00    -0.008 C 
HETATM    9  C5  UNL     1     -34.647  16.460  -1.166  1.00 20.00     0.011 C 
HETATM   10  C6  UNL     1     -33.847  17.475  -3.295  1.00 20.00     0.011 C 
ENDBRANCH   6   8
ENDBRANCH   4   6
TORSDOF 2
ENDMDL
