MODEL 1
REMARK VINA RESULT:      -4.6      0.000      0.000
REMARK  4 active torsions:
REMARK  status: ('A' for Active; 'I' for Inactive)
REMARK    1  A    between atoms: C2_2  and  C7_7 
REMARK    2  A    between atoms: C3_3  and  C8_8 
REMARK    3  A    between atoms: C3_3  and  O10_10 
REMARK    4  A    between atoms: C8_8  and  C9_9 
ROOT
HETATM    1  C1  UNL     1     -32.152   6.028   2.846  1.00 20.00     0.045 A 
HETATM    2  C2  UNL     1     -32.699   7.373   2.447  1.00 20.00     0.022 A 
HETATM    3  C3  UNL     1     -32.473   7.054   3.904  1.00 20.00     0.062 A 
ENDROOT
BRANCH   3   4
HETATM    4  C8  UNL     1     -33.662   6.844   4.831  1.00 20.00     0.042 C 
BRANCH   4   5
HETATM    5  C9  UNL     1     -34.207   5.406   4.813  1.00 20.00    -0.020 C 
HETATM    6  C5  UNL     1     -34.535   4.890   6.215  1.00 20.00     0.009 C 
HETATM    7  C6  UNL     1     -35.455   5.333   3.929  1.00 20.00     0.009 C 
ENDBRANCH   4   5
ENDBRANCH   3   4
BRANCH   3   8
HETATM    8  O10 UNL     1     -31.340   7.667   4.545  1.00 20.00    -0.389 OA
HETATM    9  H28 UNL     1     -31.428   8.615   4.386  1.00 20.00     0.210 HD
ENDBRANCH   3   8
BRANCH   2  10
HETATM   10  C7  UNL     1     -31.836   8.345   1.717  1.00 20.00     0.003 C 
HETATM   11  C4  UNL     1     -32.526   9.657   1.442  1.00 20.00     0.005 C 
ENDBRANCH   2  10
TORSDOF 4
ENDMDL
MODEL 2
REMARK VINA RESULT:      -4.5     10.872     11.933
REMARK  4 active torsions:
REMARK  status: ('A' for Active; 'I' for Inactive)
REMARK    1  A    between atoms: C2_2  and  C7_7 
REMARK    2  A    between atoms: C3_3  and  C8_8 
REMARK    3  A    between atoms: C3_3  and  O10_10 
REMARK    4  A    between atoms: C8_8  and  C9_9 
ROOT
HETATM    1  C1  UNL     1     -34.745  13.342  -4.589  1.00 20.00     0.045 A 
HETATM    2  C2  UNL     1     -34.980  14.640  -5.316  1.00 20.00     0.022 A 
HETATM    3  C3  UNL     1     -34.196  14.629  -4.026  1.00 20.00     0.062 A 
ENDROOT
BRANCH   3   4
HETATM    4  C8  UNL     1     -34.801  15.224  -2.763  1.00 20.00     0.042 C 
BRANCH   4   5
HETATM    5  C9  UNL     1     -34.000  16.410  -2.198  1.00 20.00    -0.020 C 
HETATM    6  C5  UNL     1     -34.100  17.654  -3.082  1.00 20.00     0.009 C 
HETATM    7  C6  UNL     1     -34.485  16.738  -0.784  1.00 20.00     0.009 C 
ENDBRANCH   4   5
ENDBRANCH   3   4
BRANCH   3   8
HETATM    8  O10 UNL     1     -32.770  14.794  -4.119  1.00 20.00    -0.389 OA
HETATM    9  H28 UNL     1     -32.495  15.187  -3.280  1.00 20.00     0.210 HD
ENDBRANCH   3   8
BRANCH   2  10
HETATM   10  C7  UNL     1     -34.320  14.892  -6.628  1.00 20.00     0.003 C 
HETATM   11  C4  UNL     1     -35.244  14.690  -7.802  1.00 20.00     0.005 C 
ENDBRANCH   2  10
TORSDOF 4
ENDMDL
MODEL 3
REMARK VINA RESULT:      -4.3     11.318     12.951
REMARK  4 active torsions:
REMARK  status: ('A' for Active; 'I' for Inactive)
REMARK    1  A    between atoms: C2_2  and  C7_7 
REMARK    2  A    between atoms: C3_3  and  C8_8 
REMARK    3  A    between atoms: C3_3  and  O10_10 
REMARK    4  A    between atoms: C8_8  and  C9_9 
ROOT
HETATM    1  C1  UNL     1     -33.667  18.046  -4.452  1.00 20.00     0.045 A 
HETATM    2  C2  UNL     1     -34.314  16.973  -3.617  1.00 20.00     0.022 A 
HETATM    3  C3  UNL     1     -33.717  16.627  -4.959  1.00 20.00     0.062 A 
ENDROOT
BRANCH   3   4
HETATM    4  C8  UNL     1     -34.627  16.269  -6.126  1.00 20.00     0.042 C 
BRANCH   4   5
HETATM    5  C9  UNL     1     -34.521  14.797  -6.558  1.00 20.00    -0.020 C 
HETATM    6  C5  UNL     1     -35.043  13.837  -5.488  1.00 20.00     0.009 C 
HETATM    7  C6  UNL     1     -35.288  14.582  -7.865  1.00 20.00     0.009 C 
ENDBRANCH   4   5
ENDBRANCH   3   4
BRANCH   3   8
HETATM    8  O10 UNL     1     -32.465  15.920  -4.963  1.00 20.00    -0.389 OA
HETATM    9  H28 UNL     1     -32.229  15.807  -5.893  1.00 20.00     0.210 HD
ENDBRANCH   3   8
BRANCH   2  10
HETATM   10  C7  UNL     1     -33.676  16.532  -2.343  1.00 20.00     0.003 C 
HETATM   11  C4  UNL     1     -34.642  16.484  -1.187  1.00 20.00     0.005 C 
ENDBRANCH   2  10
TORSDOF 4
ENDMDL
MODEL 4
REMARK VINA RESULT:      -4.3      1.071      1.434
REMARK  4 active torsions:
REMARK  status: ('A' for Active; 'I' for Inactive)
REMARK    1  A    between atoms: C2_2  and  C7_7 
REMARK    2  A    between atoms: C3_3  and  C8_8 
REMARK    3  A    between atoms: C3_3  and  O10_10 
REMARK    4  A    between atoms: C8_8  and  C9_9 
ROOT
HETATM    1  C1  UNL     1     -32.293   5.556   3.136  1.00 20.00     0.045 A 
HETATM    2  C2  UNL     1     -32.784   6.848   2.537  1.00 20.00     0.022 A 
HETATM    3  C3  UNL     1     -33.344   6.366   3.853  1.00 20.00     0.062 A 
ENDROOT
BRANCH   3   4
HETATM    4  C8  UNL     1     -34.775   5.855   3.929  1.00 20.00     0.042 C 
BRANCH   4   5
HETATM    5  C9  UNL     1     -35.087   5.089   5.226  1.00 20.00    -0.020 C 
HETATM    6  C5  UNL     1     -34.574   3.648   5.188  1.00 20.00     0.009 C 
HETATM    7  C6  UNL     1     -34.479   5.824   6.423  1.00 20.00     0.009 C 
ENDBRANCH   4   5
ENDBRANCH   3   4
BRANCH   3   8
HETATM    8  O10 UNL     1     -32.906   7.043   5.045  1.00 20.00    -0.389 OA
HETATM    9  H28 UNL     1     -32.738   6.349   5.695  1.00 20.00     0.210 HD
ENDBRANCH   3   8
BRANCH   2  10
HETATM   10  C7  UNL     1     -31.876   8.028   2.461  1.00 20.00     0.003 C 
HETATM   11  C4  UNL     1     -32.094   8.860   1.223  1.00 20.00     0.005 C 
ENDBRANCH   2  10
TORSDOF 4
ENDMDL
MODEL 5
REMARK VINA RESULT:      -4.2     11.163     12.101
REMARK  4 active torsions:
REMARK  status: ('A' for Active; 'I' for Inactive)
REMARK    1  A    between atoms: C2_2  and  C7_7 
REMARK    2  A    between atoms: C3_3  and  C8_8 
REMARK    3  A    between atoms: C3_3  and  O10_10 
REMARK    4  A    between atoms: C8_8  and  C9_9 
ROOT
HETATM    1  C1  UNL     1     -35.499  16.398  -2.688  1.00 20.00     0.045 A 
HETATM    2  C2  UNL     1     -34.318  16.266  -1.762  1.00 20.00     0.022 A 
HETATM    3  C3  UNL     1     -34.098  16.478  -3.240  1.00 20.00     0.062 A 
ENDROOT
BRANCH   3   4
HETATM    4  C8  UNL     1     -33.554  15.345  -4.098  1.00 20.00     0.042 C 
BRANCH   4   5
HETATM    5  C9  UNL     1     -34.607  14.717  -5.026  1.00 20.00    -0.020 C 
HETATM    6  C5  UNL     1     -34.359  15.050  -6.498  1.00 20.00     0.009 C 
HETATM    7  C6  UNL     1     -34.630  13.198  -4.836  1.00 20.00     0.009 C 
ENDBRANCH   4   5
ENDBRANCH   3   4
BRANCH   3   8
HETATM    8  O10 UNL     1     -33.666  17.783  -3.662  1.00 20.00    -0.389 OA
HETATM    9  H28 UNL     1     -32.735  17.845  -3.415  1.00 20.00     0.210 HD
ENDBRANCH   3   8
BRANCH   2  10
HETATM   10  C7  UNL     1     -34.025  17.338  -0.768  1.00 20.00     0.003 C 
HETATM   11  C4  UNL     1     -34.987  17.344   0.393  1.00 20.00     0.005 C 
ENDBRANCH   2  10
TORSDOF 4
ENDMDL
MODEL 6
REMARK VINA RESULT:      -4.1     10.750     11.911
REMARK  4 active torsions:
REMARK  status: ('A' for Active; 'I' for Inactive)
REMARK    1  A    between atoms: C2_2  and  C7_7 
REMARK    2  A    between atoms: C3_3  and  C8_8 
REMARK    3  A    between atoms: C3_3  and  O10_10 
REMARK    4  A    between atoms: C8_8  and  C9_9 
ROOT
HETATM    1  C1  UNL     1     -34.571  16.678  -0.801  1.00 20.00     0.045 A 
HETATM    2  C2  UNL     1     -33.373  17.553  -1.063  1.00 20.00     0.022 A 
HETATM    3  C3  UNL     1     -34.283  17.160  -2.201  1.00 20.00     0.062 A 
ENDROOT
BRANCH   3   4
HETATM    4  C8  UNL     1     -33.798  16.178  -3.258  1.00 20.00     0.042 C 
BRANCH   4   5
HETATM    5  C9  UNL     1     -34.435  14.783  -3.138  1.00 20.00    -0.020 C 
HETATM    6  C5  UNL     1     -35.831  14.725  -3.761  1.00 20.00     0.009 C 
HETATM    7  C6  UNL     1     -33.530  13.739  -3.798  1.00 20.00     0.009 C 
ENDBRANCH   4   5
ENDBRANCH   3   4
BRANCH   3   8
HETATM    8  O10 UNL     1     -35.175  18.166  -2.711  1.00 20.00    -0.389 OA
HETATM    9  H28 UNL     1     -34.778  18.476  -3.536  1.00 20.00     0.210 HD
ENDBRANCH   3   8
BRANCH   2  10
HETATM   10  C7  UNL     1     -33.338  18.948  -0.538  1.00 20.00     0.003 C 
HETATM   11  C4  UNL     1     -32.071  19.263   0.215  1.00 20.00     0.005 C 
ENDBRANCH   2  10
TORSDOF 4
ENDMDL
MODEL 7
REMARK VINA RESULT:      -4.1      1.315      4.394
REMARK  4 active torsions:
REMARK  status: ('A' for Active; 'I' for Inactive)
REMARK    1  A    between atoms: C2_2  and  C7_7 
REMARK    2  A    between atoms: C3_3  and  C8_8 
REMARK    3  A    between atoms: C3_3  and  O10_10 
REMARK    4  A    between atoms: C8_8  and  C9_9 
ROOT
HETATM    1  C1  UNL     1     -33.053   6.547   4.963  1.00 20.00     0.045 A 
HETATM    2  C2  UNL     1     -34.031   6.669   3.824  1.00 20.00     0.022 A 
HETATM    3  C3  UNL     1     -32.547   6.650   3.546  1.00 20.00     0.062 A 
ENDROOT
BRANCH   3   4
HETATM    4  C8  UNL     1     -31.844   7.917   3.081  1.00 20.00     0.042 C 
BRANCH   4   5
HETATM    5  C9  UNL     1     -32.463   8.534   1.815  1.00 20.00    -0.020 C 
HETATM    6  C5  UNL     1     -32.803  10.014   1.995  1.00 20.00     0.009 C 
HETATM    7  C6  UNL     1     -31.508   8.362   0.632  1.00 20.00     0.009 C 
ENDBRANCH   4   5
ENDBRANCH   3   4
BRANCH   3   8
HETATM    8  O10 UNL     1     -31.996   5.444   2.990  1.00 20.00    -0.389 OA
HETATM    9  H28 UNL     1     -32.577   5.201   2.258  1.00 20.00     0.210 HD
ENDBRANCH   3   8
BRANCH   2  10
HETATM   10  C7  UNL     1     -34.907   5.518   3.465  1.00 20.00     0.003 C 
HETATM   11  C4  UNL     1     -35.286   4.673   4.654  1.00 20.00     0.005 C 
ENDBRANCH   2  10
TORSDOF 4
ENDMDL
MODEL 8
REMARK VINA RESULT:      -4.1     10.954     12.281
REMARK  4 active torsions:
REMARK  status: ('A' for Active; 'I' for Inactive)
REMARK    1  A    between atoms: C2_2  and  C7_7 
REMARK    2  A    between atoms: C3_3  and  C8_8 
REMARK    3  A    between atoms: C3_3  and  O10_10 
REMARK    4  A    between atoms: C8_8  and  C9_9 
ROOT
HETATM    1  C1  UNL     1     -32.881  14.970  -3.604  1.00 20.00     0.045 A 
HETATM    2  C2  UNL     1     -34.056  15.875  -3.342  1.00 20.00     0.022 A 
HETATM    3  C3  UNL     1     -34.188  14.731  -4.317  1.00 20.00     0.062 A 
ENDROOT
BRANCH   3   4
HETATM    4  C8  UNL     1     -34.302  15.012  -5.809  1.00 20.00     0.042 C 
BRANCH   4   5
HETATM    5  C9  UNL     1     -35.673  14.642  -6.401  1.00 20.00    -0.020 C 
HETATM    6  C5  UNL     1     -36.747  15.681  -6.077  1.00 20.00     0.009 C 
HETATM    7  C6  UNL     1     -35.556  14.473  -7.917  1.00 20.00     0.009 C 
ENDBRANCH   4   5
ENDBRANCH   3   4
BRANCH   3   8
HETATM    8  O10 UNL     1     -34.934  13.579  -3.886  1.00 20.00    -0.389 OA
HETATM    9  H28 UNL     1     -34.652  13.407  -2.978  1.00 20.00     0.210 HD
ENDBRANCH   3   8
BRANCH   2  10
HETATM   10  C7  UNL     1     -34.736  15.853  -2.015  1.00 20.00     0.003 C 
HETATM   11  C4  UNL     1     -34.211  16.899  -1.066  1.00 20.00     0.005 C 
ENDBRANCH   2  10
TORSDOF 4
ENDMDL
MODEL 9
REMARK VINA RESULT:      -4.0     10.575     13.240
REMARK  4 active torsions:
REMARK  status: ('A' for Active; 'I' for Inactive)
REMARK    1  A    between atoms: C2_2  and  C7_7 
REMARK    2  A    between atoms: C3_3  and  C8_8 
REMARK    3  A    between atoms: C3_3  and  O10_10 
REMARK    4  A    between atoms: C8_8  and  C9_9 
ROOT
HETATM    1  C1  UNL     1     -33.642  16.129  -2.596  1.00 20.00     0.045 A 
HETATM    2  C2  UNL     1     -34.488  15.274  -3.503  1.00 20.00     0.022 A 
HETATM    3  C3  UNL     1     -33.521  16.272  -4.092  1.00 20.00     0.062 A 
ENDROOT
BRANCH   3   4
HETATM    4  C8  UNL     1     -34.045  17.524  -4.781  1.00 20.00     0.042 C 
BRANCH   4   5
HETATM    5  C9  UNL     1     -33.812  17.532  -6.301  1.00 20.00    -0.020 C 
HETATM    6  C5  UNL     1     -34.818  16.655  -7.049  1.00 20.00     0.009 C 
HETATM    7  C6  UNL     1     -33.882  18.967  -6.831  1.00 20.00     0.009 C 
ENDBRANCH   4   5
ENDBRANCH   3   4
BRANCH   3   8
HETATM    8  O10 UNL     1     -32.311  15.754  -4.674  1.00 20.00    -0.389 OA
HETATM    9  H28 UNL     1     -31.987  16.445  -5.266  1.00 20.00     0.210 HD
ENDBRANCH   3   8
BRANCH   2  10
HETATM   10  C7  UNL     1     -34.244  13.806  -3.589  1.00 20.00     0.003 C 
HETATM   11  C4  UNL     1     -34.839  13.181  -4.824  1.00 20.00     0.005 C 
ENDBRANCH   2  10
TORSDOF 4
ENDMDL
