MODEL 1
REMARK VINA RESULT:      -4.4      0.000      0.000
REMARK  3 active torsions:
REMARK  status: ('A' for Active; 'I' for Inactive)
REMARK    1  A    between atoms: C2_2  and  C6_6 
REMARK    2  A    between atoms: C3_3  and  C7_7 
REMARK    3  A    between atoms: C3_3  and  O8_8 
ROOT
HETATM    1  C1  UNL     1     -34.647   6.537   3.407  1.00 20.00     0.045 A 
HETATM    2  C2  UNL     1     -33.277   5.910   3.408  1.00 20.00     0.022 A 
HETATM    3  C3  UNL     1     -34.169   5.777   4.618  1.00 20.00     0.062 A 
ENDROOT
BRANCH   3   4
HETATM    4  C7  UNL     1     -34.777   4.455   4.954  1.00 20.00     0.034 C 
HETATM    5  C5  UNL     1     -35.131   4.327   6.413  1.00 20.00     0.008 C 
ENDBRANCH   3   4
BRANCH   3   6
HETATM    6  O8  UNL     1     -33.843   6.573   5.770  1.00 20.00    -0.389 OA
HETATM    7  H22 UNL     1     -34.333   7.400   5.666  1.00 20.00     0.210 HD
ENDBRANCH   3   6
BRANCH   2   8
HETATM    8  C6  UNL     1     -32.061   6.772   3.427  1.00 20.00     0.003 C 
HETATM    9  C4  UNL     1     -32.087   7.849   2.371  1.00 20.00     0.005 C 
ENDBRANCH   2   8
TORSDOF 3
ENDMDL
MODEL 2
REMARK VINA RESULT:      -4.1      1.361      3.964
REMARK  3 active torsions:
REMARK  status: ('A' for Active; 'I' for Inactive)
REMARK    1  A    between atoms: C2_2  and  C6_6 
REMARK    2  A    between atoms: C3_3  and  C7_7 
REMARK    3  A    between atoms: C3_3  and  O8_8 
ROOT
HETATM    1  C1  UNL     1     -34.581   6.902   4.004  1.00 20.00     0.045 A 
HETATM    2  C2  UNL     1     -34.063   5.704   4.756  1.00 20.00     0.022 A 
HETATM    3  C3  UNL     1     -33.535   6.016   3.377  1.00 20.00     0.062 A 
ENDROOT
BRANCH   3   4
HETATM    4  C7  UNL     1     -32.139   6.516   3.209  1.00 20.00     0.034 C 
HETATM    5  C5  UNL     1     -32.067   7.798   2.420  1.00 20.00     0.008 C 
ENDBRANCH   3   4
BRANCH   3   6
HETATM    6  O8  UNL     1     -33.986   5.183   2.294  1.00 20.00    -0.389 OA
HETATM    7  H22 UNL     1     -34.037   5.762   1.521  1.00 20.00     0.210 HD
ENDBRANCH   3   6
BRANCH   2   8
HETATM    8  C6  UNL     1     -34.954   4.536   5.005  1.00 20.00     0.003 C 
HETATM    9  C4  UNL     1     -35.169   4.262   6.473  1.00 20.00     0.005 C 
ENDBRANCH   2   8
TORSDOF 3
ENDMDL
MODEL 3
REMARK VINA RESULT:      -4.0     11.781     13.095
REMARK  3 active torsions:
REMARK  status: ('A' for Active; 'I' for Inactive)
REMARK    1  A    between atoms: C2_2  and  C6_6 
REMARK    2  A    between atoms: C3_3  and  C7_7 
REMARK    3  A    between atoms: C3_3  and  O8_8 
ROOT
HETATM    1  C1  UNL     1     -33.471  14.106  -3.555  1.00 20.00     0.045 A 
HETATM    2  C2  UNL     1     -34.319  15.316  -3.263  1.00 20.00     0.022 A 
HETATM    3  C3  UNL     1     -33.717  15.128  -4.634  1.00 20.00     0.062 A 
ENDROOT
BRANCH   3   4
HETATM    4  C7  UNL     1     -34.595  14.790  -5.793  1.00 20.00     0.034 C 
HETATM    5  C5  UNL     1     -34.265  15.583  -7.031  1.00 20.00     0.008 C 
ENDBRANCH   3   4
BRANCH   3   6
HETATM    6  O8  UNL     1     -32.595  15.957  -4.982  1.00 20.00    -0.389 OA
HETATM    7  H22 UNL     1     -31.851  15.352  -5.109  1.00 20.00     0.210 HD
ENDBRANCH   3   6
BRANCH   2   8
HETATM    8  C6  UNL     1     -33.824  16.369  -2.331  1.00 20.00     0.003 C 
HETATM    9  C4  UNL     1     -34.657  16.487  -1.080  1.00 20.00     0.005 C 
ENDBRANCH   2   8
TORSDOF 3
ENDMDL
MODEL 4
REMARK VINA RESULT:      -4.0      1.481      4.148
REMARK  3 active torsions:
REMARK  status: ('A' for Active; 'I' for Inactive)
REMARK    1  A    between atoms: C2_2  and  C6_6 
REMARK    2  A    between atoms: C3_3  and  C7_7 
REMARK    3  A    between atoms: C3_3  and  O8_8 
ROOT
HETATM    1  C1  UNL     1     -32.151   5.759   2.986  1.00 20.00     0.045 A 
HETATM    2  C2  UNL     1     -33.380   6.510   3.428  1.00 20.00     0.022 A 
HETATM    3  C3  UNL     1     -32.140   7.266   3.018  1.00 20.00     0.062 A 
ENDROOT
BRANCH   3   4
HETATM    4  C7  UNL     1     -32.126   8.038   1.741  1.00 20.00     0.034 C 
HETATM    5  C5  UNL     1     -32.448   9.497   1.933  1.00 20.00     0.008 C 
ENDBRANCH   3   4
BRANCH   3   6
HETATM    6  O8  UNL     1     -31.356   7.866   4.064  1.00 20.00    -0.389 OA
HETATM    7  H22 UNL     1     -31.714   7.518   4.893  1.00 20.00     0.210 HD
ENDBRANCH   3   6
BRANCH   2   8
HETATM    8  C6  UNL     1     -33.822   6.448   4.850  1.00 20.00     0.003 C 
HETATM    9  C4  UNL     1     -34.656   5.229   5.154  1.00 20.00     0.005 C 
ENDBRANCH   2   8
TORSDOF 3
ENDMDL
MODEL 5
REMARK VINA RESULT:      -3.8      1.494      2.191
REMARK  3 active torsions:
REMARK  status: ('A' for Active; 'I' for Inactive)
REMARK    1  A    between atoms: C2_2  and  C6_6 
REMARK    2  A    between atoms: C3_3  and  C7_7 
REMARK    3  A    between atoms: C3_3  and  O8_8 
ROOT
HETATM    1  C1  UNL     1     -31.832   5.931   3.414  1.00 20.00     0.045 A 
HETATM    2  C2  UNL     1     -32.350   7.319   3.138  1.00 20.00     0.022 A 
HETATM    3  C3  UNL     1     -33.310   6.213   3.507  1.00 20.00     0.062 A 
ENDROOT
BRANCH   3   4
HETATM    4  C7  UNL     1     -33.982   6.225   4.839  1.00 20.00     0.034 C 
HETATM    5  C5  UNL     1     -34.888   5.039   5.049  1.00 20.00     0.008 C 
ENDBRANCH   3   4
BRANCH   3   6
HETATM    6  O8  UNL     1     -34.121   5.664   2.455  1.00 20.00    -0.389 OA
HETATM    7  H22 UNL     1     -34.454   4.821   2.792  1.00 20.00     0.210 HD
ENDBRANCH   3   6
BRANCH   2   8
HETATM    8  C6  UNL     1     -32.296   7.875   1.756  1.00 20.00     0.003 C 
HETATM    9  C4  UNL     1     -32.416   9.378   1.722  1.00 20.00     0.005 C 
ENDBRANCH   2   8
TORSDOF 3
ENDMDL
MODEL 6
REMARK VINA RESULT:      -3.7     11.458     12.258
REMARK  3 active torsions:
REMARK  status: ('A' for Active; 'I' for Inactive)
REMARK    1  A    between atoms: C2_2  and  C6_6 
REMARK    2  A    between atoms: C3_3  and  C7_7 
REMARK    3  A    between atoms: C3_3  and  O8_8 
ROOT
HETATM    1  C1  UNL     1     -34.371  16.393  -3.642  1.00 20.00     0.045 A 
HETATM    2  C2  UNL     1     -34.129  15.897  -2.240  1.00 20.00     0.022 A 
HETATM    3  C3  UNL     1     -35.019  15.115  -3.175  1.00 20.00     0.062 A 
ENDROOT
BRANCH   3   4
HETATM    4  C7  UNL     1     -34.558  13.805  -3.721  1.00 20.00     0.034 C 
HETATM    5  C5  UNL     1     -34.853  13.644  -5.189  1.00 20.00     0.008 C 
ENDBRANCH   3   4
BRANCH   3   6
HETATM    6  O8  UNL     1     -36.437  15.179  -2.945  1.00 20.00    -0.389 OA
HETATM    7  H22 UNL     1     -36.821  15.533  -3.759  1.00 20.00     0.210 HD
ENDBRANCH   3   6
BRANCH   2   8
HETATM    8  C6  UNL     1     -34.685  16.645  -1.077  1.00 20.00     0.003 C 
HETATM    9  C4  UNL     1     -33.750  17.709  -0.560  1.00 20.00     0.005 C 
ENDBRANCH   2   8
TORSDOF 3
ENDMDL
MODEL 7
REMARK VINA RESULT:      -3.7     11.301     12.509
REMARK  3 active torsions:
REMARK  status: ('A' for Active; 'I' for Inactive)
REMARK    1  A    between atoms: C2_2  and  C6_6 
REMARK    2  A    between atoms: C3_3  and  C7_7 
REMARK    3  A    between atoms: C3_3  and  O8_8 
ROOT
HETATM    1  C1  UNL     1     -33.984  13.669  -3.627  1.00 20.00     0.045 A 
HETATM    2  C2  UNL     1     -34.089  14.639  -4.775  1.00 20.00     0.022 A 
HETATM    3  C3  UNL     1     -34.626  15.017  -3.416  1.00 20.00     0.062 A 
ENDROOT
BRANCH   3   4
HETATM    4  C7  UNL     1     -33.927  16.053  -2.601  1.00 20.00     0.034 C 
HETATM    5  C5  UNL     1     -34.662  16.395  -1.331  1.00 20.00     0.008 C 
ENDBRANCH   3   4
BRANCH   3   6
HETATM    6  O8  UNL     1     -36.053  15.012  -3.244  1.00 20.00    -0.389 OA
HETATM    7  H22 UNL     1     -36.272  15.861  -2.836  1.00 20.00     0.210 HD
ENDBRANCH   3   6
BRANCH   2   8
HETATM    8  C6  UNL     1     -34.999  14.347  -5.919  1.00 20.00     0.003 C 
HETATM    9  C4  UNL     1     -34.523  14.946  -7.218  1.00 20.00     0.005 C 
ENDBRANCH   2   8
TORSDOF 3
ENDMDL
MODEL 8
REMARK VINA RESULT:      -3.5     11.738     12.307
REMARK  3 active torsions:
REMARK  status: ('A' for Active; 'I' for Inactive)
REMARK    1  A    between atoms: C2_2  and  C6_6 
REMARK    2  A    between atoms: C3_3  and  C7_7 
REMARK    3  A    between atoms: C3_3  and  O8_8 
ROOT
HETATM    1  C1  UNL     1     -35.779  15.623  -3.181  1.00 20.00     0.045 A 
HETATM    2  C2  UNL     1     -34.635  14.686  -2.890  1.00 20.00     0.022 A 
HETATM    3  C3  UNL     1     -34.528  16.146  -2.522  1.00 20.00     0.062 A 
ENDROOT
BRANCH   3   4
HETATM    4  C7  UNL     1     -34.559  16.557  -1.088  1.00 20.00     0.034 C 
HETATM    5  C5  UNL     1     -33.600  17.678  -0.778  1.00 20.00     0.008 C 
ENDBRANCH   3   4
BRANCH   3   6
HETATM    6  O8  UNL     1     -33.685  16.973  -3.343  1.00 20.00    -0.389 OA
HETATM    7  H22 UNL     1     -34.210  17.188  -4.126  1.00 20.00     0.210 HD
ENDBRANCH   3   6
BRANCH   2   8
HETATM    8  C6  UNL     1     -33.843  14.103  -4.010  1.00 20.00     0.003 C 
HETATM    9  C4  UNL     1     -34.666  13.222  -4.916  1.00 20.00     0.005 C 
ENDBRANCH   2   8
TORSDOF 3
ENDMDL
MODEL 9
REMARK VINA RESULT:      -3.5     12.261     13.598
REMARK  3 active torsions:
REMARK  status: ('A' for Active; 'I' for Inactive)
REMARK    1  A    between atoms: C2_2  and  C6_6 
REMARK    2  A    between atoms: C3_3  and  C7_7 
REMARK    3  A    between atoms: C3_3  and  O8_8 
ROOT
HETATM    1  C1  UNL     1     -34.898  16.700  -5.111  1.00 20.00     0.045 A 
HETATM    2  C2  UNL     1     -34.861  15.285  -5.629  1.00 20.00     0.022 A 
HETATM    3  C3  UNL     1     -33.897  15.721  -4.552  1.00 20.00     0.062 A 
ENDROOT
BRANCH   3   4
HETATM    4  C7  UNL     1     -34.056  15.209  -3.159  1.00 20.00     0.034 C 
HETATM    5  C5  UNL     1     -34.102  16.310  -2.131  1.00 20.00     0.008 C 
ENDBRANCH   3   4
BRANCH   3   6
HETATM    6  O8  UNL     1     -32.528  15.933  -4.937  1.00 20.00    -0.389 OA
HETATM    7  H22 UNL     1     -32.306  16.826  -4.638  1.00 20.00     0.210 HD
ENDBRANCH   3   6
BRANCH   2   8
HETATM    8  C6  UNL     1     -34.404  15.011  -7.021  1.00 20.00     0.003 C 
HETATM    9  C4  UNL     1     -35.511  14.519  -7.918  1.00 20.00     0.005 C 
ENDBRANCH   2   8
TORSDOF 3
ENDMDL
