MODEL 1
REMARK VINA RESULT:      -4.7      0.000      0.000
REMARK  4 active torsions:
REMARK  status: ('A' for Active; 'I' for Inactive)
REMARK    1  A    between atoms: C2_2  and  C8_8 
REMARK    2  A    between atoms: C3_3  and  C10_10 
REMARK    3  A    between atoms: C3_3  and  O11_11 
REMARK    4  A    between atoms: C9_9  and  C10_10 
ROOT
HETATM    1  C1  UNL     1     -33.966  17.343  -3.871  1.00 20.00     0.046 A 
HETATM    2  C2  UNL     1     -33.642  16.441  -2.707  1.00 20.00     0.023 A 
HETATM    3  C3  UNL     1     -33.635  15.891  -4.118  1.00 20.00     0.069 A 
ENDROOT
BRANCH   3   4
HETATM    4  C10 UNL     1     -34.725  14.931  -4.631  1.00 20.00    -0.017 C 
HETATM    5  C6  UNL     1     -34.478  14.664  -6.125  1.00 20.00     0.018 C 
HETATM    6  C7  UNL     1     -34.615  13.607  -3.856  1.00 20.00     0.018 C 
BRANCH   4   7
HETATM    7  C9  UNL     1     -36.106  15.599  -4.403  1.00 20.00     0.007 C 
HETATM    8  C5  UNL     1     -37.243  14.659  -4.022  1.00 20.00     0.006 C 
ENDBRANCH   4   7
ENDBRANCH   3   4
BRANCH   3   9
HETATM    9  O11 UNL     1     -32.334  15.630  -4.673  1.00 20.00    -0.389 OA
HETATM   10  H31 UNL     1     -31.753  16.311  -4.312  1.00 20.00     0.210 HD
ENDBRANCH   3   9
BRANCH   2  11
HETATM   11  C8  UNL     1     -34.696  16.085  -1.717  1.00 20.00     0.003 C 
HETATM   12  C4  UNL     1     -34.651  16.941  -0.476  1.00 20.00     0.005 C 
ENDBRANCH   2  11
TORSDOF 4
ENDMDL
MODEL 2
REMARK VINA RESULT:      -4.6      0.850      1.692
REMARK  4 active torsions:
REMARK  status: ('A' for Active; 'I' for Inactive)
REMARK    1  A    between atoms: C2_2  and  C8_8 
REMARK    2  A    between atoms: C3_3  and  C10_10 
REMARK    3  A    between atoms: C3_3  and  O11_11 
REMARK    4  A    between atoms: C9_9  and  C10_10 
ROOT
HETATM    1  C1  UNL     1     -33.713  17.627  -3.613  1.00 20.00     0.046 A 
HETATM    2  C2  UNL     1     -33.613  16.433  -2.697  1.00 20.00     0.023 A 
HETATM    3  C3  UNL     1     -33.681  16.236  -4.197  1.00 20.00     0.069 A 
ENDROOT
BRANCH   3   4
HETATM    4  C10 UNL     1     -34.930  15.666  -4.895  1.00 20.00    -0.017 C 
HETATM    5  C6  UNL     1     -36.065  16.697  -4.785  1.00 20.00     0.018 C 
HETATM    6  C7  UNL     1     -34.598  15.436  -6.379  1.00 20.00     0.018 C 
BRANCH   4   7
HETATM    7  C9  UNL     1     -35.312  14.336  -4.195  1.00 20.00     0.007 C 
HETATM    8  C5  UNL     1     -34.584  13.093  -4.689  1.00 20.00     0.006 C 
ENDBRANCH   4   7
ENDBRANCH   3   4
BRANCH   3   9
HETATM    9  O11 UNL     1     -32.446  15.848  -4.825  1.00 20.00    -0.389 OA
HETATM   10  H31 UNL     1     -32.606  14.973  -5.201  1.00 20.00     0.210 HD
ENDBRANCH   3   9
BRANCH   2  11
HETATM   11  C8  UNL     1     -34.745  16.082  -1.794  1.00 20.00     0.003 C 
HETATM   12  C4  UNL     1     -34.718  16.845  -0.494  1.00 20.00     0.005 C 
ENDBRANCH   2  11
TORSDOF 4
ENDMDL
MODEL 3
REMARK VINA RESULT:      -4.6      1.729      2.617
REMARK  4 active torsions:
REMARK  status: ('A' for Active; 'I' for Inactive)
REMARK    1  A    between atoms: C2_2  and  C8_8 
REMARK    2  A    between atoms: C3_3  and  C10_10 
REMARK    3  A    between atoms: C3_3  and  O11_11 
REMARK    4  A    between atoms: C9_9  and  C10_10 
ROOT
HETATM    1  C1  UNL     1     -33.126  14.134  -3.752  1.00 20.00     0.046 A 
HETATM    2  C2  UNL     1     -34.238  14.688  -2.898  1.00 20.00     0.023 A 
HETATM    3  C3  UNL     1     -34.547  14.102  -4.260  1.00 20.00     0.069 A 
ENDROOT
BRANCH   3   4
HETATM    4  C10 UNL     1     -34.955  14.979  -5.459  1.00 20.00    -0.017 C 
HETATM    5  C6  UNL     1     -35.175  14.068  -6.678  1.00 20.00     0.018 C 
HETATM    6  C7  UNL     1     -36.274  15.692  -5.117  1.00 20.00     0.018 C 
BRANCH   4   7
HETATM    7  C9  UNL     1     -33.818  16.001  -5.721  1.00 20.00     0.007 C 
HETATM    8  C5  UNL     1     -34.258  17.365  -6.238  1.00 20.00     0.006 C 
ENDBRANCH   4   7
ENDBRANCH   3   4
BRANCH   3   9
HETATM    9  O11 UNL     1     -35.188  12.814  -4.247  1.00 20.00    -0.389 OA
HETATM   10  H31 UNL     1     -34.868  12.354  -5.033  1.00 20.00     0.210 HD
ENDBRANCH   3   9
BRANCH   2  11
HETATM   11  C8  UNL     1     -34.317  16.150  -2.622  1.00 20.00     0.003 C 
HETATM   12  C4  UNL     1     -34.629  16.461  -1.180  1.00 20.00     0.005 C 
ENDBRANCH   2  11
TORSDOF 4
ENDMDL
MODEL 4
REMARK VINA RESULT:      -4.5      1.079      3.781
REMARK  4 active torsions:
REMARK  status: ('A' for Active; 'I' for Inactive)
REMARK    1  A    between atoms: C2_2  and  C8_8 
REMARK    2  A    between atoms: C3_3  and  C10_10 
REMARK    3  A    between atoms: C3_3  and  O11_11 
REMARK    4  A    between atoms: C9_9  and  C10_10 
ROOT
HETATM    1  C1  UNL     1     -34.720  13.609  -3.852  1.00 20.00     0.046 A 
HETATM    2  C2  UNL     1     -34.333  14.032  -5.246  1.00 20.00     0.023 A 
HETATM    3  C3  UNL     1     -33.778  14.771  -4.048  1.00 20.00     0.069 A 
ENDROOT
BRANCH   3   4
HETATM    4  C10 UNL     1     -34.229  16.198  -3.681  1.00 20.00    -0.017 C 
HETATM    5  C6  UNL     1     -33.693  17.169  -4.745  1.00 20.00     0.018 C 
HETATM    6  C7  UNL     1     -35.766  16.241  -3.686  1.00 20.00     0.018 C 
BRANCH   4   7
HETATM    7  C9  UNL     1     -33.665  16.538  -2.277  1.00 20.00     0.007 C 
HETATM    8  C5  UNL     1     -34.663  16.477  -1.128  1.00 20.00     0.006 C 
ENDBRANCH   4   7
ENDBRANCH   3   4
BRANCH   3   9
HETATM    9  O11 UNL     1     -32.394  14.514  -3.749  1.00 20.00    -0.389 OA
HETATM   10  H31 UNL     1     -31.894  14.868  -4.495  1.00 20.00     0.210 HD
ENDBRANCH   3   9
BRANCH   2  11
HETATM   11  C8  UNL     1     -35.345  14.635  -6.158  1.00 20.00     0.003 C 
HETATM   12  C4  UNL     1     -34.838  14.811  -7.567  1.00 20.00     0.005 C 
ENDBRANCH   2  11
TORSDOF 4
ENDMDL
MODEL 5
REMARK VINA RESULT:      -4.5      1.678      2.290
REMARK  4 active torsions:
REMARK  status: ('A' for Active; 'I' for Inactive)
REMARK    1  A    between atoms: C2_2  and  C8_8 
REMARK    2  A    between atoms: C3_3  and  C10_10 
REMARK    3  A    between atoms: C3_3  and  O11_11 
REMARK    4  A    between atoms: C9_9  and  C10_10 
ROOT
HETATM    1  C1  UNL     1     -33.157  14.135  -3.754  1.00 20.00     0.046 A 
HETATM    2  C2  UNL     1     -34.271  14.677  -2.897  1.00 20.00     0.023 A 
HETATM    3  C3  UNL     1     -34.579  14.085  -4.256  1.00 20.00     0.069 A 
ENDROOT
BRANCH   3   4
HETATM    4  C10 UNL     1     -35.002  14.955  -5.455  1.00 20.00    -0.017 C 
HETATM    5  C6  UNL     1     -33.907  16.003  -5.710  1.00 20.00     0.018 C 
HETATM    6  C7  UNL     1     -35.135  14.051  -6.691  1.00 20.00     0.018 C 
BRANCH   4   7
HETATM    7  C9  UNL     1     -36.354  15.631  -5.108  1.00 20.00     0.007 C 
HETATM    8  C5  UNL     1     -36.504  17.081  -5.554  1.00 20.00     0.006 C 
ENDBRANCH   4   7
ENDBRANCH   3   4
BRANCH   3   9
HETATM    9  O11 UNL     1     -35.205  12.790  -4.238  1.00 20.00    -0.389 OA
HETATM   10  H31 UNL     1     -35.120  12.445  -5.136  1.00 20.00     0.210 HD
ENDBRANCH   3   9
BRANCH   2  11
HETATM   11  C8  UNL     1     -34.366  16.139  -2.623  1.00 20.00     0.003 C 
HETATM   12  C4  UNL     1     -34.622  16.450  -1.170  1.00 20.00     0.005 C 
ENDBRANCH   2  11
TORSDOF 4
ENDMDL
MODEL 6
REMARK VINA RESULT:      -4.3      1.349      3.264
REMARK  4 active torsions:
REMARK  status: ('A' for Active; 'I' for Inactive)
REMARK    1  A    between atoms: C2_2  and  C8_8 
REMARK    2  A    between atoms: C3_3  and  C10_10 
REMARK    3  A    between atoms: C3_3  and  O11_11 
REMARK    4  A    between atoms: C9_9  and  C10_10 
ROOT
HETATM    1  C1  UNL     1     -34.416  15.060  -6.607  1.00 20.00     0.046 A 
HETATM    2  C2  UNL     1     -35.055  16.227  -5.899  1.00 20.00     0.023 A 
HETATM    3  C3  UNL     1     -33.952  15.441  -5.223  1.00 20.00     0.069 A 
ENDROOT
BRANCH   3   4
HETATM    4  C10 UNL     1     -34.223  14.498  -4.034  1.00 20.00    -0.017 C 
HETATM    5  C6  UNL     1     -35.001  13.275  -4.548  1.00 20.00     0.018 C 
HETATM    6  C7  UNL     1     -32.875  14.035  -3.460  1.00 20.00     0.018 C 
BRANCH   4   7
HETATM    7  C9  UNL     1     -35.044  15.279  -2.975  1.00 20.00     0.007 C 
HETATM    8  C5  UNL     1     -34.241  16.179  -2.044  1.00 20.00     0.006 C 
ENDBRANCH   4   7
ENDBRANCH   3   4
BRANCH   3   9
HETATM    9  O11 UNL     1     -32.677  16.103  -5.149  1.00 20.00    -0.389 OA
HETATM   10  H31 UNL     1     -32.701  16.795  -5.822  1.00 20.00     0.210 HD
ENDBRANCH   3   9
BRANCH   2  11
HETATM   11  C8  UNL     1     -36.476  16.151  -5.456  1.00 20.00     0.003 C 
HETATM   12  C4  UNL     1     -37.373  15.485  -6.469  1.00 20.00     0.005 C 
ENDBRANCH   2  11
TORSDOF 4
ENDMDL
MODEL 7
REMARK VINA RESULT:      -4.2      1.912      3.039
REMARK  4 active torsions:
REMARK  status: ('A' for Active; 'I' for Inactive)
REMARK    1  A    between atoms: C2_2  and  C8_8 
REMARK    2  A    between atoms: C3_3  and  C10_10 
REMARK    3  A    between atoms: C3_3  and  O11_11 
REMARK    4  A    between atoms: C9_9  and  C10_10 
ROOT
HETATM    1  C1  UNL     1     -34.610  13.670  -3.934  1.00 20.00     0.046 A 
HETATM    2  C2  UNL     1     -34.851  14.778  -2.941  1.00 20.00     0.023 A 
HETATM    3  C3  UNL     1     -35.781  14.603  -4.123  1.00 20.00     0.069 A 
ENDROOT
BRANCH   3   4
HETATM    4  C10 UNL     1     -35.797  15.586  -5.309  1.00 20.00    -0.017 C 
HETATM    5  C6  UNL     1     -36.932  15.181  -6.264  1.00 20.00     0.018 C 
HETATM    6  C7  UNL     1     -36.071  16.999  -4.769  1.00 20.00     0.018 C 
BRANCH   4   7
HETATM    7  C9  UNL     1     -34.419  15.515  -6.016  1.00 20.00     0.007 C 
HETATM    8  C5  UNL     1     -34.430  14.965  -7.438  1.00 20.00     0.006 C 
ENDBRANCH   4   7
ENDBRANCH   3   4
BRANCH   3   9
HETATM    9  O11 UNL     1     -37.075  14.055  -3.816  1.00 20.00    -0.389 OA
HETATM   10  H31 UNL     1     -37.159  14.102  -2.855  1.00 20.00     0.210 HD
ENDBRANCH   3   9
BRANCH   2  11
HETATM   11  C8  UNL     1     -33.896  15.917  -2.839  1.00 20.00     0.003 C 
HETATM   12  C4  UNL     1     -34.070  16.719  -1.574  1.00 20.00     0.005 C 
ENDBRANCH   2  11
TORSDOF 4
ENDMDL
MODEL 8
REMARK VINA RESULT:      -4.2      1.427      4.016
REMARK  4 active torsions:
REMARK  status: ('A' for Active; 'I' for Inactive)
REMARK    1  A    between atoms: C2_2  and  C8_8 
REMARK    2  A    between atoms: C3_3  and  C10_10 
REMARK    3  A    between atoms: C3_3  and  O11_11 
REMARK    4  A    between atoms: C9_9  and  C10_10 
ROOT
HETATM    1  C1  UNL     1     -35.429  13.601  -4.128  1.00 20.00     0.046 A 
HETATM    2  C2  UNL     1     -34.862  13.823  -5.506  1.00 20.00     0.023 A 
HETATM    3  C3  UNL     1     -34.175  14.422  -4.297  1.00 20.00     0.069 A 
ENDROOT
BRANCH   3   4
HETATM    4  C10 UNL     1     -34.200  15.934  -4.003  1.00 20.00    -0.017 C 
HETATM    5  C6  UNL     1     -35.646  16.436  -4.144  1.00 20.00     0.018 C 
HETATM    6  C7  UNL     1     -33.726  16.159  -2.558  1.00 20.00     0.018 C 
BRANCH   4   7
HETATM    7  C9  UNL     1     -33.261  16.641  -5.016  1.00 20.00     0.007 C 
HETATM    8  C5  UNL     1     -33.755  17.976  -5.559  1.00 20.00     0.006 C 
ENDBRANCH   4   7
ENDBRANCH   3   4
BRANCH   3   9
HETATM    9  O11 UNL     1     -32.948  13.782  -3.903  1.00 20.00    -0.389 OA
HETATM   10  H31 UNL     1     -33.202  13.091  -3.279  1.00 20.00     0.210 HD
ENDBRANCH   3   9
BRANCH   2  11
HETATM   11  C8  UNL     1     -35.600  14.654  -6.498  1.00 20.00     0.003 C 
HETATM   12  C4  UNL     1     -34.862  14.807  -7.804  1.00 20.00     0.005 C 
ENDBRANCH   2  11
TORSDOF 4
ENDMDL
MODEL 9
REMARK VINA RESULT:      -4.2      1.787      4.081
REMARK  4 active torsions:
REMARK  status: ('A' for Active; 'I' for Inactive)
REMARK    1  A    between atoms: C2_2  and  C8_8 
REMARK    2  A    between atoms: C3_3  and  C10_10 
REMARK    3  A    between atoms: C3_3  and  O11_11 
REMARK    4  A    between atoms: C9_9  and  C10_10 
ROOT
HETATM    1  C1  UNL     1     -36.278  16.235  -5.141  1.00 20.00     0.046 A 
HETATM    2  C2  UNL     1     -36.137  14.762  -5.429  1.00 20.00     0.023 A 
HETATM    3  C3  UNL     1     -35.920  15.285  -4.025  1.00 20.00     0.069 A 
ENDROOT
BRANCH   3   4
HETATM    4  C10 UNL     1     -34.524  15.349  -3.378  1.00 20.00    -0.017 C 
HETATM    5  C6  UNL     1     -33.910  13.939  -3.399  1.00 20.00     0.018 C 
HETATM    6  C7  UNL     1     -33.643  16.296  -4.209  1.00 20.00     0.018 C 
BRANCH   4   7
HETATM    7  C9  UNL     1     -34.686  15.867  -1.925  1.00 20.00     0.007 C 
HETATM    8  C5  UNL     1     -33.842  17.080  -1.555  1.00 20.00     0.006 C 
ENDBRANCH   4   7
ENDBRANCH   3   4
BRANCH   3   9
HETATM    9  O11 UNL     1     -36.973  14.994  -3.088  1.00 20.00    -0.389 OA
HETATM   10  H31 UNL     1     -36.556  14.995  -2.217  1.00 20.00     0.210 HD
ENDBRANCH   3   9
BRANCH   2  11
HETATM   11  C8  UNL     1     -35.018  14.266  -6.278  1.00 20.00     0.003 C 
HETATM   12  C4  UNL     1     -34.889  15.016  -7.579  1.00 20.00     0.005 C 
ENDBRANCH   2  11
TORSDOF 4
ENDMDL
