MODEL 1
REMARK VINA RESULT:      -4.1      0.000      0.000
REMARK  2 active torsions:
REMARK  status: ('A' for Active; 'I' for Inactive)
REMARK    1  A    between atoms: C4_4  and  C8_8 
REMARK    2  A    between atoms: C5_5  and  C9_9 
ROOT
HETATM    1  C1  UNL     1     -34.981  18.753  -3.235  1.00 20.00     0.027 C 
HETATM    2  C2  UNL     1     -33.715  18.216  -2.574  1.00 20.00     0.010 C 
HETATM    3  C3  UNL     1     -35.387  17.885  -4.417  1.00 20.00     0.168 C 
HETATM    4  C4  UNL     1     -33.820  16.712  -2.273  1.00 20.00     0.029 C 
HETATM    5  C5  UNL     1     -34.274  15.975  -3.551  1.00 20.00     0.130 C 
HETATM    6  O10 UNL     1     -35.511  16.516  -4.032  1.00 20.00    -0.385 OA
ENDROOT
BRANCH   5   7
HETATM    7  C9  UNL     1     -34.469  14.477  -3.351  1.00 20.00     0.007 C 
HETATM    8  C6  UNL     1     -35.655  13.973  -4.172  1.00 20.00     0.012 C 
HETATM    9  C7  UNL     1     -33.199  13.713  -3.723  1.00 20.00     0.012 C 
ENDBRANCH   5   7
BRANCH   4  10
HETATM   10  C8  UNL     1     -34.748  16.468  -1.076  1.00 20.00     0.121 C 
HETATM   11 CL11 UNL     1     -34.363  17.603   0.226  1.00 20.00    -0.130 Cl
ENDBRANCH   4  10
TORSDOF 2
ENDMDL
MODEL 2
REMARK VINA RESULT:      -4.0      2.069      3.745
REMARK  2 active torsions:
REMARK  status: ('A' for Active; 'I' for Inactive)
REMARK    1  A    between atoms: C4_4  and  C8_8 
REMARK    2  A    between atoms: C5_5  and  C9_9 
ROOT
HETATM    1  C1  UNL     1     -36.822  15.479  -5.167  1.00 20.00     0.027 C 
HETATM    2  C2  UNL     1     -36.403  14.357  -4.221  1.00 20.00     0.010 C 
HETATM    3  C3  UNL     1     -36.962  16.796  -4.418  1.00 20.00     0.168 C 
HETATM    4  C4  UNL     1     -35.188  14.753  -3.365  1.00 20.00     0.029 C 
HETATM    5  C5  UNL     1     -35.466  16.119  -2.703  1.00 20.00     0.130 C 
HETATM    6  O10 UNL     1     -35.771  17.107  -3.695  1.00 20.00    -0.385 OA
ENDROOT
BRANCH   5   7
HETATM    7  C9  UNL     1     -34.298  16.640  -1.873  1.00 20.00     0.007 C 
HETATM    8  C6  UNL     1     -33.760  17.944  -2.458  1.00 20.00     0.012 C 
HETATM    9  C7  UNL     1     -34.717  16.839  -0.417  1.00 20.00     0.012 C 
ENDBRANCH   5   7
BRANCH   4  10
HETATM   10  C8  UNL     1     -33.909  14.743  -4.212  1.00 20.00     0.121 C 
HETATM   11 CL11 UNL     1     -32.739  13.609  -3.522  1.00 20.00    -0.130 Cl
ENDBRANCH   4  10
TORSDOF 2
ENDMDL
MODEL 3
REMARK VINA RESULT:      -4.0     12.518     13.928
REMARK  2 active torsions:
REMARK  status: ('A' for Active; 'I' for Inactive)
REMARK    1  A    between atoms: C4_4  and  C8_8 
REMARK    2  A    between atoms: C5_5  and  C9_9 
ROOT
HETATM    1  C1  UNL     1     -41.973   7.173  -1.177  1.00 20.00     0.027 C 
HETATM    2  C2  UNL     1     -41.222   6.109  -0.382  1.00 20.00     0.010 C 
HETATM    3  C3  UNL     1     -41.988   6.833  -2.660  1.00 20.00     0.168 C 
HETATM    4  C4  UNL     1     -41.710   4.690  -0.722  1.00 20.00     0.029 C 
HETATM    5  C5  UNL     1     -41.703   4.512  -2.255  1.00 20.00     0.130 C 
HETATM    6  O10 UNL     1     -42.503   5.521  -2.883  1.00 20.00    -0.385 OA
ENDROOT
BRANCH   5   7
HETATM    7  C9  UNL     1     -42.227   3.154  -2.710  1.00 20.00     0.007 C 
HETATM    8  C6  UNL     1     -43.399   3.325  -3.675  1.00 20.00     0.012 C 
HETATM    9  C7  UNL     1     -41.113   2.336  -3.361  1.00 20.00     0.012 C 
ENDBRANCH   5   7
BRANCH   4  10
HETATM   10  C8  UNL     1     -43.083   4.430  -0.091  1.00 20.00     0.121 C 
HETATM   11 CL11 UNL     1     -43.203   5.271   1.461  1.00 20.00    -0.130 Cl
ENDBRANCH   4  10
TORSDOF 2
ENDMDL
MODEL 4
REMARK VINA RESULT:      -4.0      2.372      3.758
REMARK  2 active torsions:
REMARK  status: ('A' for Active; 'I' for Inactive)
REMARK    1  A    between atoms: C4_4  and  C8_8 
REMARK    2  A    between atoms: C5_5  and  C9_9 
ROOT
HETATM    1  C1  UNL     1     -33.916  17.310  -5.677  1.00 20.00     0.027 C 
HETATM    2  C2  UNL     1     -34.768  16.265  -4.961  1.00 20.00     0.010 C 
HETATM    3  C3  UNL     1     -33.797  18.578  -4.844  1.00 20.00     0.168 C 
HETATM    4  C4  UNL     1     -34.309  16.051  -3.509  1.00 20.00     0.029 C 
HETATM    5  C5  UNL     1     -34.201  17.423  -2.810  1.00 20.00     0.130 C 
HETATM    6  O10 UNL     1     -33.316  18.288  -3.532  1.00 20.00    -0.385 OA
ENDROOT
BRANCH   5   7
HETATM    7  C9  UNL     1     -33.696  17.334  -1.374  1.00 20.00     0.007 C 
HETATM    8  C6  UNL     1     -33.147  18.683  -0.912  1.00 20.00     0.012 C 
HETATM    9  C7  UNL     1     -34.807  16.860  -0.438  1.00 20.00     0.012 C 
ENDBRANCH   5   7
BRANCH   4  10
HETATM   10  C8  UNL     1     -33.001  15.252  -3.472  1.00 20.00     0.121 C 
HETATM   11 CL11 UNL     1     -33.324  13.549  -3.828  1.00 20.00    -0.130 Cl
ENDBRANCH   4  10
TORSDOF 2
ENDMDL
MODEL 5
REMARK VINA RESULT:      -4.0      2.442      4.285
REMARK  2 active torsions:
REMARK  status: ('A' for Active; 'I' for Inactive)
REMARK    1  A    between atoms: C4_4  and  C8_8 
REMARK    2  A    between atoms: C5_5  and  C9_9 
ROOT
HETATM    1  C1  UNL     1     -34.812  13.251  -4.720  1.00 20.00     0.027 C 
HETATM    2  C2  UNL     1     -35.525  14.403  -5.422  1.00 20.00     0.010 C 
HETATM    3  C3  UNL     1     -33.657  13.763  -3.871  1.00 20.00     0.168 C 
HETATM    4  C4  UNL     1     -35.884  15.535  -4.445  1.00 20.00     0.029 C 
HETATM    5  C5  UNL     1     -34.626  15.917  -3.636  1.00 20.00     0.130 C 
HETATM    6  O10 UNL     1     -34.094  14.771  -2.961  1.00 20.00    -0.385 OA
ENDROOT
BRANCH   5   7
HETATM    7  C9  UNL     1     -34.882  16.996  -2.590  1.00 20.00     0.007 C 
HETATM    8  C6  UNL     1     -34.584  16.468  -1.188  1.00 20.00     0.012 C 
HETATM    9  C7  UNL     1     -34.044  18.240  -2.882  1.00 20.00     0.012 C 
ENDBRANCH   5   7
BRANCH   4  10
HETATM   10  C8  UNL     1     -37.067  15.124  -3.559  1.00 20.00     0.121 C 
HETATM   11 CL11 UNL     1     -38.479  14.770  -4.566  1.00 20.00    -0.130 Cl
ENDBRANCH   4  10
TORSDOF 2
ENDMDL
MODEL 6
REMARK VINA RESULT:      -3.9      1.415      1.681
REMARK  2 active torsions:
REMARK  status: ('A' for Active; 'I' for Inactive)
REMARK    1  A    between atoms: C4_4  and  C8_8 
REMARK    2  A    between atoms: C5_5  and  C9_9 
ROOT
HETATM    1  C1  UNL     1     -34.765  18.099  -5.749  1.00 20.00     0.027 C 
HETATM    2  C2  UNL     1     -33.627  18.038  -4.734  1.00 20.00     0.010 C 
HETATM    3  C3  UNL     1     -34.951  16.755  -6.438  1.00 20.00     0.168 C 
HETATM    4  C4  UNL     1     -33.768  16.834  -3.788  1.00 20.00     0.029 C 
HETATM    5  C5  UNL     1     -33.986  15.558  -4.629  1.00 20.00     0.130 C 
HETATM    6  O10 UNL     1     -35.126  15.707  -5.484  1.00 20.00    -0.385 OA
ENDROOT
BRANCH   5   7
HETATM    7  C9  UNL     1     -34.197  14.305  -3.787  1.00 20.00     0.007 C 
HETATM    8  C6  UNL     1     -35.121  13.323  -4.506  1.00 20.00     0.012 C 
HETATM    9  C7  UNL     1     -32.860  13.641  -3.462  1.00 20.00     0.012 C 
ENDBRANCH   5   7
BRANCH   4  10
HETATM   10  C8  UNL     1     -34.887  17.081  -2.768  1.00 20.00     0.121 C 
HETATM   11 CL11 UNL     1     -34.335  16.631  -1.148  1.00 20.00    -0.130 Cl
ENDBRANCH   4  10
TORSDOF 2
ENDMDL
MODEL 7
REMARK VINA RESULT:      -3.9      2.637      4.330
REMARK  2 active torsions:
REMARK  status: ('A' for Active; 'I' for Inactive)
REMARK    1  A    between atoms: C4_4  and  C8_8 
REMARK    2  A    between atoms: C5_5  and  C9_9 
ROOT
HETATM    1  C1  UNL     1     -34.594  13.568  -5.132  1.00 20.00     0.027 C 
HETATM    2  C2  UNL     1     -34.478  14.915  -5.842  1.00 20.00     0.010 C 
HETATM    3  C3  UNL     1     -33.941  13.620  -3.759  1.00 20.00     0.168 C 
HETATM    4  C4  UNL     1     -34.935  16.077  -4.945  1.00 20.00     0.029 C 
HETATM    5  C5  UNL     1     -34.216  15.972  -3.583  1.00 20.00     0.130 C 
HETATM    6  O10 UNL     1     -34.464  14.695  -2.980  1.00 20.00    -0.385 OA
ENDROOT
BRANCH   5   7
HETATM    7  C9  UNL     1     -34.641  17.046  -2.588  1.00 20.00     0.007 C 
HETATM    8  C6  UNL     1     -34.587  16.508  -1.159  1.00 20.00     0.012 C 
HETATM    9  C7  UNL     1     -33.761  18.288  -2.726  1.00 20.00     0.012 C 
ENDBRANCH   5   7
BRANCH   4  10
HETATM   10  C8  UNL     1     -36.464  16.087  -4.819  1.00 20.00     0.121 C 
HETATM   11 CL11 UNL     1     -37.200  15.785  -6.400  1.00 20.00    -0.130 Cl
ENDBRANCH   4  10
TORSDOF 2
ENDMDL
MODEL 8
REMARK VINA RESULT:      -3.9      3.146      4.679
REMARK  2 active torsions:
REMARK  status: ('A' for Active; 'I' for Inactive)
REMARK    1  A    between atoms: C4_4  and  C8_8 
REMARK    2  A    between atoms: C5_5  and  C9_9 
ROOT
HETATM    1  C1  UNL     1     -33.833  13.758  -3.612  1.00 20.00     0.027 C 
HETATM    2  C2  UNL     1     -34.479  13.448  -4.959  1.00 20.00     0.010 C 
HETATM    3  C3  UNL     1     -32.880  14.939  -3.726  1.00 20.00     0.168 C 
HETATM    4  C4  UNL     1     -35.074  14.706  -5.612  1.00 20.00     0.029 C 
HETATM    5  C5  UNL     1     -34.005  15.819  -5.621  1.00 20.00     0.130 C 
HETATM    6  O10 UNL     1     -33.532  16.074  -4.293  1.00 20.00    -0.385 OA
ENDROOT
BRANCH   5   7
HETATM    7  C9  UNL     1     -34.507  17.139  -6.197  1.00 20.00     0.007 C 
HETATM    8  C6  UNL     1     -33.608  18.294  -5.760  1.00 20.00     0.012 C 
HETATM    9  C7  UNL     1     -34.585  17.068  -7.722  1.00 20.00     0.012 C 
ENDBRANCH   5   7
BRANCH   4  10
HETATM   10  C8  UNL     1     -36.368  15.120  -4.899  1.00 20.00     0.121 C 
HETATM   11 CL11 UNL     1     -37.663  15.345  -6.084  1.00 20.00    -0.130 Cl
ENDBRANCH   4  10
TORSDOF 2
ENDMDL
MODEL 9
REMARK VINA RESULT:      -3.9      2.767      3.942
REMARK  2 active torsions:
REMARK  status: ('A' for Active; 'I' for Inactive)
REMARK    1  A    between atoms: C4_4  and  C8_8 
REMARK    2  A    between atoms: C5_5  and  C9_9 
ROOT
HETATM    1  C1  UNL     1     -36.160  15.027  -7.068  1.00 20.00     0.027 C 
HETATM    2  C2  UNL     1     -36.664  16.026  -6.031  1.00 20.00     0.010 C 
HETATM    3  C3  UNL     1     -34.654  14.840  -6.955  1.00 20.00     0.168 C 
HETATM    4  C4  UNL     1     -36.152  15.694  -4.619  1.00 20.00     0.029 C 
HETATM    5  C5  UNL     1     -34.622  15.499  -4.674  1.00 20.00     0.130 C 
HETATM    6  O10 UNL     1     -34.278  14.484  -5.625  1.00 20.00    -0.385 OA
ENDROOT
BRANCH   5   7
HETATM    7  C9  UNL     1     -34.012  15.105  -3.333  1.00 20.00     0.007 C 
HETATM    8  C6  UNL     1     -32.611  14.527  -3.528  1.00 20.00     0.012 C 
HETATM    9  C7  UNL     1     -33.970  16.304  -2.387  1.00 20.00     0.012 C 
ENDBRANCH   5   7
BRANCH   4  10
HETATM   10  C8  UNL     1     -36.895  14.477  -4.052  1.00 20.00     0.121 C 
HETATM   11 CL11 UNL     1     -38.574  14.908  -3.698  1.00 20.00    -0.130 Cl
ENDBRANCH   4  10
TORSDOF 2
ENDMDL
