MODEL 1
REMARK VINA RESULT:      -4.1      0.000      0.000
REMARK  1 active torsions:
REMARK  status: ('A' for Active; 'I' for Inactive)
REMARK    1  A    between atoms: C3_3  and  C8_8 
ROOT
HETATM    1  C1  UNL     1     -33.538  16.354  -5.408  1.00 20.00     0.284 C 
HETATM    2  C2  UNL     1     -34.890  15.257  -2.971  1.00 20.00     0.110 C 
HETATM    3  C3  UNL     1     -33.656  16.166  -2.981  1.00 20.00     0.233 C 
HETATM    4  C4  UNL     1     -34.752  15.469  -5.707  1.00 20.00     0.071 C 
HETATM    5  C5  UNL     1     -34.614  14.796  -7.069  1.00 20.00     0.023 C 
HETATM    6  N9  UNL     1     -33.653  17.072  -4.137  1.00 20.00     0.090 N 
HETATM    7  S10 UNL     1     -34.939  14.178  -4.431  1.00 20.00    -0.161 SA
HETATM    8  H27 UNL     1     -32.869  17.719  -4.054  1.00 20.00     0.316 HD
ENDROOT
BRANCH   3   9
HETATM    9  C8  UNL     1     -33.631  17.013  -1.707  1.00 20.00     0.011 C 
HETATM   10  C6  UNL     1     -33.696  18.497  -2.051  1.00 20.00     0.012 C 
HETATM   11  C7  UNL     1     -34.782  16.621  -0.784  1.00 20.00     0.012 C 
ENDBRANCH   3   9
TORSDOF 1
ENDMDL
MODEL 2
REMARK VINA RESULT:      -3.9      2.099      2.529
REMARK  1 active torsions:
REMARK  status: ('A' for Active; 'I' for Inactive)
REMARK    1  A    between atoms: C3_3  and  C8_8 
ROOT
HETATM    1  C1  UNL     1     -36.062  14.881  -3.674  1.00 20.00     0.284 C 
HETATM    2  C2  UNL     1     -33.780  16.307  -2.358  1.00 20.00     0.110 C 
HETATM    3  C3  UNL     1     -35.220  16.820  -2.463  1.00 20.00     0.233 C 
HETATM    4  C4  UNL     1     -34.733  14.123  -3.727  1.00 20.00     0.071 C 
HETATM    5  C5  UNL     1     -34.672  13.213  -4.951  1.00 20.00     0.023 C 
HETATM    6  N9  UNL     1     -36.194  15.722  -2.482  1.00 20.00     0.090 N 
HETATM    7  S10 UNL     1     -33.328  15.286  -3.791  1.00 20.00    -0.161 SA
HETATM    8  H27 UNL     1     -37.137  16.109  -2.456  1.00 20.00     0.316 HD
ENDROOT
BRANCH   3   9
HETATM    9  C8  UNL     1     -35.532  17.718  -1.263  1.00 20.00     0.011 C 
HETATM   10  C6  UNL     1     -34.828  17.203  -0.013  1.00 20.00     0.012 C 
HETATM   11  C7  UNL     1     -35.127  19.160  -1.556  1.00 20.00     0.012 C 
ENDBRANCH   3   9
TORSDOF 1
ENDMDL
MODEL 3
REMARK VINA RESULT:      -3.9      1.315      4.395
REMARK  1 active torsions:
REMARK  status: ('A' for Active; 'I' for Inactive)
REMARK    1  A    between atoms: C3_3  and  C8_8 
ROOT
HETATM    1  C1  UNL     1     -33.757  17.167  -3.354  1.00 20.00     0.284 C 
HETATM    2  C2  UNL     1     -35.369  15.172  -4.900  1.00 20.00     0.110 C 
HETATM    3  C3  UNL     1     -34.650  16.392  -5.485  1.00 20.00     0.233 C 
HETATM    4  C4  UNL     1     -34.363  16.051  -2.499  1.00 20.00     0.071 C 
HETATM    5  C5  UNL     1     -34.608  16.530  -1.071  1.00 20.00     0.023 C 
HETATM    6  N9  UNL     1     -33.445  16.737  -4.719  1.00 20.00     0.090 N 
HETATM    7  S10 UNL     1     -35.946  15.483  -3.207  1.00 20.00    -0.161 SA
HETATM    8  H27 UNL     1     -32.949  17.491  -5.195  1.00 20.00     0.316 HD
ENDROOT
BRANCH   3   9
HETATM    9  C8  UNL     1     -34.233  16.099  -6.928  1.00 20.00     0.011 C 
HETATM   10  C6  UNL     1     -34.806  14.763  -7.388  1.00 20.00     0.012 C 
HETATM   11  C7  UNL     1     -34.683  17.227  -7.852  1.00 20.00     0.012 C 
ENDBRANCH   3   9
TORSDOF 1
ENDMDL
MODEL 4
REMARK VINA RESULT:      -3.8      1.456      1.746
REMARK  1 active torsions:
REMARK  status: ('A' for Active; 'I' for Inactive)
REMARK    1  A    between atoms: C3_3  and  C8_8 
ROOT
HETATM    1  C1  UNL     1     -34.870  14.709  -4.089  1.00 20.00     0.284 C 
HETATM    2  C2  UNL     1     -33.695  17.462  -3.979  1.00 20.00     0.110 C 
HETATM    3  C3  UNL     1     -34.375  16.728  -2.819  1.00 20.00     0.233 C 
HETATM    4  C4  UNL     1     -34.258  15.185  -5.411  1.00 20.00     0.071 C 
HETATM    5  C5  UNL     1     -34.944  14.519  -6.600  1.00 20.00     0.023 C 
HETATM    6  N9  UNL     1     -34.203  15.273  -2.914  1.00 20.00     0.090 N 
HETATM    7  S10 UNL     1     -34.415  16.995  -5.580  1.00 20.00    -0.161 SA
HETATM    8  H27 UNL     1     -34.587  14.834  -2.077  1.00 20.00     0.316 HD
ENDROOT
BRANCH   3   9
HETATM    9  C8  UNL     1     -33.772  17.197  -1.492  1.00 20.00     0.011 C 
HETATM   10  C6  UNL     1     -33.425  18.680  -1.558  1.00 20.00     0.012 C 
HETATM   11  C7  UNL     1     -34.734  16.918  -0.341  1.00 20.00     0.012 C 
ENDBRANCH   3   9
TORSDOF 1
ENDMDL
MODEL 5
REMARK VINA RESULT:      -3.8      1.621      4.542
REMARK  1 active torsions:
REMARK  status: ('A' for Active; 'I' for Inactive)
REMARK    1  A    between atoms: C3_3  and  C8_8 
ROOT
HETATM    1  C1  UNL     1     -33.512  15.641  -3.240  1.00 20.00     0.284 C 
HETATM    2  C2  UNL     1     -35.601  16.707  -5.103  1.00 20.00     0.110 C 
HETATM    3  C3  UNL     1     -34.200  16.231  -5.502  1.00 20.00     0.233 C 
HETATM    4  C4  UNL     1     -34.820  16.045  -2.553  1.00 20.00     0.071 C 
HETATM    5  C5  UNL     1     -34.570  16.464  -1.107  1.00 20.00     0.023 C 
HETATM    6  N9  UNL     1     -33.708  15.171  -4.613  1.00 20.00     0.090 N 
HETATM    7  S10 UNL     1     -35.612  17.431  -3.437  1.00 20.00    -0.161 SA
HETATM    8  H27 UNL     1     -32.819  14.819  -4.969  1.00 20.00     0.316 HD
ENDROOT
BRANCH   3   9
HETATM    9  C8  UNL     1     -34.232  15.682  -6.931  1.00 20.00     0.011 C 
HETATM   10  C6  UNL     1     -34.999  14.365  -6.979  1.00 20.00     0.012 C 
HETATM   11  C7  UNL     1     -34.852  16.704  -7.880  1.00 20.00     0.012 C 
ENDBRANCH   3   9
TORSDOF 1
ENDMDL
MODEL 6
REMARK VINA RESULT:      -3.8      1.638      2.073
REMARK  1 active torsions:
REMARK  status: ('A' for Active; 'I' for Inactive)
REMARK    1  A    between atoms: C3_3  and  C8_8 
ROOT
HETATM    1  C1  UNL     1     -33.701  14.855  -3.340  1.00 20.00     0.284 C 
HETATM    2  C2  UNL     1     -36.092  16.525  -2.657  1.00 20.00     0.110 C 
HETATM    3  C3  UNL     1     -34.853  16.328  -1.777  1.00 20.00     0.233 C 
HETATM    4  C4  UNL     1     -34.792  14.861  -4.415  1.00 20.00     0.071 C 
HETATM    5  C5  UNL     1     -34.768  13.567  -5.222  1.00 20.00     0.023 C 
HETATM    6  N9  UNL     1     -33.642  16.105  -2.578  1.00 20.00     0.090 N 
HETATM    7  S10 UNL     1     -36.441  15.052  -3.659  1.00 20.00    -0.161 SA
HETATM    8  H27 UNL     1     -32.831  16.074  -1.959  1.00 20.00     0.316 HD
ENDROOT
BRANCH   3   9
HETATM    9  C8  UNL     1     -34.633  17.573  -0.913  1.00 20.00     0.011 C 
HETATM   10  C6  UNL     1     -35.109  17.322   0.514  1.00 20.00     0.012 C 
HETATM   11  C7  UNL     1     -33.163  17.980  -0.929  1.00 20.00     0.012 C 
ENDBRANCH   3   9
TORSDOF 1
ENDMDL
MODEL 7
REMARK VINA RESULT:      -3.8     13.706     15.059
REMARK  1 active torsions:
REMARK  status: ('A' for Active; 'I' for Inactive)
REMARK    1  A    between atoms: C3_3  and  C8_8 
ROOT
HETATM    1  C1  UNL     1     -40.904   4.752  -1.210  1.00 20.00     0.284 C 
HETATM    2  C2  UNL     1     -43.210   4.602  -3.115  1.00 20.00     0.110 C 
HETATM    3  C3  UNL     1     -42.098   3.559  -2.967  1.00 20.00     0.233 C 
HETATM    4  C4  UNL     1     -41.859   5.947  -1.136  1.00 20.00     0.071 C 
HETATM    5  C5  UNL     1     -41.128   7.202  -0.666  1.00 20.00     0.023 C 
HETATM    6  N9  UNL     1     -41.573   3.508  -1.597  1.00 20.00     0.090 N 
HETATM    7  S10 UNL     1     -42.605   6.279  -2.768  1.00 20.00    -0.161 SA
HETATM    8  H27 UNL     1     -40.906   2.740  -1.521  1.00 20.00     0.316 HD
ENDROOT
BRANCH   3   9
HETATM    9  C8  UNL     1     -42.643   2.174  -3.324  1.00 20.00     0.011 C 
HETATM   10  C6  UNL     1     -41.508   1.246  -3.744  1.00 20.00     0.012 C 
HETATM   11  C7  UNL     1     -43.415   1.586  -2.146  1.00 20.00     0.012 C 
ENDBRANCH   3   9
TORSDOF 1
ENDMDL
MODEL 8
REMARK VINA RESULT:      -3.8      1.776      4.375
REMARK  1 active torsions:
REMARK  status: ('A' for Active; 'I' for Inactive)
REMARK    1  A    between atoms: C3_3  and  C8_8 
ROOT
HETATM    1  C1  UNL     1     -33.603  16.126  -2.566  1.00 20.00     0.284 C 
HETATM    2  C2  UNL     1     -36.321  15.917  -3.807  1.00 20.00     0.110 C 
HETATM    3  C3  UNL     1     -34.988  15.661  -4.516  1.00 20.00     0.233 C 
HETATM    4  C4  UNL     1     -34.756  16.444  -1.610  1.00 20.00     0.071 C 
HETATM    5  C5  UNL     1     -34.309  17.414  -0.520  1.00 20.00     0.023 C 
HETATM    6  N9  UNL     1     -33.966  15.149  -3.595  1.00 20.00     0.090 N 
HETATM    7  S10 UNL     1     -36.159  17.183  -2.514  1.00 20.00    -0.161 SA
HETATM    8  H27 UNL     1     -33.128  14.904  -4.125  1.00 20.00     0.316 HD
ENDROOT
BRANCH   3   9
HETATM    9  C8  UNL     1     -35.189  14.631  -5.631  1.00 20.00     0.011 C 
HETATM   10  C6  UNL     1     -34.425  15.045  -6.884  1.00 20.00     0.012 C 
HETATM   11  C7  UNL     1     -34.750  13.247  -5.162  1.00 20.00     0.012 C 
ENDBRANCH   3   9
TORSDOF 1
ENDMDL
MODEL 9
REMARK VINA RESULT:      -3.7      1.695      4.694
REMARK  1 active torsions:
REMARK  status: ('A' for Active; 'I' for Inactive)
REMARK    1  A    between atoms: C3_3  and  C8_8 
ROOT
HETATM    1  C1  UNL     1     -36.125  15.547  -3.076  1.00 20.00     0.284 C 
HETATM    2  C2  UNL     1     -33.987  15.384  -5.168  1.00 20.00     0.110 C 
HETATM    3  C3  UNL     1     -35.358  14.703  -5.229  1.00 20.00     0.233 C 
HETATM    4  C4  UNL     1     -34.853  16.331  -2.738  1.00 20.00     0.071 C 
HETATM    5  C5  UNL     1     -34.663  16.437  -1.228  1.00 20.00     0.023 C 
HETATM    6  N9  UNL     1     -36.385  15.472  -4.515  1.00 20.00     0.090 N 
HETATM    7  S10 UNL     1     -33.385  15.523  -3.460  1.00 20.00    -0.161 SA
HETATM    8  H27 UNL     1     -37.295  15.034  -4.661  1.00 20.00     0.316 HD
ENDROOT
BRANCH   3   9
HETATM    9  C8  UNL     1     -35.795  14.559  -6.689  1.00 20.00     0.011 C 
HETATM   10  C6  UNL     1     -37.052  15.380  -6.953  1.00 20.00     0.012 C 
HETATM   11  C7  UNL     1     -34.667  14.981  -7.627  1.00 20.00     0.012 C 
ENDBRANCH   3   9
TORSDOF 1
ENDMDL
