MODEL 1
REMARK VINA RESULT:      -4.6      0.000      0.000
REMARK  3 active torsions:
REMARK  status: ('A' for Active; 'I' for Inactive)
REMARK    1  A    between atoms: C2_2  and  C6_6 
REMARK    2  A    between atoms: C3_3  and  O8_8 
REMARK    3  A    between atoms: C6_6  and  C7_7 
ROOT
HETATM    1  C1  UNL     1     -34.814   5.526   6.178  1.00 20.00     0.045 A 
HETATM    2  C2  UNL     1     -33.706   5.444   5.161  1.00 20.00     0.022 A 
HETATM    3  C3  UNL     1     -35.078   4.894   4.834  1.00 20.00     0.058 A 
HETATM    4  C4  UNL     1     -35.994   5.563   3.863  1.00 20.00     0.046 C 
ENDROOT
BRANCH   2   5
HETATM    5  C6  UNL     1     -33.172   6.682   4.529  1.00 20.00     0.007 C 
BRANCH   5   6
HETATM    6  C7  UNL     1     -32.324   6.389   3.278  1.00 20.00    -0.004 C 
HETATM    7  C5  UNL     1     -32.090   7.629   2.429  1.00 20.00     0.005 C 
ENDBRANCH   5   6
ENDBRANCH   2   5
BRANCH   3   8
HETATM    8  O8  UNL     1     -35.183   3.459   4.826  1.00 20.00    -0.390 OA
HETATM    9  H22 UNL     1     -35.509   3.225   3.947  1.00 20.00     0.210 HD
ENDBRANCH   3   8
TORSDOF 3
ENDMDL
MODEL 2
REMARK VINA RESULT:      -4.4      2.277      4.091
REMARK  3 active torsions:
REMARK  status: ('A' for Active; 'I' for Inactive)
REMARK    1  A    between atoms: C2_2  and  C6_6 
REMARK    2  A    between atoms: C3_3  and  O8_8 
REMARK    3  A    between atoms: C6_6  and  C7_7 
ROOT
HETATM    1  C1  UNL     1     -32.053   5.693   3.093  1.00 20.00     0.045 A 
HETATM    2  C2  UNL     1     -33.067   6.272   4.045  1.00 20.00     0.022 A 
HETATM    3  C3  UNL     1     -32.124   7.186   3.294  1.00 20.00     0.058 A 
HETATM    4  C4  UNL     1     -32.586   8.067   2.181  1.00 20.00     0.046 C 
ENDROOT
BRANCH   2   5
HETATM    5  C6  UNL     1     -34.521   6.195   3.733  1.00 20.00     0.007 C 
BRANCH   5   6
HETATM    6  C7  UNL     1     -35.220   5.030   4.456  1.00 20.00    -0.004 C 
HETATM    7  C5  UNL     1     -34.822   4.930   5.921  1.00 20.00     0.005 C 
ENDBRANCH   5   6
ENDBRANCH   2   5
BRANCH   3   8
HETATM    8  O8  UNL     1     -31.066   7.765   4.080  1.00 20.00    -0.390 OA
HETATM    9  H22 UNL     1     -30.659   7.028   4.554  1.00 20.00     0.210 HD
ENDBRANCH   3   8
TORSDOF 3
ENDMDL
MODEL 3
REMARK VINA RESULT:      -4.3      1.283      1.775
REMARK  3 active torsions:
REMARK  status: ('A' for Active; 'I' for Inactive)
REMARK    1  A    between atoms: C2_2  and  C6_6 
REMARK    2  A    between atoms: C3_3  and  O8_8 
REMARK    3  A    between atoms: C6_6  and  C7_7 
ROOT
HETATM    1  C1  UNL     1     -35.564   5.616   4.128  1.00 20.00     0.045 A 
HETATM    2  C2  UNL     1     -34.159   6.126   4.309  1.00 20.00     0.022 A 
HETATM    3  C3  UNL     1     -34.715   5.084   5.255  1.00 20.00     0.058 A 
HETATM    4  C4  UNL     1     -34.256   3.664   5.237  1.00 20.00     0.046 C 
ENDROOT
BRANCH   2   5
HETATM    5  C6  UNL     1     -33.108   5.809   3.303  1.00 20.00     0.007 C 
BRANCH   5   6
HETATM    6  C7  UNL     1     -31.953   6.826   3.314  1.00 20.00    -0.004 C 
HETATM    7  C5  UNL     1     -32.133   7.924   2.277  1.00 20.00     0.005 C 
ENDBRANCH   5   6
ENDBRANCH   2   5
BRANCH   3   8
HETATM    8  O8  UNL     1     -35.051   5.560   6.571  1.00 20.00    -0.390 OA
HETATM    9  H22 UNL     1     -35.977   5.321   6.708  1.00 20.00     0.210 HD
ENDBRANCH   3   8
TORSDOF 3
ENDMDL
MODEL 4
REMARK VINA RESULT:      -4.3      1.323      2.079
REMARK  3 active torsions:
REMARK  status: ('A' for Active; 'I' for Inactive)
REMARK    1  A    between atoms: C2_2  and  C6_6 
REMARK    2  A    between atoms: C3_3  and  O8_8 
REMARK    3  A    between atoms: C6_6  and  C7_7 
ROOT
HETATM    1  C1  UNL     1     -34.121   3.896   5.174  1.00 20.00     0.045 A 
HETATM    2  C2  UNL     1     -35.261   4.664   4.560  1.00 20.00     0.022 A 
HETATM    3  C3  UNL     1     -34.914   4.861   6.020  1.00 20.00     0.058 A 
HETATM    4  C4  UNL     1     -34.272   6.110   6.526  1.00 20.00     0.046 C 
ENDROOT
BRANCH   2   5
HETATM    5  C6  UNL     1     -34.998   5.707   3.530  1.00 20.00     0.007 C 
BRANCH   5   6
HETATM    6  C7  UNL     1     -33.624   5.541   2.858  1.00 20.00    -0.004 C 
HETATM    7  C5  UNL     1     -32.680   6.692   3.170  1.00 20.00     0.005 C 
ENDBRANCH   5   6
ENDBRANCH   2   5
BRANCH   3   8
HETATM    8  O8  UNL     1     -35.828   4.266   6.959  1.00 20.00    -0.390 OA
HETATM    9  H22 UNL     1     -36.502   4.937   7.129  1.00 20.00     0.210 HD
ENDBRANCH   3   8
TORSDOF 3
ENDMDL
MODEL 5
REMARK VINA RESULT:      -4.2     12.215     12.982
REMARK  3 active torsions:
REMARK  status: ('A' for Active; 'I' for Inactive)
REMARK    1  A    between atoms: C2_2  and  C6_6 
REMARK    2  A    between atoms: C3_3  and  O8_8 
REMARK    3  A    between atoms: C6_6  and  C7_7 
ROOT
HETATM    1  C1  UNL     1     -34.194  14.398  -4.008  1.00 20.00     0.045 A 
HETATM    2  C2  UNL     1     -33.928  15.209  -2.768  1.00 20.00     0.022 A 
HETATM    3  C3  UNL     1     -33.149  15.485  -4.035  1.00 20.00     0.058 A 
HETATM    4  C4  UNL     1     -33.370  16.712  -4.856  1.00 20.00     0.046 C 
ENDROOT
BRANCH   2   5
HETATM    5  C6  UNL     1     -34.961  16.147  -2.246  1.00 20.00     0.007 C 
BRANCH   5   6
HETATM    6  C7  UNL     1     -34.630  16.665  -0.835  1.00 20.00    -0.004 C 
HETATM    7  C5  UNL     1     -33.542  17.728  -0.845  1.00 20.00     0.005 C 
ENDBRANCH   5   6
ENDBRANCH   2   5
BRANCH   3   8
HETATM    8  O8  UNL     1     -31.780  15.039  -4.030  1.00 20.00    -0.390 OA
HETATM    9  H22 UNL     1     -31.389  15.387  -4.842  1.00 20.00     0.210 HD
ENDBRANCH   3   8
TORSDOF 3
ENDMDL
MODEL 6
REMARK VINA RESULT:      -4.2     11.774     12.404
REMARK  3 active torsions:
REMARK  status: ('A' for Active; 'I' for Inactive)
REMARK    1  A    between atoms: C2_2  and  C6_6 
REMARK    2  A    between atoms: C3_3  and  O8_8 
REMARK    3  A    between atoms: C6_6  and  C7_7 
ROOT
HETATM    1  C1  UNL     1     -36.007  14.847  -3.634  1.00 20.00     0.045 A 
HETATM    2  C2  UNL     1     -34.615  14.720  -3.073  1.00 20.00     0.022 A 
HETATM    3  C3  UNL     1     -34.991  13.988  -4.344  1.00 20.00     0.058 A 
HETATM    4  C4  UNL     1     -34.473  14.397  -5.683  1.00 20.00     0.046 C 
ENDROOT
BRANCH   2   5
HETATM    5  C6  UNL     1     -33.695  15.890  -3.070  1.00 20.00     0.007 C 
BRANCH   5   6
HETATM    6  C7  UNL     1     -34.233  17.063  -2.230  1.00 20.00    -0.004 C 
HETATM    7  C5  UNL     1     -34.553  16.656  -0.800  1.00 20.00     0.005 C 
ENDBRANCH   5   6
ENDBRANCH   2   5
BRANCH   3   8
HETATM    8  O8  UNL     1     -35.169  12.566  -4.209  1.00 20.00    -0.390 OA
HETATM    9  H22 UNL     1     -34.697  12.318  -3.404  1.00 20.00     0.210 HD
ENDBRANCH   3   8
TORSDOF 3
ENDMDL
MODEL 7
REMARK VINA RESULT:      -4.0     12.052     12.703
REMARK  3 active torsions:
REMARK  status: ('A' for Active; 'I' for Inactive)
REMARK    1  A    between atoms: C2_2  and  C6_6 
REMARK    2  A    between atoms: C3_3  and  O8_8 
REMARK    3  A    between atoms: C6_6  and  C7_7 
ROOT
HETATM    1  C1  UNL     1     -32.707  14.752  -3.622  1.00 20.00     0.045 A 
HETATM    2  C2  UNL     1     -33.821  15.758  -3.499  1.00 20.00     0.022 A 
HETATM    3  C3  UNL     1     -33.973  14.566  -4.419  1.00 20.00     0.058 A 
HETATM    4  C4  UNL     1     -34.891  13.431  -4.107  1.00 20.00     0.046 C 
ENDROOT
BRANCH   2   5
HETATM    5  C6  UNL     1     -34.583  15.886  -2.226  1.00 20.00     0.007 C 
BRANCH   5   6
HETATM    6  C7  UNL     1     -33.998  16.960  -1.292  1.00 20.00    -0.004 C 
HETATM    7  C5  UNL     1     -34.824  17.146  -0.028  1.00 20.00     0.005 C 
ENDBRANCH   5   6
ENDBRANCH   2   5
BRANCH   3   8
HETATM    8  O8  UNL     1     -33.877  14.855  -5.826  1.00 20.00    -0.390 OA
HETATM    9  H22 UNL     1     -33.095  14.380  -6.137  1.00 20.00     0.210 HD
ENDBRANCH   3   8
TORSDOF 3
ENDMDL
MODEL 8
REMARK VINA RESULT:      -4.0      1.955      3.808
REMARK  3 active torsions:
REMARK  status: ('A' for Active; 'I' for Inactive)
REMARK    1  A    between atoms: C2_2  and  C6_6 
REMARK    2  A    between atoms: C3_3  and  O8_8 
REMARK    3  A    between atoms: C6_6  and  C7_7 
ROOT
HETATM    1  C1  UNL     1     -34.095   6.628   3.057  1.00 20.00     0.045 A 
HETATM    2  C2  UNL     1     -33.680   5.844   4.274  1.00 20.00     0.022 A 
HETATM    3  C3  UNL     1     -32.631   6.394   3.333  1.00 20.00     0.058 A 
HETATM    4  C4  UNL     1     -31.749   7.541   3.703  1.00 20.00     0.046 C 
ENDROOT
BRANCH   2   5
HETATM    5  C6  UNL     1     -33.899   6.401   5.638  1.00 20.00     0.007 C 
BRANCH   5   6
HETATM    6  C7  UNL     1     -34.663   5.432   6.557  1.00 20.00    -0.004 C 
HETATM    7  C5  UNL     1     -35.022   4.128   5.859  1.00 20.00     0.005 C 
ENDBRANCH   5   6
ENDBRANCH   2   5
BRANCH   3   8
HETATM    8  O8  UNL     1     -31.982   5.421   2.493  1.00 20.00    -0.390 OA
HETATM    9  H22 UNL     1     -32.681   5.039   1.947  1.00 20.00     0.210 HD
ENDBRANCH   3   8
TORSDOF 3
ENDMDL
MODEL 9
REMARK VINA RESULT:      -3.9     11.821     12.785
REMARK  3 active torsions:
REMARK  status: ('A' for Active; 'I' for Inactive)
REMARK    1  A    between atoms: C2_2  and  C6_6 
REMARK    2  A    between atoms: C3_3  and  O8_8 
REMARK    3  A    between atoms: C6_6  and  C7_7 
ROOT
HETATM    1  C1  UNL     1     -35.669  14.923  -3.532  1.00 20.00     0.045 A 
HETATM    2  C2  UNL     1     -34.212  14.572  -3.381  1.00 20.00     0.022 A 
HETATM    3  C3  UNL     1     -35.058  13.869  -4.420  1.00 20.00     0.058 A 
HETATM    4  C4  UNL     1     -34.901  14.126  -5.883  1.00 20.00     0.046 C 
ENDROOT
BRANCH   2   5
HETATM    5  C6  UNL     1     -33.159  15.560  -3.745  1.00 20.00     0.007 C 
BRANCH   5   6
HETATM    6  C7  UNL     1     -33.669  17.011  -3.701  1.00 20.00    -0.004 C 
HETATM    7  C5  UNL     1     -33.560  17.709  -5.048  1.00 20.00     0.005 C 
ENDBRANCH   5   6
ENDBRANCH   2   5
BRANCH   3   8
HETATM    8  O8  UNL     1     -35.411  12.508  -4.113  1.00 20.00    -0.390 OA
HETATM    9  H22 UNL     1     -34.708  12.178  -3.538  1.00 20.00     0.210 HD
ENDBRANCH   3   8
TORSDOF 3
ENDMDL
