MODEL 1
REMARK VINA RESULT:      -5.8      0.000      0.000
REMARK  2 active torsions:
REMARK  status: ('A' for Active; 'I' for Inactive)
REMARK    1  A    between atoms: C3_3  and  C7_7 
REMARK    2  A    between atoms: C4_4  and  C9_9 
ROOT
HETATM    1  C1  UNL     1     -35.128   4.588   5.987  1.00 20.00    -0.003 C 
HETATM    2  C2  UNL     1     -35.188   4.279   4.686  1.00 20.00     0.131 C 
HETATM    3  C5  UNL     1     -34.334   5.755   6.481  1.00 20.00     0.032 C 
HETATM    4  C6  UNL     1     -33.936   6.664   5.320  1.00 20.00     0.040 C 
HETATM    5  C7  UNL     1     -33.500   5.820   4.127  1.00 20.00     0.151 C 
HETATM    6  O10 UNL     1     -34.523   4.926   3.676  1.00 20.00    -0.354 OA
ENDROOT
BRANCH   5   7
HETATM    7  C3  UNL     1     -33.222   6.684   2.942  1.00 20.00     0.009 C 
HETATM    8  C4  UNL     1     -32.176   7.514   2.757  1.00 20.00    -0.071 C 
HETATM    9  C8  UNL     1     -31.117   7.648   3.820  1.00 20.00     0.044 C 
BRANCH   8  10
HETATM   10  C9  UNL     1     -31.985   8.386   1.547  1.00 20.00     0.148 C 
HETATM   11 CL11 UNL     1     -32.657  10.005   1.835  1.00 20.00    -0.126 Cl
ENDBRANCH   8  10
ENDBRANCH   5   7
TORSDOF 2
ENDMDL
MODEL 2
REMARK VINA RESULT:      -4.9     11.168     11.888
REMARK  2 active torsions:
REMARK  status: ('A' for Active; 'I' for Inactive)
REMARK    1  A    between atoms: C3_3  and  C7_7 
REMARK    2  A    between atoms: C4_4  and  C9_9 
ROOT
HETATM    1  C1  UNL     1     -35.106  13.392  -4.350  1.00 20.00    -0.003 C 
HETATM    2  C2  UNL     1     -33.821  13.669  -4.097  1.00 20.00     0.131 C 
HETATM    3  C5  UNL     1     -36.205  14.315  -3.930  1.00 20.00     0.032 C 
HETATM    4  C6  UNL     1     -35.640  15.674  -3.522  1.00 20.00     0.040 C 
HETATM    5  C7  UNL     1     -34.370  15.482  -2.701  1.00 20.00     0.151 C 
HETATM    6  O10 UNL     1     -33.355  14.759  -3.406  1.00 20.00    -0.354 OA
ENDROOT
BRANCH   5   7
HETATM    7  C3  UNL     1     -33.735  16.797  -2.393  1.00 20.00     0.009 C 
HETATM    8  C4  UNL     1     -33.876  17.537  -1.276  1.00 20.00    -0.071 C 
HETATM    9  C8  UNL     1     -34.760  17.057  -0.154  1.00 20.00     0.044 C 
BRANCH   8  10
HETATM   10  C9  UNL     1     -33.231  18.878  -1.056  1.00 20.00     0.148 C 
HETATM   11 CL11 UNL     1     -31.960  18.762   0.179  1.00 20.00    -0.126 Cl
ENDBRANCH   8  10
ENDBRANCH   5   7
TORSDOF 2
ENDMDL
MODEL 3
REMARK VINA RESULT:      -4.6      1.154      1.701
REMARK  2 active torsions:
REMARK  status: ('A' for Active; 'I' for Inactive)
REMARK    1  A    between atoms: C3_3  and  C7_7 
REMARK    2  A    between atoms: C4_4  and  C9_9 
ROOT
HETATM    1  C1  UNL     1     -34.898   4.512   6.106  1.00 20.00    -0.003 C 
HETATM    2  C2  UNL     1     -34.190   5.613   6.388  1.00 20.00     0.131 C 
HETATM    3  C5  UNL     1     -35.377   4.220   4.719  1.00 20.00     0.032 C 
HETATM    4  C6  UNL     1     -34.679   5.126   3.708  1.00 20.00     0.040 C 
HETATM    5  C7  UNL     1     -34.580   6.543   4.262  1.00 20.00     0.151 C 
HETATM    6  O10 UNL     1     -33.865   6.607   5.500  1.00 20.00    -0.354 OA
ENDROOT
BRANCH   5   7
HETATM    7  C3  UNL     1     -33.794   7.417   3.341  1.00 20.00     0.009 C 
HETATM    8  C4  UNL     1     -32.577   7.175   2.817  1.00 20.00    -0.071 C 
HETATM    9  C8  UNL     1     -31.850   5.897   3.144  1.00 20.00     0.044 C 
BRANCH   8  10
HETATM   10  C9  UNL     1     -31.830   8.128   1.925  1.00 20.00     0.148 C 
HETATM   11 CL11 UNL     1     -32.688   9.680   1.816  1.00 20.00    -0.126 Cl
ENDBRANCH   8  10
ENDBRANCH   5   7
TORSDOF 2
ENDMDL
MODEL 4
REMARK VINA RESULT:      -4.5     11.068     12.090
REMARK  2 active torsions:
REMARK  status: ('A' for Active; 'I' for Inactive)
REMARK    1  A    between atoms: C3_3  and  C7_7 
REMARK    2  A    between atoms: C4_4  and  C9_9 
ROOT
HETATM    1  C1  UNL     1     -33.805  18.483  -0.311  1.00 20.00    -0.003 C 
HETATM    2  C2  UNL     1     -34.470  17.375   0.040  1.00 20.00     0.131 C 
HETATM    3  C5  UNL     1     -33.346  18.712  -1.716  1.00 20.00     0.032 C 
HETATM    4  C6  UNL     1     -34.019  17.726  -2.668  1.00 20.00     0.040 C 
HETATM    5  C7  UNL     1     -34.063  16.340  -2.034  1.00 20.00     0.151 C 
HETATM    6  O10 UNL     1     -34.766  16.321  -0.787  1.00 20.00    -0.354 OA
ENDROOT
BRANCH   5   7
HETATM    7  C3  UNL     1     -34.823  15.388  -2.897  1.00 20.00     0.009 C 
HETATM    8  C4  UNL     1     -34.340  14.330  -3.576  1.00 20.00    -0.071 C 
HETATM    9  C8  UNL     1     -32.872  13.994  -3.516  1.00 20.00     0.044 C 
BRANCH   8  10
HETATM   10  C9  UNL     1     -35.166  13.436  -4.460  1.00 20.00     0.148 C 
HETATM   11 CL11 UNL     1     -35.170  14.045  -6.129  1.00 20.00    -0.126 Cl
ENDBRANCH   8  10
ENDBRANCH   5   7
TORSDOF 2
ENDMDL
MODEL 5
REMARK VINA RESULT:      -4.5     11.084     11.934
REMARK  2 active torsions:
REMARK  status: ('A' for Active; 'I' for Inactive)
REMARK    1  A    between atoms: C3_3  and  C7_7 
REMARK    2  A    between atoms: C4_4  and  C9_9 
ROOT
HETATM    1  C1  UNL     1     -35.566  13.661  -4.740  1.00 20.00    -0.003 C 
HETATM    2  C2  UNL     1     -36.426  14.392  -4.021  1.00 20.00     0.131 C 
HETATM    3  C5  UNL     1     -34.093  13.706  -4.487  1.00 20.00     0.032 C 
HETATM    4  C6  UNL     1     -33.798  14.391  -3.154  1.00 20.00     0.040 C 
HETATM    5  C7  UNL     1     -34.699  15.610  -2.987  1.00 20.00     0.151 C 
HETATM    6  O10 UNL     1     -36.092  15.283  -3.033  1.00 20.00    -0.354 OA
ENDROOT
BRANCH   5   7
HETATM    7  C3  UNL     1     -34.512  16.225  -1.640  1.00 20.00     0.009 C 
HETATM    8  C4  UNL     1     -34.050  17.458  -1.356  1.00 20.00    -0.071 C 
HETATM    9  C8  UNL     1     -33.651  18.394  -2.467  1.00 20.00     0.044 C 
BRANCH   8  10
HETATM   10  C9  UNL     1     -33.852  17.994   0.036  1.00 20.00     0.148 C 
HETATM   11 CL11 UNL     1     -32.249  18.743   0.191  1.00 20.00    -0.126 Cl
ENDBRANCH   8  10
ENDBRANCH   5   7
TORSDOF 2
ENDMDL
MODEL 6
REMARK VINA RESULT:      -4.5     11.585     12.591
REMARK  2 active torsions:
REMARK  status: ('A' for Active; 'I' for Inactive)
REMARK    1  A    between atoms: C3_3  and  C7_7 
REMARK    2  A    between atoms: C4_4  and  C9_9 
ROOT
HETATM    1  C1  UNL     1     -33.413  16.207  -5.006  1.00 20.00    -0.003 C 
HETATM    2  C2  UNL     1     -33.691  17.373  -4.410  1.00 20.00     0.131 C 
HETATM    3  C5  UNL     1     -33.544  14.905  -4.284  1.00 20.00     0.032 C 
HETATM    4  C6  UNL     1     -34.325  15.088  -2.984  1.00 20.00     0.040 C 
HETATM    5  C7  UNL     1     -33.882  16.371  -2.290  1.00 20.00     0.151 C 
HETATM    6  O10 UNL     1     -34.069  17.535  -3.101  1.00 20.00    -0.354 OA
ENDROOT
BRANCH   5   7
HETATM    7  C3  UNL     1     -34.715  16.632  -1.079  1.00 20.00     0.009 C 
HETATM    8  C4  UNL     1     -34.450  17.481  -0.066  1.00 20.00    -0.071 C 
HETATM    9  C8  UNL     1     -33.187  18.302  -0.075  1.00 20.00     0.044 C 
BRANCH   8  10
HETATM   10  C9  UNL     1     -35.324  17.660   1.145  1.00 20.00     0.148 C 
HETATM   11 CL11 UNL     1     -34.355  18.191   2.536  1.00 20.00    -0.126 Cl
ENDBRANCH   8  10
ENDBRANCH   5   7
TORSDOF 2
ENDMDL
MODEL 7
REMARK VINA RESULT:      -4.5     10.958     11.854
REMARK  2 active torsions:
REMARK  status: ('A' for Active; 'I' for Inactive)
REMARK    1  A    between atoms: C3_3  and  C7_7 
REMARK    2  A    between atoms: C4_4  and  C9_9 
ROOT
HETATM    1  C1  UNL     1     -35.543  13.625  -4.713  1.00 20.00    -0.003 C 
HETATM    2  C2  UNL     1     -36.422  14.379  -4.042  1.00 20.00     0.131 C 
HETATM    3  C5  UNL     1     -34.080  13.662  -4.406  1.00 20.00     0.032 C 
HETATM    4  C6  UNL     1     -33.828  14.372  -3.078  1.00 20.00     0.040 C 
HETATM    5  C7  UNL     1     -34.722  15.603  -2.970  1.00 20.00     0.151 C 
HETATM    6  O10 UNL     1     -36.115  15.288  -3.061  1.00 20.00    -0.354 OA
ENDROOT
BRANCH   5   7
HETATM    7  C3  UNL     1     -34.579  16.244  -1.630  1.00 20.00     0.009 C 
HETATM    8  C4  UNL     1     -34.116  17.479  -1.355  1.00 20.00    -0.071 C 
HETATM    9  C8  UNL     1     -33.667  18.388  -2.470  1.00 20.00     0.044 C 
BRANCH   8  10
HETATM   10  C9  UNL     1     -33.964  18.042   0.032  1.00 20.00     0.148 C 
HETATM   11 CL11 UNL     1     -35.176  17.340   1.124  1.00 20.00    -0.126 Cl
ENDBRANCH   8  10
ENDBRANCH   5   7
TORSDOF 2
ENDMDL
MODEL 8
REMARK VINA RESULT:      -4.4     10.514     11.822
REMARK  2 active torsions:
REMARK  status: ('A' for Active; 'I' for Inactive)
REMARK    1  A    between atoms: C3_3  and  C7_7 
REMARK    2  A    between atoms: C4_4  and  C9_9 
ROOT
HETATM    1  C1  UNL     1     -41.117   6.859  -1.193  1.00 20.00    -0.003 C 
HETATM    2  C2  UNL     1     -40.896   5.713  -0.535  1.00 20.00     0.131 C 
HETATM    3  C5  UNL     1     -41.950   6.904  -2.434  1.00 20.00     0.032 C 
HETATM    4  C6  UNL     1     -42.731   5.602  -2.604  1.00 20.00     0.040 C 
HETATM    5  C7  UNL     1     -41.841   4.415  -2.255  1.00 20.00     0.151 C 
HETATM    6  O10 UNL     1     -41.337   4.472  -0.916  1.00 20.00    -0.354 OA
ENDROOT
BRANCH   5   7
HETATM    7  C3  UNL     1     -42.618   3.141  -2.298  1.00 20.00     0.009 C 
HETATM    8  C4  UNL     1     -42.336   2.029  -3.005  1.00 20.00    -0.071 C 
HETATM    9  C8  UNL     1     -41.111   1.977  -3.881  1.00 20.00     0.044 C 
BRANCH   8  10
HETATM   10  C9  UNL     1     -43.193   0.794  -3.029  1.00 20.00     0.148 C 
HETATM   11 CL11 UNL     1     -42.217  -0.634  -3.434  1.00 20.00    -0.126 Cl
ENDBRANCH   8  10
ENDBRANCH   5   7
TORSDOF 2
ENDMDL
MODEL 9
REMARK VINA RESULT:      -4.4     11.192     12.232
REMARK  2 active torsions:
REMARK  status: ('A' for Active; 'I' for Inactive)
REMARK    1  A    between atoms: C3_3  and  C7_7 
REMARK    2  A    between atoms: C4_4  and  C9_9 
ROOT
HETATM    1  C1  UNL     1     -34.793  13.757  -5.787  1.00 20.00    -0.003 C 
HETATM    2  C2  UNL     1     -34.880  13.253  -4.550  1.00 20.00     0.131 C 
HETATM    3  C5  UNL     1     -34.485  15.200  -6.028  1.00 20.00     0.032 C 
HETATM    4  C6  UNL     1     -33.978  15.862  -4.748  1.00 20.00     0.040 C 
HETATM    5  C7  UNL     1     -34.801  15.385  -3.557  1.00 20.00     0.151 C 
HETATM    6  O10 UNL     1     -34.756  13.965  -3.383  1.00 20.00    -0.354 OA
ENDROOT
BRANCH   5   7
HETATM    7  C3  UNL     1     -34.246  15.926  -2.280  1.00 20.00     0.009 C 
HETATM    8  C4  UNL     1     -34.676  16.998  -1.586  1.00 20.00    -0.071 C 
HETATM    9  C8  UNL     1     -35.848  17.803  -2.083  1.00 20.00     0.044 C 
BRANCH   8  10
HETATM   10  C9  UNL     1     -34.036  17.506  -0.324  1.00 20.00     0.148 C 
HETATM   11 CL11 UNL     1     -35.171  17.391   1.038  1.00 20.00    -0.126 Cl
ENDBRANCH   8  10
ENDBRANCH   5   7
TORSDOF 2
ENDMDL
