MODEL 1
REMARK VINA RESULT:      -4.7      0.000      0.000
REMARK  3 active torsions:
REMARK  status: ('A' for Active; 'I' for Inactive)
REMARK    1  A    between atoms: C1_1  and  C8_8 
REMARK    2  A    between atoms: C2_2  and  C3_3 
REMARK    3  A    between atoms: C3_3  and  C9_9 
ROOT
HETATM    1  C1  UNL     1     -33.045   6.948   4.372  1.00 20.00    -0.012 C 
HETATM    2  C3  UNL     1     -33.869   6.221   5.152  1.00 20.00    -0.020 C 
ENDROOT
BRANCH   2   3
HETATM    3  C2  UNL     1     -33.927   6.686   6.571  1.00 20.00     0.265 C 
HETATM    4  O10 UNL     1     -33.173   7.522   7.049  1.00 20.00    -0.302 OA
ENDBRANCH   2   3
BRANCH   2   5
HETATM    5  C9  UNL     1     -34.699   5.026   4.724  1.00 20.00     0.013 C 
HETATM    6  C6  UNL     1     -35.163   4.187   5.919  1.00 20.00     0.015 C 
HETATM    7  C7  UNL     1     -35.881   5.427   3.838  1.00 20.00     0.015 C 
ENDBRANCH   2   5
BRANCH   1   8
HETATM    8  C8  UNL     1     -32.743   6.758   2.903  1.00 20.00     0.001 C 
HETATM    9  C4  UNL     1     -32.036   7.996   2.351  1.00 20.00     0.013 C 
HETATM   10  C5  UNL     1     -31.877   5.513   2.707  1.00 20.00     0.013 C 
ENDBRANCH   1   8
TORSDOF 3
ENDMDL
MODEL 2
REMARK VINA RESULT:      -4.4     11.459     12.719
REMARK  3 active torsions:
REMARK  status: ('A' for Active; 'I' for Inactive)
REMARK    1  A    between atoms: C1_1  and  C8_8 
REMARK    2  A    between atoms: C2_2  and  C3_3 
REMARK    3  A    between atoms: C3_3  and  C9_9 
ROOT
HETATM    1  C1  UNL     1     -35.494  16.131  -2.580  1.00 20.00    -0.012 C 
HETATM    2  C3  UNL     1     -35.507  15.362  -3.686  1.00 20.00    -0.020 C 
ENDROOT
BRANCH   2   3
HETATM    3  C2  UNL     1     -36.879  15.022  -4.171  1.00 20.00     0.265 C 
HETATM    4  O10 UNL     1     -37.538  14.078  -3.755  1.00 20.00    -0.302 OA
ENDBRANCH   2   3
BRANCH   2   5
HETATM    5  C9  UNL     1     -34.300  14.841  -4.441  1.00 20.00     0.013 C 
HETATM    6  C6  UNL     1     -33.740  13.557  -3.820  1.00 20.00     0.015 C 
HETATM    7  C7  UNL     1     -34.582  14.656  -5.934  1.00 20.00     0.015 C 
ENDBRANCH   2   5
BRANCH   1   8
HETATM    8  C8  UNL     1     -34.294  16.654  -1.823  1.00 20.00     0.001 C 
HETATM    9  C4  UNL     1     -33.791  17.945  -2.470  1.00 20.00     0.013 C 
HETATM   10  C5  UNL     1     -34.668  16.898  -0.360  1.00 20.00     0.013 C 
ENDBRANCH   1   8
TORSDOF 3
ENDMDL
MODEL 3
REMARK VINA RESULT:      -4.3     11.742     13.199
REMARK  3 active torsions:
REMARK  status: ('A' for Active; 'I' for Inactive)
REMARK    1  A    between atoms: C1_1  and  C8_8 
REMARK    2  A    between atoms: C2_2  and  C3_3 
REMARK    3  A    between atoms: C3_3  and  C9_9 
ROOT
HETATM    1  C1  UNL     1     -34.637  15.185  -3.061  1.00 20.00    -0.012 C 
HETATM    2  C3  UNL     1     -34.442  14.873  -4.357  1.00 20.00    -0.020 C 
ENDROOT
BRANCH   2   3
HETATM    3  C2  UNL     1     -34.187  13.420  -4.599  1.00 20.00     0.265 C 
HETATM    4  O10 UNL     1     -35.006  12.536  -4.383  1.00 20.00    -0.302 OA
ENDBRANCH   2   3
BRANCH   2   5
HETATM    5  C9  UNL     1     -34.459  15.832  -5.531  1.00 20.00     0.013 C 
HETATM    6  C6  UNL     1     -33.320  16.854  -5.460  1.00 20.00     0.015 C 
HETATM    7  C7  UNL     1     -34.463  15.103  -6.877  1.00 20.00     0.015 C 
ENDBRANCH   2   5
BRANCH   1   8
HETATM    8  C8  UNL     1     -34.913  16.545  -2.462  1.00 20.00     0.001 C 
HETATM    9  C4  UNL     1     -36.370  16.939  -2.708  1.00 20.00     0.013 C 
HETATM   10  C5  UNL     1     -34.610  16.524  -0.963  1.00 20.00     0.013 C 
ENDBRANCH   1   8
TORSDOF 3
ENDMDL
MODEL 4
REMARK VINA RESULT:      -4.3     11.630     13.035
REMARK  3 active torsions:
REMARK  status: ('A' for Active; 'I' for Inactive)
REMARK    1  A    between atoms: C1_1  and  C8_8 
REMARK    2  A    between atoms: C2_2  and  C3_3 
REMARK    3  A    between atoms: C3_3  and  C9_9 
ROOT
HETATM    1  C1  UNL     1     -34.414  15.349  -2.798  1.00 20.00    -0.012 C 
HETATM    2  C3  UNL     1     -34.581  14.923  -4.066  1.00 20.00    -0.020 C 
ENDROOT
BRANCH   2   3
HETATM    3  C2  UNL     1     -34.157  13.508  -4.291  1.00 20.00     0.265 C 
HETATM    4  O10 UNL     1     -34.935  12.582  -4.478  1.00 20.00    -0.302 OA
ENDBRANCH   2   3
BRANCH   2   5
HETATM    5  C9  UNL     1     -35.139  15.728  -5.224  1.00 20.00     0.013 C 
HETATM    6  C6  UNL     1     -34.368  15.479  -6.525  1.00 20.00     0.015 C 
HETATM    7  C7  UNL     1     -36.640  15.502  -5.420  1.00 20.00     0.015 C 
ENDBRANCH   2   5
BRANCH   1   8
HETATM    8  C8  UNL     1     -34.729  16.711  -2.223  1.00 20.00     0.001 C 
HETATM    9  C4  UNL     1     -34.673  16.658  -0.696  1.00 20.00     0.013 C 
HETATM   10  C5  UNL     1     -33.737  17.744  -2.760  1.00 20.00     0.013 C 
ENDBRANCH   1   8
TORSDOF 3
ENDMDL
MODEL 5
REMARK VINA RESULT:      -4.1     11.829     13.045
REMARK  3 active torsions:
REMARK  status: ('A' for Active; 'I' for Inactive)
REMARK    1  A    between atoms: C1_1  and  C8_8 
REMARK    2  A    between atoms: C2_2  and  C3_3 
REMARK    3  A    between atoms: C3_3  and  C9_9 
ROOT
HETATM    1  C1  UNL     1     -33.619  17.097  -2.547  1.00 20.00    -0.012 C 
HETATM    2  C3  UNL     1     -33.759  16.099  -3.442  1.00 20.00    -0.020 C 
ENDROOT
BRANCH   2   3
HETATM    3  C2  UNL     1     -33.174  16.402  -4.784  1.00 20.00     0.265 C 
HETATM    4  O10 UNL     1     -33.432  17.407  -5.433  1.00 20.00    -0.302 OA
ENDBRANCH   2   3
BRANCH   2   5
HETATM    5  C9  UNL     1     -34.430  14.760  -3.206  1.00 20.00     0.013 C 
HETATM    6  C6  UNL     1     -35.894  14.759  -3.657  1.00 20.00     0.015 C 
HETATM    7  C7  UNL     1     -33.656  13.602  -3.841  1.00 20.00     0.015 C 
ENDBRANCH   2   5
BRANCH   1   8
HETATM    8  C8  UNL     1     -34.091  17.135  -1.112  1.00 20.00     0.001 C 
HETATM    9  C4  UNL     1     -33.206  18.078  -0.296  1.00 20.00     0.013 C 
HETATM   10  C5  UNL     1     -35.551  17.587  -1.056  1.00 20.00     0.013 C 
ENDBRANCH   1   8
TORSDOF 3
ENDMDL
MODEL 6
REMARK VINA RESULT:      -4.1     11.566     13.264
REMARK  3 active torsions:
REMARK  status: ('A' for Active; 'I' for Inactive)
REMARK    1  A    between atoms: C1_1  and  C8_8 
REMARK    2  A    between atoms: C2_2  and  C3_3 
REMARK    3  A    between atoms: C3_3  and  C9_9 
ROOT
HETATM    1  C1  UNL     1     -35.685  15.428  -5.409  1.00 20.00    -0.012 C 
HETATM    2  C3  UNL     1     -35.702  15.073  -4.110  1.00 20.00    -0.020 C 
ENDROOT
BRANCH   2   3
HETATM    3  C2  UNL     1     -37.072  15.017  -3.514  1.00 20.00     0.265 C 
HETATM    4  O10 UNL     1     -37.903  14.161  -3.788  1.00 20.00    -0.302 OA
ENDBRANCH   2   3
BRANCH   2   5
HETATM    5  C9  UNL     1     -34.500  14.742  -3.246  1.00 20.00     0.013 C 
HETATM    6  C6  UNL     1     -33.632  13.640  -3.861  1.00 20.00     0.015 C 
HETATM    7  C7  UNL     1     -33.665  15.981  -2.913  1.00 20.00     0.015 C 
ENDBRANCH   2   5
BRANCH   1   8
HETATM    8  C8  UNL     1     -34.487  15.588  -6.316  1.00 20.00     0.001 C 
HETATM    9  C4  UNL     1     -34.723  14.842  -7.630  1.00 20.00     0.013 C 
HETATM   10  C5  UNL     1     -34.229  17.072  -6.582  1.00 20.00     0.013 C 
ENDBRANCH   1   8
TORSDOF 3
ENDMDL
MODEL 7
REMARK VINA RESULT:      -4.0     11.408     12.946
REMARK  3 active torsions:
REMARK  status: ('A' for Active; 'I' for Inactive)
REMARK    1  A    between atoms: C1_1  and  C8_8 
REMARK    2  A    between atoms: C2_2  and  C3_3 
REMARK    3  A    between atoms: C3_3  and  C9_9 
ROOT
HETATM    1  C1  UNL     1     -36.703  14.568  -3.977  1.00 20.00    -0.012 C 
HETATM    2  C3  UNL     1     -35.389  14.691  -3.709  1.00 20.00    -0.020 C 
ENDROOT
BRANCH   2   3
HETATM    3  C2  UNL     1     -34.617  13.420  -3.867  1.00 20.00     0.265 C 
HETATM    4  O10 UNL     1     -34.794  12.620  -4.776  1.00 20.00    -0.302 OA
ENDBRANCH   2   3
BRANCH   2   5
HETATM    5  C9  UNL     1     -34.666  15.953  -3.281  1.00 20.00     0.013 C 
HETATM    6  C6  UNL     1     -34.668  16.133  -1.760  1.00 20.00     0.015 C 
HETATM    7  C7  UNL     1     -33.245  16.029  -3.845  1.00 20.00     0.015 C 
ENDBRANCH   2   5
BRANCH   1   8
HETATM    8  C8  UNL     1     -37.770  15.637  -3.915  1.00 20.00     0.001 C 
HETATM    9  C4  UNL     1     -37.795  16.426  -5.225  1.00 20.00     0.013 C 
HETATM   10  C5  UNL     1     -39.133  14.998  -3.649  1.00 20.00     0.013 C 
ENDBRANCH   1   8
TORSDOF 3
ENDMDL
MODEL 8
REMARK VINA RESULT:      -3.9      1.836      2.768
REMARK  3 active torsions:
REMARK  status: ('A' for Active; 'I' for Inactive)
REMARK    1  A    between atoms: C1_1  and  C8_8 
REMARK    2  A    between atoms: C2_2  and  C3_3 
REMARK    3  A    between atoms: C3_3  and  C9_9 
ROOT
HETATM    1  C1  UNL     1     -33.851   6.393   3.238  1.00 20.00    -0.012 C 
HETATM    2  C3  UNL     1     -34.562   5.766   4.196  1.00 20.00    -0.020 C 
ENDROOT
BRANCH   2   3
HETATM    3  C2  UNL     1     -35.951   5.405   3.781  1.00 20.00     0.265 C 
HETATM    4  O10 UNL     1     -36.686   6.140   3.135  1.00 20.00    -0.302 OA
ENDBRANCH   2   3
BRANCH   2   5
HETATM    5  C9  UNL     1     -34.086   5.416   5.593  1.00 20.00     0.013 C 
HETATM    6  C6  UNL     1     -33.983   6.650   6.495  1.00 20.00     0.015 C 
HETATM    7  C7  UNL     1     -34.943   4.326   6.242  1.00 20.00     0.015 C 
ENDBRANCH   2   5
BRANCH   1   8
HETATM    8  C8  UNL     1     -32.429   6.900   3.314  1.00 20.00     0.001 C 
HETATM    9  C4  UNL     1     -31.452   5.752   3.057  1.00 20.00     0.013 C 
HETATM   10  C5  UNL     1     -32.221   8.021   2.295  1.00 20.00     0.013 C 
ENDBRANCH   1   8
TORSDOF 3
ENDMDL
MODEL 9
REMARK VINA RESULT:      -3.9      9.796     11.692
REMARK  3 active torsions:
REMARK  status: ('A' for Active; 'I' for Inactive)
REMARK    1  A    between atoms: C1_1  and  C8_8 
REMARK    2  A    between atoms: C2_2  and  C3_3 
REMARK    3  A    between atoms: C3_3  and  C9_9 
ROOT
HETATM    1  C1  UNL     1     -42.612   3.819  -2.978  1.00 20.00    -0.012 C 
HETATM    2  C3  UNL     1     -42.343   4.912  -2.238  1.00 20.00    -0.020 C 
ENDROOT
BRANCH   2   3
HETATM    3  C2  UNL     1     -43.021   6.153  -2.721  1.00 20.00     0.265 C 
HETATM    4  O10 UNL     1     -43.218   6.410  -3.901  1.00 20.00    -0.302 OA
ENDBRANCH   2   3
BRANCH   2   5
HETATM    5  C9  UNL     1     -41.452   4.979  -1.013  1.00 20.00     0.013 C 
HETATM    6  C6  UNL     1     -40.854   6.374  -0.808  1.00 20.00     0.015 C 
HETATM    7  C7  UNL     1     -42.163   4.491   0.252  1.00 20.00     0.015 C 
ENDBRANCH   2   5
BRANCH   1   8
HETATM    8  C8  UNL     1     -42.098   2.411  -2.782  1.00 20.00     0.001 C 
HETATM    9  C4  UNL     1     -43.268   1.457  -2.536  1.00 20.00     0.013 C 
HETATM   10  C5  UNL     1     -41.298   1.973  -4.010  1.00 20.00     0.013 C 
ENDBRANCH   1   8
TORSDOF 3
ENDMDL
