MODEL 1
REMARK VINA RESULT:      -4.3      0.000      0.000
REMARK  2 active torsions:
REMARK  status: ('A' for Active; 'I' for Inactive)
REMARK    1  A    between atoms: C3_3  and  C8_8 
REMARK    2  A    between atoms: C4_4  and  C9_9 
ROOT
HETATM    1  C1  UNL     1     -34.302  13.788  -3.552  1.00 20.00     0.034 C 
HETATM    2  C2  UNL     1     -34.733  13.282  -4.913  1.00 20.00     0.168 C 
HETATM    3  C3  UNL     1     -34.466  15.285  -3.712  1.00 20.00     0.031 C 
HETATM    4  C4  UNL     1     -33.981  15.479  -5.145  1.00 20.00     0.134 C 
HETATM    5  O10 UNL     1     -34.398  14.304  -5.864  1.00 20.00    -0.385 OA
ENDROOT
BRANCH   4   6
HETATM    6  C9  UNL     1     -34.548  16.712  -5.824  1.00 20.00    -0.025 C 
HETATM    7  C5  UNL     1     -35.934  17.049  -5.239  1.00 20.00     0.017 C 
HETATM    8  C6  UNL     1     -34.693  16.464  -7.338  1.00 20.00     0.017 C 
HETATM    9  C7  UNL     1     -33.609  17.916  -5.604  1.00 20.00     0.017 C 
ENDBRANCH   4   6
BRANCH   3  10
HETATM   10  C8  UNL     1     -33.698  16.096  -2.682  1.00 20.00     0.121 C 
HETATM   11 CL11 UNL     1     -34.683  16.337  -1.226  1.00 20.00    -0.130 Cl
ENDBRANCH   3  10
TORSDOF 2
ENDMDL
MODEL 2
REMARK VINA RESULT:      -4.2      1.876      3.110
REMARK  2 active torsions:
REMARK  status: ('A' for Active; 'I' for Inactive)
REMARK    1  A    between atoms: C3_3  and  C8_8 
REMARK    2  A    between atoms: C4_4  and  C9_9 
ROOT
HETATM    1  C1  UNL     1     -37.471  16.214  -3.221  1.00 20.00     0.034 C 
HETATM    2  C2  UNL     1     -37.931  14.923  -3.866  1.00 20.00     0.168 C 
HETATM    3  C3  UNL     1     -36.021  16.275  -3.652  1.00 20.00     0.031 C 
HETATM    4  C4  UNL     1     -35.623  14.806  -3.544  1.00 20.00     0.134 C 
HETATM    5  O10 UNL     1     -36.791  14.054  -3.924  1.00 20.00    -0.385 OA
ENDROOT
BRANCH   4   6
HETATM    6  C9  UNL     1     -34.461  14.417  -4.439  1.00 20.00    -0.025 C 
HETATM    7  C5  UNL     1     -33.144  14.444  -3.639  1.00 20.00     0.017 C 
HETATM    8  C6  UNL     1     -34.348  15.403  -5.618  1.00 20.00     0.017 C 
HETATM    9  C7  UNL     1     -34.675  12.996  -4.997  1.00 20.00     0.017 C 
ENDBRANCH   4   6
BRANCH   3  10
HETATM   10  C8  UNL     1     -35.173  17.210  -2.807  1.00 20.00     0.121 C 
HETATM   11 CL11 UNL     1     -34.780  16.452  -1.251  1.00 20.00    -0.130 Cl
ENDBRANCH   3  10
TORSDOF 2
ENDMDL
MODEL 3
REMARK VINA RESULT:      -4.2      1.875      3.080
REMARK  2 active torsions:
REMARK  status: ('A' for Active; 'I' for Inactive)
REMARK    1  A    between atoms: C3_3  and  C8_8 
REMARK    2  A    between atoms: C4_4  and  C9_9 
ROOT
HETATM    1  C1  UNL     1     -37.468  16.213  -3.220  1.00 20.00     0.034 C 
HETATM    2  C2  UNL     1     -37.927  14.921  -3.864  1.00 20.00     0.168 C 
HETATM    3  C3  UNL     1     -36.017  16.274  -3.651  1.00 20.00     0.031 C 
HETATM    4  C4  UNL     1     -35.619  14.806  -3.542  1.00 20.00     0.134 C 
HETATM    5  O10 UNL     1     -36.787  14.053  -3.921  1.00 20.00    -0.385 OA
ENDROOT
BRANCH   4   6
HETATM    6  C9  UNL     1     -34.457  14.417  -4.438  1.00 20.00    -0.025 C 
HETATM    7  C5  UNL     1     -34.672  12.997  -4.998  1.00 20.00     0.017 C 
HETATM    8  C6  UNL     1     -33.140  14.443  -3.637  1.00 20.00     0.017 C 
HETATM    9  C7  UNL     1     -34.343  15.405  -5.616  1.00 20.00     0.017 C 
ENDBRANCH   4   6
BRANCH   3  10
HETATM   10  C8  UNL     1     -35.169  17.210  -2.808  1.00 20.00     0.121 C 
HETATM   11 CL11 UNL     1     -34.778  16.455  -1.250  1.00 20.00    -0.130 Cl
ENDBRANCH   3  10
TORSDOF 2
ENDMDL
MODEL 4
REMARK VINA RESULT:      -4.1      1.495      2.114
REMARK  2 active torsions:
REMARK  status: ('A' for Active; 'I' for Inactive)
REMARK    1  A    between atoms: C3_3  and  C8_8 
REMARK    2  A    between atoms: C4_4  and  C9_9 
ROOT
HETATM    1  C1  UNL     1     -33.676  13.829  -3.773  1.00 20.00     0.034 C 
HETATM    2  C2  UNL     1     -34.477  13.137  -4.856  1.00 20.00     0.168 C 
HETATM    3  C3  UNL     1     -34.597  14.968  -3.387  1.00 20.00     0.031 C 
HETATM    4  C4  UNL     1     -35.151  15.368  -4.751  1.00 20.00     0.134 C 
HETATM    5  O10 UNL     1     -35.266  14.146  -5.503  1.00 20.00    -0.385 OA
ENDROOT
BRANCH   4   6
HETATM    6  C9  UNL     1     -36.506  16.049  -4.686  1.00 20.00    -0.025 C 
HETATM    7  C5  UNL     1     -37.267  15.841  -6.010  1.00 20.00     0.017 C 
HETATM    8  C6  UNL     1     -36.328  17.561  -4.446  1.00 20.00     0.017 C 
HETATM    9  C7  UNL     1     -37.342  15.457  -3.534  1.00 20.00     0.017 C 
ENDBRANCH   4   6
BRANCH   3  10
HETATM   10  C8  UNL     1     -33.897  16.094  -2.647  1.00 20.00     0.121 C 
HETATM   11 CL11 UNL     1     -34.674  16.379  -1.077  1.00 20.00    -0.130 Cl
ENDBRANCH   3  10
TORSDOF 2
ENDMDL
MODEL 5
REMARK VINA RESULT:      -4.1      2.422      4.094
REMARK  2 active torsions:
REMARK  status: ('A' for Active; 'I' for Inactive)
REMARK    1  A    between atoms: C3_3  and  C8_8 
REMARK    2  A    between atoms: C4_4  and  C9_9 
ROOT
HETATM    1  C1  UNL     1     -34.886  17.386  -6.372  1.00 20.00     0.034 C 
HETATM    2  C2  UNL     1     -33.609  17.832  -5.690  1.00 20.00     0.168 C 
HETATM    3  C3  UNL     1     -35.292  16.199  -5.524  1.00 20.00     0.031 C 
HETATM    4  C4  UNL     1     -33.933  15.565  -5.244  1.00 20.00     0.134 C 
HETATM    5  O10 UNL     1     -33.005  16.659  -5.126  1.00 20.00    -0.385 OA
ENDROOT
BRANCH   4   6
HETATM    6  C9  UNL     1     -33.894  14.733  -3.974  1.00 20.00    -0.025 C 
HETATM    7  C5  UNL     1     -32.438  14.562  -3.498  1.00 20.00     0.017 C 
HETATM    8  C6  UNL     1     -34.500  13.340  -4.235  1.00 20.00     0.017 C 
HETATM    9  C7  UNL     1     -34.704  15.428  -2.861  1.00 20.00     0.017 C 
ENDBRANCH   4   6
BRANCH   3  10
HETATM   10  C8  UNL     1     -36.281  15.271  -6.207  1.00 20.00     0.121 C 
HETATM   11 CL11 UNL     1     -35.500  14.420  -7.555  1.00 20.00    -0.130 Cl
ENDBRANCH   3  10
TORSDOF 2
ENDMDL
MODEL 6
REMARK VINA RESULT:      -4.1      2.458      4.136
REMARK  2 active torsions:
REMARK  status: ('A' for Active; 'I' for Inactive)
REMARK    1  A    between atoms: C3_3  and  C8_8 
REMARK    2  A    between atoms: C4_4  and  C9_9 
ROOT
HETATM    1  C1  UNL     1     -34.848  17.444  -6.419  1.00 20.00     0.034 C 
HETATM    2  C2  UNL     1     -33.601  17.870  -5.672  1.00 20.00     0.168 C 
HETATM    3  C3  UNL     1     -35.264  16.210  -5.648  1.00 20.00     0.031 C 
HETATM    4  C4  UNL     1     -33.907  15.579  -5.354  1.00 20.00     0.134 C 
HETATM    5  O10 UNL     1     -32.999  16.677  -5.148  1.00 20.00    -0.385 OA
ENDROOT
BRANCH   4   6
HETATM    6  C9  UNL     1     -33.899  14.683  -4.128  1.00 20.00    -0.025 C 
HETATM    7  C5  UNL     1     -34.842  15.251  -3.050  1.00 20.00     0.017 C 
HETATM    8  C6  UNL     1     -32.474  14.593  -3.548  1.00 20.00     0.017 C 
HETATM    9  C7  UNL     1     -34.373  13.265  -4.507  1.00 20.00     0.017 C 
ENDBRANCH   4   6
BRANCH   3  10
HETATM   10  C8  UNL     1     -36.216  15.305  -6.412  1.00 20.00     0.121 C 
HETATM   11 CL11 UNL     1     -35.363  14.492  -7.739  1.00 20.00    -0.130 Cl
ENDBRANCH   3  10
TORSDOF 2
ENDMDL
MODEL 7
REMARK VINA RESULT:      -4.0      1.617      3.139
REMARK  2 active torsions:
REMARK  status: ('A' for Active; 'I' for Inactive)
REMARK    1  A    between atoms: C3_3  and  C8_8 
REMARK    2  A    between atoms: C4_4  and  C9_9 
ROOT
HETATM    1  C1  UNL     1     -33.795  18.018  -3.079  1.00 20.00     0.034 C 
HETATM    2  C2  UNL     1     -33.530  18.070  -4.569  1.00 20.00     0.168 C 
HETATM    3  C3  UNL     1     -34.015  16.536  -2.855  1.00 20.00     0.031 C 
HETATM    4  C4  UNL     1     -34.798  16.165  -4.110  1.00 20.00     0.134 C 
HETATM    5  O10 UNL     1     -34.268  16.991  -5.164  1.00 20.00    -0.385 OA
ENDROOT
BRANCH   4   6
HETATM    6  C9  UNL     1     -34.672  14.705  -4.504  1.00 20.00    -0.025 C 
HETATM    7  C5  UNL     1     -35.930  13.928  -4.069  1.00 20.00     0.017 C 
HETATM    8  C6  UNL     1     -33.439  14.078  -3.824  1.00 20.00     0.017 C 
HETATM    9  C7  UNL     1     -34.514  14.581  -6.033  1.00 20.00     0.017 C 
ENDBRANCH   4   6
BRANCH   3  10
HETATM   10  C8  UNL     1     -34.735  16.215  -1.557  1.00 20.00     0.121 C 
HETATM   11 CL11 UNL     1     -34.236  17.341  -0.279  1.00 20.00    -0.130 Cl
ENDBRANCH   3  10
TORSDOF 2
ENDMDL
MODEL 8
REMARK VINA RESULT:      -4.0      2.502      4.206
REMARK  2 active torsions:
REMARK  status: ('A' for Active; 'I' for Inactive)
REMARK    1  A    between atoms: C3_3  and  C8_8 
REMARK    2  A    between atoms: C4_4  and  C9_9 
ROOT
HETATM    1  C1  UNL     1     -33.974  17.579  -6.552  1.00 20.00     0.034 C 
HETATM    2  C2  UNL     1     -33.864  18.380  -5.272  1.00 20.00     0.168 C 
HETATM    3  C3  UNL     1     -34.480  16.246  -6.040  1.00 20.00     0.031 C 
HETATM    4  C4  UNL     1     -33.689  16.114  -4.742  1.00 20.00     0.134 C 
HETATM    5  O10 UNL     1     -33.565  17.451  -4.220  1.00 20.00    -0.385 OA
ENDROOT
BRANCH   4   6
HETATM    6  C9  UNL     1     -34.355  15.228  -3.705  1.00 20.00    -0.025 C 
HETATM    7  C5  UNL     1     -35.858  15.086  -4.017  1.00 20.00     0.017 C 
HETATM    8  C6  UNL     1     -34.193  15.843  -2.301  1.00 20.00     0.017 C 
HETATM    9  C7  UNL     1     -33.710  13.828  -3.714  1.00 20.00     0.017 C 
ENDBRANCH   4   6
BRANCH   3  10
HETATM   10  C8  UNL     1     -34.269  15.099  -7.014  1.00 20.00     0.121 C 
HETATM   11 CL11 UNL     1     -35.830  14.502  -7.612  1.00 20.00    -0.130 Cl
ENDBRANCH   3  10
TORSDOF 2
ENDMDL
MODEL 9
REMARK VINA RESULT:      -4.0      1.540      3.352
REMARK  2 active torsions:
REMARK  status: ('A' for Active; 'I' for Inactive)
REMARK    1  A    between atoms: C3_3  and  C8_8 
REMARK    2  A    between atoms: C4_4  and  C9_9 
ROOT
HETATM    1  C1  UNL     1     -34.399  16.464  -7.147  1.00 20.00     0.034 C 
HETATM    2  C2  UNL     1     -34.792  15.006  -7.261  1.00 20.00     0.168 C 
HETATM    3  C3  UNL     1     -33.830  16.522  -5.745  1.00 20.00     0.031 C 
HETATM    4  C4  UNL     1     -34.790  15.597  -5.004  1.00 20.00     0.134 C 
HETATM    5  O10 UNL     1     -35.142  14.562  -5.941  1.00 20.00    -0.385 OA
ENDROOT
BRANCH   4   6
HETATM    6  C9  UNL     1     -34.194  14.965  -3.758  1.00 20.00    -0.025 C 
HETATM    7  C5  UNL     1     -34.773  15.635  -2.497  1.00 20.00     0.017 C 
HETATM    8  C6  UNL     1     -32.663  15.139  -3.757  1.00 20.00     0.017 C 
HETATM    9  C7  UNL     1     -34.525  13.460  -3.718  1.00 20.00     0.017 C 
ENDBRANCH   4   6
BRANCH   3  10
HETATM   10  C8  UNL     1     -33.760  17.928  -5.174  1.00 20.00     0.121 C 
HETATM   11 CL11 UNL     1     -35.371  18.470  -4.664  1.00 20.00    -0.130 Cl
ENDBRANCH   3  10
TORSDOF 2
ENDMDL
