MODEL 1
REMARK VINA RESULT:      -4.8      0.000      0.000
REMARK  2 active torsions:
REMARK  status: ('A' for Active; 'I' for Inactive)
REMARK    1  A    between atoms: C4_4  and  C5_5 
REMARK    2  A    between atoms: C6_6  and  C7_7 
ROOT
HETATM    1  C1  UNL     1     -34.367   5.573   6.080  1.00 20.00     0.038 A 
HETATM    2  C2  UNL     1     -35.029   4.382   6.270  1.00 20.00     0.142 A 
HETATM    3  C3  UNL     1     -35.015   4.731   4.118  1.00 20.00     0.152 A 
HETATM    4  C4  UNL     1     -34.358   5.800   4.683  1.00 20.00    -0.011 A 
HETATM    5  O10 UNL     1     -35.427   3.862   5.079  1.00 20.00    -0.334 OA
ENDROOT
BRANCH   4   6
HETATM    6  C5  UNL     1     -33.778   6.930   3.949  1.00 20.00     0.023 C 
HETATM    7  C7  UNL     1     -32.650   6.885   3.218  1.00 20.00    -0.024 C 
HETATM    8  C8  UNL     1     -31.775   5.698   2.962  1.00 20.00     0.051 C 
BRANCH   7   9
HETATM    9  C6  UNL     1     -32.250   8.166   2.574  1.00 20.00     0.265 C 
HETATM   10  O9  UNL     1     -31.828   8.233   1.425  1.00 20.00    -0.302 OA
ENDBRANCH   7   9
ENDBRANCH   4   6
TORSDOF 2
ENDMDL
MODEL 2
REMARK VINA RESULT:      -4.7     11.362     12.373
REMARK  2 active torsions:
REMARK  status: ('A' for Active; 'I' for Inactive)
REMARK    1  A    between atoms: C4_4  and  C5_5 
REMARK    2  A    between atoms: C6_6  and  C7_7 
ROOT
HETATM    1  C1  UNL     1     -34.467  16.714  -0.734  1.00 20.00     0.038 A 
HETATM    2  C2  UNL     1     -33.792  17.894  -0.527  1.00 20.00     0.142 A 
HETATM    3  C3  UNL     1     -33.834  17.591  -2.685  1.00 20.00     0.152 A 
HETATM    4  C4  UNL     1     -34.494  16.517  -2.135  1.00 20.00    -0.011 A 
HETATM    5  O10 UNL     1     -33.403  18.435  -1.711  1.00 20.00    -0.334 OA
ENDROOT
BRANCH   4   6
HETATM    6  C5  UNL     1     -35.094  15.408  -2.887  1.00 20.00     0.023 C 
HETATM    7  C7  UNL     1     -34.409  14.440  -3.522  1.00 20.00    -0.024 C 
HETATM    8  C8  UNL     1     -32.924  14.257  -3.576  1.00 20.00     0.051 C 
BRANCH   7   9
HETATM    9  C6  UNL     1     -35.237  13.427  -4.231  1.00 20.00     0.265 C 
HETATM   10  O9  UNL     1     -34.754  12.520  -4.901  1.00 20.00    -0.302 OA
ENDBRANCH   7   9
ENDBRANCH   4   6
TORSDOF 2
ENDMDL
MODEL 3
REMARK VINA RESULT:      -4.6      0.683      1.205
REMARK  2 active torsions:
REMARK  status: ('A' for Active; 'I' for Inactive)
REMARK    1  A    between atoms: C4_4  and  C5_5 
REMARK    2  A    between atoms: C6_6  and  C7_7 
ROOT
HETATM    1  C1  UNL     1     -34.976   4.832   4.385  1.00 20.00     0.038 A 
HETATM    2  C2  UNL     1     -35.280   4.136   5.532  1.00 20.00     0.142 A 
HETATM    3  C3  UNL     1     -34.207   5.921   6.174  1.00 20.00     0.152 A 
HETATM    4  C4  UNL     1     -34.279   5.991   4.802  1.00 20.00    -0.011 A 
HETATM    5  O10 UNL     1     -34.815   4.793   6.626  1.00 20.00    -0.334 OA
ENDROOT
BRANCH   4   6
HETATM    6  C5  UNL     1     -33.729   7.070   3.973  1.00 20.00     0.023 C 
HETATM    7  C7  UNL     1     -32.651   6.965   3.176  1.00 20.00    -0.024 C 
HETATM    8  C8  UNL     1     -31.811   5.750   2.931  1.00 20.00     0.051 C 
BRANCH   7   9
HETATM    9  C6  UNL     1     -32.273   8.203   2.440  1.00 20.00     0.265 C 
HETATM   10  O9  UNL     1     -31.756   8.187   1.328  1.00 20.00    -0.302 OA
ENDBRANCH   7   9
ENDBRANCH   4   6
TORSDOF 2
ENDMDL
MODEL 4
REMARK VINA RESULT:      -4.4     11.464     12.558
REMARK  2 active torsions:
REMARK  status: ('A' for Active; 'I' for Inactive)
REMARK    1  A    between atoms: C4_4  and  C5_5 
REMARK    2  A    between atoms: C6_6  and  C7_7 
ROOT
HETATM    1  C1  UNL     1     -34.545  16.642  -0.839  1.00 20.00     0.038 A 
HETATM    2  C2  UNL     1     -34.704  17.974  -0.534  1.00 20.00     0.142 A 
HETATM    3  C3  UNL     1     -34.059  17.902  -2.614  1.00 20.00     0.152 A 
HETATM    4  C4  UNL     1     -34.125  16.595  -2.189  1.00 20.00    -0.011 A 
HETATM    5  O10 UNL     1     -34.411  18.748  -1.610  1.00 20.00    -0.334 OA
ENDROOT
BRANCH   4   6
HETATM    6  C5  UNL     1     -33.815  15.416  -3.005  1.00 20.00     0.023 C 
HETATM    7  C7  UNL     1     -34.721  14.637  -3.622  1.00 20.00    -0.024 C 
HETATM    8  C8  UNL     1     -36.208  14.812  -3.648  1.00 20.00     0.051 C 
BRANCH   7   9
HETATM    9  C6  UNL     1     -34.166  13.484  -4.383  1.00 20.00     0.265 C 
HETATM   10  O9  UNL     1     -34.855  12.547  -4.771  1.00 20.00    -0.302 OA
ENDBRANCH   7   9
ENDBRANCH   4   6
TORSDOF 2
ENDMDL
MODEL 5
REMARK VINA RESULT:      -4.4     11.258     12.427
REMARK  2 active torsions:
REMARK  status: ('A' for Active; 'I' for Inactive)
REMARK    1  A    between atoms: C4_4  and  C5_5 
REMARK    2  A    between atoms: C6_6  and  C7_7 
ROOT
HETATM    1  C1  UNL     1     -35.337  14.710  -3.870  1.00 20.00     0.038 A 
HETATM    2  C2  UNL     1     -35.119  13.375  -4.117  1.00 20.00     0.142 A 
HETATM    3  C3  UNL     1     -33.161  14.245  -3.719  1.00 20.00     0.152 A 
HETATM    4  C4  UNL     1     -34.066  15.276  -3.612  1.00 20.00    -0.011 A 
HETATM    5  O10 UNL     1     -33.795  13.083  -4.027  1.00 20.00    -0.334 OA
ENDROOT
BRANCH   4   6
HETATM    6  C5  UNL     1     -33.738  16.670  -3.292  1.00 20.00     0.023 C 
HETATM    7  C7  UNL     1     -33.960  17.268  -2.108  1.00 20.00    -0.024 C 
HETATM    8  C8  UNL     1     -34.540  16.656  -0.870  1.00 20.00     0.051 C 
BRANCH   7   9
HETATM    9  C6  UNL     1     -33.555  18.698  -2.025  1.00 20.00     0.265 C 
HETATM   10  O9  UNL     1     -32.656  19.096  -1.292  1.00 20.00    -0.302 OA
ENDBRANCH   7   9
ENDBRANCH   4   6
TORSDOF 2
ENDMDL
MODEL 6
REMARK VINA RESULT:      -4.2     11.286     12.349
REMARK  2 active torsions:
REMARK  status: ('A' for Active; 'I' for Inactive)
REMARK    1  A    between atoms: C4_4  and  C5_5 
REMARK    2  A    between atoms: C6_6  and  C7_7 
ROOT
HETATM    1  C1  UNL     1     -35.540  14.343  -3.853  1.00 20.00     0.038 A 
HETATM    2  C2  UNL     1     -35.167  13.252  -4.604  1.00 20.00     0.142 A 
HETATM    3  C3  UNL     1     -33.353  13.963  -3.626  1.00 20.00     0.152 A 
HETATM    4  C4  UNL     1     -34.362  14.804  -3.219  1.00 20.00    -0.011 A 
HETATM    5  O10 UNL     1     -33.836  13.013  -4.471  1.00 20.00    -0.334 OA
ENDROOT
BRANCH   4   6
HETATM    6  C5  UNL     1     -34.208  15.943  -2.306  1.00 20.00     0.023 C 
HETATM    7  C7  UNL     1     -33.909  17.201  -2.677  1.00 20.00    -0.024 C 
HETATM    8  C8  UNL     1     -33.710  17.720  -4.067  1.00 20.00     0.051 C 
BRANCH   7   9
HETATM    9  C6  UNL     1     -33.790  18.187  -1.568  1.00 20.00     0.265 C 
HETATM   10  O9  UNL     1     -33.060  18.015  -0.598  1.00 20.00    -0.302 OA
ENDBRANCH   7   9
ENDBRANCH   4   6
TORSDOF 2
ENDMDL
MODEL 7
REMARK VINA RESULT:      -4.2      1.049      4.756
REMARK  2 active torsions:
REMARK  status: ('A' for Active; 'I' for Inactive)
REMARK    1  A    between atoms: C4_4  and  C5_5 
REMARK    2  A    between atoms: C6_6  and  C7_7 
ROOT
HETATM    1  C1  UNL     1     -33.260   7.562   2.366  1.00 20.00     0.038 A 
HETATM    2  C2  UNL     1     -32.129   8.319   2.166  1.00 20.00     0.142 A 
HETATM    3  C3  UNL     1     -31.694   7.016   3.858  1.00 20.00     0.152 A 
HETATM    4  C4  UNL     1     -32.978   6.717   3.465  1.00 20.00    -0.011 A 
HETATM    5  O10 UNL     1     -31.170   7.992   3.070  1.00 20.00    -0.334 OA
ENDROOT
BRANCH   4   6
HETATM    6  C5  UNL     1     -33.849   5.713   4.088  1.00 20.00     0.023 C 
HETATM    7  C7  UNL     1     -34.232   5.709   5.377  1.00 20.00    -0.024 C 
HETATM    8  C8  UNL     1     -33.898   6.718   6.432  1.00 20.00     0.051 C 
BRANCH   7   9
HETATM    9  C6  UNL     1     -35.109   4.577   5.783  1.00 20.00     0.265 C 
HETATM   10  O9  UNL     1     -35.085   3.483   5.231  1.00 20.00    -0.302 OA
ENDBRANCH   7   9
ENDBRANCH   4   6
TORSDOF 2
ENDMDL
MODEL 8
REMARK VINA RESULT:      -4.0     11.562     12.342
REMARK  2 active torsions:
REMARK  status: ('A' for Active; 'I' for Inactive)
REMARK    1  A    between atoms: C4_4  and  C5_5 
REMARK    2  A    between atoms: C6_6  and  C7_7 
ROOT
HETATM    1  C1  UNL     1     -33.723  14.121  -3.709  1.00 20.00     0.038 A 
HETATM    2  C2  UNL     1     -34.469  13.388  -4.603  1.00 20.00     0.142 A 
HETATM    3  C3  UNL     1     -35.869  14.718  -3.592  1.00 20.00     0.152 A 
HETATM    4  C4  UNL     1     -34.632  14.984  -3.053  1.00 20.00    -0.011 A 
HETATM    5  O10 UNL     1     -35.778  13.746  -4.538  1.00 20.00    -0.334 OA
ENDROOT
BRANCH   4   6
HETATM    6  C5  UNL     1     -34.352  15.974  -2.006  1.00 20.00     0.023 C 
HETATM    7  C7  UNL     1     -33.939  17.236  -2.220  1.00 20.00    -0.024 C 
HETATM    8  C8  UNL     1     -33.713  17.911  -3.537  1.00 20.00     0.051 C 
BRANCH   7   9
HETATM    9  C6  UNL     1     -33.706  18.052  -0.997  1.00 20.00     0.265 C 
HETATM   10  O9  UNL     1     -34.056  17.693   0.121  1.00 20.00    -0.302 OA
ENDBRANCH   7   9
ENDBRANCH   4   6
TORSDOF 2
ENDMDL
MODEL 9
REMARK VINA RESULT:      -3.8     10.105     11.756
REMARK  2 active torsions:
REMARK  status: ('A' for Active; 'I' for Inactive)
REMARK    1  A    between atoms: C4_4  and  C5_5 
REMARK    2  A    between atoms: C6_6  and  C7_7 
ROOT
HETATM    1  C1  UNL     1     -42.600   5.478  -2.668  1.00 20.00     0.038 A 
HETATM    2  C2  UNL     1     -41.701   6.401  -2.187  1.00 20.00     0.142 A 
HETATM    3  C3  UNL     1     -41.114   4.483  -1.335  1.00 20.00     0.152 A 
HETATM    4  C4  UNL     1     -42.220   4.233  -2.114  1.00 20.00    -0.011 A 
HETATM    5  O10 UNL     1     -40.792   5.803  -1.374  1.00 20.00    -0.334 OA
ENDROOT
BRANCH   4   6
HETATM    6  C5  UNL     1     -42.848   2.921  -2.308  1.00 20.00     0.023 C 
HETATM    7  C7  UNL     1     -42.385   1.948  -3.112  1.00 20.00    -0.024 C 
HETATM    8  C8  UNL     1     -41.138   1.966  -3.942  1.00 20.00     0.051 C 
BRANCH   7   9
HETATM    9  C6  UNL     1     -43.203   0.705  -3.156  1.00 20.00     0.265 C 
HETATM   10  O9  UNL     1     -42.949  -0.286  -2.481  1.00 20.00    -0.302 OA
ENDBRANCH   7   9
ENDBRANCH   4   6
TORSDOF 2
ENDMDL
