MODEL 1
REMARK VINA RESULT:      -4.9      0.000      0.000
REMARK  2 active torsions:
REMARK  status: ('A' for Active; 'I' for Inactive)
REMARK    1  A    between atoms: C5_5  and  C7_7 
REMARK    2  A    between atoms: C7_7  and  C8_8 
ROOT
HETATM    1  C1  UNL     1     -33.503   6.807   6.415  1.00 20.00     0.066 C 
HETATM    2  C2  UNL     1     -35.113   5.061   5.705  1.00 20.00     0.048 C 
HETATM    3  C3  UNL     1     -35.350   4.380   4.375  1.00 20.00     0.169 C 
HETATM    4  C4  UNL     1     -33.754   5.694   5.495  1.00 20.00     0.123 C 
HETATM    5  C5  UNL     1     -33.850   6.136   4.037  1.00 20.00     0.139 C 
HETATM    6  N9  UNL     1     -33.306   7.688   7.143  1.00 20.00    -0.197 NA
HETATM    7  O10 UNL     1     -34.711   5.188   3.378  1.00 20.00    -0.384 OA
ENDROOT
BRANCH   5   8
HETATM    8  C7  UNL     1     -32.509   6.174   3.324  1.00 20.00     0.033 C 
BRANCH   8   9
HETATM    9  C8  UNL     1     -31.927   7.584   3.311  1.00 20.00    -0.002 C 
HETATM   10  C6  UNL     1     -32.071   8.230   1.943  1.00 20.00     0.005 C 
ENDBRANCH   8   9
ENDBRANCH   5   8
TORSDOF 2
ENDMDL
MODEL 2
REMARK VINA RESULT:      -4.5     12.078     13.083
REMARK  2 active torsions:
REMARK  status: ('A' for Active; 'I' for Inactive)
REMARK    1  A    between atoms: C5_5  and  C7_7 
REMARK    2  A    between atoms: C7_7  and  C8_8 
ROOT
HETATM    1  C1  UNL     1     -34.352  13.827  -4.444  1.00 20.00     0.066 C 
HETATM    2  C2  UNL     1     -33.541  15.969  -5.391  1.00 20.00     0.048 C 
HETATM    3  C3  UNL     1     -33.531  17.381  -4.845  1.00 20.00     0.169 C 
HETATM    4  C4  UNL     1     -33.805  15.153  -4.144  1.00 20.00     0.123 C 
HETATM    5  C5  UNL     1     -34.792  16.050  -3.401  1.00 20.00     0.139 C 
HETATM    6  N9  UNL     1     -34.785  12.778  -4.682  1.00 20.00    -0.197 NA
HETATM    7  O10 UNL     1     -34.455  17.406  -3.750  1.00 20.00    -0.384 OA
ENDROOT
BRANCH   5   8
HETATM    8  C7  UNL     1     -34.736  15.895  -1.890  1.00 20.00     0.033 C 
BRANCH   8   9
HETATM    9  C8  UNL     1     -34.052  17.090  -1.234  1.00 20.00    -0.002 C 
HETATM   10  C6  UNL     1     -34.684  17.421   0.109  1.00 20.00     0.005 C 
ENDBRANCH   8   9
ENDBRANCH   5   8
TORSDOF 2
ENDMDL
MODEL 3
REMARK VINA RESULT:      -4.4     11.600     12.765
REMARK  2 active torsions:
REMARK  status: ('A' for Active; 'I' for Inactive)
REMARK    1  A    between atoms: C5_5  and  C7_7 
REMARK    2  A    between atoms: C7_7  and  C8_8 
ROOT
HETATM    1  C1  UNL     1     -34.514  16.484  -1.670  1.00 20.00     0.066 C 
HETATM    2  C2  UNL     1     -34.158  17.673  -3.815  1.00 20.00     0.048 C 
HETATM    3  C3  UNL     1     -33.488  17.259  -5.107  1.00 20.00     0.169 C 
HETATM    4  C4  UNL     1     -34.348  16.343  -3.119  1.00 20.00     0.123 C 
HETATM    5  C5  UNL     1     -33.062  15.616  -3.504  1.00 20.00     0.139 C 
HETATM    6  N9  UNL     1     -34.645  16.596  -0.523  1.00 20.00    -0.197 NA
HETATM    7  O10 UNL     1     -32.687  16.108  -4.805  1.00 20.00    -0.384 OA
ENDROOT
BRANCH   5   8
HETATM    8  C7  UNL     1     -33.213  14.105  -3.566  1.00 20.00     0.033 C 
BRANCH   8   9
HETATM    9  C8  UNL     1     -34.657  13.703  -3.853  1.00 20.00    -0.002 C 
HETATM   10  C6  UNL     1     -34.858  13.373  -5.323  1.00 20.00     0.005 C 
ENDBRANCH   8   9
ENDBRANCH   5   8
TORSDOF 2
ENDMDL
MODEL 4
REMARK VINA RESULT:      -4.4     11.872     12.691
REMARK  2 active torsions:
REMARK  status: ('A' for Active; 'I' for Inactive)
REMARK    1  A    between atoms: C5_5  and  C7_7 
REMARK    2  A    between atoms: C7_7  and  C8_8 
ROOT
HETATM    1  C1  UNL     1     -37.300  14.742  -3.785  1.00 20.00     0.066 C 
HETATM    2  C2  UNL     1     -35.415  15.891  -2.658  1.00 20.00     0.048 C 
HETATM    3  C3  UNL     1     -33.915  15.739  -2.780  1.00 20.00     0.169 C 
HETATM    4  C4  UNL     1     -35.905  15.176  -3.898  1.00 20.00     0.123 C 
HETATM    5  C5  UNL     1     -34.923  14.010  -3.981  1.00 20.00     0.139 C 
HETATM    6  N9  UNL     1     -38.404  14.398  -3.694  1.00 20.00    -0.197 NA
HETATM    7  O10 UNL     1     -33.679  14.483  -3.430  1.00 20.00    -0.384 OA
ENDROOT
BRANCH   5   8
HETATM    8  C7  UNL     1     -34.685  13.515  -5.398  1.00 20.00     0.033 C 
BRANCH   8   9
HETATM    9  C8  UNL     1     -34.567  14.677  -6.379  1.00 20.00    -0.002 C 
HETATM   10  C6  UNL     1     -35.458  14.469  -7.594  1.00 20.00     0.005 C 
ENDBRANCH   8   9
ENDBRANCH   5   8
TORSDOF 2
ENDMDL
MODEL 5
REMARK VINA RESULT:      -4.3     12.250     13.149
REMARK  2 active torsions:
REMARK  status: ('A' for Active; 'I' for Inactive)
REMARK    1  A    between atoms: C5_5  and  C7_7 
REMARK    2  A    between atoms: C7_7  and  C8_8 
ROOT
HETATM    1  C1  UNL     1     -36.693  14.377  -4.243  1.00 20.00     0.066 C 
HETATM    2  C2  UNL     1     -35.619  14.639  -6.461  1.00 20.00     0.048 C 
HETATM    3  C3  UNL     1     -34.265  15.172  -6.877  1.00 20.00     0.169 C 
HETATM    4  C4  UNL     1     -35.426  14.414  -4.977  1.00 20.00     0.123 C 
HETATM    5  C5  UNL     1     -34.554  15.610  -4.602  1.00 20.00     0.139 C 
HETATM    6  N9  UNL     1     -37.697  14.349  -3.663  1.00 20.00    -0.197 NA
HETATM    7  O10 UNL     1     -33.752  15.911  -5.760  1.00 20.00    -0.384 OA
ENDROOT
BRANCH   5   8
HETATM    8  C7  UNL     1     -33.641  15.349  -3.417  1.00 20.00     0.033 C 
BRANCH   8   9
HETATM    9  C8  UNL     1     -33.666  16.512  -2.430  1.00 20.00    -0.002 C 
HETATM   10  C6  UNL     1     -34.756  16.328  -1.385  1.00 20.00     0.005 C 
ENDBRANCH   8   9
ENDBRANCH   5   8
TORSDOF 2
ENDMDL
MODEL 6
REMARK VINA RESULT:      -4.3     12.163     12.967
REMARK  2 active torsions:
REMARK  status: ('A' for Active; 'I' for Inactive)
REMARK    1  A    between atoms: C5_5  and  C7_7 
REMARK    2  A    between atoms: C7_7  and  C8_8 
ROOT
HETATM    1  C1  UNL     1     -34.058  16.839  -5.291  1.00 20.00     0.066 C 
HETATM    2  C2  UNL     1     -34.441  14.433  -5.745  1.00 20.00     0.048 C 
HETATM    3  C3  UNL     1     -34.763  13.267  -4.835  1.00 20.00     0.169 C 
HETATM    4  C4  UNL     1     -34.740  15.618  -4.853  1.00 20.00     0.123 C 
HETATM    5  C5  UNL     1     -34.244  15.111  -3.501  1.00 20.00     0.139 C 
HETATM    6  N9  UNL     1     -33.518  17.805  -5.638  1.00 20.00    -0.197 NA
HETATM    7  O10 UNL     1     -34.444  13.685  -3.501  1.00 20.00    -0.384 OA
ENDROOT
BRANCH   5   8
HETATM    8  C7  UNL     1     -34.978  15.719  -2.318  1.00 20.00     0.033 C 
BRANCH   8   9
HETATM    9  C8  UNL     1     -34.086  16.689  -1.550  1.00 20.00    -0.002 C 
HETATM   10  C6  UNL     1     -34.713  17.086  -0.223  1.00 20.00     0.005 C 
ENDBRANCH   8   9
ENDBRANCH   5   8
TORSDOF 2
ENDMDL
MODEL 7
REMARK VINA RESULT:      -4.2     11.794     12.463
REMARK  2 active torsions:
REMARK  status: ('A' for Active; 'I' for Inactive)
REMARK    1  A    between atoms: C5_5  and  C7_7 
REMARK    2  A    between atoms: C7_7  and  C8_8 
ROOT
HETATM    1  C1  UNL     1     -37.164  14.511  -3.785  1.00 20.00     0.066 C 
HETATM    2  C2  UNL     1     -35.026  13.337  -4.221  1.00 20.00     0.048 C 
HETATM    3  C3  UNL     1     -33.592  13.819  -4.260  1.00 20.00     0.169 C 
HETATM    4  C4  UNL     1     -35.723  14.482  -3.520  1.00 20.00     0.123 C 
HETATM    5  C5  UNL     1     -34.985  15.685  -4.101  1.00 20.00     0.139 C 
HETATM    6  N9  UNL     1     -38.305  14.535  -3.996  1.00 20.00    -0.197 NA
HETATM    7  O10 UNL     1     -33.641  15.247  -4.375  1.00 20.00    -0.384 OA
ENDROOT
BRANCH   5   8
HETATM    8  C7  UNL     1     -34.941  16.881  -3.166  1.00 20.00     0.033 C 
BRANCH   8   9
HETATM    9  C8  UNL     1     -33.957  16.654  -2.022  1.00 20.00    -0.002 C 
HETATM   10  C6  UNL     1     -34.653  16.724  -0.671  1.00 20.00     0.005 C 
ENDBRANCH   8   9
ENDBRANCH   5   8
TORSDOF 2
ENDMDL
MODEL 8
REMARK VINA RESULT:      -4.2     12.078     13.500
REMARK  2 active torsions:
REMARK  status: ('A' for Active; 'I' for Inactive)
REMARK    1  A    between atoms: C5_5  and  C7_7 
REMARK    2  A    between atoms: C7_7  and  C8_8 
ROOT
HETATM    1  C1  UNL     1     -34.926  13.810  -4.220  1.00 20.00     0.066 C 
HETATM    2  C2  UNL     1     -34.261  15.703  -2.766  1.00 20.00     0.048 C 
HETATM    3  C3  UNL     1     -33.783  17.104  -3.079  1.00 20.00     0.169 C 
HETATM    4  C4  UNL     1     -34.845  15.267  -4.092  1.00 20.00     0.123 C 
HETATM    5  C5  UNL     1     -33.862  15.898  -5.075  1.00 20.00     0.139 C 
HETATM    6  N9  UNL     1     -34.990  12.656  -4.321  1.00 20.00    -0.197 NA
HETATM    7  O10 UNL     1     -33.380  17.105  -4.455  1.00 20.00    -0.384 OA
ENDROOT
BRANCH   5   8
HETATM    8  C7  UNL     1     -34.483  16.241  -6.419  1.00 20.00     0.033 C 
BRANCH   8   9
HETATM    9  C8  UNL     1     -34.341  15.087  -7.407  1.00 20.00    -0.002 C 
HETATM   10  C6  UNL     1     -35.699  14.544  -7.823  1.00 20.00     0.005 C 
ENDBRANCH   8   9
ENDBRANCH   5   8
TORSDOF 2
ENDMDL
MODEL 9
REMARK VINA RESULT:      -4.0     11.947     13.149
REMARK  2 active torsions:
REMARK  status: ('A' for Active; 'I' for Inactive)
REMARK    1  A    between atoms: C5_5  and  C7_7 
REMARK    2  A    between atoms: C7_7  and  C8_8 
ROOT
HETATM    1  C1  UNL     1     -35.045  15.023  -6.590  1.00 20.00     0.066 C 
HETATM    2  C2  UNL     1     -37.317  15.282  -5.636  1.00 20.00     0.048 C 
HETATM    3  C3  UNL     1     -37.893  14.941  -4.279  1.00 20.00     0.169 C 
HETATM    4  C4  UNL     1     -35.829  15.223  -5.369  1.00 20.00     0.123 C 
HETATM    5  C5  UNL     1     -35.743  14.043  -4.405  1.00 20.00     0.139 C 
HETATM    6  N9  UNL     1     -34.425  14.863  -7.558  1.00 20.00    -0.197 NA
HETATM    7  O10 UNL     1     -36.973  14.035  -3.656  1.00 20.00    -0.384 OA
ENDROOT
BRANCH   5   8
HETATM    8  C7  UNL     1     -34.572  14.130  -3.440  1.00 20.00     0.033 C 
BRANCH   8   9
HETATM    9  C8  UNL     1     -34.179  15.579  -3.174  1.00 20.00    -0.002 C 
HETATM   10  C6  UNL     1     -34.712  16.060  -1.833  1.00 20.00     0.005 C 
ENDBRANCH   8   9
ENDBRANCH   5   8
TORSDOF 2
ENDMDL
