MODEL 1
REMARK VINA RESULT:      -4.4      0.000      0.000
REMARK  2 active torsions:
REMARK  status: ('A' for Active; 'I' for Inactive)
REMARK    1  A    between atoms: C6_6  and  C8_8 
REMARK    2  A    between atoms: C7_7  and  C9_9 
ROOT
HETATM    1  C1  UNL     1     -34.095  17.010  -6.184  1.00 20.00     0.027 C 
HETATM    2  C4  UNL     1     -34.044  15.551  -5.750  1.00 20.00     0.010 C 
HETATM    3  C5  UNL     1     -34.867  17.838  -5.171  1.00 20.00     0.168 C 
HETATM    4  C7  UNL     1     -33.541  15.421  -4.303  1.00 20.00     0.029 C 
HETATM    5  C8  UNL     1     -34.341  16.363  -3.376  1.00 20.00     0.130 C 
HETATM    6  O10 UNL     1     -34.285  17.706  -3.877  1.00 20.00    -0.385 OA
ENDROOT
BRANCH   5   7
HETATM    7  C6  UNL     1     -33.803  16.390  -1.972  1.00 20.00     0.015 A 
HETATM    8  C2  UNL     1     -33.694  17.692  -1.227  1.00 20.00     0.007 A 
HETATM    9  C3  UNL     1     -34.720  16.673  -0.815  1.00 20.00     0.007 A 
ENDBRANCH   5   7
BRANCH   4  10
HETATM   10  C9  UNL     1     -33.609  13.958  -3.864  1.00 20.00     0.121 C 
HETATM   11 CL11 UNL     1     -35.200  13.281  -4.250  1.00 20.00    -0.130 Cl
ENDBRANCH   4  10
TORSDOF 2
ENDMDL
MODEL 2
REMARK VINA RESULT:      -4.4      2.011      2.757
REMARK  2 active torsions:
REMARK  status: ('A' for Active; 'I' for Inactive)
REMARK    1  A    between atoms: C6_6  and  C8_8 
REMARK    2  A    between atoms: C7_7  and  C9_9 
ROOT
HETATM    1  C1  UNL     1     -33.980  13.667  -3.946  1.00 20.00     0.027 C 
HETATM    2  C4  UNL     1     -35.371  14.250  -4.164  1.00 20.00     0.010 C 
HETATM    3  C5  UNL     1     -32.953  14.778  -3.817  1.00 20.00     0.168 C 
HETATM    4  C7  UNL     1     -35.702  15.304  -3.095  1.00 20.00     0.029 C 
HETATM    5  C8  UNL     1     -34.556  16.336  -2.993  1.00 20.00     0.130 C 
HETATM    6  O10 UNL     1     -33.311  15.663  -2.758  1.00 20.00    -0.385 OA
ENDROOT
BRANCH   5   7
HETATM    7  C6  UNL     1     -34.753  17.312  -1.866  1.00 20.00     0.015 A 
HETATM    8  C2  UNL     1     -34.729  16.837  -0.440  1.00 20.00     0.007 A 
HETATM    9  C3  UNL     1     -33.601  17.677  -0.972  1.00 20.00     0.007 A 
ENDBRANCH   5   7
BRANCH   4  10
HETATM   10  C9  UNL     1     -37.053  15.948  -3.409  1.00 20.00     0.121 C 
HETATM   11 CL11 UNL     1     -38.231  14.703  -3.855  1.00 20.00    -0.130 Cl
ENDBRANCH   4  10
TORSDOF 2
ENDMDL
MODEL 3
REMARK VINA RESULT:      -4.2      2.216      3.588
REMARK  2 active torsions:
REMARK  status: ('A' for Active; 'I' for Inactive)
REMARK    1  A    between atoms: C6_6  and  C8_8 
REMARK    2  A    between atoms: C7_7  and  C9_9 
ROOT
HETATM    1  C1  UNL     1     -34.125  18.317  -4.581  1.00 20.00     0.027 C 
HETATM    2  C4  UNL     1     -34.170  18.053  -3.082  1.00 20.00     0.010 C 
HETATM    3  C5  UNL     1     -33.350  17.219  -5.290  1.00 20.00     0.168 C 
HETATM    4  C7  UNL     1     -34.666  16.628  -2.786  1.00 20.00     0.029 C 
HETATM    5  C8  UNL     1     -33.864  15.603  -3.618  1.00 20.00     0.130 C 
HETATM    6  O10 UNL     1     -33.925  15.946  -5.009  1.00 20.00    -0.385 OA
ENDROOT
BRANCH   5   7
HETATM    7  C6  UNL     1     -34.396  14.203  -3.482  1.00 20.00     0.015 A 
HETATM    8  C2  UNL     1     -35.663  13.802  -4.185  1.00 20.00     0.007 A 
HETATM    9  C3  UNL     1     -34.341  13.256  -4.648  1.00 20.00     0.007 A 
ENDBRANCH   5   7
BRANCH   4  10
HETATM   10  C9  UNL     1     -34.593  16.360  -1.282  1.00 20.00     0.121 C 
HETATM   11 CL11 UNL     1     -33.716  17.670  -0.473  1.00 20.00    -0.130 Cl
ENDBRANCH   4  10
TORSDOF 2
ENDMDL
MODEL 4
REMARK VINA RESULT:      -4.2      2.165      2.905
REMARK  2 active torsions:
REMARK  status: ('A' for Active; 'I' for Inactive)
REMARK    1  A    between atoms: C6_6  and  C8_8 
REMARK    2  A    between atoms: C7_7  and  C9_9 
ROOT
HETATM    1  C1  UNL     1     -34.913  13.909  -5.319  1.00 20.00     0.027 C 
HETATM    2  C4  UNL     1     -34.259  15.173  -5.862  1.00 20.00     0.010 C 
HETATM    3  C5  UNL     1     -34.313  13.537  -3.974  1.00 20.00     0.168 C 
HETATM    4  C7  UNL     1     -34.285  16.301  -4.818  1.00 20.00     0.029 C 
HETATM    5  C8  UNL     1     -33.727  15.790  -3.470  1.00 20.00     0.130 C 
HETATM    6  O10 UNL     1     -34.445  14.619  -3.056  1.00 20.00    -0.385 OA
ENDROOT
BRANCH   5   7
HETATM    7  C6  UNL     1     -33.858  16.804  -2.367  1.00 20.00     0.015 A 
HETATM    8  C2  UNL     1     -35.190  17.436  -2.072  1.00 20.00     0.007 A 
HETATM    9  C3  UNL     1     -34.591  16.455  -1.102  1.00 20.00     0.007 A 
ENDBRANCH   5   7
BRANCH   4  10
HETATM   10  C9  UNL     1     -33.523  17.515  -5.353  1.00 20.00     0.121 C 
HETATM   11 CL11 UNL     1     -34.182  18.003  -6.923  1.00 20.00    -0.130 Cl
ENDBRANCH   4  10
TORSDOF 2
ENDMDL
MODEL 5
REMARK VINA RESULT:      -4.1      1.468      1.656
REMARK  2 active torsions:
REMARK  status: ('A' for Active; 'I' for Inactive)
REMARK    1  A    between atoms: C6_6  and  C8_8 
REMARK    2  A    between atoms: C7_7  and  C9_9 
ROOT
HETATM    1  C1  UNL     1     -36.154  16.954  -5.089  1.00 20.00     0.027 C 
HETATM    2  C4  UNL     1     -34.902  16.087  -5.069  1.00 20.00     0.010 C 
HETATM    3  C5  UNL     1     -36.992  16.705  -3.846  1.00 20.00     0.168 C 
HETATM    4  C7  UNL     1     -34.139  16.249  -3.744  1.00 20.00     0.029 C 
HETATM    5  C8  UNL     1     -35.102  16.055  -2.551  1.00 20.00     0.130 C 
HETATM    6  O10 UNL     1     -36.219  16.946  -2.673  1.00 20.00    -0.385 OA
ENDROOT
BRANCH   5   7
HETATM    7  C6  UNL     1     -34.449  16.341  -1.226  1.00 20.00     0.015 A 
HETATM    8  C2  UNL     1     -33.738  17.647  -0.998  1.00 20.00     0.007 A 
HETATM    9  C3  UNL     1     -35.039  17.365  -0.297  1.00 20.00     0.007 A 
ENDBRANCH   5   7
BRANCH   4  10
HETATM   10  C9  UNL     1     -32.953  15.284  -3.712  1.00 20.00     0.121 C 
HETATM   11 CL11 UNL     1     -33.528  13.610  -3.795  1.00 20.00    -0.130 Cl
ENDBRANCH   4  10
TORSDOF 2
ENDMDL
MODEL 6
REMARK VINA RESULT:      -4.1      1.926      3.617
REMARK  2 active torsions:
REMARK  status: ('A' for Active; 'I' for Inactive)
REMARK    1  A    between atoms: C6_6  and  C8_8 
REMARK    2  A    between atoms: C7_7  and  C9_9 
ROOT
HETATM    1  C1  UNL     1     -34.407  13.313  -4.710  1.00 20.00     0.027 C 
HETATM    2  C4  UNL     1     -34.230  14.192  -3.479  1.00 20.00     0.010 C 
HETATM    3  C5  UNL     1     -35.075  14.095  -5.829  1.00 20.00     0.168 C 
HETATM    4  C7  UNL     1     -33.532  15.514  -3.838  1.00 20.00     0.029 C 
HETATM    5  C8  UNL     1     -34.244  16.182  -5.036  1.00 20.00     0.130 C 
HETATM    6  O10 UNL     1     -34.319  15.263  -6.135  1.00 20.00    -0.385 OA
ENDROOT
BRANCH   5   7
HETATM    7  C6  UNL     1     -33.525  17.407  -5.529  1.00 20.00     0.015 A 
HETATM    8  C2  UNL     1     -34.054  18.172  -6.710  1.00 20.00     0.007 A 
HETATM    9  C3  UNL     1     -34.128  18.770  -5.332  1.00 20.00     0.007 A 
ENDBRANCH   5   7
BRANCH   4  10
HETATM   10  C9  UNL     1     -33.472  16.417  -2.605  1.00 20.00     0.121 C 
HETATM   11 CL11 UNL     1     -34.861  16.100  -1.552  1.00 20.00    -0.130 Cl
ENDBRANCH   4  10
TORSDOF 2
ENDMDL
MODEL 7
REMARK VINA RESULT:      -4.0      0.954      3.371
REMARK  2 active torsions:
REMARK  status: ('A' for Active; 'I' for Inactive)
REMARK    1  A    between atoms: C6_6  and  C8_8 
REMARK    2  A    between atoms: C7_7  and  C9_9 
ROOT
HETATM    1  C1  UNL     1     -34.757  17.556  -1.565  1.00 20.00     0.027 C 
HETATM    2  C4  UNL     1     -34.477  16.072  -1.765  1.00 20.00     0.010 C 
HETATM    3  C5  UNL     1     -33.802  18.393  -2.399  1.00 20.00     0.168 C 
HETATM    4  C7  UNL     1     -34.451  15.710  -3.259  1.00 20.00     0.029 C 
HETATM    5  C8  UNL     1     -33.513  16.673  -4.021  1.00 20.00     0.130 C 
HETATM    6  O10 UNL     1     -33.900  18.032  -3.774  1.00 20.00    -0.385 OA
ENDROOT
BRANCH   5   7
HETATM    7  C6  UNL     1     -33.553  16.464  -5.510  1.00 20.00     0.015 A 
HETATM    8  C2  UNL     1     -34.871  16.397  -6.231  1.00 20.00     0.007 A 
HETATM    9  C3  UNL     1     -33.969  17.585  -6.421  1.00 20.00     0.007 A 
ENDBRANCH   5   7
BRANCH   4  10
HETATM   10  C9  UNL     1     -34.057  14.242  -3.426  1.00 20.00     0.121 C 
HETATM   11 CL11 UNL     1     -35.347  13.357  -4.256  1.00 20.00    -0.130 Cl
ENDBRANCH   4  10
TORSDOF 2
ENDMDL
MODEL 8
REMARK VINA RESULT:      -4.0      2.073      3.672
REMARK  2 active torsions:
REMARK  status: ('A' for Active; 'I' for Inactive)
REMARK    1  A    between atoms: C6_6  and  C8_8 
REMARK    2  A    between atoms: C7_7  and  C9_9 
ROOT
HETATM    1  C1  UNL     1     -34.986  17.300  -0.657  1.00 20.00     0.027 C 
HETATM    2  C4  UNL     1     -33.854  16.755  -1.519  1.00 20.00     0.010 C 
HETATM    3  C5  UNL     1     -36.036  17.973  -1.525  1.00 20.00     0.168 C 
HETATM    4  C7  UNL     1     -34.399  15.878  -2.658  1.00 20.00     0.029 C 
HETATM    5  C8  UNL     1     -35.513  16.629  -3.420  1.00 20.00     0.130 C 
HETATM    6  O10 UNL     1     -36.528  17.061  -2.504  1.00 20.00    -0.385 OA
ENDROOT
BRANCH   5   7
HETATM    7  C6  UNL     1     -36.186  15.772  -4.456  1.00 20.00     0.015 A 
HETATM    8  C2  UNL     1     -36.838  14.476  -4.060  1.00 20.00     0.007 A 
HETATM    9  C3  UNL     1     -37.684  15.647  -4.478  1.00 20.00     0.007 A 
ENDBRANCH   5   7
BRANCH   4  10
HETATM   10  C9  UNL     1     -33.248  15.442  -3.566  1.00 20.00     0.121 C 
HETATM   11 CL11 UNL     1     -33.243  13.679  -3.736  1.00 20.00    -0.130 Cl
ENDBRANCH   4  10
TORSDOF 2
ENDMDL
MODEL 9
REMARK VINA RESULT:      -4.0      3.144      4.284
REMARK  2 active torsions:
REMARK  status: ('A' for Active; 'I' for Inactive)
REMARK    1  A    between atoms: C6_6  and  C8_8 
REMARK    2  A    between atoms: C7_7  and  C9_9 
ROOT
HETATM    1  C1  UNL     1     -33.636  14.343  -3.906  1.00 20.00     0.027 C 
HETATM    2  C4  UNL     1     -33.943  15.408  -2.860  1.00 20.00     0.010 C 
HETATM    3  C5  UNL     1     -34.825  13.415  -4.083  1.00 20.00     0.168 C 
HETATM    4  C7  UNL     1     -35.269  16.122  -3.171  1.00 20.00     0.029 C 
HETATM    5  C8  UNL     1     -36.387  15.083  -3.412  1.00 20.00     0.130 C 
HETATM    6  O10 UNL     1     -35.987  14.161  -4.435  1.00 20.00    -0.385 OA
ENDROOT
BRANCH   5   7
HETATM    7  C6  UNL     1     -37.677  15.713  -3.861  1.00 20.00     0.015 A 
HETATM    8  C2  UNL     1     -38.425  15.151  -5.038  1.00 20.00     0.007 A 
HETATM    9  C3  UNL     1     -38.982  14.999  -3.650  1.00 20.00     0.007 A 
ENDBRANCH   5   7
BRANCH   4  10
HETATM   10  C9  UNL     1     -35.602  17.102  -2.045  1.00 20.00     0.121 C 
HETATM   11 CL11 UNL     1     -34.689  16.683  -0.585  1.00 20.00    -0.130 Cl
ENDBRANCH   4  10
TORSDOF 2
ENDMDL
