MODEL 1
REMARK VINA RESULT:      -4.4      0.000      0.000
REMARK  3 active torsions:
REMARK  status: ('A' for Active; 'I' for Inactive)
REMARK    1  A    between atoms: C1_1  and  C6_6 
REMARK    2  A    between atoms: C2_2  and  C3_3 
REMARK    3  A    between atoms: C3_3  and  C8_8 
ROOT
HETATM    1  C1  UNL     1     -35.493  15.916  -2.524  1.00 20.00    -0.012 C 
HETATM    2  C3  UNL     1     -35.545  14.892  -3.393  1.00 20.00    -0.024 C 
ENDROOT
BRANCH   2   3
HETATM    3  C2  UNL     1     -36.806  14.749  -4.171  1.00 20.00     0.265 C 
HETATM    4  O9  UNL     1     -37.806  14.196  -3.729  1.00 20.00    -0.302 OA
ENDBRANCH   2   3
BRANCH   2   5
HETATM    5  C8  UNL     1     -34.458  13.875  -3.608  1.00 20.00     0.037 C 
HETATM    6  C7  UNL     1     -34.591  13.169  -4.950  1.00 20.00     0.010 C 
ENDBRANCH   2   5
BRANCH   1   7
HETATM    7  C6  UNL     1     -34.370  16.268  -1.632  1.00 20.00     0.009 A 
HETATM    8  C4  UNL     1     -34.007  17.709  -1.486  1.00 20.00     0.009 A 
HETATM    9  C5  UNL     1     -34.675  16.984  -0.357  1.00 20.00     0.009 A 
ENDBRANCH   1   7
TORSDOF 3
ENDMDL
MODEL 2
REMARK VINA RESULT:      -4.4      1.881      2.281
REMARK  3 active torsions:
REMARK  status: ('A' for Active; 'I' for Inactive)
REMARK    1  A    between atoms: C1_1  and  C6_6 
REMARK    2  A    between atoms: C2_2  and  C3_3 
REMARK    3  A    between atoms: C3_3  and  C8_8 
ROOT
HETATM    1  C1  UNL     1     -34.526  15.299  -2.541  1.00 20.00    -0.012 C 
HETATM    2  C3  UNL     1     -33.922  15.003  -3.705  1.00 20.00    -0.024 C 
ENDROOT
BRANCH   2   3
HETATM    3  C2  UNL     1     -33.816  13.557  -4.045  1.00 20.00     0.265 C 
HETATM    4  O9  UNL     1     -34.792  12.841  -4.233  1.00 20.00    -0.302 OA
ENDBRANCH   2   3
BRANCH   2   5
HETATM    5  C8  UNL     1     -33.323  16.002  -4.656  1.00 20.00     0.037 C 
HETATM    6  C7  UNL     1     -34.001  15.973  -6.020  1.00 20.00     0.010 C 
ENDBRANCH   2   5
BRANCH   1   7
HETATM    7  C6  UNL     1     -34.747  16.644  -1.973  1.00 20.00     0.009 A 
HETATM    8  C4  UNL     1     -34.747  16.794  -0.487  1.00 20.00     0.009 A 
HETATM    9  C5  UNL     1     -33.602  17.323  -1.296  1.00 20.00     0.009 A 
ENDBRANCH   1   7
TORSDOF 3
ENDMDL
MODEL 3
REMARK VINA RESULT:      -4.3     11.280     12.040
REMARK  3 active torsions:
REMARK  status: ('A' for Active; 'I' for Inactive)
REMARK    1  A    between atoms: C1_1  and  C6_6 
REMARK    2  A    between atoms: C2_2  and  C3_3 
REMARK    3  A    between atoms: C3_3  and  C8_8 
ROOT
HETATM    1  C1  UNL     1     -33.344   5.791   3.101  1.00 20.00    -0.012 C 
HETATM    2  C3  UNL     1     -34.038   5.779   4.253  1.00 20.00    -0.024 C 
ENDROOT
BRANCH   2   3
HETATM    3  C2  UNL     1     -35.293   4.979   4.259  1.00 20.00     0.265 C 
HETATM    4  O9  UNL     1     -35.324   3.785   4.532  1.00 20.00    -0.302 OA
ENDBRANCH   2   3
BRANCH   2   5
HETATM    5  C8  UNL     1     -33.667   6.530   5.502  1.00 20.00     0.037 C 
HETATM    6  C7  UNL     1     -34.418   6.018   6.723  1.00 20.00     0.010 C 
ENDBRANCH   2   5
BRANCH   1   7
HETATM    7  C6  UNL     1     -32.083   6.510   2.832  1.00 20.00     0.009 A 
HETATM    8  C4  UNL     1     -32.161   7.885   2.254  1.00 20.00     0.009 A 
HETATM    9  C5  UNL     1     -31.748   7.692   3.682  1.00 20.00     0.009 A 
ENDBRANCH   1   7
TORSDOF 3
ENDMDL
MODEL 4
REMARK VINA RESULT:      -4.3     10.357     11.153
REMARK  3 active torsions:
REMARK  status: ('A' for Active; 'I' for Inactive)
REMARK    1  A    between atoms: C1_1  and  C6_6 
REMARK    2  A    between atoms: C2_2  and  C3_3 
REMARK    3  A    between atoms: C3_3  and  C8_8 
ROOT
HETATM    1  C1  UNL     1     -33.114   6.715   2.775  1.00 20.00    -0.012 C 
HETATM    2  C3  UNL     1     -33.689   6.302   3.918  1.00 20.00    -0.024 C 
ENDROOT
BRANCH   2   3
HETATM    3  C2  UNL     1     -34.724   5.240   3.790  1.00 20.00     0.265 C 
HETATM    4  O9  UNL     1     -35.907   5.481   3.584  1.00 20.00    -0.302 OA
ENDBRANCH   2   3
BRANCH   2   5
HETATM    5  C8  UNL     1     -33.396   6.849   5.288  1.00 20.00     0.037 C 
HETATM    6  C7  UNL     1     -34.170   6.116   6.375  1.00 20.00     0.010 C 
ENDBRANCH   2   5
BRANCH   1   7
HETATM    7  C6  UNL     1     -32.075   7.754   2.629  1.00 20.00     0.009 A 
HETATM    8  C4  UNL     1     -31.745   8.237   1.254  1.00 20.00     0.009 A 
HETATM    9  C5  UNL     1     -32.498   9.122   2.201  1.00 20.00     0.009 A 
ENDBRANCH   1   7
TORSDOF 3
ENDMDL
MODEL 5
REMARK VINA RESULT:      -4.1     11.307     12.050
REMARK  3 active torsions:
REMARK  status: ('A' for Active; 'I' for Inactive)
REMARK    1  A    between atoms: C1_1  and  C6_6 
REMARK    2  A    between atoms: C2_2  and  C3_3 
REMARK    3  A    between atoms: C3_3  and  C8_8 
ROOT
HETATM    1  C1  UNL     1     -33.037   6.876   4.347  1.00 20.00    -0.012 C 
HETATM    2  C3  UNL     1     -34.001   6.162   4.955  1.00 20.00    -0.024 C 
ENDROOT
BRANCH   2   3
HETATM    3  C2  UNL     1     -34.156   6.376   6.420  1.00 20.00     0.265 C 
HETATM    4  O9  UNL     1     -33.650   7.319   7.015  1.00 20.00    -0.302 OA
ENDBRANCH   2   3
BRANCH   2   5
HETATM    5  C8  UNL     1     -34.893   5.154   4.285  1.00 20.00     0.037 C 
HETATM    6  C7  UNL     1     -35.127   3.927   5.156  1.00 20.00     0.010 C 
ENDBRANCH   2   5
BRANCH   1   7
HETATM    7  C6  UNL     1     -32.676   6.841   2.916  1.00 20.00     0.009 A 
HETATM    8  C4  UNL     1     -32.725   8.117   2.142  1.00 20.00     0.009 A 
HETATM    9  C5  UNL     1     -31.405   7.500   2.490  1.00 20.00     0.009 A 
ENDBRANCH   1   7
TORSDOF 3
ENDMDL
MODEL 6
REMARK VINA RESULT:      -3.9      2.396      2.679
REMARK  3 active torsions:
REMARK  status: ('A' for Active; 'I' for Inactive)
REMARK    1  A    between atoms: C1_1  and  C6_6 
REMARK    2  A    between atoms: C2_2  and  C3_3 
REMARK    3  A    between atoms: C3_3  and  C8_8 
ROOT
HETATM    1  C1  UNL     1     -33.854  16.943  -2.339  1.00 20.00    -0.012 C 
HETATM    2  C3  UNL     1     -33.867  16.043  -3.339  1.00 20.00    -0.024 C 
ENDROOT
BRANCH   2   3
HETATM    3  C2  UNL     1     -33.258  16.478  -4.625  1.00 20.00     0.265 C 
HETATM    4  O9  UNL     1     -33.340  17.623  -5.051  1.00 20.00    -0.302 OA
ENDBRANCH   2   3
BRANCH   2   5
HETATM    5  C8  UNL     1     -34.473  14.669  -3.267  1.00 20.00     0.037 C 
HETATM    6  C7  UNL     1     -33.551  13.605  -3.849  1.00 20.00     0.010 C 
ENDBRANCH   2   5
BRANCH   1   7
HETATM    7  C6  UNL     1     -34.398  16.764  -0.978  1.00 20.00     0.009 A 
HETATM    8  C4  UNL     1     -34.078  17.796   0.053  1.00 20.00     0.009 A 
HETATM    9  C5  UNL     1     -35.462  17.704  -0.513  1.00 20.00     0.009 A 
ENDBRANCH   1   7
TORSDOF 3
ENDMDL
MODEL 7
REMARK VINA RESULT:      -3.8      2.796      4.306
REMARK  3 active torsions:
REMARK  status: ('A' for Active; 'I' for Inactive)
REMARK    1  A    between atoms: C1_1  and  C6_6 
REMARK    2  A    between atoms: C2_2  and  C3_3 
REMARK    3  A    between atoms: C3_3  and  C8_8 
ROOT
HETATM    1  C1  UNL     1     -34.511  14.899  -5.876  1.00 20.00    -0.012 C 
HETATM    2  C3  UNL     1     -34.097  14.756  -4.605  1.00 20.00    -0.024 C 
ENDROOT
BRANCH   2   3
HETATM    3  C2  UNL     1     -34.658  13.600  -3.854  1.00 20.00     0.265 C 
HETATM    4  O9  UNL     1     -35.059  12.579  -4.400  1.00 20.00    -0.302 OA
ENDBRANCH   2   3
BRANCH   2   5
HETATM    5  C8  UNL     1     -33.156  15.682  -3.885  1.00 20.00     0.037 C 
HETATM    6  C7  UNL     1     -33.766  16.239  -2.605  1.00 20.00     0.010 C 
ENDBRANCH   2   5
BRANCH   1   7
HETATM    7  C6  UNL     1     -34.115  15.961  -6.824  1.00 20.00     0.009 A 
HETATM    8  C4  UNL     1     -35.066  16.322  -7.918  1.00 20.00     0.009 A 
HETATM    9  C5  UNL     1     -34.845  17.262  -6.772  1.00 20.00     0.009 A 
ENDBRANCH   1   7
TORSDOF 3
ENDMDL
MODEL 8
REMARK VINA RESULT:      -3.8      3.573      5.966
REMARK  3 active torsions:
REMARK  status: ('A' for Active; 'I' for Inactive)
REMARK    1  A    between atoms: C1_1  and  C6_6 
REMARK    2  A    between atoms: C2_2  and  C3_3 
REMARK    3  A    between atoms: C3_3  and  C8_8 
ROOT
HETATM    1  C1  UNL     1     -33.513  17.565  -0.722  1.00 20.00    -0.012 C 
HETATM    2  C3  UNL     1     -33.598  18.401   0.328  1.00 20.00    -0.024 C 
ENDROOT
BRANCH   2   3
HETATM    3  C2  UNL     1     -32.412  19.263   0.583  1.00 20.00     0.265 C 
HETATM    4  O9  UNL     1     -31.419  19.263  -0.134  1.00 20.00    -0.302 OA
ENDBRANCH   2   3
BRANCH   2   5
HETATM    5  C8  UNL     1     -34.766  18.501   1.269  1.00 20.00     0.037 C 
HETATM    6  C7  UNL     1     -34.366  18.223   2.712  1.00 20.00     0.010 C 
ENDBRANCH   2   5
BRANCH   1   7
HETATM    7  C6  UNL     1     -34.539  16.606  -1.179  1.00 20.00     0.009 A 
HETATM    8  C4  UNL     1     -35.320  16.938  -2.408  1.00 20.00     0.009 A 
HETATM    9  C5  UNL     1     -34.289  15.851  -2.443  1.00 20.00     0.009 A 
ENDBRANCH   1   7
TORSDOF 3
ENDMDL
MODEL 9
REMARK VINA RESULT:      -3.7     11.252     11.977
REMARK  3 active torsions:
REMARK  status: ('A' for Active; 'I' for Inactive)
REMARK    1  A    between atoms: C1_1  and  C6_6 
REMARK    2  A    between atoms: C2_2  and  C3_3 
REMARK    3  A    between atoms: C3_3  and  C8_8 
ROOT
HETATM    1  C1  UNL     1     -32.915   6.449   4.508  1.00 20.00    -0.012 C 
HETATM    2  C3  UNL     1     -34.054   5.784   4.774  1.00 20.00    -0.024 C 
ENDROOT
BRANCH   2   3
HETATM    3  C2  UNL     1     -34.465   5.726   6.203  1.00 20.00     0.265 C 
HETATM    4  O9  UNL     1     -35.205   4.858   6.651  1.00 20.00    -0.302 OA
ENDBRANCH   2   3
BRANCH   2   5
HETATM    5  C8  UNL     1     -34.908   5.076   3.759  1.00 20.00     0.037 C 
HETATM    6  C7  UNL     1     -36.102   5.917   3.328  1.00 20.00     0.010 C 
ENDBRANCH   2   5
BRANCH   1   7
HETATM    7  C6  UNL     1     -32.289   6.642   3.185  1.00 20.00     0.009 A 
HETATM    8  C4  UNL     1     -32.670   7.849   2.391  1.00 20.00     0.009 A 
HETATM    9  C5  UNL     1     -31.313   7.760   3.021  1.00 20.00     0.009 A 
ENDBRANCH   1   7
TORSDOF 3
ENDMDL
