MODEL 1
REMARK VINA RESULT:      -4.1      0.000      0.000
REMARK  4 active torsions:
REMARK  status: ('A' for Active; 'I' for Inactive)
REMARK    1  A    between atoms: C1_1  and  C9_9 
REMARK    2  A    between atoms: C2_2  and  C6_6 
REMARK    3  A    between atoms: C7_7  and  C9_9 
REMARK    4  A    between atoms: C8_8  and  C9_9 
ROOT
HETATM    1  C1  UNL     1     -35.473  15.710  -3.053  1.00 20.00    -0.019 C 
HETATM    2  C2  UNL     1     -36.103  14.710  -3.700  1.00 20.00    -0.073 C 
HETATM    3  C3  UNL     1     -37.600  14.744  -3.872  1.00 20.00     0.044 C 
ENDROOT
BRANCH   1   4
HETATM    4  C9  UNL     1     -33.992  15.842  -2.769  1.00 20.00     0.007 C 
BRANCH   4   5
HETATM    5  C7  UNL     1     -33.740  16.909  -1.680  1.00 20.00     0.004 C 
HETATM    6  C4  UNL     1     -34.714  16.820  -0.511  1.00 20.00     0.006 C 
ENDBRANCH   4   5
BRANCH   4   7
HETATM    7  C8  UNL     1     -33.220  16.222  -4.050  1.00 20.00     0.004 C 
HETATM    8  C5  UNL     1     -33.689  17.532  -4.672  1.00 20.00     0.006 C 
ENDBRANCH   4   7
ENDBRANCH   1   4
BRANCH   2   9
HETATM    9  C6  UNL     1     -35.414  13.529  -4.324  1.00 20.00     0.148 C 
HETATM   10 CL10 UNL     1     -35.026  13.862  -6.025  1.00 20.00    -0.126 Cl
ENDBRANCH   2   9
TORSDOF 4
ENDMDL
MODEL 2
REMARK VINA RESULT:      -4.0      1.779      2.461
REMARK  4 active torsions:
REMARK  status: ('A' for Active; 'I' for Inactive)
REMARK    1  A    between atoms: C1_1  and  C9_9 
REMARK    2  A    between atoms: C2_2  and  C6_6 
REMARK    3  A    between atoms: C7_7  and  C9_9 
REMARK    4  A    between atoms: C8_8  and  C9_9 
ROOT
HETATM    1  C1  UNL     1     -34.785  15.750  -2.255  1.00 20.00    -0.019 C 
HETATM    2  C2  UNL     1     -34.191  15.049  -3.239  1.00 20.00    -0.073 C 
HETATM    3  C3  UNL     1     -34.848  13.811  -3.791  1.00 20.00     0.044 C 
ENDROOT
BRANCH   1   4
HETATM    4  C9  UNL     1     -34.274  16.998  -1.566  1.00 20.00     0.007 C 
BRANCH   4   5
HETATM    5  C7  UNL     1     -34.783  17.062  -0.109  1.00 20.00     0.004 C 
HETATM    6  C4  UNL     1     -34.100  18.142   0.722  1.00 20.00     0.006 C 
ENDBRANCH   4   5
BRANCH   4   7
HETATM    7  C8  UNL     1     -34.723  18.265  -2.324  1.00 20.00     0.004 C 
HETATM    8  C5  UNL     1     -33.562  19.144  -2.773  1.00 20.00     0.006 C 
ENDBRANCH   4   7
ENDBRANCH   1   4
BRANCH   2   9
HETATM    9  C6  UNL     1     -32.889  15.426  -3.890  1.00 20.00     0.148 C 
HETATM   10 CL10 UNL     1     -33.172  16.527  -5.255  1.00 20.00    -0.126 Cl
ENDBRANCH   2   9
TORSDOF 4
ENDMDL
MODEL 3
REMARK VINA RESULT:      -4.0      2.939      4.564
REMARK  4 active torsions:
REMARK  status: ('A' for Active; 'I' for Inactive)
REMARK    1  A    between atoms: C1_1  and  C9_9 
REMARK    2  A    between atoms: C2_2  and  C6_6 
REMARK    3  A    between atoms: C7_7  and  C9_9 
REMARK    4  A    between atoms: C8_8  and  C9_9 
ROOT
HETATM    1  C1  UNL     1     -34.298  16.167  -1.886  1.00 20.00    -0.019 C 
HETATM    2  C2  UNL     1     -34.201  17.225  -1.058  1.00 20.00    -0.073 C 
HETATM    3  C3  UNL     1     -34.968  17.245   0.238  1.00 20.00     0.044 C 
ENDROOT
BRANCH   1   4
HETATM    4  C9  UNL     1     -33.625  15.975  -3.229  1.00 20.00     0.007 C 
BRANCH   4   5
HETATM    5  C7  UNL     1     -34.430  16.675  -4.346  1.00 20.00     0.004 C 
HETATM    6  C4  UNL     1     -33.551  17.360  -5.385  1.00 20.00     0.006 C 
ENDBRANCH   4   5
BRANCH   4   7
HETATM    7  C8  UNL     1     -33.481  14.475  -3.560  1.00 20.00     0.004 C 
HETATM    8  C5  UNL     1     -34.808  13.797  -3.879  1.00 20.00     0.006 C 
ENDBRANCH   4   7
ENDBRANCH   1   4
BRANCH   2   9
HETATM    9  C6  UNL     1     -33.332  18.427  -1.306  1.00 20.00     0.148 C 
HETATM   10 CL10 UNL     1     -32.244  18.702   0.071  1.00 20.00    -0.126 Cl
ENDBRANCH   2   9
TORSDOF 4
ENDMDL
MODEL 4
REMARK VINA RESULT:      -4.0      1.817      2.996
REMARK  4 active torsions:
REMARK  status: ('A' for Active; 'I' for Inactive)
REMARK    1  A    between atoms: C1_1  and  C9_9 
REMARK    2  A    between atoms: C2_2  and  C6_6 
REMARK    3  A    between atoms: C7_7  and  C9_9 
REMARK    4  A    between atoms: C8_8  and  C9_9 
ROOT
HETATM    1  C1  UNL     1     -33.646  17.253  -4.518  1.00 20.00    -0.019 C 
HETATM    2  C2  UNL     1     -34.230  17.293  -5.732  1.00 20.00    -0.073 C 
HETATM    3  C3  UNL     1     -33.915  18.415  -6.687  1.00 20.00     0.044 C 
ENDROOT
BRANCH   1   4
HETATM    4  C9  UNL     1     -33.849  16.226  -3.425  1.00 20.00     0.007 C 
BRANCH   4   5
HETATM    5  C7  UNL     1     -33.633  16.862  -2.034  1.00 20.00     0.004 C 
HETATM    6  C4  UNL     1     -34.716  16.494  -1.027  1.00 20.00     0.006 C 
ENDBRANCH   4   5
BRANCH   4   7
HETATM    7  C8  UNL     1     -32.880  15.038  -3.604  1.00 20.00     0.004 C 
HETATM    8  C5  UNL     1     -33.590  13.709  -3.836  1.00 20.00     0.006 C 
ENDBRANCH   4   7
ENDBRANCH   1   4
BRANCH   2   9
HETATM    9  C6  UNL     1     -35.183  16.255  -6.255  1.00 20.00     0.148 C 
HETATM   10 CL10 UNL     1     -34.308  15.024  -7.190  1.00 20.00    -0.126 Cl
ENDBRANCH   2   9
TORSDOF 4
ENDMDL
MODEL 5
REMARK VINA RESULT:      -4.0      2.365      3.771
REMARK  4 active torsions:
REMARK  status: ('A' for Active; 'I' for Inactive)
REMARK    1  A    between atoms: C1_1  and  C9_9 
REMARK    2  A    between atoms: C2_2  and  C6_6 
REMARK    3  A    between atoms: C7_7  and  C9_9 
REMARK    4  A    between atoms: C8_8  and  C9_9 
ROOT
HETATM    1  C1  UNL     1     -34.181  15.844  -2.174  1.00 20.00    -0.019 C 
HETATM    2  C2  UNL     1     -34.970  16.765  -1.587  1.00 20.00    -0.073 C 
HETATM    3  C3  UNL     1     -34.799  17.087  -0.126  1.00 20.00     0.044 C 
ENDROOT
BRANCH   1   4
HETATM    4  C9  UNL     1     -34.214  15.376  -3.614  1.00 20.00     0.007 C 
BRANCH   4   5
HETATM    5  C7  UNL     1     -33.957  13.855  -3.698  1.00 20.00     0.004 C 
HETATM    6  C4  UNL     1     -34.764  13.166  -4.792  1.00 20.00     0.006 C 
ENDBRANCH   4   5
BRANCH   4   7
HETATM    7  C8  UNL     1     -33.159  16.124  -4.457  1.00 20.00     0.004 C 
HETATM    8  C5  UNL     1     -33.739  16.786  -5.701  1.00 20.00     0.006 C 
ENDBRANCH   4   7
ENDBRANCH   1   4
BRANCH   2   9
HETATM    9  C6  UNL     1     -36.029  17.560  -2.299  1.00 20.00     0.148 C 
HETATM   10 CL10 UNL     1     -35.300  18.923  -3.174  1.00 20.00    -0.126 Cl
ENDBRANCH   2   9
TORSDOF 4
ENDMDL
MODEL 6
REMARK VINA RESULT:      -3.9      2.353      3.272
REMARK  4 active torsions:
REMARK  status: ('A' for Active; 'I' for Inactive)
REMARK    1  A    between atoms: C1_1  and  C9_9 
REMARK    2  A    between atoms: C2_2  and  C6_6 
REMARK    3  A    between atoms: C7_7  and  C9_9 
REMARK    4  A    between atoms: C8_8  and  C9_9 
ROOT
HETATM    1  C1  UNL     1     -33.791  17.536  -2.844  1.00 20.00    -0.019 C 
HETATM    2  C2  UNL     1     -33.576  16.628  -3.816  1.00 20.00    -0.073 C 
HETATM    3  C3  UNL     1     -33.937  16.946  -5.243  1.00 20.00     0.044 C 
ENDROOT
BRANCH   1   4
HETATM    4  C9  UNL     1     -33.513  17.393  -1.363  1.00 20.00     0.007 C 
BRANCH   4   5
HETATM    5  C7  UNL     1     -34.700  16.706  -0.651  1.00 20.00     0.004 C 
HETATM    6  C4  UNL     1     -35.167  17.448   0.596  1.00 20.00     0.006 C 
ENDBRANCH   4   5
BRANCH   4   7
HETATM    7  C8  UNL     1     -33.255  18.772  -0.719  1.00 20.00     0.004 C 
HETATM    8  C5  UNL     1     -31.974  18.823   0.106  1.00 20.00     0.006 C 
ENDBRANCH   4   7
ENDBRANCH   1   4
BRANCH   2   9
HETATM    9  C6  UNL     1     -32.948  15.280  -3.600  1.00 20.00     0.148 C 
HETATM   10 CL10 UNL     1     -34.200  14.032  -3.425  1.00 20.00    -0.126 Cl
ENDBRANCH   2   9
TORSDOF 4
ENDMDL
MODEL 7
REMARK VINA RESULT:      -3.9      1.255      2.566
REMARK  4 active torsions:
REMARK  status: ('A' for Active; 'I' for Inactive)
REMARK    1  A    between atoms: C1_1  and  C9_9 
REMARK    2  A    between atoms: C2_2  and  C6_6 
REMARK    3  A    between atoms: C7_7  and  C9_9 
REMARK    4  A    between atoms: C8_8  and  C9_9 
ROOT
HETATM    1  C1  UNL     1     -35.396  15.403  -3.213  1.00 20.00    -0.019 C 
HETATM    2  C2  UNL     1     -36.405  15.468  -4.103  1.00 20.00    -0.073 C 
HETATM    3  C3  UNL     1     -37.686  14.715  -3.853  1.00 20.00     0.044 C 
ENDROOT
BRANCH   1   4
HETATM    4  C9  UNL     1     -34.039  16.069  -3.298  1.00 20.00     0.007 C 
BRANCH   4   5
HETATM    5  C7  UNL     1     -32.942  15.028  -3.614  1.00 20.00     0.004 C 
HETATM    6  C4  UNL     1     -33.484  13.616  -3.797  1.00 20.00     0.006 C 
ENDBRANCH   4   5
BRANCH   4   7
HETATM    7  C8  UNL     1     -33.699  16.791  -1.977  1.00 20.00     0.004 C 
HETATM    8  C5  UNL     1     -34.723  16.546  -0.874  1.00 20.00     0.006 C 
ENDBRANCH   4   7
ENDBRANCH   1   4
BRANCH   2   9
HETATM    9  C6  UNL     1     -36.380  16.289  -5.362  1.00 20.00     0.148 C 
HETATM   10 CL10 UNL     1     -35.408  15.482  -6.611  1.00 20.00    -0.126 Cl
ENDBRANCH   2   9
TORSDOF 4
ENDMDL
MODEL 8
REMARK VINA RESULT:      -3.8      1.278      2.781
REMARK  4 active torsions:
REMARK  status: ('A' for Active; 'I' for Inactive)
REMARK    1  A    between atoms: C1_1  and  C9_9 
REMARK    2  A    between atoms: C2_2  and  C6_6 
REMARK    3  A    between atoms: C7_7  and  C9_9 
REMARK    4  A    between atoms: C8_8  and  C9_9 
ROOT
HETATM    1  C1  UNL     1     -34.299  15.380  -2.962  1.00 20.00    -0.019 C 
HETATM    2  C2  UNL     1     -34.937  14.455  -3.705  1.00 20.00    -0.073 C 
HETATM    3  C3  UNL     1     -34.176  13.289  -4.280  1.00 20.00     0.044 C 
ENDROOT
BRANCH   1   4
HETATM    4  C9  UNL     1     -34.886  16.620  -2.321  1.00 20.00     0.007 C 
BRANCH   4   5
HETATM    5  C7  UNL     1     -34.289  17.895  -2.956  1.00 20.00     0.004 C 
HETATM    6  C4  UNL     1     -33.705  17.661  -4.344  1.00 20.00     0.006 C 
ENDBRANCH   4   5
BRANCH   4   7
HETATM    7  C8  UNL     1     -34.619  16.629  -0.801  1.00 20.00     0.004 C 
HETATM    8  C5  UNL     1     -33.745  17.792  -0.347  1.00 20.00     0.006 C 
ENDBRANCH   4   7
ENDBRANCH   1   4
BRANCH   2   9
HETATM    9  C6  UNL     1     -36.412  14.462  -3.997  1.00 20.00     0.148 C 
HETATM   10 CL10 UNL     1     -36.762  15.491  -5.401  1.00 20.00    -0.126 Cl
ENDBRANCH   2   9
TORSDOF 4
ENDMDL
MODEL 9
REMARK VINA RESULT:      -3.7      2.732      4.558
REMARK  4 active torsions:
REMARK  status: ('A' for Active; 'I' for Inactive)
REMARK    1  A    between atoms: C1_1  and  C9_9 
REMARK    2  A    between atoms: C2_2  and  C6_6 
REMARK    3  A    between atoms: C7_7  and  C9_9 
REMARK    4  A    between atoms: C8_8  and  C9_9 
ROOT
HETATM    1  C1  UNL     1     -33.864  16.700  -1.965  1.00 20.00    -0.019 C 
HETATM    2  C2  UNL     1     -33.928  17.395  -0.813  1.00 20.00    -0.073 C 
HETATM    3  C3  UNL     1     -32.903  18.457  -0.511  1.00 20.00     0.044 C 
ENDROOT
BRANCH   1   4
HETATM    4  C9  UNL     1     -34.785  15.592  -2.432  1.00 20.00     0.007 C 
BRANCH   4   5
HETATM    5  C7  UNL     1     -34.023  14.598  -3.336  1.00 20.00     0.004 C 
HETATM    6  C4  UNL     1     -34.935  13.595  -4.032  1.00 20.00     0.006 C 
ENDBRANCH   4   5
BRANCH   4   7
HETATM    7  C8  UNL     1     -35.989  16.171  -3.204  1.00 20.00     0.004 C 
HETATM    8  C5  UNL     1     -35.615  17.314  -4.140  1.00 20.00     0.006 C 
ENDBRANCH   4   7
ENDBRANCH   1   4
BRANCH   2   9
HETATM    9  C6  UNL     1     -34.997  17.224   0.230  1.00 20.00     0.148 C 
HETATM   10 CL10 UNL     1     -36.361  18.315  -0.092  1.00 20.00    -0.126 Cl
ENDBRANCH   2   9
TORSDOF 4
ENDMDL
