MODEL 1
REMARK VINA RESULT:      -4.9      0.000      0.000
REMARK  2 active torsions:
REMARK  status: ('A' for Active; 'I' for Inactive)
REMARK    1  A    between atoms: C1_1  and  C6_6 
REMARK    2  A    between atoms: C2_2  and  C7_7 
ROOT
HETATM    1  C3  UNL     1     -33.721   6.586   5.451  1.00 20.00     0.037 C 
HETATM    2  C4  UNL     1     -34.524   5.656   6.334  1.00 20.00     0.168 C 
HETATM    3  C5  UNL     1     -34.907   5.054   4.117  1.00 20.00     0.176 C 
HETATM    4  C6  UNL     1     -33.560   5.758   4.193  1.00 20.00     0.034 C 
HETATM    5  O8  UNL     1     -35.388   4.915   5.463  1.00 20.00    -0.390 OA
ENDROOT
BRANCH   4   6
HETATM    6  C1  UNL     1     -33.228   6.561   2.983  1.00 20.00    -0.023 C 
HETATM    7  C2  UNL     1     -32.222   7.444   2.925  1.00 20.00    -0.015 C 
BRANCH   7   8
HETATM    8  C7  UNL     1     -31.887   8.239   1.706  1.00 20.00     0.141 C 
HETATM    9 CL9  UNL     1     -32.628   9.851   1.811  1.00 20.00    -0.126 Cl
ENDBRANCH   7   8
ENDBRANCH   4   6
TORSDOF 2
ENDMDL
MODEL 2
REMARK VINA RESULT:      -4.6      0.991      1.463
REMARK  2 active torsions:
REMARK  status: ('A' for Active; 'I' for Inactive)
REMARK    1  A    between atoms: C1_1  and  C6_6 
REMARK    2  A    between atoms: C2_2  and  C7_7 
ROOT
HETATM    1  C3  UNL     1     -34.596   4.318   4.590  1.00 20.00     0.037 C 
HETATM    2  C4  UNL     1     -35.174   4.274   5.988  1.00 20.00     0.168 C 
HETATM    3  C5  UNL     1     -34.054   6.301   5.734  1.00 20.00     0.176 C 
HETATM    4  C6  UNL     1     -34.466   5.809   4.354  1.00 20.00     0.034 C 
HETATM    5  O8  UNL     1     -34.616   5.391   6.692  1.00 20.00    -0.390 OA
ENDROOT
BRANCH   4   6
HETATM    6  C1  UNL     1     -33.504   6.165   3.274  1.00 20.00    -0.023 C 
HETATM    7  C2  UNL     1     -32.781   7.294   3.258  1.00 20.00    -0.015 C 
BRANCH   7   8
HETATM    8  C7  UNL     1     -31.811   7.640   2.178  1.00 20.00     0.141 C 
HETATM    9 CL9  UNL     1     -32.281   9.172   1.410  1.00 20.00    -0.126 Cl
ENDBRANCH   7   8
ENDBRANCH   4   6
TORSDOF 2
ENDMDL
MODEL 3
REMARK VINA RESULT:      -4.2     10.917     11.461
REMARK  2 active torsions:
REMARK  status: ('A' for Active; 'I' for Inactive)
REMARK    1  A    between atoms: C1_1  and  C6_6 
REMARK    2  A    between atoms: C2_2  and  C7_7 
ROOT
HETATM    1  C3  UNL     1     -33.857  13.955  -3.748  1.00 20.00     0.037 C 
HETATM    2  C4  UNL     1     -34.886  13.185  -4.546  1.00 20.00     0.168 C 
HETATM    3  C5  UNL     1     -35.974  14.944  -3.474  1.00 20.00     0.176 C 
HETATM    4  C6  UNL     1     -34.508  15.319  -3.634  1.00 20.00     0.034 C 
HETATM    5  O8  UNL     1     -36.167  13.693  -4.153  1.00 20.00    -0.390 OA
ENDROOT
BRANCH   4   6
HETATM    6  C1  UNL     1     -33.971  16.150  -2.521  1.00 20.00    -0.023 C 
HETATM    7  C2  UNL     1     -34.691  16.526  -1.455  1.00 20.00    -0.015 C 
BRANCH   7   8
HETATM    8  C7  UNL     1     -34.145  17.352  -0.337  1.00 20.00     0.141 C 
HETATM    9 CL9  UNL     1     -35.308  17.400   1.005  1.00 20.00    -0.126 Cl
ENDBRANCH   7   8
ENDBRANCH   4   6
TORSDOF 2
ENDMDL
MODEL 4
REMARK VINA RESULT:      -4.2     11.110     11.930
REMARK  2 active torsions:
REMARK  status: ('A' for Active; 'I' for Inactive)
REMARK    1  A    between atoms: C1_1  and  C6_6 
REMARK    2  A    between atoms: C2_2  and  C7_7 
ROOT
HETATM    1  C3  UNL     1     -34.400  13.945  -3.511  1.00 20.00     0.037 C 
HETATM    2  C4  UNL     1     -34.442  13.388  -4.917  1.00 20.00     0.168 C 
HETATM    3  C5  UNL     1     -33.973  15.666  -5.058  1.00 20.00     0.176 C 
HETATM    4  C6  UNL     1     -33.529  15.172  -3.688  1.00 20.00     0.034 C 
HETATM    5  O8  UNL     1     -34.407  14.516  -5.801  1.00 20.00    -0.390 OA
ENDROOT
BRANCH   4   6
HETATM    6  C1  UNL     1     -33.683  16.181  -2.604  1.00 20.00    -0.023 C 
HETATM    7  C2  UNL     1     -34.622  16.114  -1.649  1.00 20.00    -0.015 C 
BRANCH   7   8
HETATM    8  C7  UNL     1     -34.765  17.123  -0.557  1.00 20.00     0.141 C 
HETATM    9 CL9  UNL     1     -33.274  18.078  -0.415  1.00 20.00    -0.126 Cl
ENDBRANCH   7   8
ENDBRANCH   4   6
TORSDOF 2
ENDMDL
MODEL 5
REMARK VINA RESULT:      -4.1     10.579     11.660
REMARK  2 active torsions:
REMARK  status: ('A' for Active; 'I' for Inactive)
REMARK    1  A    between atoms: C1_1  and  C6_6 
REMARK    2  A    between atoms: C2_2  and  C7_7 
ROOT
HETATM    1  C3  UNL     1     -34.691  15.244  -4.982  1.00 20.00     0.037 C 
HETATM    2  C4  UNL     1     -34.842  13.889  -5.639  1.00 20.00     0.168 C 
HETATM    3  C5  UNL     1     -34.005  13.559  -3.490  1.00 20.00     0.176 C 
HETATM    4  C6  UNL     1     -34.752  14.884  -3.511  1.00 20.00     0.034 C 
HETATM    5  O8  UNL     1     -34.197  12.945  -4.775  1.00 20.00    -0.390 OA
ENDROOT
BRANCH   4   6
HETATM    6  C1  UNL     1     -34.170  15.921  -2.614  1.00 20.00    -0.023 C 
HETATM    7  C2  UNL     1     -34.733  16.315  -1.463  1.00 20.00    -0.015 C 
BRANCH   7   8
HETATM    8  C7  UNL     1     -34.139  17.348  -0.562  1.00 20.00     0.141 C 
HETATM    9 CL9  UNL     1     -35.078  17.452   0.942  1.00 20.00    -0.126 Cl
ENDBRANCH   7   8
ENDBRANCH   4   6
TORSDOF 2
ENDMDL
MODEL 6
REMARK VINA RESULT:      -3.9     11.285     11.744
REMARK  2 active torsions:
REMARK  status: ('A' for Active; 'I' for Inactive)
REMARK    1  A    between atoms: C1_1  and  C6_6 
REMARK    2  A    between atoms: C2_2  and  C7_7 
ROOT
HETATM    1  C3  UNL     1     -35.776  14.996  -3.433  1.00 20.00     0.037 C 
HETATM    2  C4  UNL     1     -35.487  13.893  -4.428  1.00 20.00     0.168 C 
HETATM    3  C5  UNL     1     -33.470  14.927  -3.893  1.00 20.00     0.176 C 
HETATM    4  C6  UNL     1     -34.437  15.146  -2.739  1.00 20.00     0.034 C 
HETATM    5  O8  UNL     1     -34.122  14.058  -4.833  1.00 20.00    -0.390 OA
ENDROOT
BRANCH   4   6
HETATM    6  C1  UNL     1     -34.264  16.452  -2.045  1.00 20.00    -0.023 C 
HETATM    7  C2  UNL     1     -34.585  16.665  -0.761  1.00 20.00    -0.015 C 
BRANCH   7   8
HETATM    8  C7  UNL     1     -34.399  17.974  -0.067  1.00 20.00     0.141 C 
HETATM    9 CL9  UNL     1     -32.698  18.477  -0.169  1.00 20.00    -0.126 Cl
ENDBRANCH   7   8
ENDBRANCH   4   6
TORSDOF 2
ENDMDL
MODEL 7
REMARK VINA RESULT:      -3.8     11.255     11.724
REMARK  2 active torsions:
REMARK  status: ('A' for Active; 'I' for Inactive)
REMARK    1  A    between atoms: C1_1  and  C6_6 
REMARK    2  A    between atoms: C2_2  and  C7_7 
ROOT
HETATM    1  C3  UNL     1     -35.810  14.825  -3.538  1.00 20.00     0.037 C 
HETATM    2  C4  UNL     1     -35.438  13.784  -4.572  1.00 20.00     0.168 C 
HETATM    3  C5  UNL     1     -33.523  15.006  -4.058  1.00 20.00     0.176 C 
HETATM    4  C6  UNL     1     -34.475  15.094  -2.874  1.00 20.00     0.034 C 
HETATM    5  O8  UNL     1     -34.109  14.100  -5.006  1.00 20.00    -0.390 OA
ENDROOT
BRANCH   4   6
HETATM    6  C1  UNL     1     -34.416  16.392  -2.147  1.00 20.00    -0.023 C 
HETATM    7  C2  UNL     1     -34.650  16.525  -0.833  1.00 20.00    -0.015 C 
BRANCH   7   8
HETATM    8  C7  UNL     1     -34.580  17.828  -0.107  1.00 20.00     0.141 C 
HETATM    9 CL9  UNL     1     -35.215  17.638   1.541  1.00 20.00    -0.126 Cl
ENDBRANCH   7   8
ENDBRANCH   4   6
TORSDOF 2
ENDMDL
MODEL 8
REMARK VINA RESULT:      -3.7     11.248     11.957
REMARK  2 active torsions:
REMARK  status: ('A' for Active; 'I' for Inactive)
REMARK    1  A    between atoms: C1_1  and  C6_6 
REMARK    2  A    between atoms: C2_2  and  C7_7 
ROOT
HETATM    1  C3  UNL     1     -34.686  16.931  -0.277  1.00 20.00     0.037 C 
HETATM    2  C4  UNL     1     -34.342  18.376   0.009  1.00 20.00     0.168 C 
HETATM    3  C5  UNL     1     -33.723  17.909  -2.187  1.00 20.00     0.176 C 
HETATM    4  C6  UNL     1     -34.822  16.936  -1.786  1.00 20.00     0.034 C 
HETATM    5  O8  UNL     1     -33.560  18.834  -1.101  1.00 20.00    -0.390 OA
ENDROOT
BRANCH   4   6
HETATM    6  C1  UNL     1     -34.692  15.588  -2.406  1.00 20.00    -0.023 C 
HETATM    7  C2  UNL     1     -33.722  15.253  -3.269  1.00 20.00    -0.015 C 
BRANCH   7   8
HETATM    8  C7  UNL     1     -33.591  13.896  -3.880  1.00 20.00     0.141 C 
HETATM    9 CL9  UNL     1     -35.200  13.242  -4.255  1.00 20.00    -0.126 Cl
ENDBRANCH   7   8
ENDBRANCH   4   6
TORSDOF 2
ENDMDL
MODEL 9
REMARK VINA RESULT:      -3.7     11.517     11.967
REMARK  2 active torsions:
REMARK  status: ('A' for Active; 'I' for Inactive)
REMARK    1  A    between atoms: C1_1  and  C6_6 
REMARK    2  A    between atoms: C2_2  and  C7_7 
ROOT
HETATM    1  C3  UNL     1     -33.351  17.973  -0.569  1.00 20.00     0.037 C 
HETATM    2  C4  UNL     1     -33.696  18.928   0.553  1.00 20.00     0.168 C 
HETATM    3  C5  UNL     1     -35.659  17.871  -0.123  1.00 20.00     0.176 C 
HETATM    4  C6  UNL     1     -34.485  16.973  -0.485  1.00 20.00     0.034 C 
HETATM    5  O8  UNL     1     -35.127  18.985   0.611  1.00 20.00    -0.390 OA
ENDROOT
BRANCH   4   6
HETATM    6  C1  UNL     1     -34.688  16.188  -1.735  1.00 20.00    -0.023 C 
HETATM    7  C2  UNL     1     -33.786  16.111  -2.724  1.00 20.00    -0.015 C 
BRANCH   7   8
HETATM    8  C7  UNL     1     -33.991  15.314  -3.970  1.00 20.00     0.141 C 
HETATM    9 CL9  UNL     1     -33.303  13.688  -3.769  1.00 20.00    -0.126 Cl
ENDBRANCH   7   8
ENDBRANCH   4   6
TORSDOF 2
ENDMDL
