MODEL 1
REMARK VINA RESULT:      -4.4      0.000      0.000
REMARK  4 active torsions:
REMARK  status: ('A' for Active; 'I' for Inactive)
REMARK    1  A    between atoms: C2_2  and  C8_8 
REMARK    2  A    between atoms: C3_3  and  C9_9 
REMARK    3  A    between atoms: C3_3  and  O11_11 
REMARK    4  A    between atoms: C9_9  and  C10_10 
ROOT
HETATM    1  C1  UNL     1     -33.610  17.930  -4.393  1.00 20.00     0.045 A 
HETATM    2  C2  UNL     1     -34.312  16.818  -3.658  1.00 20.00     0.022 A 
HETATM    3  C3  UNL     1     -33.621  16.538  -4.971  1.00 20.00     0.063 A 
ENDROOT
BRANCH   3   4
HETATM    4  C9  UNL     1     -34.446  16.238  -6.216  1.00 20.00     0.046 C 
BRANCH   4   5
HETATM    5  C10 UNL     1     -35.279  14.930  -6.175  1.00 20.00    -0.049 C 
HETATM    6  C5  UNL     1     -35.417  14.403  -7.617  1.00 20.00     0.014 C 
HETATM    7  C6  UNL     1     -36.687  15.187  -5.612  1.00 20.00     0.014 C 
HETATM    8  C7  UNL     1     -34.581  13.854  -5.327  1.00 20.00     0.014 C 
ENDBRANCH   4   5
ENDBRANCH   3   4
BRANCH   3   9
HETATM    9  O11 UNL     1     -32.370  15.830  -4.921  1.00 20.00    -0.389 OA
HETATM   10  H31 UNL     1     -32.017  15.852  -5.819  1.00 20.00     0.210 HD
ENDBRANCH   3   9
BRANCH   2  11
HETATM   11  C8  UNL     1     -33.765  16.315  -2.366  1.00 20.00     0.003 C 
HETATM   12  C4  UNL     1     -34.722  16.490  -1.214  1.00 20.00     0.005 C 
ENDBRANCH   2  11
TORSDOF 4
ENDMDL
MODEL 2
REMARK VINA RESULT:      -4.4      1.271      4.210
REMARK  4 active torsions:
REMARK  status: ('A' for Active; 'I' for Inactive)
REMARK    1  A    between atoms: C2_2  and  C8_8 
REMARK    2  A    between atoms: C3_3  and  C9_9 
REMARK    3  A    between atoms: C3_3  and  O11_11 
REMARK    4  A    between atoms: C9_9  and  C10_10 
ROOT
HETATM    1  C1  UNL     1     -34.406  13.374  -4.857  1.00 20.00     0.045 A 
HETATM    2  C2  UNL     1     -34.798  14.735  -5.371  1.00 20.00     0.022 A 
HETATM    3  C3  UNL     1     -33.972  14.612  -4.114  1.00 20.00     0.063 A 
ENDROOT
BRANCH   3   4
HETATM    4  C9  UNL     1     -34.591  14.942  -2.761  1.00 20.00     0.046 C 
BRANCH   4   5
HETATM    5  C10 UNL     1     -34.805  16.450  -2.468  1.00 20.00    -0.049 C 
HETATM    6  C5  UNL     1     -34.613  16.677  -0.955  1.00 20.00     0.014 C 
HETATM    7  C6  UNL     1     -36.227  16.894  -2.852  1.00 20.00     0.014 C 
HETATM    8  C7  UNL     1     -33.783  17.314  -3.225  1.00 20.00     0.014 C 
ENDBRANCH   4   5
ENDBRANCH   3   4
BRANCH   3   9
HETATM    9  O11 UNL     1     -32.575  14.941  -4.207  1.00 20.00    -0.389 OA
HETATM   10  H31 UNL     1     -32.383  15.012  -5.151  1.00 20.00     0.210 HD
ENDBRANCH   3   9
BRANCH   2  11
HETATM   11  C8  UNL     1     -34.214  15.250  -6.642  1.00 20.00     0.003 C 
HETATM   12  C4  UNL     1     -34.559  16.693  -6.906  1.00 20.00     0.005 C 
ENDBRANCH   2  11
TORSDOF 4
ENDMDL
MODEL 3
REMARK VINA RESULT:      -4.3      1.327      2.519
REMARK  4 active torsions:
REMARK  status: ('A' for Active; 'I' for Inactive)
REMARK    1  A    between atoms: C2_2  and  C8_8 
REMARK    2  A    between atoms: C3_3  and  C9_9 
REMARK    3  A    between atoms: C3_3  and  O11_11 
REMARK    4  A    between atoms: C9_9  and  C10_10 
ROOT
HETATM    1  C1  UNL     1     -33.676  16.373  -2.697  1.00 20.00     0.045 A 
HETATM    2  C2  UNL     1     -34.507  15.446  -3.545  1.00 20.00     0.022 A 
HETATM    3  C3  UNL     1     -33.408  16.266  -4.177  1.00 20.00     0.063 A 
ENDROOT
BRANCH   3   4
HETATM    4  C9  UNL     1     -33.759  17.427  -5.099  1.00 20.00     0.046 C 
BRANCH   4   5
HETATM    5  C10 UNL     1     -34.607  17.065  -6.346  1.00 20.00    -0.049 C 
HETATM    6  C5  UNL     1     -34.381  18.155  -7.413  1.00 20.00     0.014 C 
HETATM    7  C6  UNL     1     -36.106  17.020  -6.003  1.00 20.00     0.014 C 
HETATM    8  C7  UNL     1     -34.181  15.710  -6.934  1.00 20.00     0.014 C 
ENDBRANCH   4   5
ENDBRANCH   3   4
BRANCH   3   9
HETATM    9  O11 UNL     1     -32.201  15.577  -4.546  1.00 20.00    -0.389 OA
HETATM   10  H31 UNL     1     -31.599  15.679  -3.798  1.00 20.00     0.210 HD
ENDBRANCH   3   9
BRANCH   2  11
HETATM   11  C8  UNL     1     -34.384  13.970  -3.379  1.00 20.00     0.003 C 
HETATM   12  C4  UNL     1     -35.162  13.195  -4.412  1.00 20.00     0.005 C 
ENDBRANCH   2  11
TORSDOF 4
ENDMDL
MODEL 4
REMARK VINA RESULT:      -4.2      1.433      1.813
REMARK  4 active torsions:
REMARK  status: ('A' for Active; 'I' for Inactive)
REMARK    1  A    between atoms: C2_2  and  C8_8 
REMARK    2  A    between atoms: C3_3  and  C9_9 
REMARK    3  A    between atoms: C3_3  and  O11_11 
REMARK    4  A    between atoms: C9_9  and  C10_10 
ROOT
HETATM    1  C1  UNL     1     -35.109  15.513  -2.647  1.00 20.00     0.045 A 
HETATM    2  C2  UNL     1     -33.826  16.257  -2.387  1.00 20.00     0.022 A 
HETATM    3  C3  UNL     1     -34.563  16.454  -3.690  1.00 20.00     0.063 A 
ENDROOT
BRANCH   3   4
HETATM    4  C9  UNL     1     -33.981  15.899  -4.984  1.00 20.00     0.046 C 
BRANCH   4   5
HETATM    5  C10 UNL     1     -34.887  14.909  -5.761  1.00 20.00    -0.049 C 
HETATM    6  C5  UNL     1     -34.452  14.918  -7.240  1.00 20.00     0.014 C 
HETATM    7  C6  UNL     1     -36.364  15.332  -5.684  1.00 20.00     0.014 C 
HETATM    8  C7  UNL     1     -34.741  13.478  -5.219  1.00 20.00     0.014 C 
ENDBRANCH   4   5
ENDBRANCH   3   4
BRANCH   3   9
HETATM    9  O11 UNL     1     -35.284  17.686  -3.861  1.00 20.00    -0.389 OA
HETATM   10  H31 UNL     1     -34.701  18.266  -4.366  1.00 20.00     0.210 HD
ENDBRANCH   3   9
BRANCH   2  11
HETATM   11  C8  UNL     1     -33.779  17.325  -1.348  1.00 20.00     0.003 C 
HETATM   12  C4  UNL     1     -34.716  17.067  -0.196  1.00 20.00     0.005 C 
ENDBRANCH   2  11
TORSDOF 4
ENDMDL
MODEL 5
REMARK VINA RESULT:      -4.2     12.969     14.689
REMARK  4 active torsions:
REMARK  status: ('A' for Active; 'I' for Inactive)
REMARK    1  A    between atoms: C2_2  and  C8_8 
REMARK    2  A    between atoms: C3_3  and  C9_9 
REMARK    3  A    between atoms: C3_3  and  O11_11 
REMARK    4  A    between atoms: C9_9  and  C10_10 
ROOT
HETATM    1  C1  UNL     1     -42.935   2.980  -1.898  1.00 20.00     0.045 A 
HETATM    2  C2  UNL     1     -42.239   3.065  -3.231  1.00 20.00     0.022 A 
HETATM    3  C3  UNL     1     -41.872   4.024  -2.125  1.00 20.00     0.063 A 
ENDROOT
BRANCH   3   4
HETATM    4  C9  UNL     1     -42.261   5.494  -2.231  1.00 20.00     0.046 C 
BRANCH   4   5
HETATM    5  C10 UNL     1     -42.209   6.302  -0.909  1.00 20.00    -0.049 C 
HETATM    6  C5  UNL     1     -43.150   7.515  -1.050  1.00 20.00     0.014 C 
HETATM    7  C6  UNL     1     -40.787   6.818  -0.629  1.00 20.00     0.014 C 
HETATM    8  C7  UNL     1     -42.684   5.453   0.282  1.00 20.00     0.014 C 
ENDBRANCH   4   5
ENDBRANCH   3   4
BRANCH   3   9
HETATM    9  O11 UNL     1     -40.623   3.803  -1.447  1.00 20.00    -0.389 OA
HETATM   10  H31 UNL     1     -40.429   2.862  -1.551  1.00 20.00     0.210 HD
ENDBRANCH   3   9
BRANCH   2  11
HETATM   11  C8  UNL     1     -41.313   1.979  -3.662  1.00 20.00     0.003 C 
HETATM   12  C4  UNL     1     -41.983   0.632  -3.741  1.00 20.00     0.005 C 
ENDBRANCH   2  11
TORSDOF 4
ENDMDL
MODEL 6
REMARK VINA RESULT:      -4.2      2.219      3.250
REMARK  4 active torsions:
REMARK  status: ('A' for Active; 'I' for Inactive)
REMARK    1  A    between atoms: C2_2  and  C8_8 
REMARK    2  A    between atoms: C3_3  and  C9_9 
REMARK    3  A    between atoms: C3_3  and  O11_11 
REMARK    4  A    between atoms: C9_9  and  C10_10 
ROOT
HETATM    1  C1  UNL     1     -34.772  16.715  -0.901  1.00 20.00     0.045 A 
HETATM    2  C2  UNL     1     -33.454  17.441  -0.964  1.00 20.00     0.022 A 
HETATM    3  C3  UNL     1     -34.122  16.976  -2.235  1.00 20.00     0.063 A 
ENDROOT
BRANCH   3   4
HETATM    4  C9  UNL     1     -33.525  15.821  -3.029  1.00 20.00     0.046 C 
BRANCH   4   5
HETATM    5  C10 UNL     1     -34.516  15.039  -3.931  1.00 20.00    -0.049 C 
HETATM    6  C5  UNL     1     -34.082  13.560  -3.953  1.00 20.00     0.014 C 
HETATM    7  C6  UNL     1     -34.497  15.575  -5.372  1.00 20.00     0.014 C 
HETATM    8  C7  UNL     1     -35.950  15.118  -3.380  1.00 20.00     0.014 C 
ENDBRANCH   4   5
ENDBRANCH   3   4
BRANCH   3   9
HETATM    9  O11 UNL     1     -34.753  17.976  -3.053  1.00 20.00    -0.389 OA
HETATM   10  H31 UNL     1     -35.006  17.529  -3.871  1.00 20.00     0.210 HD
ENDBRANCH   3   9
BRANCH   2  11
HETATM   11  C8  UNL     1     -33.380  18.886  -0.605  1.00 20.00     0.003 C 
HETATM   12  C4  UNL     1     -32.103  19.250   0.108  1.00 20.00     0.005 C 
ENDBRANCH   2  11
TORSDOF 4
ENDMDL
MODEL 7
REMARK VINA RESULT:      -4.1      1.698      4.425
REMARK  4 active torsions:
REMARK  status: ('A' for Active; 'I' for Inactive)
REMARK    1  A    between atoms: C2_2  and  C8_8 
REMARK    2  A    between atoms: C3_3  and  C9_9 
REMARK    3  A    between atoms: C3_3  and  O11_11 
REMARK    4  A    between atoms: C9_9  and  C10_10 
ROOT
HETATM    1  C1  UNL     1     -37.085  14.427  -4.391  1.00 20.00     0.045 A 
HETATM    2  C2  UNL     1     -35.981  15.011  -5.233  1.00 20.00     0.022 A 
HETATM    3  C3  UNL     1     -35.683  14.509  -3.841  1.00 20.00     0.063 A 
ENDROOT
BRANCH   3   4
HETATM    4  C9  UNL     1     -35.360  15.499  -2.729  1.00 20.00     0.046 C 
BRANCH   4   5
HETATM    5  C10 UNL     1     -34.070  16.337  -2.925  1.00 20.00    -0.049 C 
HETATM    6  C5  UNL     1     -33.656  16.910  -1.555  1.00 20.00     0.014 C 
HETATM    7  C6  UNL     1     -34.312  17.508  -3.892  1.00 20.00     0.014 C 
HETATM    8  C7  UNL     1     -32.919  15.468  -3.459  1.00 20.00     0.014 C 
ENDBRANCH   4   5
ENDBRANCH   3   4
BRANCH   3   9
HETATM    9  O11 UNL     1     -34.982  13.259  -3.726  1.00 20.00    -0.389 OA
HETATM   10  H31 UNL     1     -34.204  13.441  -3.184  1.00 20.00     0.210 HD
ENDBRANCH   3   9
BRANCH   2  11
HETATM   11  C8  UNL     1     -35.501  14.285  -6.444  1.00 20.00     0.003 C 
HETATM   12  C4  UNL     1     -34.388  15.006  -7.160  1.00 20.00     0.005 C 
ENDBRANCH   2  11
TORSDOF 4
ENDMDL
MODEL 8
REMARK VINA RESULT:      -4.0      2.404      5.447
REMARK  4 active torsions:
REMARK  status: ('A' for Active; 'I' for Inactive)
REMARK    1  A    between atoms: C2_2  and  C8_8 
REMARK    2  A    between atoms: C3_3  and  C9_9 
REMARK    3  A    between atoms: C3_3  and  O11_11 
REMARK    4  A    between atoms: C9_9  and  C10_10 
ROOT
HETATM    1  C1  UNL     1     -34.222  17.055  -3.209  1.00 20.00     0.045 A 
HETATM    2  C2  UNL     1     -34.394  15.565  -3.069  1.00 20.00     0.022 A 
HETATM    3  C3  UNL     1     -35.102  16.500  -2.119  1.00 20.00     0.063 A 
ENDROOT
BRANCH   3   4
HETATM    4  C9  UNL     1     -34.657  16.587  -0.664  1.00 20.00     0.046 C 
BRANCH   4   5
HETATM    5  C10 UNL     1     -34.419  18.019  -0.117  1.00 20.00    -0.049 C 
HETATM    6  C5  UNL     1     -34.764  18.022   1.386  1.00 20.00     0.014 C 
HETATM    7  C6  UNL     1     -35.322  19.042  -0.827  1.00 20.00     0.014 C 
HETATM    8  C7  UNL     1     -32.949  18.439  -0.281  1.00 20.00     0.014 C 
ENDBRANCH   4   5
ENDBRANCH   3   4
BRANCH   3   9
HETATM    9  O11 UNL     1     -36.517  16.681  -2.304  1.00 20.00    -0.389 OA
HETATM   10  H31 UNL     1     -36.727  16.273  -3.153  1.00 20.00     0.210 HD
ENDBRANCH   3   9
BRANCH   2  11
HETATM   11  C8  UNL     1     -35.137  14.798  -4.109  1.00 20.00     0.003 C 
HETATM   12  C4  UNL     1     -34.817  13.325  -4.095  1.00 20.00     0.005 C 
ENDBRANCH   2  11
TORSDOF 4
ENDMDL
MODEL 9
REMARK VINA RESULT:      -3.9      1.771      4.436
REMARK  4 active torsions:
REMARK  status: ('A' for Active; 'I' for Inactive)
REMARK    1  A    between atoms: C2_2  and  C8_8 
REMARK    2  A    between atoms: C3_3  and  C9_9 
REMARK    3  A    between atoms: C3_3  and  O11_11 
REMARK    4  A    between atoms: C9_9  and  C10_10 
ROOT
HETATM    1  C1  UNL     1     -37.533  14.877  -4.908  1.00 20.00     0.045 A 
HETATM    2  C2  UNL     1     -36.225  15.270  -5.543  1.00 20.00     0.022 A 
HETATM    3  C3  UNL     1     -36.242  14.662  -4.161  1.00 20.00     0.063 A 
ENDROOT
BRANCH   3   4
HETATM    4  C9  UNL     1     -35.914  15.524  -2.947  1.00 20.00     0.046 C 
BRANCH   4   5
HETATM    5  C10 UNL     1     -34.493  16.143  -2.924  1.00 20.00    -0.049 C 
HETATM    6  C5  UNL     1     -34.485  17.366  -3.862  1.00 20.00     0.014 C 
HETATM    7  C6  UNL     1     -33.441  15.137  -3.424  1.00 20.00     0.014 C 
HETATM    8  C7  UNL     1     -34.114  16.611  -1.509  1.00 20.00     0.014 C 
ENDBRANCH   4   5
ENDBRANCH   3   4
BRANCH   3   9
HETATM    9  O11 UNL     1     -35.811  13.297  -4.035  1.00 20.00    -0.389 OA
HETATM   10  H31 UNL     1     -36.463  12.864  -3.469  1.00 20.00     0.210 HD
ENDBRANCH   3   9
BRANCH   2  11
HETATM   11  C8  UNL     1     -35.709  14.515  -6.721  1.00 20.00     0.003 C 
HETATM   12  C4  UNL     1     -34.388  15.039  -7.222  1.00 20.00     0.005 C 
ENDBRANCH   2  11
TORSDOF 4
ENDMDL
