MODEL 1
REMARK VINA RESULT:      -4.8      0.000      0.000
REMARK  2 active torsions:
REMARK  status: ('A' for Active; 'I' for Inactive)
REMARK    1  A    between atoms: C1_1  and  C7_7 
REMARK    2  A    between atoms: C2_2  and  C8_8 
ROOT
HETATM    1  C3  UNL     1     -33.691   6.707   5.396  1.00 20.00     0.035 C 
HETATM    2  C4  UNL     1     -34.719   5.121   3.748  1.00 20.00     0.035 C 
HETATM    3  C5  UNL     1     -34.192   5.781   6.497  1.00 20.00     0.168 C 
HETATM    4  C6  UNL     1     -35.163   4.281   4.939  1.00 20.00     0.168 C 
HETATM    5  C7  UNL     1     -33.477   5.928   4.104  1.00 20.00     0.012 C 
HETATM    6  O9  UNL     1     -35.381   5.104   6.086  1.00 20.00    -0.391 OA
ENDROOT
BRANCH   5   7
HETATM    7  C1  UNL     1     -33.219   6.921   2.986  1.00 20.00    -0.025 C 
HETATM    8  C2  UNL     1     -31.998   7.347   2.632  1.00 20.00    -0.020 C 
BRANCH   8   9
HETATM    9  C8  UNL     1     -31.755   8.333   1.542  1.00 20.00     0.112 C 
HETATM   10 BR10 UNL     1     -32.786   9.937   1.920  1.00 20.00    -0.092 Br
ENDBRANCH   8   9
ENDBRANCH   5   7
TORSDOF 2
ENDMDL
MODEL 2
REMARK VINA RESULT:      -4.6     11.134     11.645
REMARK  2 active torsions:
REMARK  status: ('A' for Active; 'I' for Inactive)
REMARK    1  A    between atoms: C1_1  and  C7_7 
REMARK    2  A    between atoms: C2_2  and  C8_8 
ROOT
HETATM    1  C3  UNL     1     -33.407  14.344  -3.439  1.00 20.00     0.035 C 
HETATM    2  C4  UNL     1     -35.806  15.055  -3.270  1.00 20.00     0.035 C 
HETATM    3  C5  UNL     1     -33.853  13.324  -4.479  1.00 20.00     0.168 C 
HETATM    4  C6  UNL     1     -36.121  13.997  -4.321  1.00 20.00     0.168 C 
HETATM    5  C7  UNL     1     -34.365  15.529  -3.413  1.00 20.00     0.012 C 
HETATM    6  O9  UNL     1     -35.198  12.910  -4.236  1.00 20.00    -0.391 OA
ENDROOT
BRANCH   5   7
HETATM    7  C1  UNL     1     -34.026  16.388  -2.210  1.00 20.00    -0.025 C 
HETATM    8  C2  UNL     1     -34.825  16.525  -1.142  1.00 20.00    -0.020 C 
BRANCH   8   9
HETATM    9  C8  UNL     1     -34.492  17.381   0.031  1.00 20.00     0.112 C 
HETATM   10 BR10 UNL     1     -32.998  18.530  -0.450  1.00 20.00    -0.092 Br
ENDBRANCH   8   9
ENDBRANCH   5   7
TORSDOF 2
ENDMDL
MODEL 3
REMARK VINA RESULT:      -4.6      0.670      1.672
REMARK  2 active torsions:
REMARK  status: ('A' for Active; 'I' for Inactive)
REMARK    1  A    between atoms: C1_1  and  C7_7 
REMARK    2  A    between atoms: C2_2  and  C8_8 
ROOT
HETATM    1  C3  UNL     1     -34.560   4.606   3.968  1.00 20.00     0.035 C 
HETATM    2  C4  UNL     1     -33.712   6.494   5.385  1.00 20.00     0.035 C 
HETATM    3  C5  UNL     1     -35.233   4.058   5.220  1.00 20.00     0.168 C 
HETATM    4  C6  UNL     1     -34.432   5.843   6.560  1.00 20.00     0.168 C 
HETATM    5  C7  UNL     1     -34.391   6.117   4.074  1.00 20.00     0.012 C 
HETATM    6  O9  UNL     1     -34.500   4.427   6.390  1.00 20.00    -0.391 OA
ENDROOT
BRANCH   5   7
HETATM    7  C1  UNL     1     -33.507   6.578   2.931  1.00 20.00    -0.025 C 
HETATM    8  C2  UNL     1     -32.528   7.485   3.063  1.00 20.00    -0.020 C 
BRANCH   8   9
HETATM    9  C8  UNL     1     -31.673   7.943   1.933  1.00 20.00     0.112 C 
HETATM   10 BR10 UNL     1     -32.388   9.620   1.258  1.00 20.00    -0.092 Br
ENDBRANCH   8   9
ENDBRANCH   5   7
TORSDOF 2
ENDMDL
MODEL 4
REMARK VINA RESULT:      -4.3     11.342     12.112
REMARK  2 active torsions:
REMARK  status: ('A' for Active; 'I' for Inactive)
REMARK    1  A    between atoms: C1_1  and  C7_7 
REMARK    2  A    between atoms: C2_2  and  C8_8 
ROOT
HETATM    1  C3  UNL     1     -35.491  15.863  -4.398  1.00 20.00     0.035 C 
HETATM    2  C4  UNL     1     -33.883  14.070  -3.699  1.00 20.00     0.035 C 
HETATM    3  C5  UNL     1     -35.990  14.903  -5.471  1.00 20.00     0.168 C 
HETATM    4  C6  UNL     1     -34.471  13.207  -4.809  1.00 20.00     0.168 C 
HETATM    5  C7  UNL     1     -34.911  15.089  -3.221  1.00 20.00     0.012 C 
HETATM    6  O9  UNL     1     -34.946  14.020  -5.884  1.00 20.00    -0.391 OA
ENDROOT
BRANCH   5   7
HETATM    7  C1  UNL     1     -34.213  16.073  -2.302  1.00 20.00    -0.025 C 
HETATM    8  C2  UNL     1     -34.746  16.540  -1.165  1.00 20.00    -0.020 C 
BRANCH   8   9
HETATM    9  C8  UNL     1     -34.059  17.517  -0.274  1.00 20.00     0.112 C 
HETATM   10 BR10 UNL     1     -35.176  17.819   1.288  1.00 20.00    -0.092 Br
ENDBRANCH   8   9
ENDBRANCH   5   7
TORSDOF 2
ENDMDL
MODEL 5
REMARK VINA RESULT:      -4.1     10.252     11.369
REMARK  2 active torsions:
REMARK  status: ('A' for Active; 'I' for Inactive)
REMARK    1  A    between atoms: C1_1  and  C7_7 
REMARK    2  A    between atoms: C2_2  and  C8_8 
ROOT
HETATM    1  C3  UNL     1     -40.966   4.447  -1.252  1.00 20.00     0.035 C 
HETATM    2  C4  UNL     1     -42.453   5.762  -2.784  1.00 20.00     0.035 C 
HETATM    3  C5  UNL     1     -40.645   5.759  -0.548  1.00 20.00     0.168 C 
HETATM    4  C6  UNL     1     -42.051   7.003  -1.996  1.00 20.00     0.168 C 
HETATM    5  C7  UNL     1     -42.339   4.520  -1.909  1.00 20.00     0.012 C 
HETATM    6  O9  UNL     1     -40.736   6.857  -1.458  1.00 20.00    -0.391 OA
ENDROOT
BRANCH   5   7
HETATM    7  C1  UNL     1     -42.508   3.299  -2.794  1.00 20.00    -0.025 C 
HETATM    8  C2  UNL     1     -41.493   2.519  -3.192  1.00 20.00    -0.020 C 
BRANCH   8   9
HETATM    9  C8  UNL     1     -41.667   1.329  -4.072  1.00 20.00     0.112 C 
HETATM   10 BR10 UNL     1     -43.233   1.612  -5.189  1.00 20.00    -0.092 Br
ENDBRANCH   8   9
ENDBRANCH   5   7
TORSDOF 2
ENDMDL
MODEL 6
REMARK VINA RESULT:      -4.1     11.447     12.393
REMARK  2 active torsions:
REMARK  status: ('A' for Active; 'I' for Inactive)
REMARK    1  A    between atoms: C1_1  and  C7_7 
REMARK    2  A    between atoms: C2_2  and  C8_8 
ROOT
HETATM    1  C3  UNL     1     -33.791  17.841  -2.914  1.00 20.00     0.035 C 
HETATM    2  C4  UNL     1     -34.778  16.397  -1.117  1.00 20.00     0.035 C 
HETATM    3  C5  UNL     1     -33.451  18.849  -1.823  1.00 20.00     0.168 C 
HETATM    4  C6  UNL     1     -34.383  17.484  -0.124  1.00 20.00     0.168 C 
HETATM    5  C7  UNL     1     -33.861  16.434  -2.334  1.00 20.00     0.012 C 
HETATM    6  O9  UNL     1     -34.391  18.768  -0.750  1.00 20.00    -0.391 OA
ENDROOT
BRANCH   5   7
HETATM    7  C1  UNL     1     -34.436  15.511  -3.390  1.00 20.00    -0.025 C 
HETATM    8  C2  UNL     1     -34.156  14.203  -3.472  1.00 20.00    -0.020 C 
BRANCH   8   9
HETATM    9  C8  UNL     1     -34.716  13.306  -4.522  1.00 20.00     0.112 C 
HETATM   10 BR10 UNL     1     -35.070  14.365  -6.113  1.00 20.00    -0.092 Br
ENDBRANCH   8   9
ENDBRANCH   5   7
TORSDOF 2
ENDMDL
MODEL 7
REMARK VINA RESULT:      -3.9     11.432     12.185
REMARK  2 active torsions:
REMARK  status: ('A' for Active; 'I' for Inactive)
REMARK    1  A    between atoms: C1_1  and  C7_7 
REMARK    2  A    between atoms: C2_2  and  C8_8 
ROOT
HETATM    1  C3  UNL     1     -34.900  17.404   0.618  1.00 20.00     0.035 C 
HETATM    2  C4  UNL     1     -32.685  18.392  -0.016  1.00 20.00     0.035 C 
HETATM    3  C5  UNL     1     -34.863  18.288   1.858  1.00 20.00     0.168 C 
HETATM    4  C6  UNL     1     -32.769  19.224   1.258  1.00 20.00     0.168 C 
HETATM    5  C7  UNL     1     -34.082  18.029  -0.505  1.00 20.00     0.012 C 
HETATM    6  O9  UNL     1     -33.516  18.535   2.263  1.00 20.00    -0.391 OA
ENDROOT
BRANCH   5   7
HETATM    7  C1  UNL     1     -33.945  17.010  -1.619  1.00 20.00    -0.025 C 
HETATM    8  C2  UNL     1     -34.878  16.091  -1.909  1.00 20.00    -0.020 C 
BRANCH   8   9
HETATM    9  C8  UNL     1     -34.730  15.085  -2.998  1.00 20.00     0.112 C 
HETATM   10 BR10 UNL     1     -32.942  15.243  -3.745  1.00 20.00    -0.092 Br
ENDBRANCH   8   9
ENDBRANCH   5   7
TORSDOF 2
ENDMDL
MODEL 8
REMARK VINA RESULT:      -3.9     10.077     10.872
REMARK  2 active torsions:
REMARK  status: ('A' for Active; 'I' for Inactive)
REMARK    1  A    between atoms: C1_1  and  C7_7 
REMARK    2  A    between atoms: C2_2  and  C8_8 
ROOT
HETATM    1  C3  UNL     1     -42.302   5.534  -2.613  1.00 20.00     0.035 C 
HETATM    2  C4  UNL     1     -41.213   7.099  -0.984  1.00 20.00     0.035 C 
HETATM    3  C5  UNL     1     -41.698   4.388  -1.811  1.00 20.00     0.168 C 
HETATM    4  C6  UNL     1     -40.669   5.867  -0.270  1.00 20.00     0.168 C 
HETATM    5  C7  UNL     1     -42.500   6.756  -1.725  1.00 20.00     0.012 C 
HETATM    6  O9  UNL     1     -40.476   4.793  -1.192  1.00 20.00    -0.391 OA
ENDROOT
BRANCH   5   7
HETATM    7  C1  UNL     1     -42.867   7.932  -2.609  1.00 20.00    -0.025 C 
HETATM    8  C2  UNL     1     -42.637   7.974  -3.930  1.00 20.00    -0.020 C 
BRANCH   8   9
HETATM    9  C8  UNL     1     -42.988   9.139  -4.789  1.00 20.00     0.112 C 
HETATM   10 BR10 UNL     1     -41.591   9.365  -6.123  1.00 20.00    -0.092 Br
ENDBRANCH   8   9
ENDBRANCH   5   7
TORSDOF 2
ENDMDL
MODEL 9
REMARK VINA RESULT:      -3.7     11.535     12.058
REMARK  2 active torsions:
REMARK  status: ('A' for Active; 'I' for Inactive)
REMARK    1  A    between atoms: C1_1  and  C7_7 
REMARK    2  A    between atoms: C2_2  and  C8_8 
ROOT
HETATM    1  C3  UNL     1     -35.213  17.660   2.261  1.00 20.00     0.035 C 
HETATM    2  C4  UNL     1     -32.934  18.689   2.065  1.00 20.00     0.035 C 
HETATM    3  C5  UNL     1     -35.197  18.070   3.728  1.00 20.00     0.168 C 
HETATM    4  C6  UNL     1     -33.044  19.044   3.543  1.00 20.00     0.168 C 
HETATM    5  C7  UNL     1     -34.321  18.585   1.442  1.00 20.00     0.012 C 
HETATM    6  O9  UNL     1     -33.861  18.096   4.231  1.00 20.00    -0.391 OA
ENDROOT
BRANCH   5   7
HETATM    7  C1  UNL     1     -34.174  17.997   0.052  1.00 20.00    -0.025 C 
HETATM    8  C2  UNL     1     -34.763  16.859  -0.344  1.00 20.00    -0.020 C 
BRANCH   8   9
HETATM    9  C8  UNL     1     -34.603  16.281  -1.708  1.00 20.00     0.112 C 
HETATM   10 BR10 UNL     1     -33.903  17.661  -2.884  1.00 20.00    -0.092 Br
ENDBRANCH   8   9
ENDBRANCH   5   7
TORSDOF 2
ENDMDL
