MODEL 1
REMARK VINA RESULT:      -4.9      0.000      0.000
REMARK  4 active torsions:
REMARK  status: ('A' for Active; 'I' for Inactive)
REMARK    1  A    between atoms: C1_1  and  C8_8 
REMARK    2  A    between atoms: C1_1  and  C10_10 
REMARK    3  A    between atoms: C5_5  and  C9_9 
REMARK    4  A    between atoms: C9_9  and  C10_10 
ROOT
HETATM    1  C7  UNL     1     -32.248   5.195   2.607  1.00 20.00     0.018 C 
HETATM    2  C10 UNL     1     -32.690   6.300   3.564  1.00 20.00     0.051 C 
ENDROOT
BRANCH   2   3
HETATM    3  C1  UNL     1     -31.887   7.561   3.250  1.00 20.00     0.130 C 
HETATM    4  O11 UNL     1     -31.156   8.089   4.087  1.00 20.00    -0.298 OA
BRANCH   3   5
HETATM    5  C8  UNL     1     -32.018   8.102   1.835  1.00 20.00     0.074 C 
HETATM    6  C6  UNL     1     -32.488   9.545   1.801  1.00 20.00     0.013 C 
ENDBRANCH   3   5
ENDBRANCH   2   3
BRANCH   2   7
HETATM    7  C9  UNL     1     -34.201   6.543   3.452  1.00 20.00     0.016 C 
BRANCH   7   8
HETATM    8  C5  UNL     1     -34.932   5.993   4.660  1.00 20.00    -0.014 C 
HETATM    9  C3  UNL     1     -34.119   5.892   5.976  1.00 20.00     0.005 C 
HETATM   10  C2  UNL     1     -34.884   4.582   6.260  1.00 20.00     0.001 C 
HETATM   11  C4  UNL     1     -35.084   4.452   4.736  1.00 20.00     0.005 C 
ENDBRANCH   7   8
ENDBRANCH   2   7
TORSDOF 4
ENDMDL
MODEL 2
REMARK VINA RESULT:      -4.8     10.749     12.011
REMARK  4 active torsions:
REMARK  status: ('A' for Active; 'I' for Inactive)
REMARK    1  A    between atoms: C1_1  and  C8_8 
REMARK    2  A    between atoms: C1_1  and  C10_10 
REMARK    3  A    between atoms: C5_5  and  C9_9 
REMARK    4  A    between atoms: C9_9  and  C10_10 
ROOT
HETATM    1  C7  UNL     1     -32.795  13.931  -3.477  1.00 20.00     0.018 C 
HETATM    2  C10 UNL     1     -33.954  14.681  -4.129  1.00 20.00     0.051 C 
ENDROOT
BRANCH   2   3
HETATM    3  C1  UNL     1     -34.765  13.687  -4.961  1.00 20.00     0.130 C 
HETATM    4  O11 UNL     1     -35.089  12.585  -4.520  1.00 20.00    -0.298 OA
BRANCH   3   5
HETATM    5  C8  UNL     1     -35.177  14.157  -6.347  1.00 20.00     0.074 C 
HETATM    6  C6  UNL     1     -34.305  15.285  -6.866  1.00 20.00     0.013 C 
ENDBRANCH   3   5
ENDBRANCH   2   3
BRANCH   2   7
HETATM    7  C9  UNL     1     -34.818  15.375  -3.068  1.00 20.00     0.016 C 
BRANCH   7   8
HETATM    8  C5  UNL     1     -33.965  16.199  -2.125  1.00 20.00    -0.014 C 
HETATM    9  C3  UNL     1     -34.625  16.634  -0.792  1.00 20.00     0.005 C 
HETATM   10  C2  UNL     1     -33.855  17.964  -0.930  1.00 20.00     0.001 C 
HETATM   11  C4  UNL     1     -33.830  17.709  -2.452  1.00 20.00     0.005 C 
ENDBRANCH   7   8
ENDBRANCH   2   7
TORSDOF 4
ENDMDL
MODEL 3
REMARK VINA RESULT:      -4.8      1.323      4.730
REMARK  4 active torsions:
REMARK  status: ('A' for Active; 'I' for Inactive)
REMARK    1  A    between atoms: C1_1  and  C8_8 
REMARK    2  A    between atoms: C1_1  and  C10_10 
REMARK    3  A    between atoms: C5_5  and  C9_9 
REMARK    4  A    between atoms: C9_9  and  C10_10 
ROOT
HETATM    1  C7  UNL     1     -34.075   5.437   2.433  1.00 20.00     0.018 C 
HETATM    2  C10 UNL     1     -33.610   6.544   3.375  1.00 20.00     0.051 C 
ENDROOT
BRANCH   2   3
HETATM    3  C1  UNL     1     -34.022   6.172   4.799  1.00 20.00     0.130 C 
HETATM    4  O11 UNL     1     -33.508   6.704   5.782  1.00 20.00    -0.298 OA
BRANCH   3   5
HETATM    5  C8  UNL     1     -35.126   5.133   4.926  1.00 20.00     0.074 C 
HETATM    6  C6  UNL     1     -34.794   4.047   5.932  1.00 20.00     0.013 C 
ENDBRANCH   3   5
ENDBRANCH   2   3
BRANCH   2   7
HETATM    7  C9  UNL     1     -32.095   6.758   3.257  1.00 20.00     0.016 C 
BRANCH   7   8
HETATM    8  C5  UNL     1     -31.782   8.095   2.619  1.00 20.00    -0.014 C 
HETATM    9  C3  UNL     1     -32.954   9.105   2.511  1.00 20.00     0.005 C 
HETATM   10  C2  UNL     1     -32.365   9.530   1.150  1.00 20.00     0.001 C 
HETATM   11  C4  UNL     1     -31.725   8.128   1.069  1.00 20.00     0.005 C 
ENDBRANCH   7   8
ENDBRANCH   2   7
TORSDOF 4
ENDMDL
MODEL 4
REMARK VINA RESULT:      -4.8      0.586      1.075
REMARK  4 active torsions:
REMARK  status: ('A' for Active; 'I' for Inactive)
REMARK    1  A    between atoms: C1_1  and  C8_8 
REMARK    2  A    between atoms: C1_1  and  C10_10 
REMARK    3  A    between atoms: C5_5  and  C9_9 
REMARK    4  A    between atoms: C9_9  and  C10_10 
ROOT
HETATM    1  C7  UNL     1     -32.598   5.575   1.965  1.00 20.00     0.018 C 
HETATM    2  C10 UNL     1     -32.416   6.305   3.293  1.00 20.00     0.051 C 
ENDROOT
BRANCH   2   3
HETATM    3  C1  UNL     1     -31.771   7.663   3.014  1.00 20.00     0.130 C 
HETATM    4  O11 UNL     1     -31.098   8.247   3.862  1.00 20.00    -0.298 OA
BRANCH   3   5
HETATM    5  C8  UNL     1     -31.982   8.228   1.618  1.00 20.00     0.074 C 
HETATM    6  C6  UNL     1     -32.439   9.675   1.636  1.00 20.00     0.013 C 
ENDBRANCH   3   5
ENDBRANCH   2   3
BRANCH   2   7
HETATM    7  C9  UNL     1     -33.758   6.450   4.023  1.00 20.00     0.016 C 
BRANCH   7   8
HETATM    8  C5  UNL     1     -33.943   5.348   5.045  1.00 20.00    -0.014 C 
HETATM    9  C3  UNL     1     -35.224   4.485   4.911  1.00 20.00     0.005 C 
HETATM   10  C2  UNL     1     -35.274   4.452   6.453  1.00 20.00     0.001 C 
HETATM   11  C4  UNL     1     -34.480   5.775   6.436  1.00 20.00     0.005 C 
ENDBRANCH   7   8
ENDBRANCH   2   7
TORSDOF 4
ENDMDL
MODEL 5
REMARK VINA RESULT:      -4.6      2.116      4.471
REMARK  4 active torsions:
REMARK  status: ('A' for Active; 'I' for Inactive)
REMARK    1  A    between atoms: C1_1  and  C8_8 
REMARK    2  A    between atoms: C1_1  and  C10_10 
REMARK    3  A    between atoms: C5_5  and  C9_9 
REMARK    4  A    between atoms: C9_9  and  C10_10 
ROOT
HETATM    1  C7  UNL     1     -36.223   5.988   3.451  1.00 20.00     0.018 C 
HETATM    2  C10 UNL     1     -34.802   5.676   3.914  1.00 20.00     0.051 C 
ENDROOT
BRANCH   2   3
HETATM    3  C1  UNL     1     -34.877   4.669   5.062  1.00 20.00     0.130 C 
HETATM    4  O11 UNL     1     -35.096   3.474   4.862  1.00 20.00    -0.298 OA
BRANCH   3   5
HETATM    5  C8  UNL     1     -34.632   5.225   6.455  1.00 20.00     0.074 C 
HETATM    6  C6  UNL     1     -34.001   6.605   6.432  1.00 20.00     0.013 C 
ENDBRANCH   3   5
ENDBRANCH   2   3
BRANCH   2   7
HETATM    7  C9  UNL     1     -33.953   5.151   2.749  1.00 20.00     0.016 C 
BRANCH   7   8
HETATM    8  C5  UNL     1     -32.743   6.031   2.517  1.00 20.00    -0.014 C 
HETATM    9  C3  UNL     1     -31.786   6.227   3.721  1.00 20.00     0.005 C 
HETATM   10  C2  UNL     1     -31.596   7.680   3.238  1.00 20.00     0.001 C 
HETATM   11  C4  UNL     1     -32.980   7.563   2.566  1.00 20.00     0.005 C 
ENDBRANCH   7   8
ENDBRANCH   2   7
TORSDOF 4
ENDMDL
MODEL 6
REMARK VINA RESULT:      -4.5     11.144     12.170
REMARK  4 active torsions:
REMARK  status: ('A' for Active; 'I' for Inactive)
REMARK    1  A    between atoms: C1_1  and  C8_8 
REMARK    2  A    between atoms: C1_1  and  C10_10 
REMARK    3  A    between atoms: C5_5  and  C9_9 
REMARK    4  A    between atoms: C9_9  and  C10_10 
ROOT
HETATM    1  C7  UNL     1     -36.492  15.105  -3.578  1.00 20.00     0.018 C 
HETATM    2  C10 UNL     1     -35.146  14.399  -3.445  1.00 20.00     0.051 C 
ENDROOT
BRANCH   2   3
HETATM    3  C1  UNL     1     -34.794  13.772  -4.794  1.00 20.00     0.130 C 
HETATM    4  O11 UNL     1     -34.748  12.552  -4.949  1.00 20.00    -0.298 OA
BRANCH   3   5
HETATM    5  C8  UNL     1     -34.540  14.742  -5.936  1.00 20.00     0.074 C 
HETATM    6  C6  UNL     1     -35.326  14.393  -7.187  1.00 20.00     0.013 C 
ENDBRANCH   3   5
ENDBRANCH   2   3
BRANCH   2   7
HETATM    7  C9  UNL     1     -34.063  15.377  -2.971  1.00 20.00     0.016 C 
BRANCH   7   8
HETATM    8  C5  UNL     1     -34.678  16.582  -2.290  1.00 20.00    -0.014 C 
HETATM    9  C3  UNL     1     -33.829  17.880  -2.275  1.00 20.00     0.005 C 
HETATM   10  C2  UNL     1     -34.389  18.140  -0.861  1.00 20.00     0.001 C 
HETATM   11  C4  UNL     1     -34.603  16.617  -0.742  1.00 20.00     0.005 C 
ENDBRANCH   7   8
ENDBRANCH   2   7
TORSDOF 4
ENDMDL
MODEL 7
REMARK VINA RESULT:      -4.3     11.157     12.402
REMARK  4 active torsions:
REMARK  status: ('A' for Active; 'I' for Inactive)
REMARK    1  A    between atoms: C1_1  and  C8_8 
REMARK    2  A    between atoms: C1_1  and  C10_10 
REMARK    3  A    between atoms: C5_5  and  C9_9 
REMARK    4  A    between atoms: C9_9  and  C10_10 
ROOT
HETATM    1  C7  UNL     1     -34.259  14.274  -3.485  1.00 20.00     0.018 C 
HETATM    2  C10 UNL     1     -33.908  15.673  -2.986  1.00 20.00     0.051 C 
ENDROOT
BRANCH   2   3
HETATM    3  C1  UNL     1     -33.601  16.556  -4.195  1.00 20.00     0.130 C 
HETATM    4  O11 UNL     1     -32.738  16.250  -5.018  1.00 20.00    -0.298 OA
BRANCH   3   5
HETATM    5  C8  UNL     1     -34.447  17.811  -4.339  1.00 20.00     0.074 C 
HETATM    6  C6  UNL     1     -33.631  19.084  -4.211  1.00 20.00     0.013 C 
ENDBRANCH   3   5
ENDBRANCH   2   3
BRANCH   2   7
HETATM    7  C9  UNL     1     -35.049  16.248  -2.135  1.00 20.00     0.016 C 
BRANCH   7   8
HETATM    8  C5  UNL     1     -34.549  16.669  -0.769  1.00 20.00    -0.014 C 
HETATM    9  C3  UNL     1     -35.385  17.742  -0.023  1.00 20.00     0.005 C 
HETATM   10  C2  UNL     1     -34.049  18.313   0.499  1.00 20.00     0.001 C 
HETATM   11  C4  UNL     1     -33.378  17.687  -0.742  1.00 20.00     0.005 C 
ENDBRANCH   7   8
ENDBRANCH   2   7
TORSDOF 4
ENDMDL
MODEL 8
REMARK VINA RESULT:      -4.3      1.217      4.938
REMARK  4 active torsions:
REMARK  status: ('A' for Active; 'I' for Inactive)
REMARK    1  A    between atoms: C1_1  and  C8_8 
REMARK    2  A    between atoms: C1_1  and  C10_10 
REMARK    3  A    between atoms: C5_5  and  C9_9 
REMARK    4  A    between atoms: C9_9  and  C10_10 
ROOT
HETATM    1  C7  UNL     1     -32.180   5.077   2.983  1.00 20.00     0.018 C 
HETATM    2  C10 UNL     1     -33.123   6.257   3.201  1.00 20.00     0.051 C 
ENDROOT
BRANCH   2   3
HETATM    3  C1  UNL     1     -33.839   6.063   4.538  1.00 20.00     0.130 C 
HETATM    4  O11 UNL     1     -33.532   6.712   5.537  1.00 20.00    -0.298 OA
BRANCH   3   5
HETATM    5  C8  UNL     1     -34.974   5.051   4.548  1.00 20.00     0.074 C 
HETATM    6  C6  UNL     1     -34.968   4.178   5.789  1.00 20.00     0.013 C 
ENDBRANCH   3   5
ENDBRANCH   2   3
BRANCH   2   7
HETATM    7  C9  UNL     1     -32.355   7.584   3.153  1.00 20.00     0.016 C 
BRANCH   7   8
HETATM    8  C5  UNL     1     -32.698   8.366   1.902  1.00 20.00    -0.014 C 
HETATM    9  C3  UNL     1     -31.573   8.515   0.845  1.00 20.00     0.005 C 
HETATM   10  C2  UNL     1     -32.108   9.940   0.586  1.00 20.00     0.001 C 
HETATM   11  C4  UNL     1     -32.673   9.912   2.022  1.00 20.00     0.005 C 
ENDBRANCH   7   8
ENDBRANCH   2   7
TORSDOF 4
ENDMDL
MODEL 9
REMARK VINA RESULT:      -4.3     10.889     11.982
REMARK  4 active torsions:
REMARK  status: ('A' for Active; 'I' for Inactive)
REMARK    1  A    between atoms: C1_1  and  C8_8 
REMARK    2  A    between atoms: C1_1  and  C10_10 
REMARK    3  A    between atoms: C5_5  and  C9_9 
REMARK    4  A    between atoms: C9_9  and  C10_10 
ROOT
HETATM    1  C7  UNL     1     -33.872  17.819  -3.268  1.00 20.00     0.018 C 
HETATM    2  C10 UNL     1     -33.738  16.812  -2.128  1.00 20.00     0.051 C 
ENDROOT
BRANCH   2   3
HETATM    3  C1  UNL     1     -33.934  17.552  -0.804  1.00 20.00     0.130 C 
HETATM    4  O11 UNL     1     -34.622  17.085   0.103  1.00 20.00    -0.298 OA
BRANCH   3   5
HETATM    5  C8  UNL     1     -33.201  18.876  -0.664  1.00 20.00     0.074 C 
HETATM    6  C6  UNL     1     -32.048  18.805   0.319  1.00 20.00     0.013 C 
ENDBRANCH   3   5
ENDBRANCH   2   3
BRANCH   2   7
HETATM    7  C9  UNL     1     -34.742  15.664  -2.294  1.00 20.00     0.016 C 
BRANCH   7   8
HETATM    8  C5  UNL     1     -34.627  15.035  -3.667  1.00 20.00    -0.014 C 
HETATM    9  C3  UNL     1     -35.738  14.030  -4.067  1.00 20.00     0.005 C 
HETATM   10  C2  UNL     1     -34.640  13.215  -4.782  1.00 20.00     0.001 C 
HETATM   11  C4  UNL     1     -33.629  13.856  -3.809  1.00 20.00     0.005 C 
ENDBRANCH   7   8
ENDBRANCH   2   7
TORSDOF 4
ENDMDL
