MODEL 1
REMARK VINA RESULT:      -6.2      0.000      0.000
REMARK  3 active torsions:
REMARK  status: ('A' for Active; 'I' for Inactive)
REMARK    1  A    between atoms: C7_7  and  C9_9 
REMARK    2  A    between atoms: C8_8  and  C10_10 
REMARK    3  A    between atoms: C9_9  and  C10_10 
ROOT
HETATM    1  C1  UNL     1     -34.040   6.181   5.855  1.00 20.00     0.131 C 
HETATM    2  C2  UNL     1     -34.809   4.919   6.157  1.00 20.00     0.079 C 
HETATM    3  C3  UNL     1     -35.410   4.581   4.799  1.00 20.00     0.008 C 
HETATM    4  C4  UNL     1     -34.391   5.100   3.793  1.00 20.00     0.013 C 
HETATM    5  C7  UNL     1     -33.955   6.450   4.366  1.00 20.00     0.055 C 
HETATM    6  O11 UNL     1     -33.546   6.896   6.717  1.00 20.00    -0.298 OA
ENDROOT
BRANCH   5   7
HETATM    7  C9  UNL     1     -32.568   6.863   3.916  1.00 20.00     0.012 C 
BRANCH   7   8
HETATM    8  C10 UNL     1     -32.507   7.083   2.405  1.00 20.00     0.005 C 
BRANCH   8   9
HETATM    9  C8  UNL     1     -31.810   8.389   2.056  1.00 20.00    -0.014 A 
HETATM   10  C5  UNL     1     -31.667   8.813   0.620  1.00 20.00     0.005 A 
HETATM   11  C6  UNL     1     -32.604   9.555   1.533  1.00 20.00     0.005 A 
ENDBRANCH   8   9
ENDBRANCH   7   8
ENDBRANCH   5   7
TORSDOF 3
ENDMDL
MODEL 2
REMARK VINA RESULT:      -5.3      1.451      1.983
REMARK  3 active torsions:
REMARK  status: ('A' for Active; 'I' for Inactive)
REMARK    1  A    between atoms: C7_7  and  C9_9 
REMARK    2  A    between atoms: C8_8  and  C10_10 
REMARK    3  A    between atoms: C9_9  and  C10_10 
ROOT
HETATM    1  C1  UNL     1     -34.440   5.305   3.840  1.00 20.00     0.131 C 
HETATM    2  C2  UNL     1     -35.433   4.636   4.757  1.00 20.00     0.079 C 
HETATM    3  C3  UNL     1     -34.782   4.825   6.121  1.00 20.00     0.008 C 
HETATM    4  C4  UNL     1     -34.023   6.141   6.001  1.00 20.00     0.013 C 
HETATM    5  C7  UNL     1     -33.390   6.080   4.609  1.00 20.00     0.055 C 
HETATM    6  O11 UNL     1     -34.485   5.225   2.619  1.00 20.00    -0.298 OA
ENDROOT
BRANCH   5   7
HETATM    7  C9  UNL     1     -33.119   7.452   4.024  1.00 20.00     0.012 C 
BRANCH   7   8
HETATM    8  C10 UNL     1     -32.019   7.404   2.963  1.00 20.00     0.005 C 
BRANCH   8   9
HETATM    9  C8  UNL     1     -32.449   8.093   1.677  1.00 20.00    -0.014 A 
HETATM   10  C5  UNL     1     -32.425   9.593   1.575  1.00 20.00     0.005 A 
HETATM   11  C6  UNL     1     -31.429   8.771   0.805  1.00 20.00     0.005 A 
ENDBRANCH   8   9
ENDBRANCH   7   8
ENDBRANCH   5   7
TORSDOF 3
ENDMDL
MODEL 3
REMARK VINA RESULT:      -4.9     11.016     12.154
REMARK  3 active torsions:
REMARK  status: ('A' for Active; 'I' for Inactive)
REMARK    1  A    between atoms: C7_7  and  C9_9 
REMARK    2  A    between atoms: C8_8  and  C10_10 
REMARK    3  A    between atoms: C9_9  and  C10_10 
ROOT
HETATM    1  C1  UNL     1     -33.956  15.467  -5.236  1.00 20.00     0.131 C 
HETATM    2  C2  UNL     1     -34.843  14.394  -5.815  1.00 20.00     0.079 C 
HETATM    3  C3  UNL     1     -34.598  13.232  -4.861  1.00 20.00     0.008 C 
HETATM    4  C4  UNL     1     -34.312  13.896  -3.520  1.00 20.00     0.013 C 
HETATM    5  C7  UNL     1     -33.413  15.082  -3.875  1.00 20.00     0.055 C 
HETATM    6  O11 UNL     1     -33.711  16.523  -5.806  1.00 20.00    -0.298 OA
ENDROOT
BRANCH   5   7
HETATM    7  C9  UNL     1     -33.494  16.208  -2.864  1.00 20.00     0.012 C 
BRANCH   7   8
HETATM    8  C10 UNL     1     -34.812  16.179  -2.091  1.00 20.00     0.005 C 
BRANCH   8   9
HETATM    9  C8  UNL     1     -34.622  16.595  -0.641  1.00 20.00    -0.014 A 
HETATM   10  C5  UNL     1     -33.898  17.870  -0.306  1.00 20.00     0.005 A 
HETATM   11  C6  UNL     1     -35.382  17.767  -0.084  1.00 20.00     0.005 A 
ENDBRANCH   8   9
ENDBRANCH   7   8
ENDBRANCH   5   7
TORSDOF 3
ENDMDL
MODEL 4
REMARK VINA RESULT:      -4.7     11.082     12.284
REMARK  3 active torsions:
REMARK  status: ('A' for Active; 'I' for Inactive)
REMARK    1  A    between atoms: C7_7  and  C9_9 
REMARK    2  A    between atoms: C8_8  and  C10_10 
REMARK    3  A    between atoms: C9_9  and  C10_10 
ROOT
HETATM    1  C1  UNL     1     -35.084  13.767  -5.075  1.00 20.00     0.131 C 
HETATM    2  C2  UNL     1     -34.932  14.200  -6.512  1.00 20.00     0.079 C 
HETATM    3  C3  UNL     1     -35.687  15.523  -6.525  1.00 20.00     0.008 C 
HETATM    4  C4  UNL     1     -35.495  16.084  -5.122  1.00 20.00     0.013 C 
HETATM    5  C7  UNL     1     -35.658  14.868  -4.208  1.00 20.00     0.055 C 
HETATM    6  O11 UNL     1     -34.775  12.654  -4.667  1.00 20.00    -0.298 OA
ENDROOT
BRANCH   5   7
HETATM    7  C9  UNL     1     -34.933  15.021  -2.886  1.00 20.00     0.012 C 
BRANCH   7   8
HETATM    8  C10 UNL     1     -35.183  16.393  -2.261  1.00 20.00     0.005 C 
BRANCH   8   9
HETATM    9  C8  UNL     1     -34.412  16.567  -0.961  1.00 20.00    -0.014 A 
HETATM   10  C5  UNL     1     -33.813  17.900  -0.607  1.00 20.00     0.005 A 
HETATM   11  C6  UNL     1     -34.996  17.379   0.162  1.00 20.00     0.005 A 
ENDBRANCH   8   9
ENDBRANCH   7   8
ENDBRANCH   5   7
TORSDOF 3
ENDMDL
MODEL 5
REMARK VINA RESULT:      -4.7     10.806     11.713
REMARK  3 active torsions:
REMARK  status: ('A' for Active; 'I' for Inactive)
REMARK    1  A    between atoms: C7_7  and  C9_9 
REMARK    2  A    between atoms: C8_8  and  C10_10 
REMARK    3  A    between atoms: C9_9  and  C10_10 
ROOT
HETATM    1  C1  UNL     1     -36.028  14.322  -3.871  1.00 20.00     0.131 C 
HETATM    2  C2  UNL     1     -35.082  13.187  -4.172  1.00 20.00     0.079 C 
HETATM    3  C3  UNL     1     -33.759  13.918  -4.360  1.00 20.00     0.008 C 
HETATM    4  C4  UNL     1     -33.858  15.127  -3.438  1.00 20.00     0.013 C 
HETATM    5  C7  UNL     1     -35.292  15.625  -3.628  1.00 20.00     0.055 C 
HETATM    6  O11 UNL     1     -37.245  14.197  -3.830  1.00 20.00    -0.298 OA
ENDROOT
BRANCH   5   7
HETATM    7  C9  UNL     1     -35.817  16.387  -2.429  1.00 20.00     0.012 C 
BRANCH   7   8
HETATM    8  C10 UNL     1     -34.795  16.425  -1.293  1.00 20.00     0.005 C 
BRANCH   8   9
HETATM    9  C8  UNL     1     -34.967  17.662  -0.424  1.00 20.00    -0.014 A 
HETATM   10  C5  UNL     1     -35.000  17.538   1.074  1.00 20.00     0.005 A 
HETATM   11  C6  UNL     1     -33.817  18.174   0.399  1.00 20.00     0.005 A 
ENDBRANCH   8   9
ENDBRANCH   7   8
ENDBRANCH   5   7
TORSDOF 3
ENDMDL
MODEL 6
REMARK VINA RESULT:      -4.5     10.901     12.742
REMARK  3 active torsions:
REMARK  status: ('A' for Active; 'I' for Inactive)
REMARK    1  A    between atoms: C7_7  and  C9_9 
REMARK    2  A    between atoms: C8_8  and  C10_10 
REMARK    3  A    between atoms: C9_9  and  C10_10 
ROOT
HETATM    1  C1  UNL     1     -34.384  13.668  -4.799  1.00 20.00     0.131 C 
HETATM    2  C2  UNL     1     -33.724  14.266  -3.582  1.00 20.00     0.079 C 
HETATM    3  C3  UNL     1     -33.123  15.547  -4.144  1.00 20.00     0.008 C 
HETATM    4  C4  UNL     1     -34.076  15.956  -5.260  1.00 20.00     0.013 C 
HETATM    5  C7  UNL     1     -34.415  14.639  -5.962  1.00 20.00     0.055 C 
HETATM    6  O11 UNL     1     -34.838  12.531  -4.833  1.00 20.00    -0.298 OA
ENDROOT
BRANCH   5   7
HETATM    7  C9  UNL     1     -35.756  14.674  -6.668  1.00 20.00     0.012 C 
BRANCH   7   8
HETATM    8  C10 UNL     1     -36.656  15.778  -6.114  1.00 20.00     0.005 C 
BRANCH   8   9
HETATM    9  C8  UNL     1     -37.785  15.210  -5.268  1.00 20.00    -0.014 A 
HETATM   10  C5  UNL     1     -37.577  14.949  -3.802  1.00 20.00     0.005 A 
HETATM   11  C6  UNL     1     -38.472  16.073  -4.245  1.00 20.00     0.005 A 
ENDBRANCH   8   9
ENDBRANCH   7   8
ENDBRANCH   5   7
TORSDOF 3
ENDMDL
MODEL 7
REMARK VINA RESULT:      -4.5     11.217     12.686
REMARK  3 active torsions:
REMARK  status: ('A' for Active; 'I' for Inactive)
REMARK    1  A    between atoms: C7_7  and  C9_9 
REMARK    2  A    between atoms: C8_8  and  C10_10 
REMARK    3  A    between atoms: C9_9  and  C10_10 
ROOT
HETATM    1  C1  UNL     1     -33.661  15.843  -5.416  1.00 20.00     0.131 C 
HETATM    2  C2  UNL     1     -34.441  16.063  -6.688  1.00 20.00     0.079 C 
HETATM    3  C3  UNL     1     -35.026  14.680  -6.943  1.00 20.00     0.008 C 
HETATM    4  C4  UNL     1     -35.225  14.089  -5.553  1.00 20.00     0.013 C 
HETATM    5  C7  UNL     1     -33.963  14.496  -4.791  1.00 20.00     0.055 C 
HETATM    6  O11 UNL     1     -32.880  16.663  -4.950  1.00 20.00    -0.298 OA
ENDROOT
BRANCH   5   7
HETATM    7  C9  UNL     1     -34.176  14.573  -3.292  1.00 20.00     0.012 C 
BRANCH   7   8
HETATM    8  C10 UNL     1     -35.366  15.465  -2.937  1.00 20.00     0.005 C 
BRANCH   8   9
HETATM    9  C8  UNL     1     -35.067  16.344  -1.733  1.00 20.00    -0.014 A 
HETATM   10  C5  UNL     1     -33.722  17.000  -1.586  1.00 20.00     0.005 A 
HETATM   11  C6  UNL     1     -34.934  17.833  -1.897  1.00 20.00     0.005 A 
ENDBRANCH   8   9
ENDBRANCH   7   8
ENDBRANCH   5   7
TORSDOF 3
ENDMDL
MODEL 8
REMARK VINA RESULT:      -4.4     11.166     12.517
REMARK  3 active torsions:
REMARK  status: ('A' for Active; 'I' for Inactive)
REMARK    1  A    between atoms: C7_7  and  C9_9 
REMARK    2  A    between atoms: C8_8  and  C10_10 
REMARK    3  A    between atoms: C9_9  and  C10_10 
ROOT
HETATM    1  C1  UNL     1     -33.503  15.871  -4.849  1.00 20.00     0.131 C 
HETATM    2  C2  UNL     1     -34.321  14.943  -5.711  1.00 20.00     0.079 C 
HETATM    3  C3  UNL     1     -34.458  13.718  -4.816  1.00 20.00     0.008 C 
HETATM    4  C4  UNL     1     -34.456  14.280  -3.400  1.00 20.00     0.013 C 
HETATM    5  C7  UNL     1     -33.374  15.361  -3.428  1.00 20.00     0.055 C 
HETATM    6  O11 UNL     1     -33.007  16.913  -5.258  1.00 20.00    -0.298 OA
ENDROOT
BRANCH   5   7
HETATM    7  C9  UNL     1     -33.590  16.441  -2.388  1.00 20.00     0.012 C 
BRANCH   7   8
HETATM    8  C10 UNL     1     -34.950  16.302  -1.704  1.00 20.00     0.005 C 
BRANCH   8   9
HETATM    9  C8  UNL     1     -35.841  17.504  -1.976  1.00 20.00    -0.014 A 
HETATM   10  C5  UNL     1     -35.898  18.111  -3.351  1.00 20.00     0.005 A 
HETATM   11  C6  UNL     1     -37.081  17.354  -2.813  1.00 20.00     0.005 A 
ENDBRANCH   8   9
ENDBRANCH   7   8
ENDBRANCH   5   7
TORSDOF 3
ENDMDL
MODEL 9
REMARK VINA RESULT:      -4.4     11.581     12.898
REMARK  3 active torsions:
REMARK  status: ('A' for Active; 'I' for Inactive)
REMARK    1  A    between atoms: C7_7  and  C9_9 
REMARK    2  A    between atoms: C8_8  and  C10_10 
REMARK    3  A    between atoms: C9_9  and  C10_10 
ROOT
HETATM    1  C1  UNL     1     -33.749  18.102  -2.542  1.00 20.00     0.131 C 
HETATM    2  C2  UNL     1     -33.802  17.733  -1.081  1.00 20.00     0.079 C 
HETATM    3  C3  UNL     1     -34.640  16.461  -1.106  1.00 20.00     0.008 C 
HETATM    4  C4  UNL     1     -34.316  15.819  -2.449  1.00 20.00     0.013 C 
HETATM    5  C7  UNL     1     -34.287  16.995  -3.427  1.00 20.00     0.055 C 
HETATM    6  O11 UNL     1     -33.320  19.171  -2.956  1.00 20.00    -0.298 OA
ENDROOT
BRANCH   5   7
HETATM    7  C9  UNL     1     -33.418  16.732  -4.641  1.00 20.00     0.012 C 
BRANCH   7   8
HETATM    8  C10 UNL     1     -34.240  16.717  -5.930  1.00 20.00     0.005 C 
BRANCH   8   9
HETATM    9  C8  UNL     1     -34.243  15.341  -6.577  1.00 20.00    -0.014 A 
HETATM   10  C5  UNL     1     -34.772  14.150  -5.826  1.00 20.00     0.005 A 
HETATM   11  C6  UNL     1     -35.540  14.703  -6.995  1.00 20.00     0.005 A 
ENDBRANCH   8   9
ENDBRANCH   7   8
ENDBRANCH   5   7
TORSDOF 3
ENDMDL
