MODEL 1
REMARK VINA RESULT:      -4.2      0.000      0.000
REMARK  3 active torsions:
REMARK  status: ('A' for Active; 'I' for Inactive)
REMARK    1  A    between atoms: C4_4  and  C7_7 
REMARK    2  A    between atoms: C8_8  and  C9_9 
REMARK    3  A    between atoms: C9_9  and  N10_10 
ROOT
HETATM    1  C1  UNL     1     -33.696  13.671  -4.222  1.00 20.00     0.032 C 
HETATM    2  C2  UNL     1     -35.204  13.447  -4.168  1.00 20.00     0.038 C 
HETATM    3  C3  UNL     1     -33.444  14.946  -3.426  1.00 20.00     0.273 C 
HETATM    4  C4  UNL     1     -35.780  14.775  -3.682  1.00 20.00     0.237 C 
HETATM    5  N10 UNL     1     -34.721  15.222  -2.770  1.00 20.00     0.098 N 
ENDROOT
BRANCH   5   6
HETATM    6  C9  UNL     1     -34.834  16.590  -2.299  1.00 20.00     0.219 C 
HETATM    7  C6  UNL     1     -33.780  17.457  -2.980  1.00 20.00     0.043 C 
BRANCH   6   8
HETATM    8  C8  UNL     1     -34.702  16.669  -0.772  1.00 20.00     0.031 C 
HETATM    9  C5  UNL     1     -33.801  17.810  -0.318  1.00 20.00     0.007 C 
ENDBRANCH   6   8
ENDBRANCH   5   6
BRANCH   4  10
HETATM   10  C7  UNL     1     -36.099  15.710  -4.853  1.00 20.00     0.150 C 
HETATM   11 CL11 UNL     1     -36.236  14.782  -6.359  1.00 20.00    -0.128 Cl
ENDBRANCH   4  10
TORSDOF 3
ENDMDL
MODEL 2
REMARK VINA RESULT:      -4.1      2.482      3.409
REMARK  3 active torsions:
REMARK  status: ('A' for Active; 'I' for Inactive)
REMARK    1  A    between atoms: C4_4  and  C7_7 
REMARK    2  A    between atoms: C8_8  and  C9_9 
REMARK    3  A    between atoms: C9_9  and  N10_10 
ROOT
HETATM    1  C1  UNL     1     -34.455  13.181  -4.832  1.00 20.00     0.032 C 
HETATM    2  C2  UNL     1     -33.559  13.719  -3.721  1.00 20.00     0.038 C 
HETATM    3  C3  UNL     1     -34.909  14.405  -5.618  1.00 20.00     0.273 C 
HETATM    4  C4  UNL     1     -33.838  15.220  -3.683  1.00 20.00     0.237 C 
HETATM    5  N10 UNL     1     -34.080  15.494  -5.105  1.00 20.00     0.098 N 
ENDROOT
BRANCH   5   6
HETATM    6  C9  UNL     1     -34.615  16.808  -5.409  1.00 20.00     0.219 C 
HETATM    7  C6  UNL     1     -35.375  16.761  -6.731  1.00 20.00     0.043 C 
BRANCH   6   8
HETATM    8  C8  UNL     1     -33.506  17.867  -5.455  1.00 20.00     0.031 C 
HETATM    9  C5  UNL     1     -33.652  18.919  -4.363  1.00 20.00     0.007 C 
ENDBRANCH   6   8
ENDBRANCH   5   6
BRANCH   4  10
HETATM   10  C7  UNL     1     -34.990  15.552  -2.729  1.00 20.00     0.150 C 
HETATM   11 CL11 UNL     1     -34.387  16.464  -1.332  1.00 20.00    -0.128 Cl
ENDBRANCH   4  10
TORSDOF 3
ENDMDL
MODEL 3
REMARK VINA RESULT:      -4.1      2.177      3.302
REMARK  3 active torsions:
REMARK  status: ('A' for Active; 'I' for Inactive)
REMARK    1  A    between atoms: C4_4  and  C7_7 
REMARK    2  A    between atoms: C8_8  and  C9_9 
REMARK    3  A    between atoms: C9_9  and  N10_10 
ROOT
HETATM    1  C1  UNL     1     -35.907  14.933  -7.292  1.00 20.00     0.032 C 
HETATM    2  C2  UNL     1     -34.456  15.119  -6.859  1.00 20.00     0.038 C 
HETATM    3  C3  UNL     1     -36.732  15.071  -6.018  1.00 20.00     0.273 C 
HETATM    4  C4  UNL     1     -34.478  14.976  -5.338  1.00 20.00     0.237 C 
HETATM    5  N10 UNL     1     -35.784  15.566  -5.023  1.00 20.00     0.098 N 
ENDROOT
BRANCH   5   6
HETATM    6  C9  UNL     1     -36.244  15.381  -3.658  1.00 20.00     0.219 C 
HETATM    7  C6  UNL     1     -37.759  15.204  -3.645  1.00 20.00     0.043 C 
BRANCH   6   8
HETATM    8  C8  UNL     1     -35.823  16.553  -2.762  1.00 20.00     0.031 C 
HETATM    9  C5  UNL     1     -34.713  16.180  -1.788  1.00 20.00     0.007 C 
ENDBRANCH   6   8
ENDBRANCH   5   6
BRANCH   4  10
HETATM   10  C7  UNL     1     -34.277  13.519  -4.910  1.00 20.00     0.150 C 
HETATM   11 CL11 UNL     1     -33.067  13.422  -3.615  1.00 20.00    -0.128 Cl
ENDBRANCH   4  10
TORSDOF 3
ENDMDL
MODEL 4
REMARK VINA RESULT:      -4.1      2.356      4.125
REMARK  3 active torsions:
REMARK  status: ('A' for Active; 'I' for Inactive)
REMARK    1  A    between atoms: C4_4  and  C7_7 
REMARK    2  A    between atoms: C8_8  and  C9_9 
REMARK    3  A    between atoms: C9_9  and  N10_10 
ROOT
HETATM    1  C1  UNL     1     -33.338  16.798  -5.430  1.00 20.00     0.032 C 
HETATM    2  C2  UNL     1     -33.920  17.761  -4.400  1.00 20.00     0.038 C 
HETATM    3  C3  UNL     1     -34.103  15.494  -5.245  1.00 20.00     0.273 C 
HETATM    4  C4  UNL     1     -34.707  16.877  -3.435  1.00 20.00     0.237 C 
HETATM    5  N10 UNL     1     -35.204  15.842  -4.349  1.00 20.00     0.098 N 
ENDROOT
BRANCH   5   6
HETATM    6  C9  UNL     1     -35.812  14.685  -3.717  1.00 20.00     0.219 C 
HETATM    7  C6  UNL     1     -35.193  13.409  -4.279  1.00 20.00     0.043 C 
BRANCH   6   8
HETATM    8  C8  UNL     1     -37.335  14.681  -3.903  1.00 20.00     0.031 C 
HETATM    9  C5  UNL     1     -37.768  15.310  -5.220  1.00 20.00     0.007 C 
ENDBRANCH   6   8
ENDBRANCH   5   6
BRANCH   4  10
HETATM   10  C7  UNL     1     -33.827  16.387  -2.280  1.00 20.00     0.150 C 
HETATM   11 CL11 UNL     1     -34.691  16.551  -0.739  1.00 20.00    -0.128 Cl
ENDBRANCH   4  10
TORSDOF 3
ENDMDL
MODEL 5
REMARK VINA RESULT:      -4.0      2.373      4.249
REMARK  3 active torsions:
REMARK  status: ('A' for Active; 'I' for Inactive)
REMARK    1  A    between atoms: C4_4  and  C7_7 
REMARK    2  A    between atoms: C8_8  and  C9_9 
REMARK    3  A    between atoms: C9_9  and  N10_10 
ROOT
HETATM    1  C1  UNL     1     -33.645  18.215  -5.009  1.00 20.00     0.032 C 
HETATM    2  C2  UNL     1     -34.775  18.519  -4.031  1.00 20.00     0.038 C 
HETATM    3  C3  UNL     1     -33.337  16.734  -4.828  1.00 20.00     0.273 C 
HETATM    4  C4  UNL     1     -34.807  17.323  -3.083  1.00 20.00     0.237 C 
HETATM    5  N10 UNL     1     -34.429  16.236  -3.993  1.00 20.00     0.098 N 
ENDROOT
BRANCH   5   6
HETATM    6  C9  UNL     1     -34.128  14.964  -3.362  1.00 20.00     0.219 C 
HETATM    7  C6  UNL     1     -32.680  14.578  -3.649  1.00 20.00     0.043 C 
BRANCH   6   8
HETATM    8  C8  UNL     1     -35.090  13.865  -3.830  1.00 20.00     0.031 C 
HETATM    9  C5  UNL     1     -34.665  13.236  -5.151  1.00 20.00     0.007 C 
ENDBRANCH   6   8
ENDBRANCH   5   6
BRANCH   4  10
HETATM   10  C7  UNL     1     -33.889  17.540  -1.876  1.00 20.00     0.150 C 
HETATM   11 CL11 UNL     1     -34.610  16.829  -0.419  1.00 20.00    -0.128 Cl
ENDBRANCH   4  10
TORSDOF 3
ENDMDL
MODEL 6
REMARK VINA RESULT:      -4.0      2.247      3.089
REMARK  3 active torsions:
REMARK  status: ('A' for Active; 'I' for Inactive)
REMARK    1  A    between atoms: C4_4  and  C7_7 
REMARK    2  A    between atoms: C8_8  and  C9_9 
REMARK    3  A    between atoms: C9_9  and  N10_10 
ROOT
HETATM    1  C1  UNL     1     -35.553  14.570  -7.140  1.00 20.00     0.032 C 
HETATM    2  C2  UNL     1     -36.021  15.991  -6.844  1.00 20.00     0.038 C 
HETATM    3  C3  UNL     1     -34.776  14.131  -5.905  1.00 20.00     0.273 C 
HETATM    4  C4  UNL     1     -35.189  16.436  -5.642  1.00 20.00     0.237 C 
HETATM    5  N10 UNL     1     -35.053  15.169  -4.915  1.00 20.00     0.098 N 
ENDROOT
BRANCH   5   6
HETATM    6  C9  UNL     1     -34.103  15.175  -3.816  1.00 20.00     0.219 C 
HETATM    7  C6  UNL     1     -33.445  13.804  -3.698  1.00 20.00     0.043 C 
BRANCH   6   8
HETATM    8  C8  UNL     1     -34.776  15.573  -2.496  1.00 20.00     0.031 C 
HETATM    9  C5  UNL     1     -34.005  16.652  -1.746  1.00 20.00     0.007 C 
ENDBRANCH   6   8
ENDBRANCH   5   6
BRANCH   4  10
HETATM   10  C7  UNL     1     -33.882  17.103  -6.082  1.00 20.00     0.150 C 
HETATM   11 CL11 UNL     1     -33.515  18.485  -5.032  1.00 20.00    -0.128 Cl
ENDBRANCH   4  10
TORSDOF 3
ENDMDL
MODEL 7
REMARK VINA RESULT:      -4.0      1.915      2.192
REMARK  3 active torsions:
REMARK  status: ('A' for Active; 'I' for Inactive)
REMARK    1  A    between atoms: C4_4  and  C7_7 
REMARK    2  A    between atoms: C8_8  and  C9_9 
REMARK    3  A    between atoms: C9_9  and  N10_10 
ROOT
HETATM    1  C1  UNL     1     -34.375  15.292  -7.145  1.00 20.00     0.032 C 
HETATM    2  C2  UNL     1     -35.082  14.142  -6.435  1.00 20.00     0.038 C 
HETATM    3  C3  UNL     1     -34.075  16.318  -6.059  1.00 20.00     0.273 C 
HETATM    4  C4  UNL     1     -35.491  14.710  -5.078  1.00 20.00     0.237 C 
HETATM    5  N10 UNL     1     -34.372  15.621  -4.809  1.00 20.00     0.098 N 
ENDROOT
BRANCH   5   6
HETATM    6  C9  UNL     1     -34.551  16.522  -3.685  1.00 20.00     0.219 C 
HETATM    7  C6  UNL     1     -33.786  17.817  -3.936  1.00 20.00     0.043 C 
BRANCH   6   8
HETATM    8  C8  UNL     1     -34.105  15.870  -2.369  1.00 20.00     0.031 C 
HETATM    9  C5  UNL     1     -34.679  16.567  -1.143  1.00 20.00     0.007 C 
ENDBRANCH   6   8
ENDBRANCH   5   6
BRANCH   4  10
HETATM   10  C7  UNL     1     -36.882  15.351  -5.134  1.00 20.00     0.150 C 
HETATM   11 CL11 UNL     1     -37.845  14.851  -3.731  1.00 20.00    -0.128 Cl
ENDBRANCH   4  10
TORSDOF 3
ENDMDL
MODEL 8
REMARK VINA RESULT:      -4.0      2.550      4.189
REMARK  3 active torsions:
REMARK  status: ('A' for Active; 'I' for Inactive)
REMARK    1  A    between atoms: C4_4  and  C7_7 
REMARK    2  A    between atoms: C8_8  and  C9_9 
REMARK    3  A    between atoms: C9_9  and  N10_10 
ROOT
HETATM    1  C1  UNL     1     -33.528  13.626  -3.907  1.00 20.00     0.032 C 
HETATM    2  C2  UNL     1     -32.895  14.968  -3.555  1.00 20.00     0.038 C 
HETATM    3  C3  UNL     1     -34.460  13.910  -5.078  1.00 20.00     0.273 C 
HETATM    4  C4  UNL     1     -33.755  16.008  -4.268  1.00 20.00     0.237 C 
HETATM    5  N10 UNL     1     -34.128  15.275  -5.484  1.00 20.00     0.098 N 
ENDROOT
BRANCH   5   6
HETATM    6  C9  UNL     1     -35.157  15.893  -6.300  1.00 20.00     0.219 C 
HETATM    7  C6  UNL     1     -36.075  14.817  -6.872  1.00 20.00     0.043 C 
BRANCH   6   8
HETATM    8  C8  UNL     1     -34.547  16.743  -7.421  1.00 20.00     0.031 C 
HETATM    9  C5  UNL     1     -34.569  18.233  -7.108  1.00 20.00     0.007 C 
ENDBRANCH   6   8
ENDBRANCH   5   6
BRANCH   4  10
HETATM   10  C7  UNL     1     -34.915  16.477  -3.384  1.00 20.00     0.150 C 
HETATM   11 CL11 UNL     1     -34.512  16.250  -1.671  1.00 20.00    -0.128 Cl
ENDBRANCH   4  10
TORSDOF 3
ENDMDL
MODEL 9
REMARK VINA RESULT:      -4.0      1.532      2.156
REMARK  3 active torsions:
REMARK  status: ('A' for Active; 'I' for Inactive)
REMARK    1  A    between atoms: C4_4  and  C7_7 
REMARK    2  A    between atoms: C8_8  and  C9_9 
REMARK    3  A    between atoms: C9_9  and  N10_10 
ROOT
HETATM    1  C1  UNL     1     -33.268  16.687  -4.958  1.00 20.00     0.032 C 
HETATM    2  C2  UNL     1     -33.045  15.386  -4.193  1.00 20.00     0.038 C 
HETATM    3  C3  UNL     1     -34.075  17.577  -4.021  1.00 20.00     0.273 C 
HETATM    4  C4  UNL     1     -34.034  15.440  -3.030  1.00 20.00     0.237 C 
HETATM    5  N10 UNL     1     -34.043  16.878  -2.738  1.00 20.00     0.098 N 
ENDROOT
BRANCH   5   6
HETATM    6  C9  UNL     1     -35.074  17.326  -1.820  1.00 20.00     0.219 C 
HETATM    7  C6  UNL     1     -35.282  18.829  -1.974  1.00 20.00     0.043 C 
BRANCH   6   8
HETATM    8  C8  UNL     1     -34.725  16.969  -0.369  1.00 20.00     0.031 C 
HETATM    9  C5  UNL     1     -33.994  18.093   0.353  1.00 20.00     0.007 C 
ENDBRANCH   6   8
ENDBRANCH   5   6
BRANCH   4  10
HETATM   10  C7  UNL     1     -35.383  14.823  -3.414  1.00 20.00     0.150 C 
HETATM   11 CL11 UNL     1     -35.136  13.275  -4.245  1.00 20.00    -0.128 Cl
ENDBRANCH   4  10
TORSDOF 3
ENDMDL
