MODEL 1
REMARK VINA RESULT:      -4.2      0.000      0.000
REMARK  3 active torsions:
REMARK  status: ('A' for Active; 'I' for Inactive)
REMARK    1  A    between atoms: C1_1  and  C7_7 
REMARK    2  A    between atoms: C7_7  and  C8_8 
REMARK    3  A    between atoms: C7_7  and  C9_9 
ROOT
HETATM    1  C7  UNL     1     -35.007  15.128  -3.757  1.00 20.00     0.061 C 
ENDROOT
BRANCH   1   2
HETATM    2  C1  UNL     1     -34.400  13.724  -3.871  1.00 20.00     0.128 C 
HETATM    3  C2  UNL     1     -32.932  13.588  -3.551  1.00 20.00     0.091 C 
HETATM    4  O10 UNL     1     -35.061  12.748  -4.225  1.00 20.00    -0.298 OA
ENDBRANCH   1   2
BRANCH   1   5
HETATM    5  C8  UNL     1     -35.348  15.704  -5.162  1.00 20.00    -0.011 C 
HETATM    6  C3  UNL     1     -36.821  15.493  -5.526  1.00 20.00     0.010 C 
HETATM    7  C4  UNL     1     -34.458  15.181  -6.294  1.00 20.00     0.010 C 
ENDBRANCH   1   5
BRANCH   1   8
HETATM    8  C9  UNL     1     -34.084  16.026  -2.881  1.00 20.00    -0.011 C 
HETATM    9  C5  UNL     1     -33.804  17.387  -3.526  1.00 20.00     0.010 C 
HETATM   10  C6  UNL     1     -34.701  16.264  -1.494  1.00 20.00     0.010 C 
ENDBRANCH   1   8
TORSDOF 3
ENDMDL
MODEL 2
REMARK VINA RESULT:      -4.0      1.181      2.207
REMARK  3 active torsions:
REMARK  status: ('A' for Active; 'I' for Inactive)
REMARK    1  A    between atoms: C1_1  and  C7_7 
REMARK    2  A    between atoms: C7_7  and  C8_8 
REMARK    3  A    between atoms: C7_7  and  C9_9 
ROOT
HETATM    1  C7  UNL     1     -34.947  15.291  -4.319  1.00 20.00     0.061 C 
ENDROOT
BRANCH   1   2
HETATM    2  C1  UNL     1     -35.990  14.169  -4.253  1.00 20.00     0.128 C 
HETATM    3  C2  UNL     1     -37.432  14.587  -4.099  1.00 20.00     0.091 C 
HETATM    4  O10 UNL     1     -35.681  12.979  -4.302  1.00 20.00    -0.298 OA
ENDBRANCH   1   2
BRANCH   1   5
HETATM    5  C8  UNL     1     -34.296  15.365  -5.730  1.00 20.00    -0.011 C 
HETATM    6  C3  UNL     1     -34.053  16.812  -6.175  1.00 20.00     0.010 C 
HETATM    7  C4  UNL     1     -35.062  14.614  -6.822  1.00 20.00     0.010 C 
ENDBRANCH   1   5
BRANCH   1   8
HETATM    8  C9  UNL     1     -33.945  15.141  -3.136  1.00 20.00    -0.011 C 
HETATM    9  C5  UNL     1     -32.549  14.712  -3.599  1.00 20.00     0.010 C 
HETATM   10  C6  UNL     1     -33.814  16.457  -2.354  1.00 20.00     0.010 C 
ENDBRANCH   1   8
TORSDOF 3
ENDMDL
MODEL 3
REMARK VINA RESULT:      -3.9      1.221      3.473
REMARK  3 active torsions:
REMARK  status: ('A' for Active; 'I' for Inactive)
REMARK    1  A    between atoms: C1_1  and  C7_7 
REMARK    2  A    between atoms: C7_7  and  C8_8 
REMARK    3  A    between atoms: C7_7  and  C9_9 
ROOT
HETATM    1  C7  UNL     1     -34.263  14.737  -5.081  1.00 20.00     0.061 C 
ENDROOT
BRANCH   1   2
HETATM    2  C1  UNL     1     -35.360  13.820  -4.525  1.00 20.00     0.128 C 
HETATM    3  C2  UNL     1     -36.732  14.423  -4.357  1.00 20.00     0.091 C 
HETATM    4  O10 UNL     1     -35.141  12.651  -4.207  1.00 20.00    -0.298 OA
ENDBRANCH   1   2
BRANCH   1   5
HETATM    5  C8  UNL     1     -33.488  15.441  -3.930  1.00 20.00    -0.011 C 
HETATM    6  C3  UNL     1     -32.248  14.648  -3.505  1.00 20.00     0.010 C 
HETATM    7  C4  UNL     1     -34.339  15.765  -2.699  1.00 20.00     0.010 C 
ENDBRANCH   1   5
BRANCH   1   8
HETATM    8  C9  UNL     1     -34.874  15.692  -6.148  1.00 20.00    -0.011 C 
HETATM    9  C5  UNL     1     -34.158  17.046  -6.203  1.00 20.00     0.010 C 
HETATM   10  C6  UNL     1     -34.825  15.060  -7.548  1.00 20.00     0.010 C 
ENDBRANCH   1   8
TORSDOF 3
ENDMDL
MODEL 4
REMARK VINA RESULT:      -3.9      1.022      3.296
REMARK  3 active torsions:
REMARK  status: ('A' for Active; 'I' for Inactive)
REMARK    1  A    between atoms: C1_1  and  C7_7 
REMARK    2  A    between atoms: C7_7  and  C8_8 
REMARK    3  A    between atoms: C7_7  and  C9_9 
ROOT
HETATM    1  C7  UNL     1     -34.575  14.883  -5.226  1.00 20.00     0.061 C 
ENDROOT
BRANCH   1   2
HETATM    2  C1  UNL     1     -34.302  13.624  -4.393  1.00 20.00     0.128 C 
HETATM    3  C2  UNL     1     -33.005  13.584  -3.623  1.00 20.00     0.091 C 
HETATM    4  O10 UNL     1     -35.083  12.674  -4.360  1.00 20.00    -0.298 OA
ENDBRANCH   1   2
BRANCH   1   5
HETATM    5  C8  UNL     1     -35.053  16.056  -4.322  1.00 20.00    -0.011 C 
HETATM    6  C3  UNL     1     -33.975  17.135  -4.166  1.00 20.00     0.010 C 
HETATM    7  C4  UNL     1     -35.557  15.628  -2.941  1.00 20.00     0.010 C 
ENDBRANCH   1   5
BRANCH   1   8
HETATM    8  C9  UNL     1     -35.525  14.530  -6.408  1.00 20.00    -0.011 C 
HETATM    9  C5  UNL     1     -36.849  15.299  -6.348  1.00 20.00     0.010 C 
HETATM   10  C6  UNL     1     -34.855  14.821  -7.760  1.00 20.00     0.010 C 
ENDBRANCH   1   8
TORSDOF 3
ENDMDL
MODEL 5
REMARK VINA RESULT:      -3.8      1.555      3.294
REMARK  3 active torsions:
REMARK  status: ('A' for Active; 'I' for Inactive)
REMARK    1  A    between atoms: C1_1  and  C7_7 
REMARK    2  A    between atoms: C7_7  and  C8_8 
REMARK    3  A    between atoms: C7_7  and  C9_9 
ROOT
HETATM    1  C7  UNL     1     -35.282  15.054  -3.341  1.00 20.00     0.061 C 
ENDROOT
BRANCH   1   2
HETATM    2  C1  UNL     1     -36.582  14.805  -4.114  1.00 20.00     0.128 C 
HETATM    3  C2  UNL     1     -36.631  15.290  -5.541  1.00 20.00     0.091 C 
HETATM    4  O10 UNL     1     -37.558  14.256  -3.601  1.00 20.00    -0.298 OA
ENDBRANCH   1   2
BRANCH   1   5
HETATM    5  C8  UNL     1     -35.285  16.464  -2.682  1.00 20.00    -0.011 C 
HETATM    6  C3  UNL     1     -34.734  16.430  -1.252  1.00 20.00     0.010 C 
HETATM    7  C4  UNL     1     -36.646  17.166  -2.693  1.00 20.00     0.010 C 
ENDBRANCH   1   5
BRANCH   1   8
HETATM    8  C9  UNL     1     -34.063  14.758  -4.263  1.00 20.00    -0.011 C 
HETATM    9  C5  UNL     1     -33.156  15.980  -4.450  1.00 20.00     0.010 C 
HETATM   10  C6  UNL     1     -33.214  13.606  -3.703  1.00 20.00     0.010 C 
ENDBRANCH   1   8
TORSDOF 3
ENDMDL
MODEL 6
REMARK VINA RESULT:      -3.8      1.286      3.694
REMARK  3 active torsions:
REMARK  status: ('A' for Active; 'I' for Inactive)
REMARK    1  A    between atoms: C1_1  and  C7_7 
REMARK    2  A    between atoms: C7_7  and  C8_8 
REMARK    3  A    between atoms: C7_7  and  C9_9 
ROOT
HETATM    1  C7  UNL     1     -35.112  15.280  -2.969  1.00 20.00     0.061 C 
ENDROOT
BRANCH   1   2
HETATM    2  C1  UNL     1     -36.517  15.152  -3.569  1.00 20.00     0.128 C 
HETATM    3  C2  UNL     1     -37.233  16.435  -3.909  1.00 20.00     0.091 C 
HETATM    4  O10 UNL     1     -37.058  14.061  -3.751  1.00 20.00    -0.298 OA
ENDBRANCH   1   2
BRANCH   1   5
HETATM    5  C8  UNL     1     -34.918  16.668  -2.292  1.00 20.00    -0.011 C 
HETATM    6  C3  UNL     1     -33.803  17.480  -2.958  1.00 20.00     0.010 C 
HETATM    7  C4  UNL     1     -34.679  16.608  -0.781  1.00 20.00     0.010 C 
ENDBRANCH   1   5
BRANCH   1   8
HETATM    8  C9  UNL     1     -34.049  14.917  -4.048  1.00 20.00    -0.011 C 
HETATM    9  C5  UNL     1     -33.412  13.545  -3.808  1.00 20.00     0.010 C 
HETATM   10  C6  UNL     1     -34.666  14.926  -5.455  1.00 20.00     0.010 C 
ENDBRANCH   1   8
TORSDOF 3
ENDMDL
MODEL 7
REMARK VINA RESULT:      -3.8      1.282      2.370
REMARK  3 active torsions:
REMARK  status: ('A' for Active; 'I' for Inactive)
REMARK    1  A    between atoms: C1_1  and  C7_7 
REMARK    2  A    between atoms: C7_7  and  C8_8 
REMARK    3  A    between atoms: C7_7  and  C9_9 
ROOT
HETATM    1  C7  UNL     1     -35.665  14.694  -3.901  1.00 20.00     0.061 C 
ENDROOT
BRANCH   1   2
HETATM    2  C1  UNL     1     -35.061  13.753  -4.950  1.00 20.00     0.128 C 
HETATM    3  C2  UNL     1     -34.884  14.306  -6.342  1.00 20.00     0.091 C 
HETATM    4  O10 UNL     1     -34.750  12.591  -4.689  1.00 20.00    -0.298 OA
ENDBRANCH   1   2
BRANCH   1   5
HETATM    5  C8  UNL     1     -36.961  15.368  -4.437  1.00 20.00    -0.011 C 
HETATM    6  C3  UNL     1     -36.805  16.887  -4.571  1.00 20.00     0.010 C 
HETATM    7  C4  UNL     1     -38.222  15.051  -3.627  1.00 20.00     0.010 C 
ENDBRANCH   1   5
BRANCH   1   8
HETATM    8  C9  UNL     1     -34.571  15.678  -3.392  1.00 20.00    -0.011 C 
HETATM    9  C5  UNL     1     -34.740  16.030  -1.910  1.00 20.00     0.010 C 
HETATM   10  C6  UNL     1     -33.165  15.093  -3.594  1.00 20.00     0.010 C 
ENDBRANCH   1   8
TORSDOF 3
ENDMDL
MODEL 8
REMARK VINA RESULT:      -3.8      1.709      3.689
REMARK  3 active torsions:
REMARK  status: ('A' for Active; 'I' for Inactive)
REMARK    1  A    between atoms: C1_1  and  C7_7 
REMARK    2  A    between atoms: C7_7  and  C8_8 
REMARK    3  A    between atoms: C7_7  and  C9_9 
ROOT
HETATM    1  C7  UNL     1     -34.625  16.225  -3.533  1.00 20.00     0.061 C 
ENDROOT
BRANCH   1   2
HETATM    2  C1  UNL     1     -33.693  16.172  -4.749  1.00 20.00     0.128 C 
HETATM    3  C2  UNL     1     -34.330  16.344  -6.106  1.00 20.00     0.091 C 
HETATM    4  O10 UNL     1     -32.482  15.978  -4.642  1.00 20.00    -0.298 OA
ENDBRANCH   1   2
BRANCH   1   5
HETATM    5  C8  UNL     1     -33.911  16.870  -2.310  1.00 20.00    -0.011 C 
HETATM    6  C3  UNL     1     -34.616  16.534  -0.992  1.00 20.00     0.010 C 
HETATM    7  C4  UNL     1     -33.714  18.385  -2.417  1.00 20.00     0.010 C 
ENDBRANCH   1   5
BRANCH   1   8
HETATM    8  C9  UNL     1     -35.230  14.814  -3.277  1.00 20.00    -0.011 C 
HETATM    9  C5  UNL     1     -36.560  14.602  -4.008  1.00 20.00     0.010 C 
HETATM   10  C6  UNL     1     -34.256  13.709  -3.713  1.00 20.00     0.010 C 
ENDBRANCH   1   8
TORSDOF 3
ENDMDL
MODEL 9
REMARK VINA RESULT:      -3.8      1.665      3.096
REMARK  3 active torsions:
REMARK  status: ('A' for Active; 'I' for Inactive)
REMARK    1  A    between atoms: C1_1  and  C7_7 
REMARK    2  A    between atoms: C7_7  and  C8_8 
REMARK    3  A    between atoms: C7_7  and  C9_9 
ROOT
HETATM    1  C7  UNL     1     -34.710  15.756  -4.708  1.00 20.00     0.061 C 
ENDROOT
BRANCH   1   2
HETATM    2  C1  UNL     1     -33.692  15.632  -3.569  1.00 20.00     0.128 C 
HETATM    3  C2  UNL     1     -34.109  16.162  -2.219  1.00 20.00     0.091 C 
HETATM    4  O10 UNL     1     -32.574  15.144  -3.735  1.00 20.00    -0.298 OA
ENDBRANCH   1   2
BRANCH   1   5
HETATM    5  C8  UNL     1     -35.653  14.519  -4.752  1.00 20.00    -0.011 C 
HETATM    6  C3  UNL     1     -36.976  14.780  -4.024  1.00 20.00     0.010 C 
HETATM    7  C4  UNL     1     -35.024  13.225  -4.227  1.00 20.00     0.010 C 
ENDBRANCH   1   5
BRANCH   1   8
HETATM    8  C9  UNL     1     -33.967  16.068  -6.040  1.00 20.00    -0.011 C 
HETATM    9  C5  UNL     1     -34.402  15.148  -7.186  1.00 20.00     0.010 C 
HETATM   10  C6  UNL     1     -34.198  17.524  -6.474  1.00 20.00     0.010 C 
ENDBRANCH   1   8
TORSDOF 3
ENDMDL
