MODEL 1
REMARK VINA RESULT:      -5.7      0.000      0.000
REMARK  3 active torsions:
REMARK  status: ('A' for Active; 'I' for Inactive)
REMARK    1  A    between atoms: C8_8  and  C10_10 
REMARK    2  A    between atoms: C9_9  and  C11_11 
REMARK    3  A    between atoms: C10_10  and  C11_11 
ROOT
HETATM    1  C1  UNL     1     -34.331   5.387   3.488  1.00 20.00     0.131 C 
HETATM    2  C2  UNL     1     -35.608   5.094   4.248  1.00 20.00     0.079 C 
HETATM    3  C3  UNL     1     -35.303   4.795   5.709  1.00 20.00     0.007 C 
HETATM    4  C4  UNL     1     -34.458   5.895   6.346  1.00 20.00     0.001 C 
HETATM    5  C5  UNL     1     -33.156   6.102   5.573  1.00 20.00     0.012 C 
HETATM    6  C8  UNL     1     -33.416   6.442   4.102  1.00 20.00     0.055 C 
HETATM    7  O12 UNL     1     -34.109   4.863   2.398  1.00 20.00    -0.298 OA
ENDROOT
BRANCH   6   8
HETATM    8  C10 UNL     1     -32.102   6.563   3.336  1.00 20.00     0.012 C 
BRANCH   8   9
HETATM    9  C11 UNL     1     -31.774   8.020   3.025  1.00 20.00     0.005 C 
BRANCH   9  10
HETATM   10  C9  UNL     1     -32.520   8.504   1.791  1.00 20.00    -0.014 A 
HETATM   11  C6  UNL     1     -32.455   9.950   1.385  1.00 20.00     0.005 A 
HETATM   12  C7  UNL     1     -31.761   8.905   0.557  1.00 20.00     0.005 A 
ENDBRANCH   9  10
ENDBRANCH   8   9
ENDBRANCH   6   8
TORSDOF 3
ENDMDL
MODEL 2
REMARK VINA RESULT:      -5.4      1.575      2.214
REMARK  3 active torsions:
REMARK  status: ('A' for Active; 'I' for Inactive)
REMARK    1  A    between atoms: C8_8  and  C10_10 
REMARK    2  A    between atoms: C9_9  and  C11_11 
REMARK    3  A    between atoms: C10_10  and  C11_11 
ROOT
HETATM    1  C1  UNL     1     -33.599   6.210   5.949  1.00 20.00     0.131 C 
HETATM    2  C2  UNL     1     -34.338   5.039   6.561  1.00 20.00     0.079 C 
HETATM    3  C3  UNL     1     -35.490   4.607   5.664  1.00 20.00     0.007 C 
HETATM    4  C4  UNL     1     -35.026   4.350   4.234  1.00 20.00     0.001 C 
HETATM    5  C5  UNL     1     -34.344   5.585   3.649  1.00 20.00     0.012 C 
HETATM    6  C8  UNL     1     -33.153   6.035   4.500  1.00 20.00     0.055 C 
HETATM    7  O12 UNL     1     -33.305   7.195   6.624  1.00 20.00    -0.298 OA
ENDROOT
BRANCH   6   8
HETATM    8  C10 UNL     1     -32.541   7.316   3.939  1.00 20.00     0.012 C 
BRANCH   8   9
HETATM    9  C11 UNL     1     -32.518   7.297   2.415  1.00 20.00     0.005 C 
BRANCH   9  10
HETATM   10  C9  UNL     1     -31.805   8.520   1.858  1.00 20.00    -0.014 A 
HETATM   11  C6  UNL     1     -32.029   8.944   0.433  1.00 20.00     0.005 A 
HETATM   12  C7  UNL     1     -32.578   9.774   1.558  1.00 20.00     0.005 A 
ENDBRANCH   9  10
ENDBRANCH   8   9
ENDBRANCH   6   8
TORSDOF 3
ENDMDL
MODEL 3
REMARK VINA RESULT:      -5.0     10.609     11.693
REMARK  3 active torsions:
REMARK  status: ('A' for Active; 'I' for Inactive)
REMARK    1  A    between atoms: C8_8  and  C10_10 
REMARK    2  A    between atoms: C9_9  and  C11_11 
REMARK    3  A    between atoms: C10_10  and  C11_11 
ROOT
HETATM    1  C1  UNL     1     -35.426  15.522  -3.695  1.00 20.00     0.131 C 
HETATM    2  C2  UNL     1     -35.784  14.096  -4.060  1.00 20.00     0.079 C 
HETATM    3  C3  UNL     1     -34.593  13.394  -4.696  1.00 20.00     0.007 C 
HETATM    4  C4  UNL     1     -33.344  13.501  -3.827  1.00 20.00     0.001 C 
HETATM    5  C5  UNL     1     -32.997  14.962  -3.545  1.00 20.00     0.012 C 
HETATM    6  C8  UNL     1     -34.156  15.701  -2.869  1.00 20.00     0.055 C 
HETATM    7  O12 UNL     1     -36.176  16.455  -3.978  1.00 20.00    -0.298 OA
ENDROOT
BRANCH   6   8
HETATM    8  C10 UNL     1     -33.814  17.175  -2.672  1.00 20.00     0.012 C 
BRANCH   8   9
HETATM    9  C11 UNL     1     -33.664  17.517  -1.194  1.00 20.00     0.005 C 
BRANCH   9  10
HETATM   10  C9  UNL     1     -34.896  17.106  -0.403  1.00 20.00    -0.014 A 
HETATM   11  C6  UNL     1     -35.027  17.485   1.046  1.00 20.00     0.005 A 
HETATM   12  C7  UNL     1     -35.904  18.140   0.017  1.00 20.00     0.005 A 
ENDBRANCH   9  10
ENDBRANCH   8   9
ENDBRANCH   6   8
TORSDOF 3
ENDMDL
MODEL 4
REMARK VINA RESULT:      -4.9     10.886     11.612
REMARK  3 active torsions:
REMARK  status: ('A' for Active; 'I' for Inactive)
REMARK    1  A    between atoms: C8_8  and  C10_10 
REMARK    2  A    between atoms: C9_9  and  C11_11 
REMARK    3  A    between atoms: C10_10  and  C11_11 
ROOT
HETATM    1  C1  UNL     1     -33.550  14.861  -3.828  1.00 20.00     0.131 C 
HETATM    2  C2  UNL     1     -34.156  13.909  -4.837  1.00 20.00     0.079 C 
HETATM    3  C3  UNL     1     -35.511  13.411  -4.356  1.00 20.00     0.007 C 
HETATM    4  C4  UNL     1     -36.436  14.566  -3.983  1.00 20.00     0.001 C 
HETATM    5  C5  UNL     1     -35.798  15.456  -2.918  1.00 20.00     0.012 C 
HETATM    6  C8  UNL     1     -34.445  16.011  -3.374  1.00 20.00     0.055 C 
HETATM    7  O12 UNL     1     -32.376  14.751  -3.478  1.00 20.00    -0.298 OA
ENDROOT
BRANCH   6   8
HETATM    8  C10 UNL     1     -33.794  16.828  -2.263  1.00 20.00     0.012 C 
BRANCH   8   9
HETATM    9  C11 UNL     1     -34.480  16.587  -0.922  1.00 20.00     0.005 C 
BRANCH   9  10
HETATM   10  C9  UNL     1     -34.794  17.898  -0.218  1.00 20.00    -0.014 A 
HETATM   11  C6  UNL     1     -35.750  17.924   0.942  1.00 20.00     0.005 A 
HETATM   12  C7  UNL     1     -34.283  18.149   1.174  1.00 20.00     0.005 A 
ENDBRANCH   9  10
ENDBRANCH   8   9
ENDBRANCH   6   8
TORSDOF 3
ENDMDL
MODEL 5
REMARK VINA RESULT:      -4.9     10.804     12.334
REMARK  3 active torsions:
REMARK  status: ('A' for Active; 'I' for Inactive)
REMARK    1  A    between atoms: C8_8  and  C10_10 
REMARK    2  A    between atoms: C9_9  and  C11_11 
REMARK    3  A    between atoms: C10_10  and  C11_11 
ROOT
HETATM    1  C1  UNL     1     -34.764  13.884  -5.275  1.00 20.00     0.131 C 
HETATM    2  C2  UNL     1     -35.064  14.033  -6.751  1.00 20.00     0.079 C 
HETATM    3  C3  UNL     1     -35.917  15.269  -7.000  1.00 20.00     0.007 C 
HETATM    4  C4  UNL     1     -35.297  16.517  -6.380  1.00 20.00     0.001 C 
HETATM    5  C5  UNL     1     -35.074  16.330  -4.880  1.00 20.00     0.012 C 
HETATM    6  C8  UNL     1     -34.189  15.116  -4.582  1.00 20.00     0.055 C 
HETATM    7  O12 UNL     1     -34.894  12.800  -4.708  1.00 20.00    -0.298 OA
ENDROOT
BRANCH   6   8
HETATM    8  C10 UNL     1     -34.050  14.905  -3.078  1.00 20.00     0.012 C 
BRANCH   8   9
HETATM    9  C11 UNL     1     -34.955  15.853  -2.299  1.00 20.00     0.005 C 
BRANCH   9  10
HETATM   10  C9  UNL     1     -34.199  16.539  -1.171  1.00 20.00    -0.014 A 
HETATM   11  C6  UNL     1     -34.162  18.039  -1.087  1.00 20.00     0.005 A 
HETATM   12  C7  UNL     1     -34.951  17.251  -0.081  1.00 20.00     0.005 A 
ENDBRANCH   9  10
ENDBRANCH   8   9
ENDBRANCH   6   8
TORSDOF 3
ENDMDL
MODEL 6
REMARK VINA RESULT:      -4.8     10.842     12.013
REMARK  3 active torsions:
REMARK  status: ('A' for Active; 'I' for Inactive)
REMARK    1  A    between atoms: C8_8  and  C10_10 
REMARK    2  A    between atoms: C9_9  and  C11_11 
REMARK    3  A    between atoms: C10_10  and  C11_11 
ROOT
HETATM    1  C1  UNL     1     -32.977  18.645  -0.131  1.00 20.00     0.131 C 
HETATM    2  C2  UNL     1     -32.785  18.987   1.331  1.00 20.00     0.079 C 
HETATM    3  C3  UNL     1     -34.129  19.082   2.038  1.00 20.00     0.007 C 
HETATM    4  C4  UNL     1     -34.974  17.831   1.815  1.00 20.00     0.001 C 
HETATM    5  C5  UNL     1     -35.186  17.572   0.325  1.00 20.00     0.012 C 
HETATM    6  C8  UNL     1     -33.856  17.432  -0.423  1.00 20.00     0.055 C 
HETATM    7  O12 UNL     1     -32.378  19.262  -1.010  1.00 20.00    -0.298 OA
ENDROOT
BRANCH   6   8
HETATM    8  C10 UNL     1     -34.095  17.256  -1.920  1.00 20.00     0.012 C 
BRANCH   8   9
HETATM    9  C11 UNL     1     -34.856  15.967  -2.212  1.00 20.00     0.005 C 
BRANCH   9  10
HETATM   10  C9  UNL     1     -34.393  15.333  -3.514  1.00 20.00    -0.014 A 
HETATM   11  C6  UNL     1     -32.942  14.999  -3.720  1.00 20.00     0.005 A 
HETATM   12  C7  UNL     1     -33.947  13.897  -3.539  1.00 20.00     0.005 A 
ENDBRANCH   9  10
ENDBRANCH   8   9
ENDBRANCH   6   8
TORSDOF 3
ENDMDL
MODEL 7
REMARK VINA RESULT:      -4.6     11.427     13.126
REMARK  3 active torsions:
REMARK  status: ('A' for Active; 'I' for Inactive)
REMARK    1  A    between atoms: C8_8  and  C10_10 
REMARK    2  A    between atoms: C9_9  and  C11_11 
REMARK    3  A    between atoms: C10_10  and  C11_11 
ROOT
HETATM    1  C1  UNL     1     -33.995  16.281  -5.628  1.00 20.00     0.131 C 
HETATM    2  C2  UNL     1     -34.079  15.484  -6.912  1.00 20.00     0.079 C 
HETATM    3  C3  UNL     1     -35.190  14.448  -6.826  1.00 20.00     0.007 C 
HETATM    4  C4  UNL     1     -36.518  15.078  -6.417  1.00 20.00     0.001 C 
HETATM    5  C5  UNL     1     -36.388  15.815  -5.086  1.00 20.00     0.012 C 
HETATM    6  C8  UNL     1     -35.303  16.895  -5.137  1.00 20.00     0.055 C 
HETATM    7  O12 UNL     1     -32.914  16.487  -5.080  1.00 20.00    -0.298 OA
ENDROOT
BRANCH   6   8
HETATM    8  C10 UNL     1     -35.137  17.560  -3.773  1.00 20.00     0.012 C 
BRANCH   8   9
HETATM    9  C11 UNL     1     -35.702  16.686  -2.659  1.00 20.00     0.005 C 
BRANCH   9  10
HETATM   10  C9  UNL     1     -34.644  16.367  -1.615  1.00 20.00    -0.014 A 
HETATM   11  C6  UNL     1     -33.646  17.413  -1.203  1.00 20.00     0.005 A 
HETATM   12  C7  UNL     1     -34.722  16.984  -0.245  1.00 20.00     0.005 A 
ENDBRANCH   9  10
ENDBRANCH   8   9
ENDBRANCH   6   8
TORSDOF 3
ENDMDL
MODEL 8
REMARK VINA RESULT:      -4.6     11.006     12.093
REMARK  3 active torsions:
REMARK  status: ('A' for Active; 'I' for Inactive)
REMARK    1  A    between atoms: C8_8  and  C10_10 
REMARK    2  A    between atoms: C9_9  and  C11_11 
REMARK    3  A    between atoms: C10_10  and  C11_11 
ROOT
HETATM    1  C1  UNL     1     -34.343  18.198   1.782  1.00 20.00     0.131 C 
HETATM    2  C2  UNL     1     -33.387  18.973   2.664  1.00 20.00     0.079 C 
HETATM    3  C3  UNL     1     -31.965  18.869   2.132  1.00 20.00     0.007 C 
HETATM    4  C4  UNL     1     -31.883  19.262   0.660  1.00 20.00     0.001 C 
HETATM    5  C5  UNL     1     -32.822  18.405  -0.189  1.00 20.00     0.012 C 
HETATM    6  C8  UNL     1     -34.274  18.508   0.289  1.00 20.00     0.055 C 
HETATM    7  O12 UNL     1     -35.178  17.438   2.268  1.00 20.00    -0.298 OA
ENDROOT
BRANCH   6   8
HETATM    8  C10 UNL     1     -35.176  17.581  -0.522  1.00 20.00     0.012 C 
BRANCH   8   9
HETATM    9  C11 UNL     1     -34.381  16.437  -1.141  1.00 20.00     0.005 C 
BRANCH   9  10
HETATM   10  C9  UNL     1     -34.792  16.196  -2.585  1.00 20.00    -0.014 A 
HETATM   11  C6  UNL     1     -33.759  15.838  -3.618  1.00 20.00     0.005 A 
HETATM   12  C7  UNL     1     -34.752  14.807  -3.161  1.00 20.00     0.005 A 
ENDBRANCH   9  10
ENDBRANCH   8   9
ENDBRANCH   6   8
TORSDOF 3
ENDMDL
MODEL 9
REMARK VINA RESULT:      -4.5     10.584     12.991
REMARK  3 active torsions:
REMARK  status: ('A' for Active; 'I' for Inactive)
REMARK    1  A    between atoms: C8_8  and  C10_10 
REMARK    2  A    between atoms: C9_9  and  C11_11 
REMARK    3  A    between atoms: C10_10  and  C11_11 
ROOT
HETATM    1  C1  UNL     1     -34.597  13.760  -4.818  1.00 20.00     0.131 C 
HETATM    2  C2  UNL     1     -34.094  14.214  -3.463  1.00 20.00     0.079 C 
HETATM    3  C3  UNL     1     -32.964  15.220  -3.623  1.00 20.00     0.007 C 
HETATM    4  C4  UNL     1     -33.362  16.375  -4.538  1.00 20.00     0.001 C 
HETATM    5  C5  UNL     1     -33.800  15.861  -5.908  1.00 20.00     0.012 C 
HETATM    6  C8  UNL     1     -34.962  14.870  -5.800  1.00 20.00     0.055 C 
HETATM    7  O12 UNL     1     -34.780  12.569  -5.059  1.00 20.00    -0.298 OA
ENDROOT
BRANCH   6   8
HETATM    8  C10 UNL     1     -35.326  14.312  -7.172  1.00 20.00     0.012 C 
BRANCH   8   9
HETATM    9  C11 UNL     1     -36.653  14.878  -7.668  1.00 20.00     0.005 C 
BRANCH   9  10
HETATM   10  C9  UNL     1     -37.463  15.469  -6.525  1.00 20.00    -0.014 A 
HETATM   11  C6  UNL     1     -38.394  16.622  -6.774  1.00 20.00     0.005 A 
HETATM   12  C7  UNL     1     -38.951  15.261  -6.466  1.00 20.00     0.005 A 
ENDBRANCH   9  10
ENDBRANCH   8   9
ENDBRANCH   6   8
TORSDOF 3
ENDMDL
