MODEL 1
REMARK VINA RESULT:      -5.5      0.000      0.000
REMARK  3 active torsions:
REMARK  status: ('A' for Active; 'I' for Inactive)
REMARK    1  A    between atoms: C2_2  and  C11_11 
REMARK    2  A    between atoms: C3_3  and  C9_9 
REMARK    3  A    between atoms: C9_9  and  C11_11 
ROOT
HETATM    1  C1  UNL     1     -34.431  16.305  -1.657  1.00 20.00    -0.111 C 
HETATM    2  C2  UNL     1     -34.128  15.778  -2.693  1.00 20.00    -0.106 C 
HETATM    3  C10 UNL     1     -34.799  16.947  -0.396  1.00 20.00     0.112 C 
ENDROOT
BRANCH   2   4
HETATM    4  C11 UNL     1     -33.747  15.132  -3.949  1.00 20.00     0.114 C 
BRANCH   4   5
HETATM    5  C9  UNL     1     -34.958  14.969  -4.867  1.00 20.00     0.058 C 
HETATM    6  C7  UNL     1     -35.877  16.192  -4.789  1.00 20.00     0.021 C 
HETATM    7  C5  UNL     1     -37.038  16.126  -5.782  1.00 20.00     0.001 C 
HETATM    8  C4  UNL     1     -36.551  15.867  -7.203  1.00 20.00     0.000 C 
HETATM    9  C6  UNL     1     -35.699  14.605  -7.280  1.00 20.00     0.001 C 
HETATM   10  C8  UNL     1     -34.523  14.655  -6.302  1.00 20.00     0.021 C 
BRANCH   5  11
HETATM   11  C3  UNL     1     -35.668  13.756  -4.271  1.00 20.00     0.182 C 
HETATM   12  O12 UNL     1     -36.812  13.984  -3.790  1.00 20.00    -0.647 OA
HETATM   13  O13 UNL     1     -35.018  12.676  -4.336  1.00 20.00    -0.647 OA
ENDBRANCH   5  11
ENDBRANCH   4   5
ENDBRANCH   2   4
TORSDOF 3
ENDMDL
MODEL 2
REMARK VINA RESULT:      -5.3      1.599      2.403
REMARK  3 active torsions:
REMARK  status: ('A' for Active; 'I' for Inactive)
REMARK    1  A    between atoms: C2_2  and  C11_11 
REMARK    2  A    between atoms: C3_3  and  C9_9 
REMARK    3  A    between atoms: C9_9  and  C11_11 
ROOT
HETATM    1  C1  UNL     1     -34.142  17.083  -1.045  1.00 20.00    -0.111 C 
HETATM    2  C2  UNL     1     -34.647  16.277  -1.778  1.00 20.00    -0.106 C 
HETATM    3  C10 UNL     1     -33.527  18.064  -0.152  1.00 20.00     0.112 C 
ENDROOT
BRANCH   2   4
HETATM    4  C11 UNL     1     -35.277  15.301  -2.668  1.00 20.00     0.114 C 
BRANCH   4   5
HETATM    5  C9  UNL     1     -34.550  15.244  -4.012  1.00 20.00     0.058 C 
HETATM    6  C7  UNL     1     -35.439  14.621  -5.093  1.00 20.00     0.021 C 
HETATM    7  C5  UNL     1     -34.797  14.656  -6.481  1.00 20.00     0.001 C 
HETATM    8  C4  UNL     1     -34.339  16.060  -6.856  1.00 20.00     0.000 C 
HETATM    9  C6  UNL     1     -33.396  16.639  -5.807  1.00 20.00     0.001 C 
HETATM   10  C8  UNL     1     -34.023  16.625  -4.412  1.00 20.00     0.021 C 
BRANCH   5  11
HETATM   11  C3  UNL     1     -33.375  14.314  -3.717  1.00 20.00     0.182 C 
HETATM   12  O12 UNL     1     -32.257  14.884  -3.583  1.00 20.00    -0.647 OA
HETATM   13  O13 UNL     1     -33.674  13.089  -3.644  1.00 20.00    -0.647 OA
ENDBRANCH   5  11
ENDBRANCH   4   5
ENDBRANCH   2   4
TORSDOF 3
ENDMDL
MODEL 3
REMARK VINA RESULT:      -5.3      1.636      4.044
REMARK  3 active torsions:
REMARK  status: ('A' for Active; 'I' for Inactive)
REMARK    1  A    between atoms: C2_2  and  C11_11 
REMARK    2  A    between atoms: C3_3  and  C9_9 
REMARK    3  A    between atoms: C9_9  and  C11_11 
ROOT
HETATM    1  C1  UNL     1     -34.452  17.250  -7.327  1.00 20.00    -0.111 C 
HETATM    2  C2  UNL     1     -34.361  16.156  -6.842  1.00 20.00    -0.106 C 
HETATM    3  C10 UNL     1     -34.563  18.584  -7.918  1.00 20.00     0.112 C 
ENDROOT
BRANCH   2   4
HETATM    4  C11 UNL     1     -34.263  14.825  -6.242  1.00 20.00     0.114 C 
BRANCH   4   5
HETATM    5  C9  UNL     1     -34.479  14.892  -4.730  1.00 20.00     0.058 C 
HETATM    6  C7  UNL     1     -33.466  15.832  -4.070  1.00 20.00     0.021 C 
HETATM    7  C5  UNL     1     -33.722  16.025  -2.575  1.00 20.00     0.001 C 
HETATM    8  C4  UNL     1     -35.160  16.449  -2.298  1.00 20.00     0.000 C 
HETATM    9  C6  UNL     1     -36.157  15.463  -2.898  1.00 20.00     0.001 C 
HETATM   10  C8  UNL     1     -35.926  15.265  -4.397  1.00 20.00     0.021 C 
BRANCH   5  11
HETATM   11  C3  UNL     1     -34.206  13.455  -4.290  1.00 20.00     0.182 C 
HETATM   12  O12 UNL     1     -33.074  13.256  -3.769  1.00 20.00    -0.647 OA
HETATM   13  O13 UNL     1     -35.153  12.647  -4.503  1.00 20.00    -0.647 OA
ENDBRANCH   5  11
ENDBRANCH   4   5
ENDBRANCH   2   4
TORSDOF 3
ENDMDL
MODEL 4
REMARK VINA RESULT:      -4.9      2.454      3.278
REMARK  3 active torsions:
REMARK  status: ('A' for Active; 'I' for Inactive)
REMARK    1  A    between atoms: C2_2  and  C11_11 
REMARK    2  A    between atoms: C3_3  and  C9_9 
REMARK    3  A    between atoms: C9_9  and  C11_11 
ROOT
HETATM    1  C1  UNL     1     -34.885  17.374  -0.173  1.00 20.00    -0.111 C 
HETATM    2  C2  UNL     1     -34.166  17.034  -1.073  1.00 20.00    -0.106 C 
HETATM    3  C10 UNL     1     -35.760  17.788   0.922  1.00 20.00     0.112 C 
ENDROOT
BRANCH   2   4
HETATM    4  C11 UNL     1     -33.280  16.615  -2.160  1.00 20.00     0.114 C 
BRANCH   4   5
HETATM    5  C9  UNL     1     -34.064  15.884  -3.250  1.00 20.00     0.058 C 
HETATM    6  C7  UNL     1     -33.353  14.595  -3.671  1.00 20.00     0.021 C 
HETATM    7  C5  UNL     1     -34.163  13.770  -4.672  1.00 20.00     0.001 C 
HETATM    8  C4  UNL     1     -35.578  13.505  -4.171  1.00 20.00     0.000 C 
HETATM    9  C6  UNL     1     -36.300  14.803  -3.826  1.00 20.00     0.001 C 
HETATM   10  C8  UNL     1     -35.512  15.638  -2.816  1.00 20.00     0.021 C 
BRANCH   5  11
HETATM   11  C3  UNL     1     -34.040  16.883  -4.405  1.00 20.00     0.182 C 
HETATM   12  O12 UNL     1     -35.054  17.629  -4.494  1.00 20.00    -0.647 OA
HETATM   13  O13 UNL     1     -33.003  16.836  -5.125  1.00 20.00    -0.647 OA
ENDBRANCH   5  11
ENDBRANCH   4   5
ENDBRANCH   2   4
TORSDOF 3
ENDMDL
MODEL 5
REMARK VINA RESULT:      -4.8      1.525      4.085
REMARK  3 active torsions:
REMARK  status: ('A' for Active; 'I' for Inactive)
REMARK    1  A    between atoms: C2_2  and  C11_11 
REMARK    2  A    between atoms: C3_3  and  C9_9 
REMARK    3  A    between atoms: C9_9  and  C11_11 
ROOT
HETATM    1  C1  UNL     1     -34.627  17.524  -7.259  1.00 20.00    -0.111 C 
HETATM    2  C2  UNL     1     -35.059  16.520  -6.761  1.00 20.00    -0.106 C 
HETATM    3  C10 UNL     1     -34.100  18.746  -7.866  1.00 20.00     0.112 C 
ENDROOT
BRANCH   2   4
HETATM    4  C11 UNL     1     -35.600  15.305  -6.150  1.00 20.00     0.114 C 
BRANCH   4   5
HETATM    5  C9  UNL     1     -35.212  15.220  -4.674  1.00 20.00     0.058 C 
HETATM    6  C7  UNL     1     -33.693  15.117  -4.508  1.00 20.00     0.021 C 
HETATM    7  C5  UNL     1     -33.252  15.152  -3.044  1.00 20.00     0.001 C 
HETATM    8  C4  UNL     1     -33.827  16.359  -2.311  1.00 20.00     0.000 C 
HETATM    9  C6  UNL     1     -35.347  16.407  -2.422  1.00 20.00     0.001 C 
HETATM   10  C8  UNL     1     -35.809  16.385  -3.880  1.00 20.00     0.021 C 
BRANCH   5  11
HETATM   11  C3  UNL     1     -35.865  13.912  -4.233  1.00 20.00     0.182 C 
HETATM   12  O12 UNL     1     -37.044  14.019  -3.795  1.00 20.00    -0.647 OA
HETATM   13  O13 UNL     1     -35.139  12.886  -4.363  1.00 20.00    -0.647 OA
ENDBRANCH   5  11
ENDBRANCH   4   5
ENDBRANCH   2   4
TORSDOF 3
ENDMDL
MODEL 6
REMARK VINA RESULT:      -4.7      1.928      2.512
REMARK  3 active torsions:
REMARK  status: ('A' for Active; 'I' for Inactive)
REMARK    1  A    between atoms: C2_2  and  C11_11 
REMARK    2  A    between atoms: C3_3  and  C9_9 
REMARK    3  A    between atoms: C9_9  and  C11_11 
ROOT
HETATM    1  C1  UNL     1     -34.677  16.494  -1.158  1.00 20.00    -0.111 C 
HETATM    2  C2  UNL     1     -34.427  15.781  -2.091  1.00 20.00    -0.106 C 
HETATM    3  C10 UNL     1     -34.982  17.363  -0.021  1.00 20.00     0.112 C 
ENDROOT
BRANCH   2   4
HETATM    4  C11 UNL     1     -34.134  14.903  -3.225  1.00 20.00     0.114 C 
BRANCH   4   5
HETATM    5  C9  UNL     1     -34.782  15.433  -4.503  1.00 20.00     0.058 C 
HETATM    6  C7  UNL     1     -34.611  14.443  -5.659  1.00 20.00     0.021 C 
HETATM    7  C5  UNL     1     -35.350  14.877  -6.926  1.00 20.00     0.001 C 
HETATM    8  C4  UNL     1     -36.817  15.183  -6.648  1.00 20.00     0.000 C 
HETATM    9  C6  UNL     1     -36.970  16.226  -5.546  1.00 20.00     0.001 C 
HETATM   10  C8  UNL     1     -36.249  15.805  -4.264  1.00 20.00     0.021 C 
BRANCH   5  11
HETATM   11  C3  UNL     1     -33.974  16.697  -4.788  1.00 20.00     0.182 C 
HETATM   12  O12 UNL     1     -34.600  17.783  -4.639  1.00 20.00    -0.647 OA
HETATM   13  O13 UNL     1     -32.777  16.494  -5.138  1.00 20.00    -0.647 OA
ENDBRANCH   5  11
ENDBRANCH   4   5
ENDBRANCH   2   4
TORSDOF 3
ENDMDL
MODEL 7
REMARK VINA RESULT:      -4.7      1.908      3.359
REMARK  3 active torsions:
REMARK  status: ('A' for Active; 'I' for Inactive)
REMARK    1  A    between atoms: C2_2  and  C11_11 
REMARK    2  A    between atoms: C3_3  and  C9_9 
REMARK    3  A    between atoms: C9_9  and  C11_11 
ROOT
HETATM    1  C1  UNL     1     -38.751  14.710  -4.224  1.00 20.00    -0.111 C 
HETATM    2  C2  UNL     1     -37.612  14.797  -3.854  1.00 20.00    -0.106 C 
HETATM    3  C10 UNL     1     -40.138  14.605  -4.675  1.00 20.00     0.112 C 
ENDROOT
BRANCH   2   4
HETATM    4  C11 UNL     1     -36.229  14.912  -3.392  1.00 20.00     0.114 C 
BRANCH   4   5
HETATM    5  C9  UNL     1     -35.260  14.929  -4.574  1.00 20.00     0.058 C 
HETATM    6  C7  UNL     1     -36.002  14.720  -5.898  1.00 20.00     0.021 C 
HETATM    7  C5  UNL     1     -35.088  14.852  -7.117  1.00 20.00     0.001 C 
HETATM    8  C4  UNL     1     -34.308  16.161  -7.099  1.00 20.00     0.000 C 
HETATM    9  C6  UNL     1     -33.514  16.320  -5.807  1.00 20.00     0.001 C 
HETATM   10  C8  UNL     1     -34.412  16.204  -4.574  1.00 20.00     0.021 C 
BRANCH   5  11
HETATM   11  C3  UNL     1     -34.368  13.722  -4.292  1.00 20.00     0.182 C 
HETATM   12  O12 UNL     1     -33.270  13.983  -3.727  1.00 20.00    -0.647 OA
HETATM   13  O13 UNL     1     -34.845  12.612  -4.661  1.00 20.00    -0.647 OA
ENDBRANCH   5  11
ENDBRANCH   4   5
ENDBRANCH   2   4
TORSDOF 3
ENDMDL
MODEL 8
REMARK VINA RESULT:      -4.6      1.764      3.270
REMARK  3 active torsions:
REMARK  status: ('A' for Active; 'I' for Inactive)
REMARK    1  A    between atoms: C2_2  and  C11_11 
REMARK    2  A    between atoms: C3_3  and  C9_9 
REMARK    3  A    between atoms: C9_9  and  C11_11 
ROOT
HETATM    1  C1  UNL     1     -38.338  16.547  -3.887  1.00 20.00    -0.111 C 
HETATM    2  C2  UNL     1     -37.629  15.578  -3.861  1.00 20.00    -0.106 C 
HETATM    3  C10 UNL     1     -39.203  17.726  -3.919  1.00 20.00     0.112 C 
ENDROOT
BRANCH   2   4
HETATM    4  C11 UNL     1     -36.768  14.395  -3.843  1.00 20.00     0.114 C 
BRANCH   4   5
HETATM    5  C9  UNL     1     -35.383  14.722  -4.399  1.00 20.00     0.058 C 
HETATM    6  C7  UNL     1     -35.456  15.085  -5.885  1.00 20.00     0.021 C 
HETATM    7  C5  UNL     1     -34.110  15.538  -6.452  1.00 20.00     0.001 C 
HETATM    8  C4  UNL     1     -33.494  16.657  -5.620  1.00 20.00     0.000 C 
HETATM    9  C6  UNL     1     -33.358  16.253  -4.155  1.00 20.00     0.001 C 
HETATM   10  C8  UNL     1     -34.697  15.808  -3.564  1.00 20.00     0.021 C 
BRANCH   5  11
HETATM   11  C3  UNL     1     -34.635  13.401  -4.231  1.00 20.00     0.182 C 
HETATM   12  O12 UNL     1     -33.864  13.340  -3.234  1.00 20.00    -0.647 OA
HETATM   13  O13 UNL     1     -34.886  12.534  -5.115  1.00 20.00    -0.647 OA
ENDBRANCH   5  11
ENDBRANCH   4   5
ENDBRANCH   2   4
TORSDOF 3
ENDMDL
MODEL 9
REMARK VINA RESULT:      -4.6      1.725      2.694
REMARK  3 active torsions:
REMARK  status: ('A' for Active; 'I' for Inactive)
REMARK    1  A    between atoms: C2_2  and  C11_11 
REMARK    2  A    between atoms: C3_3  and  C9_9 
REMARK    3  A    between atoms: C9_9  and  C11_11 
ROOT
HETATM    1  C1  UNL     1     -34.399  17.173  -0.925  1.00 20.00    -0.111 C 
HETATM    2  C2  UNL     1     -34.066  17.107  -2.077  1.00 20.00    -0.106 C 
HETATM    3  C10 UNL     1     -34.803  17.254   0.478  1.00 20.00     0.112 C 
ENDROOT
BRANCH   2   4
HETATM    4  C11 UNL     1     -33.665  17.011  -3.481  1.00 20.00     0.114 C 
BRANCH   4   5
HETATM    5  C9  UNL     1     -34.489  15.950  -4.211  1.00 20.00     0.058 C 
HETATM    6  C7  UNL     1     -33.943  15.702  -5.620  1.00 20.00     0.021 C 
HETATM    7  C5  UNL     1     -34.662  14.561  -6.342  1.00 20.00     0.001 C 
HETATM    8  C4  UNL     1     -34.683  13.288  -5.504  1.00 20.00     0.000 C 
HETATM    9  C6  UNL     1     -35.297  13.534  -4.130  1.00 20.00     0.001 C 
HETATM   10  C8  UNL     1     -34.585  14.664  -3.385  1.00 20.00     0.021 C 
BRANCH   5  11
HETATM   11  C3  UNL     1     -35.866  16.603  -4.303  1.00 20.00     0.182 C 
HETATM   12  O12 UNL     1     -35.963  17.543  -5.139  1.00 20.00    -0.647 OA
HETATM   13  O13 UNL     1     -36.737  16.116  -3.528  1.00 20.00    -0.647 OA
ENDBRANCH   5  11
ENDBRANCH   4   5
ENDBRANCH   2   4
TORSDOF 3
ENDMDL
