MODEL 1
REMARK VINA RESULT:      -4.7      0.000      0.000
REMARK  4 active torsions:
REMARK  status: ('A' for Active; 'I' for Inactive)
REMARK    1  A    between atoms: C1_1  and  C10_10 
REMARK    2  A    between atoms: C5_5  and  C9_9 
REMARK    3  A    between atoms: C9_9  and  C10_10 
REMARK    4  A    between atoms: C10_10  and  C11_11 
ROOT
HETATM    1  C10 UNL     1     -34.993  15.046  -4.508  1.00 20.00     0.058 C 
ENDROOT
BRANCH   1   2
HETATM    2  C1  UNL     1     -34.407  13.667  -4.186  1.00 20.00     0.127 C 
HETATM    3  C6  UNL     1     -33.016  13.639  -3.602  1.00 20.00     0.091 C 
HETATM    4  O12 UNL     1     -35.033  12.624  -4.370  1.00 20.00    -0.298 OA
ENDBRANCH   1   2
BRANCH   1   5
HETATM    5  C9  UNL     1     -35.956  15.511  -3.401  1.00 20.00     0.017 C 
BRANCH   5   6
HETATM    6  C5  UNL     1     -35.374  16.679  -2.633  1.00 20.00    -0.014 C 
HETATM    7  C3  UNL     1     -33.992  17.201  -3.104  1.00 20.00     0.005 C 
HETATM    8  C2  UNL     1     -33.659  17.444  -1.618  1.00 20.00     0.001 C 
HETATM    9  C4  UNL     1     -34.691  16.348  -1.280  1.00 20.00     0.005 C 
ENDBRANCH   5   6
ENDBRANCH   1   5
BRANCH   1  10
HETATM   10  C11 UNL     1     -35.621  15.018  -5.926  1.00 20.00    -0.012 C 
HETATM   11  C7  UNL     1     -34.587  15.038  -7.056  1.00 20.00     0.010 C 
HETATM   12  C8  UNL     1     -36.619  16.165  -6.117  1.00 20.00     0.010 C 
ENDBRANCH   1  10
TORSDOF 4
ENDMDL
MODEL 2
REMARK VINA RESULT:      -4.6      1.552      2.078
REMARK  4 active torsions:
REMARK  status: ('A' for Active; 'I' for Inactive)
REMARK    1  A    between atoms: C1_1  and  C10_10 
REMARK    2  A    between atoms: C5_5  and  C9_9 
REMARK    3  A    between atoms: C9_9  and  C10_10 
REMARK    4  A    between atoms: C10_10  and  C11_11 
ROOT
HETATM    1  C10 UNL     1     -34.058  15.458  -3.545  1.00 20.00     0.058 C 
ENDROOT
BRANCH   1   2
HETATM    2  C1  UNL     1     -34.037  13.948  -3.806  1.00 20.00     0.127 C 
HETATM    3  C6  UNL     1     -35.305  13.334  -4.346  1.00 20.00     0.091 C 
HETATM    4  O12 UNL     1     -33.037  13.257  -3.609  1.00 20.00    -0.298 OA
ENDBRANCH   1   2
BRANCH   1   5
HETATM    5  C9  UNL     1     -34.912  15.794  -2.309  1.00 20.00     0.017 C 
BRANCH   5   6
HETATM    6  C5  UNL     1     -34.100  16.552  -1.280  1.00 20.00    -0.014 C 
HETATM    7  C3  UNL     1     -34.877  17.132  -0.070  1.00 20.00     0.005 C 
HETATM    8  C2  UNL     1     -33.932  18.349  -0.139  1.00 20.00     0.001 C 
HETATM    9  C4  UNL     1     -33.728  18.017  -1.632  1.00 20.00     0.005 C 
ENDBRANCH   5   6
ENDBRANCH   1   5
BRANCH   1  10
HETATM   10  C11 UNL     1     -34.492  16.197  -4.837  1.00 20.00    -0.012 C 
HETATM   11  C7  UNL     1     -33.423  17.141  -5.394  1.00 20.00     0.010 C 
HETATM   12  C8  UNL     1     -35.802  16.964  -4.628  1.00 20.00     0.010 C 
ENDBRANCH   1  10
TORSDOF 4
ENDMDL
MODEL 3
REMARK VINA RESULT:      -4.6      1.444      2.760
REMARK  4 active torsions:
REMARK  status: ('A' for Active; 'I' for Inactive)
REMARK    1  A    between atoms: C1_1  and  C10_10 
REMARK    2  A    between atoms: C5_5  and  C9_9 
REMARK    3  A    between atoms: C9_9  and  C10_10 
REMARK    4  A    between atoms: C10_10  and  C11_11 
ROOT
HETATM    1  C10 UNL     1     -35.469  14.992  -3.321  1.00 20.00     0.058 C 
ENDROOT
BRANCH   1   2
HETATM    2  C1  UNL     1     -36.963  15.148  -3.626  1.00 20.00     0.127 C 
HETATM    3  C6  UNL     1     -37.447  16.538  -3.958  1.00 20.00     0.091 C 
HETATM    4  O12 UNL     1     -37.742  14.195  -3.622  1.00 20.00    -0.298 OA
ENDBRANCH   1   2
BRANCH   1   5
HETATM    5  C9  UNL     1     -34.740  16.344  -3.416  1.00 20.00     0.017 C 
BRANCH   5   6
HETATM    6  C5  UNL     1     -33.945  16.620  -2.158  1.00 20.00    -0.014 C 
HETATM    7  C3  UNL     1     -34.722  16.557  -0.817  1.00 20.00     0.005 C 
HETATM    8  C2  UNL     1     -33.848  17.736  -0.340  1.00 20.00     0.001 C 
HETATM    9  C4  UNL     1     -33.665  18.109  -1.826  1.00 20.00     0.005 C 
ENDBRANCH   5   6
ENDBRANCH   1   5
BRANCH   1  10
HETATM   10  C11 UNL     1     -34.874  13.883  -4.227  1.00 20.00    -0.012 C 
HETATM   11  C7  UNL     1     -33.446  13.479  -3.846  1.00 20.00     0.010 C 
HETATM   12  C8  UNL     1     -34.920  14.287  -5.705  1.00 20.00     0.010 C 
ENDBRANCH   1  10
TORSDOF 4
ENDMDL
MODEL 4
REMARK VINA RESULT:      -4.3      1.452      3.390
REMARK  4 active torsions:
REMARK  status: ('A' for Active; 'I' for Inactive)
REMARK    1  A    between atoms: C1_1  and  C10_10 
REMARK    2  A    between atoms: C5_5  and  C9_9 
REMARK    3  A    between atoms: C9_9  and  C10_10 
REMARK    4  A    between atoms: C10_10  and  C11_11 
ROOT
HETATM    1  C10 UNL     1     -35.157  15.013  -3.547  1.00 20.00     0.058 C 
ENDROOT
BRANCH   1   2
HETATM    2  C1  UNL     1     -34.469  13.681  -3.866  1.00 20.00     0.127 C 
HETATM    3  C6  UNL     1     -32.992  13.591  -3.571  1.00 20.00     0.091 C 
HETATM    4  O12 UNL     1     -35.079  12.715  -4.324  1.00 20.00    -0.298 OA
ENDBRANCH   1   2
BRANCH   1   5
HETATM    5  C9  UNL     1     -35.725  15.662  -4.823  1.00 20.00     0.017 C 
BRANCH   5   6
HETATM    6  C5  UNL     1     -37.214  15.901  -4.691  1.00 20.00    -0.014 C 
HETATM    7  C3  UNL     1     -37.653  17.063  -3.762  1.00 20.00     0.005 C 
HETATM    8  C2  UNL     1     -38.844  16.178  -3.340  1.00 20.00     0.001 C 
HETATM    9  C4  UNL     1     -37.985  14.957  -3.731  1.00 20.00     0.005 C 
ENDBRANCH   5   6
ENDBRANCH   1   5
BRANCH   1  10
HETATM   10  C11 UNL     1     -34.179  15.919  -2.755  1.00 20.00    -0.012 C 
HETATM   11  C7  UNL     1     -34.713  16.349  -1.385  1.00 20.00     0.010 C 
HETATM   12  C8  UNL     1     -33.781  17.156  -3.567  1.00 20.00     0.010 C 
ENDBRANCH   1  10
TORSDOF 4
ENDMDL
MODEL 5
REMARK VINA RESULT:      -4.3      1.540      3.399
REMARK  4 active torsions:
REMARK  status: ('A' for Active; 'I' for Inactive)
REMARK    1  A    between atoms: C1_1  and  C10_10 
REMARK    2  A    between atoms: C5_5  and  C9_9 
REMARK    3  A    between atoms: C9_9  and  C10_10 
REMARK    4  A    between atoms: C10_10  and  C11_11 
ROOT
HETATM    1  C10 UNL     1     -34.601  15.201  -4.041  1.00 20.00     0.058 C 
ENDROOT
BRANCH   1   2
HETATM    2  C1  UNL     1     -34.249  13.713  -3.939  1.00 20.00     0.127 C 
HETATM    3  C6  UNL     1     -32.858  13.375  -3.462  1.00 20.00     0.091 C 
HETATM    4  O12 UNL     1     -35.054  12.823  -4.210  1.00 20.00    -0.298 OA
ENDBRANCH   1   2
BRANCH   1   5
HETATM    5  C9  UNL     1     -33.332  16.063  -4.165  1.00 20.00     0.017 C 
BRANCH   5   6
HETATM    6  C5  UNL     1     -33.318  16.819  -5.477  1.00 20.00    -0.014 C 
HETATM    7  C3  UNL     1     -34.078  18.170  -5.510  1.00 20.00     0.005 C 
HETATM    8  C2  UNL     1     -34.495  17.816  -6.952  1.00 20.00     0.001 C 
HETATM    9  C4  UNL     1     -34.309  16.334  -6.567  1.00 20.00     0.005 C 
ENDBRANCH   5   6
ENDBRANCH   1   5
BRANCH   1  10
HETATM   10  C11 UNL     1     -35.523  15.593  -2.857  1.00 20.00    -0.012 C 
HETATM   11  C7  UNL     1     -36.673  16.522  -3.255  1.00 20.00     0.010 C 
HETATM   12  C8  UNL     1     -34.723  16.222  -1.712  1.00 20.00     0.010 C 
ENDBRANCH   1  10
TORSDOF 4
ENDMDL
MODEL 6
REMARK VINA RESULT:      -4.3      1.907      3.048
REMARK  4 active torsions:
REMARK  status: ('A' for Active; 'I' for Inactive)
REMARK    1  A    between atoms: C1_1  and  C10_10 
REMARK    2  A    between atoms: C5_5  and  C9_9 
REMARK    3  A    between atoms: C9_9  and  C10_10 
REMARK    4  A    between atoms: C10_10  and  C11_11 
ROOT
HETATM    1  C10 UNL     1     -34.374  15.709  -4.652  1.00 20.00     0.058 C 
ENDROOT
BRANCH   1   2
HETATM    2  C1  UNL     1     -34.281  16.197  -6.103  1.00 20.00     0.127 C 
HETATM    3  C6  UNL     1     -34.325  15.140  -7.179  1.00 20.00     0.091 C 
HETATM    4  O12 UNL     1     -34.193  17.389  -6.395  1.00 20.00    -0.298 OA
ENDBRANCH   1   2
BRANCH   1   5
HETATM    5  C9  UNL     1     -33.446  16.525  -3.734  1.00 20.00     0.017 C 
BRANCH   5   6
HETATM    6  C5  UNL     1     -34.224  17.143  -2.592  1.00 20.00    -0.014 C 
HETATM    7  C3  UNL     1     -33.434  17.437  -1.290  1.00 20.00     0.005 C 
HETATM    8  C2  UNL     1     -34.702  17.026  -0.514  1.00 20.00     0.001 C 
HETATM    9  C4  UNL     1     -35.094  16.179  -1.743  1.00 20.00     0.005 C 
ENDBRANCH   5   6
ENDBRANCH   1   5
BRANCH   1  10
HETATM   10  C11 UNL     1     -34.125  14.179  -4.609  1.00 20.00    -0.012 C 
HETATM   11  C7  UNL     1     -35.372  13.365  -4.249  1.00 20.00     0.010 C 
HETATM   12  C8  UNL     1     -32.982  13.826  -3.651  1.00 20.00     0.010 C 
ENDBRANCH   1  10
TORSDOF 4
ENDMDL
MODEL 7
REMARK VINA RESULT:      -4.3      1.529      4.162
REMARK  4 active torsions:
REMARK  status: ('A' for Active; 'I' for Inactive)
REMARK    1  A    between atoms: C1_1  and  C10_10 
REMARK    2  A    between atoms: C5_5  and  C9_9 
REMARK    3  A    between atoms: C9_9  and  C10_10 
REMARK    4  A    between atoms: C10_10  and  C11_11 
ROOT
HETATM    1  C10 UNL     1     -33.978  16.010  -3.982  1.00 20.00     0.058 C 
ENDROOT
BRANCH   1   2
HETATM    2  C1  UNL     1     -33.356  14.633  -3.722  1.00 20.00     0.127 C 
HETATM    3  C6  UNL     1     -34.286  13.446  -3.781  1.00 20.00     0.091 C 
HETATM    4  O12 UNL     1     -32.157  14.482  -3.493  1.00 20.00    -0.298 OA
ENDBRANCH   1   2
BRANCH   1   5
HETATM    5  C9  UNL     1     -33.450  16.616  -5.295  1.00 20.00     0.017 C 
BRANCH   5   6
HETATM    6  C5  UNL     1     -34.448  16.428  -6.417  1.00 20.00    -0.014 C 
HETATM    7  C3  UNL     1     -35.892  16.037  -6.006  1.00 20.00     0.005 C 
HETATM    8  C2  UNL     1     -35.931  15.146  -7.264  1.00 20.00     0.001 C 
HETATM    9  C4  UNL     1     -34.392  15.076  -7.177  1.00 20.00     0.005 C 
ENDBRANCH   5   6
ENDBRANCH   1   5
BRANCH   1  10
HETATM   10  C11 UNL     1     -33.769  16.911  -2.737  1.00 20.00    -0.012 C 
HETATM   11  C7  UNL     1     -34.567  16.458  -1.511  1.00 20.00     0.010 C 
HETATM   12  C8  UNL     1     -34.087  18.377  -3.050  1.00 20.00     0.010 C 
ENDBRANCH   1  10
TORSDOF 4
ENDMDL
MODEL 8
REMARK VINA RESULT:      -4.3      1.839      2.709
REMARK  4 active torsions:
REMARK  status: ('A' for Active; 'I' for Inactive)
REMARK    1  A    between atoms: C1_1  and  C10_10 
REMARK    2  A    between atoms: C5_5  and  C9_9 
REMARK    3  A    between atoms: C9_9  and  C10_10 
REMARK    4  A    between atoms: C10_10  and  C11_11 
ROOT
HETATM    1  C10 UNL     1     -34.955  15.866  -4.079  1.00 20.00     0.058 C 
ENDROOT
BRANCH   1   2
HETATM    2  C1  UNL     1     -33.840  16.120  -5.101  1.00 20.00     0.127 C 
HETATM    3  C6  UNL     1     -34.247  16.160  -6.553  1.00 20.00     0.091 C 
HETATM    4  O12 UNL     1     -32.669  16.302  -4.770  1.00 20.00    -0.298 OA
ENDBRANCH   1   2
BRANCH   1   5
HETATM    5  C9  UNL     1     -34.380  15.716  -2.659  1.00 20.00     0.017 C 
BRANCH   5   6
HETATM    6  C5  UNL     1     -34.620  16.968  -1.843  1.00 20.00    -0.014 C 
HETATM    7  C3  UNL     1     -33.373  17.822  -1.496  1.00 20.00     0.005 C 
HETATM    8  C2  UNL     1     -34.033  18.098  -0.129  1.00 20.00     0.001 C 
HETATM    9  C4  UNL     1     -34.806  16.775  -0.315  1.00 20.00     0.005 C 
ENDBRANCH   5   6
ENDBRANCH   1   5
BRANCH   1  10
HETATM   10  C11 UNL     1     -35.816  14.665  -4.547  1.00 20.00    -0.012 C 
HETATM   11  C7  UNL     1     -37.232  14.659  -3.962  1.00 20.00     0.010 C 
HETATM   12  C8  UNL     1     -35.126  13.331  -4.243  1.00 20.00     0.010 C 
ENDBRANCH   1  10
TORSDOF 4
ENDMDL
MODEL 9
REMARK VINA RESULT:      -4.2      1.193      2.221
REMARK  4 active torsions:
REMARK  status: ('A' for Active; 'I' for Inactive)
REMARK    1  A    between atoms: C1_1  and  C10_10 
REMARK    2  A    between atoms: C5_5  and  C9_9 
REMARK    3  A    between atoms: C9_9  and  C10_10 
REMARK    4  A    between atoms: C10_10  and  C11_11 
ROOT
HETATM    1  C10 UNL     1     -35.400  15.140  -4.603  1.00 20.00     0.058 C 
ENDROOT
BRANCH   1   2
HETATM    2  C1  UNL     1     -35.008  14.052  -5.610  1.00 20.00     0.127 C 
HETATM    3  C6  UNL     1     -34.845  14.484  -7.047  1.00 20.00     0.091 C 
HETATM    4  O12 UNL     1     -34.814  12.883  -5.278  1.00 20.00    -0.298 OA
ENDBRANCH   1   2
BRANCH   1   5
HETATM    5  C9  UNL     1     -35.099  14.693  -3.161  1.00 20.00     0.017 C 
BRANCH   5   6
HETATM    6  C5  UNL     1     -34.120  15.636  -2.496  1.00 20.00    -0.014 C 
HETATM    7  C3  UNL     1     -34.661  16.478  -1.310  1.00 20.00     0.005 C 
HETATM    8  C2  UNL     1     -33.773  17.631  -1.820  1.00 20.00     0.001 C 
HETATM    9  C4  UNL     1     -33.855  16.983  -3.218  1.00 20.00     0.005 C 
ENDBRANCH   5   6
ENDBRANCH   1   5
BRANCH   1  10
HETATM   10  C11 UNL     1     -36.874  15.557  -4.845  1.00 20.00    -0.012 C 
HETATM   11  C7  UNL     1     -37.082  17.073  -4.897  1.00 20.00     0.010 C 
HETATM   12  C8  UNL     1     -37.807  14.941  -3.798  1.00 20.00     0.010 C 
ENDBRANCH   1  10
TORSDOF 4
ENDMDL
