MODEL 1
REMARK VINA RESULT:      -4.2      0.000      0.000
REMARK  4 active torsions:
REMARK  status: ('A' for Active; 'I' for Inactive)
REMARK    1  A    between atoms: C1_1  and  C5_5 
REMARK    2  A    between atoms: C1_1  and  C8_8 
REMARK    3  A    between atoms: C5_5  and  C6_6 
REMARK    4  A    between atoms: C6_6  and  C7_7 
ROOT
HETATM    1  C1  UNL     1     -33.700  15.864  -4.928  1.00 20.00     0.134 C 
HETATM    2  O9  UNL     1     -33.226  16.870  -5.463  1.00 20.00    -0.297 OA
ENDROOT
BRANCH   1   3
HETATM    3  C5  UNL     1     -33.298  15.470  -3.510  1.00 20.00     0.084 C 
BRANCH   3   4
HETATM    4  C6  UNL     1     -33.580  16.558  -2.477  1.00 20.00     0.078 C 
BRANCH   4   5
HETATM    5  C7  UNL     1     -34.924  16.381  -1.793  1.00 20.00     0.353 C 
HETATM    6  F10 UNL     1     -34.727  16.215  -0.460  1.00 20.00    -0.214 F 
HETATM    7  F11 UNL     1     -35.523  15.249  -2.239  1.00 20.00    -0.214 F 
ENDBRANCH   4   5
ENDBRANCH   3   4
ENDBRANCH   1   3
BRANCH   1   8
HETATM    8  C8  UNL     1     -34.712  14.965  -5.669  1.00 20.00     0.009 C 
HETATM    9  C2  UNL     1     -34.636  13.548  -5.088  1.00 20.00     0.022 C 
HETATM   10  C3  UNL     1     -34.417  14.941  -7.175  1.00 20.00     0.022 C 
HETATM   11  C4  UNL     1     -36.135  15.514  -5.461  1.00 20.00     0.022 C 
ENDBRANCH   1   8
TORSDOF 4
ENDMDL
MODEL 2
REMARK VINA RESULT:      -4.2      0.922      1.675
REMARK  4 active torsions:
REMARK  status: ('A' for Active; 'I' for Inactive)
REMARK    1  A    between atoms: C1_1  and  C5_5 
REMARK    2  A    between atoms: C1_1  and  C8_8 
REMARK    3  A    between atoms: C5_5  and  C6_6 
REMARK    4  A    between atoms: C6_6  and  C7_7 
ROOT
HETATM    1  C1  UNL     1     -33.688  15.719  -4.414  1.00 20.00     0.134 C 
HETATM    2  O9  UNL     1     -32.823  16.377  -4.998  1.00 20.00    -0.297 OA
ENDROOT
BRANCH   1   3
HETATM    3  C5  UNL     1     -33.827  15.786  -2.896  1.00 20.00     0.084 C 
BRANCH   3   4
HETATM    4  C6  UNL     1     -33.755  17.208  -2.344  1.00 20.00     0.078 C 
BRANCH   4   5
HETATM    5  C7  UNL     1     -34.358  17.327  -0.955  1.00 20.00     0.353 C 
HETATM    6  F10 UNL     1     -33.397  17.733  -0.086  1.00 20.00    -0.214 F 
HETATM    7  F11 UNL     1     -34.777  16.111  -0.528  1.00 20.00    -0.214 F 
ENDBRANCH   4   5
ENDBRANCH   3   4
ENDBRANCH   1   3
BRANCH   1   8
HETATM    8  C8  UNL     1     -34.659  14.805  -5.190  1.00 20.00     0.009 C 
HETATM    9  C2  UNL     1     -36.098  15.236  -4.885  1.00 20.00     0.022 C 
HETATM   10  C3  UNL     1     -34.448  13.335  -4.801  1.00 20.00     0.022 C 
HETATM   11  C4  UNL     1     -34.405  14.950  -6.701  1.00 20.00     0.022 C 
ENDBRANCH   1   8
TORSDOF 4
ENDMDL
MODEL 3
REMARK VINA RESULT:      -4.2     11.265     12.053
REMARK  4 active torsions:
REMARK  status: ('A' for Active; 'I' for Inactive)
REMARK    1  A    between atoms: C1_1  and  C5_5 
REMARK    2  A    between atoms: C1_1  and  C8_8 
REMARK    3  A    between atoms: C5_5  and  C6_6 
REMARK    4  A    between atoms: C6_6  and  C7_7 
ROOT
HETATM    1  C1  UNL     1     -33.490   6.206   4.229  1.00 20.00     0.134 C 
HETATM    2  O9  UNL     1     -33.537   6.763   5.329  1.00 20.00    -0.297 OA
ENDROOT
BRANCH   1   3
HETATM    3  C5  UNL     1     -32.278   6.377   3.318  1.00 20.00     0.084 C 
BRANCH   3   4
HETATM    4  C6  UNL     1     -31.856   7.834   3.141  1.00 20.00     0.078 C 
BRANCH   4   5
HETATM    5  C7  UNL     1     -32.290   8.412   1.806  1.00 20.00     0.353 C 
HETATM    6  F10 UNL     1     -31.245   8.367   0.940  1.00 20.00    -0.214 F 
HETATM    7  F11 UNL     1     -32.614   9.720   1.953  1.00 20.00    -0.214 F 
ENDBRANCH   4   5
ENDBRANCH   3   4
ENDBRANCH   1   3
BRANCH   1   8
HETATM    8  C8  UNL     1     -34.650   5.319   3.730  1.00 20.00     0.009 C 
HETATM    9  C2  UNL     1     -34.273   4.728   2.367  1.00 20.00     0.022 C 
HETATM   10  C3  UNL     1     -35.947   6.133   3.618  1.00 20.00     0.022 C 
HETATM   11  C4  UNL     1     -34.883   4.168   4.726  1.00 20.00     0.022 C 
ENDBRANCH   1   8
TORSDOF 4
ENDMDL
MODEL 4
REMARK VINA RESULT:      -4.1      1.669      2.336
REMARK  4 active torsions:
REMARK  status: ('A' for Active; 'I' for Inactive)
REMARK    1  A    between atoms: C1_1  and  C5_5 
REMARK    2  A    between atoms: C1_1  and  C8_8 
REMARK    3  A    between atoms: C5_5  and  C6_6 
REMARK    4  A    between atoms: C6_6  and  C7_7 
ROOT
HETATM    1  C1  UNL     1     -34.629  13.977  -4.723  1.00 20.00     0.134 C 
HETATM    2  O9  UNL     1     -34.801  12.761  -4.838  1.00 20.00    -0.297 OA
ENDROOT
BRANCH   1   3
HETATM    3  C5  UNL     1     -34.028  14.565  -3.450  1.00 20.00     0.084 C 
BRANCH   3   4
HETATM    4  C6  UNL     1     -35.071  15.164  -2.509  1.00 20.00     0.078 C 
BRANCH   4   5
HETATM    5  C7  UNL     1     -34.574  16.412  -1.802  1.00 20.00     0.353 C 
HETATM    6  F10 UNL     1     -33.248  16.566  -2.051  1.00 20.00    -0.214 F 
HETATM    7  F11 UNL     1     -34.701  16.264  -0.461  1.00 20.00    -0.214 F 
ENDBRANCH   4   5
ENDBRANCH   3   4
ENDBRANCH   1   3
BRANCH   1   8
HETATM    8  C8  UNL     1     -35.016  14.951  -5.856  1.00 20.00     0.009 C 
HETATM    9  C2  UNL     1     -33.981  16.081  -5.915  1.00 20.00     0.022 C 
HETATM   10  C3  UNL     1     -36.421  15.525  -5.623  1.00 20.00     0.022 C 
HETATM   11  C4  UNL     1     -35.014  14.202  -7.201  1.00 20.00     0.022 C 
ENDBRANCH   1   8
TORSDOF 4
ENDMDL
MODEL 5
REMARK VINA RESULT:      -4.1     11.455     12.336
REMARK  4 active torsions:
REMARK  status: ('A' for Active; 'I' for Inactive)
REMARK    1  A    between atoms: C1_1  and  C5_5 
REMARK    2  A    between atoms: C1_1  and  C8_8 
REMARK    3  A    between atoms: C5_5  and  C6_6 
REMARK    4  A    between atoms: C6_6  and  C7_7 
ROOT
HETATM    1  C1  UNL     1     -33.506   5.828   3.595  1.00 20.00     0.134 C 
HETATM    2  O9  UNL     1     -33.324   5.200   2.548  1.00 20.00    -0.297 OA
ENDROOT
BRANCH   1   3
HETATM    3  C5  UNL     1     -32.653   7.047   3.932  1.00 20.00     0.084 C 
BRANCH   3   4
HETATM    4  C6  UNL     1     -31.643   7.400   2.842  1.00 20.00     0.078 C 
BRANCH   4   5
HETATM    5  C7  UNL     1     -32.217   8.337   1.794  1.00 20.00     0.353 C 
HETATM    6  F10 UNL     1     -31.344   8.434   0.759  1.00 20.00    -0.214 F 
HETATM    7  F11 UNL     1     -32.343   9.584   2.312  1.00 20.00    -0.214 F 
ENDBRANCH   4   5
ENDBRANCH   3   4
ENDBRANCH   1   3
BRANCH   1   8
HETATM    8  C8  UNL     1     -34.596   5.407   4.602  1.00 20.00     0.009 C 
HETATM    9  C2  UNL     1     -35.973   5.694   3.992  1.00 20.00     0.022 C 
HETATM   10  C3  UNL     1     -34.432   6.162   5.928  1.00 20.00     0.022 C 
HETATM   11  C4  UNL     1     -34.481   3.898   4.884  1.00 20.00     0.022 C 
ENDBRANCH   1   8
TORSDOF 4
ENDMDL
MODEL 6
REMARK VINA RESULT:      -4.0     11.455     12.299
REMARK  4 active torsions:
REMARK  status: ('A' for Active; 'I' for Inactive)
REMARK    1  A    between atoms: C1_1  and  C5_5 
REMARK    2  A    between atoms: C1_1  and  C8_8 
REMARK    3  A    between atoms: C5_5  and  C6_6 
REMARK    4  A    between atoms: C6_6  and  C7_7 
ROOT
HETATM    1  C1  UNL     1     -33.473   5.803   3.614  1.00 20.00     0.134 C 
HETATM    2  O9  UNL     1     -33.247   5.140   2.598  1.00 20.00    -0.297 OA
ENDROOT
BRANCH   1   3
HETATM    3  C5  UNL     1     -32.647   7.045   3.936  1.00 20.00     0.084 C 
BRANCH   3   4
HETATM    4  C6  UNL     1     -31.645   7.406   2.841  1.00 20.00     0.078 C 
BRANCH   4   5
HETATM    5  C7  UNL     1     -32.229   8.346   1.801  1.00 20.00     0.353 C 
HETATM    6  F10 UNL     1     -31.373   8.434   0.751  1.00 20.00    -0.214 F 
HETATM    7  F11 UNL     1     -32.339   9.594   2.317  1.00 20.00    -0.214 F 
ENDBRANCH   4   5
ENDBRANCH   3   4
ENDBRANCH   1   3
BRANCH   1   8
HETATM    8  C8  UNL     1     -34.593   5.405   4.597  1.00 20.00     0.009 C 
HETATM    9  C2  UNL     1     -34.433   6.217   5.888  1.00 20.00     0.022 C 
HETATM   10  C3  UNL     1     -34.540   3.902   4.902  1.00 20.00     0.022 C 
HETATM   11  C4  UNL     1     -35.963   5.727   3.973  1.00 20.00     0.022 C 
ENDBRANCH   1   8
TORSDOF 4
ENDMDL
MODEL 7
REMARK VINA RESULT:      -4.0      2.726      4.206
REMARK  4 active torsions:
REMARK  status: ('A' for Active; 'I' for Inactive)
REMARK    1  A    between atoms: C1_1  and  C5_5 
REMARK    2  A    between atoms: C1_1  and  C8_8 
REMARK    3  A    between atoms: C5_5  and  C6_6 
REMARK    4  A    between atoms: C6_6  and  C7_7 
ROOT
HETATM    1  C1  UNL     1     -33.795  14.985  -3.475  1.00 20.00     0.134 C 
HETATM    2  O9  UNL     1     -32.573  14.828  -3.537  1.00 20.00    -0.297 OA
ENDROOT
BRANCH   1   3
HETATM    3  C5  UNL     1     -34.747  13.845  -3.823  1.00 20.00     0.084 C 
BRANCH   3   4
HETATM    4  C6  UNL     1     -34.626  13.376  -5.271  1.00 20.00     0.078 C 
BRANCH   4   5
HETATM    5  C7  UNL     1     -35.014  14.452  -6.269  1.00 20.00     0.353 C 
HETATM    6  F10 UNL     1     -35.543  13.865  -7.374  1.00 20.00    -0.214 F 
HETATM    7  F11 UNL     1     -33.908  15.120  -6.679  1.00 20.00    -0.214 F 
ENDBRANCH   4   5
ENDBRANCH   3   4
ENDBRANCH   1   3
BRANCH   1   8
HETATM    8  C8  UNL     1     -34.408  16.335  -3.048  1.00 20.00     0.009 C 
HETATM    9  C2  UNL     1     -35.936  16.228  -3.109  1.00 20.00     0.022 C 
HETATM   10  C3  UNL     1     -33.915  17.468  -3.960  1.00 20.00     0.022 C 
HETATM   11  C4  UNL     1     -33.988  16.657  -1.603  1.00 20.00     0.022 C 
ENDBRANCH   1   8
TORSDOF 4
ENDMDL
MODEL 8
REMARK VINA RESULT:      -4.0      1.875      2.515
REMARK  4 active torsions:
REMARK  status: ('A' for Active; 'I' for Inactive)
REMARK    1  A    between atoms: C1_1  and  C5_5 
REMARK    2  A    between atoms: C1_1  and  C8_8 
REMARK    3  A    between atoms: C5_5  and  C6_6 
REMARK    4  A    between atoms: C6_6  and  C7_7 
ROOT
HETATM    1  C1  UNL     1     -35.476  15.502  -3.889  1.00 20.00     0.134 C 
HETATM    2  O9  UNL     1     -36.419  14.749  -3.632  1.00 20.00    -0.297 OA
ENDROOT
BRANCH   1   3
HETATM    3  C5  UNL     1     -35.526  16.977  -3.502  1.00 20.00     0.084 C 
BRANCH   3   4
HETATM    4  C6  UNL     1     -35.661  17.204  -1.998  1.00 20.00     0.078 C 
BRANCH   4   5
HETATM    5  C7  UNL     1     -34.623  16.439  -1.196  1.00 20.00     0.353 C 
HETATM    6  F10 UNL     1     -34.851  16.638   0.129  1.00 20.00    -0.214 F 
HETATM    7  F11 UNL     1     -33.387  16.931  -1.453  1.00 20.00    -0.214 F 
ENDBRANCH   4   5
ENDBRANCH   3   4
ENDBRANCH   1   3
BRANCH   1   8
HETATM    8  C8  UNL     1     -34.213  14.985  -4.609  1.00 20.00     0.009 C 
HETATM    9  C2  UNL     1     -34.603  14.506  -6.013  1.00 20.00     0.022 C 
HETATM   10  C3  UNL     1     -33.563  13.843  -3.817  1.00 20.00     0.022 C 
HETATM   11  C4  UNL     1     -33.191  16.129  -4.739  1.00 20.00     0.022 C 
ENDBRANCH   1   8
TORSDOF 4
ENDMDL
MODEL 9
REMARK VINA RESULT:      -4.0      2.290      3.259
REMARK  4 active torsions:
REMARK  status: ('A' for Active; 'I' for Inactive)
REMARK    1  A    between atoms: C1_1  and  C5_5 
REMARK    2  A    between atoms: C1_1  and  C8_8 
REMARK    3  A    between atoms: C5_5  and  C6_6 
REMARK    4  A    between atoms: C6_6  and  C7_7 
ROOT
HETATM    1  C1  UNL     1     -36.243  14.322  -4.631  1.00 20.00     0.134 C 
HETATM    2  O9  UNL     1     -37.125  14.108  -3.796  1.00 20.00    -0.297 OA
ENDROOT
BRANCH   1   3
HETATM    3  C5  UNL     1     -35.004  13.434  -4.704  1.00 20.00     0.084 C 
BRANCH   3   4
HETATM    4  C6  UNL     1     -34.043  13.640  -3.536  1.00 20.00     0.078 C 
BRANCH   4   5
HETATM    5  C7  UNL     1     -33.160  14.863  -3.712  1.00 20.00     0.353 C 
HETATM    6  F10 UNL     1     -31.873  14.526  -3.437  1.00 20.00    -0.214 F 
HETATM    7  F11 UNL     1     -33.510  15.817  -2.816  1.00 20.00    -0.214 F 
ENDBRANCH   4   5
ENDBRANCH   3   4
ENDBRANCH   1   3
BRANCH   1   8
HETATM    8  C8  UNL     1     -36.353  15.492  -5.630  1.00 20.00     0.009 C 
HETATM    9  C2  UNL     1     -36.110  16.808  -4.882  1.00 20.00     0.022 C 
HETATM   10  C3  UNL     1     -37.734  15.507  -6.300  1.00 20.00     0.022 C 
HETATM   11  C4  UNL     1     -35.282  15.337  -6.725  1.00 20.00     0.022 C 
ENDBRANCH   1   8
TORSDOF 4
ENDMDL
