MODEL 1
REMARK VINA RESULT:      -5.4      0.000      0.000
REMARK  5 active torsions:
REMARK  status: ('A' for Active; 'I' for Inactive)
REMARK    1  A    between atoms: C1_1  and  C7_7 
REMARK    2  A    between atoms: C1_1  and  C10_10 
REMARK    3  A    between atoms: C4_4  and  C8_8 
REMARK    4  A    between atoms: C8_8  and  C9_9 
REMARK    5  A    between atoms: C9_9  and  C10_10 
ROOT
HETATM    1  C6  UNL     1     -34.338   5.356   2.676  1.00 20.00     0.018 C 
HETATM    2  C10 UNL     1     -33.716   6.394   3.606  1.00 20.00     0.051 C 
ENDROOT
BRANCH   2   3
HETATM    3  C1  UNL     1     -34.159   6.086   5.036  1.00 20.00     0.130 C 
HETATM    4  O11 UNL     1     -33.692   6.691   6.001  1.00 20.00    -0.298 OA
BRANCH   3   5
HETATM    5  C7  UNL     1     -35.178   4.969   5.194  1.00 20.00     0.074 C 
HETATM    6  C5  UNL     1     -34.657   3.816   6.032  1.00 20.00     0.013 C 
ENDBRANCH   3   5
ENDBRANCH   2   3
BRANCH   2   7
HETATM    7  C9  UNL     1     -32.186   6.401   3.473  1.00 20.00     0.012 C 
BRANCH   7   8
HETATM    8  C8  UNL     1     -31.644   7.762   3.028  1.00 20.00     0.005 C 
BRANCH   8   9
HETATM    9  C4  UNL     1     -32.445   8.334   1.898  1.00 20.00    -0.014 A 
HETATM   10  C2  UNL     1     -32.425   9.813   1.628  1.00 20.00     0.005 A 
HETATM   11  C3  UNL     1     -31.753   8.866   0.674  1.00 20.00     0.005 A 
ENDBRANCH   8   9
ENDBRANCH   7   8
ENDBRANCH   2   7
TORSDOF 5
ENDMDL
MODEL 2
REMARK VINA RESULT:      -5.2      1.566      2.260
REMARK  5 active torsions:
REMARK  status: ('A' for Active; 'I' for Inactive)
REMARK    1  A    between atoms: C1_1  and  C7_7 
REMARK    2  A    between atoms: C1_1  and  C10_10 
REMARK    3  A    between atoms: C4_4  and  C8_8 
REMARK    4  A    between atoms: C8_8  and  C9_9 
REMARK    5  A    between atoms: C9_9  and  C10_10 
ROOT
HETATM    1  C6  UNL     1     -36.209   5.903   3.436  1.00 20.00     0.018 C 
HETATM    2  C10 UNL     1     -34.788   5.643   3.929  1.00 20.00     0.051 C 
ENDROOT
BRANCH   2   3
HETATM    3  C1  UNL     1     -34.858   4.690   5.122  1.00 20.00     0.130 C 
HETATM    4  O11 UNL     1     -35.108   3.494   4.979  1.00 20.00    -0.298 OA
BRANCH   3   5
HETATM    5  C7  UNL     1     -34.638   5.316   6.490  1.00 20.00     0.074 C 
HETATM    6  C5  UNL     1     -33.919   6.650   6.414  1.00 20.00     0.013 C 
ENDBRANCH   3   5
ENDBRANCH   2   3
BRANCH   2   7
HETATM    7  C9  UNL     1     -33.912   5.078   2.801  1.00 20.00     0.012 C 
BRANCH   7   8
HETATM    8  C8  UNL     1     -32.531   5.739   2.746  1.00 20.00     0.005 C 
BRANCH   8   9
HETATM    9  C4  UNL     1     -32.606   7.202   3.057  1.00 20.00    -0.014 A 
HETATM   10  C2  UNL     1     -31.373   7.948   3.489  1.00 20.00     0.005 A 
HETATM   11  C3  UNL     1     -31.971   8.205   2.134  1.00 20.00     0.005 A 
ENDBRANCH   8   9
ENDBRANCH   7   8
ENDBRANCH   2   7
TORSDOF 5
ENDMDL
MODEL 3
REMARK VINA RESULT:      -5.1      1.337      5.035
REMARK  5 active torsions:
REMARK  status: ('A' for Active; 'I' for Inactive)
REMARK    1  A    between atoms: C1_1  and  C7_7 
REMARK    2  A    between atoms: C1_1  and  C10_10 
REMARK    3  A    between atoms: C4_4  and  C8_8 
REMARK    4  A    between atoms: C8_8  and  C9_9 
REMARK    5  A    between atoms: C9_9  and  C10_10 
ROOT
HETATM    1  C6  UNL     1     -32.456   5.413   2.257  1.00 20.00     0.018 C 
HETATM    2  C10 UNL     1     -32.537   6.337   3.469  1.00 20.00     0.051 C 
ENDROOT
BRANCH   2   3
HETATM    3  C1  UNL     1     -31.769   7.619   3.150  1.00 20.00     0.130 C 
HETATM    4  O11 UNL     1     -31.071   8.181   3.994  1.00 20.00    -0.298 OA
BRANCH   3   5
HETATM    5  C7  UNL     1     -31.948   8.173   1.746  1.00 20.00     0.074 C 
HETATM    6  C5  UNL     1     -32.514   9.582   1.740  1.00 20.00     0.013 C 
ENDBRANCH   3   5
ENDBRANCH   2   3
BRANCH   2   7
HETATM    7  C9  UNL     1     -33.999   6.627   3.840  1.00 20.00     0.012 C 
BRANCH   7   8
HETATM    8  C8  UNL     1     -34.886   5.382   3.738  1.00 20.00     0.005 C 
BRANCH   8   9
HETATM    9  C4  UNL     1     -35.352   4.924   5.086  1.00 20.00    -0.014 A 
HETATM   10  C2  UNL     1     -34.550   3.917   5.864  1.00 20.00     0.005 A 
HETATM   11  C3  UNL     1     -34.614   5.346   6.326  1.00 20.00     0.005 A 
ENDBRANCH   8   9
ENDBRANCH   7   8
ENDBRANCH   2   7
TORSDOF 5
ENDMDL
MODEL 4
REMARK VINA RESULT:      -4.7     10.578     11.917
REMARK  5 active torsions:
REMARK  status: ('A' for Active; 'I' for Inactive)
REMARK    1  A    between atoms: C1_1  and  C7_7 
REMARK    2  A    between atoms: C1_1  and  C10_10 
REMARK    3  A    between atoms: C4_4  and  C8_8 
REMARK    4  A    between atoms: C8_8  and  C9_9 
REMARK    5  A    between atoms: C9_9  and  C10_10 
ROOT
HETATM    1  C6  UNL     1     -32.928  14.058  -3.551  1.00 20.00     0.018 C 
HETATM    2  C10 UNL     1     -34.196  14.663  -4.148  1.00 20.00     0.051 C 
ENDROOT
BRANCH   2   3
HETATM    3  C1  UNL     1     -34.766  13.677  -5.167  1.00 20.00     0.130 C 
HETATM    4  O11 UNL     1     -34.880  12.478  -4.912  1.00 20.00    -0.298 OA
BRANCH   3   5
HETATM    5  C7  UNL     1     -35.147  14.259  -6.519  1.00 20.00     0.074 C 
HETATM    6  C5  UNL     1     -34.284  15.444  -6.910  1.00 20.00     0.013 C 
ENDBRANCH   3   5
ENDBRANCH   2   3
BRANCH   2   7
HETATM    7  C9  UNL     1     -35.214  14.996  -3.048  1.00 20.00     0.012 C 
BRANCH   7   8
HETATM    8  C8  UNL     1     -35.066  16.430  -2.529  1.00 20.00     0.005 C 
BRANCH   8   9
HETATM    9  C4  UNL     1     -34.400  16.467  -1.188  1.00 20.00    -0.014 A 
HETATM   10  C2  UNL     1     -33.652  17.695  -0.747  1.00 20.00     0.005 A 
HETATM   11  C3  UNL     1     -34.956  17.333  -0.092  1.00 20.00     0.005 A 
ENDBRANCH   8   9
ENDBRANCH   7   8
ENDBRANCH   2   7
TORSDOF 5
ENDMDL
MODEL 5
REMARK VINA RESULT:      -4.7      1.296      1.564
REMARK  5 active torsions:
REMARK  status: ('A' for Active; 'I' for Inactive)
REMARK    1  A    between atoms: C1_1  and  C7_7 
REMARK    2  A    between atoms: C1_1  and  C10_10 
REMARK    3  A    between atoms: C4_4  and  C8_8 
REMARK    4  A    between atoms: C8_8  and  C9_9 
REMARK    5  A    between atoms: C9_9  and  C10_10 
ROOT
HETATM    1  C6  UNL     1     -33.404   7.027   5.207  1.00 20.00     0.018 C 
HETATM    2  C10 UNL     1     -33.295   5.783   4.330  1.00 20.00     0.051 C 
ENDROOT
BRANCH   2   3
HETATM    3  C1  UNL     1     -34.701   5.223   4.111  1.00 20.00     0.130 C 
HETATM    4  O11 UNL     1     -35.472   5.719   3.292  1.00 20.00    -0.298 OA
BRANCH   3   5
HETATM    5  C7  UNL     1     -35.096   4.047   4.989  1.00 20.00     0.074 C 
HETATM    6  C5  UNL     1     -35.107   4.397   6.466  1.00 20.00     0.013 C 
ENDBRANCH   3   5
ENDBRANCH   2   3
BRANCH   2   7
HETATM    7  C9  UNL     1     -32.599   6.109   3.001  1.00 20.00     0.012 C 
BRANCH   7   8
HETATM    8  C8  UNL     1     -32.071   7.546   2.954  1.00 20.00     0.005 C 
BRANCH   8   9
HETATM    9  C4  UNL     1     -32.604   8.293   1.771  1.00 20.00    -0.014 A 
HETATM   10  C2  UNL     1     -32.411   9.781   1.664  1.00 20.00     0.005 A 
HETATM   11  C3  UNL     1     -31.661   8.857   0.745  1.00 20.00     0.005 A 
ENDBRANCH   8   9
ENDBRANCH   7   8
ENDBRANCH   2   7
TORSDOF 5
ENDMDL
MODEL 6
REMARK VINA RESULT:      -4.6     10.885     11.932
REMARK  5 active torsions:
REMARK  status: ('A' for Active; 'I' for Inactive)
REMARK    1  A    between atoms: C1_1  and  C7_7 
REMARK    2  A    between atoms: C1_1  and  C10_10 
REMARK    3  A    between atoms: C4_4  and  C8_8 
REMARK    4  A    between atoms: C8_8  and  C9_9 
REMARK    5  A    between atoms: C9_9  and  C10_10 
ROOT
HETATM    1  C6  UNL     1     -36.082  15.216  -3.403  1.00 20.00     0.018 C 
HETATM    2  C10 UNL     1     -34.751  14.472  -3.470  1.00 20.00     0.051 C 
ENDROOT
BRANCH   2   3
HETATM    3  C1  UNL     1     -34.664  13.759  -4.819  1.00 20.00     0.130 C 
HETATM    4  O11 UNL     1     -34.740  12.534  -4.907  1.00 20.00    -0.298 OA
BRANCH   3   5
HETATM    5  C7  UNL     1     -34.442  14.648  -6.032  1.00 20.00     0.074 C 
HETATM    6  C5  UNL     1     -35.467  14.410  -7.126  1.00 20.00     0.013 C 
ENDBRANCH   3   5
ENDBRANCH   2   3
BRANCH   2   7
HETATM    7  C9  UNL     1     -33.574  15.436  -3.259  1.00 20.00     0.012 C 
BRANCH   7   8
HETATM    8  C8  UNL     1     -34.032  16.832  -2.823  1.00 20.00     0.005 C 
BRANCH   8   9
HETATM    9  C4  UNL     1     -33.695  17.102  -1.389  1.00 20.00    -0.014 A 
HETATM   10  C2  UNL     1     -34.274  18.299  -0.687  1.00 20.00     0.005 A 
HETATM   11  C3  UNL     1     -34.735  16.917  -0.320  1.00 20.00     0.005 A 
ENDBRANCH   8   9
ENDBRANCH   7   8
ENDBRANCH   2   7
TORSDOF 5
ENDMDL
MODEL 7
REMARK VINA RESULT:      -4.2     10.682     11.726
REMARK  5 active torsions:
REMARK  status: ('A' for Active; 'I' for Inactive)
REMARK    1  A    between atoms: C1_1  and  C7_7 
REMARK    2  A    between atoms: C1_1  and  C10_10 
REMARK    3  A    between atoms: C4_4  and  C8_8 
REMARK    4  A    between atoms: C8_8  and  C9_9 
REMARK    5  A    between atoms: C9_9  and  C10_10 
ROOT
HETATM    1  C6  UNL     1     -35.930  16.044  -3.096  1.00 20.00     0.018 C 
HETATM    2  C10 UNL     1     -34.603  15.633  -2.463  1.00 20.00     0.051 C 
ENDROOT
BRANCH   2   3
HETATM    3  C1  UNL     1     -33.654  15.190  -3.577  1.00 20.00     0.130 C 
HETATM    4  O11 UNL     1     -33.026  16.005  -4.251  1.00 20.00    -0.298 OA
BRANCH   3   5
HETATM    5  C7  UNL     1     -33.564  13.692  -3.821  1.00 20.00     0.074 C 
HETATM    6  C5  UNL     1     -34.511  13.219  -4.910  1.00 20.00     0.013 C 
ENDBRANCH   3   5
ENDBRANCH   2   3
BRANCH   2   7
HETATM    7  C9  UNL     1     -34.012  16.783  -1.636  1.00 20.00     0.012 C 
BRANCH   7   8
HETATM    8  C8  UNL     1     -34.716  16.956  -0.287  1.00 20.00     0.005 C 
BRANCH   8   9
HETATM    9  C4  UNL     1     -34.427  18.294   0.322  1.00 20.00    -0.014 A 
HETATM   10  C2  UNL     1     -34.142  18.411   1.794  1.00 20.00     0.005 A 
HETATM   11  C3  UNL     1     -33.039  18.626   0.795  1.00 20.00     0.005 A 
ENDBRANCH   8   9
ENDBRANCH   7   8
ENDBRANCH   2   7
TORSDOF 5
ENDMDL
MODEL 8
REMARK VINA RESULT:      -4.2     10.693     11.998
REMARK  5 active torsions:
REMARK  status: ('A' for Active; 'I' for Inactive)
REMARK    1  A    between atoms: C1_1  and  C7_7 
REMARK    2  A    between atoms: C1_1  and  C10_10 
REMARK    3  A    between atoms: C4_4  and  C8_8 
REMARK    4  A    between atoms: C8_8  and  C9_9 
REMARK    5  A    between atoms: C9_9  and  C10_10 
ROOT
HETATM    1  C6  UNL     1     -36.352  16.498  -5.511  1.00 20.00     0.018 C 
HETATM    2  C10 UNL     1     -36.474  15.136  -4.833  1.00 20.00     0.051 C 
ENDROOT
BRANCH   2   3
HETATM    3  C1  UNL     1     -35.285  14.276  -5.261  1.00 20.00     0.130 C 
HETATM    4  O11 UNL     1     -34.801  14.360  -6.389  1.00 20.00    -0.298 OA
BRANCH   3   5
HETATM    5  C7  UNL     1     -34.764  13.293  -4.225  1.00 20.00     0.074 C 
HETATM    6  C5  UNL     1     -33.345  13.603  -3.786  1.00 20.00     0.013 C 
ENDBRANCH   3   5
ENDBRANCH   2   3
BRANCH   2   7
HETATM    7  C9  UNL     1     -36.546  15.288  -3.307  1.00 20.00     0.012 C 
BRANCH   7   8
HETATM    8  C8  UNL     1     -35.813  16.537  -2.809  1.00 20.00     0.005 C 
BRANCH   8   9
HETATM    9  C4  UNL     1     -34.757  16.194  -1.803  1.00 20.00    -0.014 A 
HETATM   10  C2  UNL     1     -33.684  17.191  -1.461  1.00 20.00     0.005 A 
HETATM   11  C3  UNL     1     -34.751  16.861  -0.455  1.00 20.00     0.005 A 
ENDBRANCH   8   9
ENDBRANCH   7   8
ENDBRANCH   2   7
TORSDOF 5
ENDMDL
MODEL 9
REMARK VINA RESULT:      -4.1      1.743      5.257
REMARK  5 active torsions:
REMARK  status: ('A' for Active; 'I' for Inactive)
REMARK    1  A    between atoms: C1_1  and  C7_7 
REMARK    2  A    between atoms: C1_1  and  C10_10 
REMARK    3  A    between atoms: C4_4  and  C8_8 
REMARK    4  A    between atoms: C8_8  and  C9_9 
REMARK    5  A    between atoms: C9_9  and  C10_10 
ROOT
HETATM    1  C6  UNL     1     -30.973   7.623   3.819  1.00 20.00     0.018 C 
HETATM    2  C10 UNL     1     -32.398   7.784   3.296  1.00 20.00     0.051 C 
ENDROOT
BRANCH   2   3
HETATM    3  C1  UNL     1     -32.372   8.755   2.115  1.00 20.00     0.130 C 
HETATM    4  O11 UNL     1     -32.894   9.867   2.182  1.00 20.00    -0.298 OA
BRANCH   3   5
HETATM    5  C7  UNL     1     -31.696   8.250   0.850  1.00 20.00     0.074 C 
HETATM    6  C5  UNL     1     -32.426   8.673  -0.411  1.00 20.00     0.013 C 
ENDBRANCH   3   5
ENDBRANCH   2   3
BRANCH   2   7
HETATM    7  C9  UNL     1     -32.994   6.425   2.902  1.00 20.00     0.012 C 
BRANCH   7   8
HETATM    8  C8  UNL     1     -34.256   6.086   3.701  1.00 20.00     0.005 C 
BRANCH   8   9
HETATM    9  C4  UNL     1     -33.928   5.374   4.977  1.00 20.00    -0.014 A 
HETATM   10  C2  UNL     1     -34.422   5.911   6.293  1.00 20.00     0.005 A 
HETATM   11  C3  UNL     1     -35.003   4.644   5.733  1.00 20.00     0.005 A 
ENDBRANCH   8   9
ENDBRANCH   7   8
ENDBRANCH   2   7
TORSDOF 5
ENDMDL
