MODEL 1
REMARK VINA RESULT:      -5.0      0.000      0.000
REMARK  2 active torsions:
REMARK  status: ('A' for Active; 'I' for Inactive)
REMARK    1  A    between atoms: C5_5  and  C11_11 
REMARK    2  A    between atoms: C6_6  and  C10_10 
ROOT
HETATM    1  C1  UNL     1     -33.649  17.328  -3.606  1.00 20.00     0.131 C 
HETATM    2  C2  UNL     1     -33.828  18.556  -2.735  1.00 20.00     0.079 C 
HETATM    3  C3  UNL     1     -33.430  18.244  -1.299  1.00 20.00     0.012 C 
HETATM    4  C4  UNL     1     -34.777  16.112  -1.751  1.00 20.00     0.017 C 
HETATM    5  C5  UNL     1     -33.804  15.969  -2.925  1.00 20.00     0.059 C 
HETATM    6  C6  UNL     1     -34.262  17.103  -0.689  1.00 20.00    -0.014 C 
HETATM    7  O12 UNL     1     -33.393  17.439  -4.804  1.00 20.00    -0.298 OA
ENDROOT
BRANCH   5   8
HETATM    8  C11 UNL     1     -34.300  14.918  -3.911  1.00 20.00    -0.011 C 
HETATM    9  C8  UNL     1     -33.494  13.627  -3.774  1.00 20.00     0.010 C 
HETATM   10  C9  UNL     1     -35.789  14.643  -3.701  1.00 20.00     0.010 C 
ENDBRANCH   5   8
BRANCH   6  11
HETATM   11  C10 UNL     1     -35.430  17.644   0.137  1.00 20.00     0.000 C 
HETATM   12  C7  UNL     1     -35.136  17.608   1.600  1.00 20.00     0.005 C 
ENDBRANCH   6  11
TORSDOF 2
ENDMDL
MODEL 2
REMARK VINA RESULT:      -4.7      2.541      3.937
REMARK  2 active torsions:
REMARK  status: ('A' for Active; 'I' for Inactive)
REMARK    1  A    between atoms: C5_5  and  C11_11 
REMARK    2  A    between atoms: C6_6  and  C10_10 
ROOT
HETATM    1  C1  UNL     1     -34.822  13.707  -4.564  1.00 20.00     0.131 C 
HETATM    2  C2  UNL     1     -34.134  14.134  -3.283  1.00 20.00     0.079 C 
HETATM    3  C3  UNL     1     -34.885  15.294  -2.645  1.00 20.00     0.012 C 
HETATM    4  C4  UNL     1     -34.936  16.141  -5.062  1.00 20.00     0.017 C 
HETATM    5  C5  UNL     1     -35.591  14.783  -5.328  1.00 20.00     0.059 C 
HETATM    6  C6  UNL     1     -34.974  16.522  -3.569  1.00 20.00    -0.014 C 
HETATM    7  O12 UNL     1     -34.752  12.543  -4.957  1.00 20.00    -0.298 OA
ENDROOT
BRANCH   5   8
HETATM    8  C11 UNL     1     -35.616  14.480  -6.822  1.00 20.00    -0.011 C 
HETATM    9  C8  UNL     1     -36.894  15.022  -7.460  1.00 20.00     0.010 C 
HETATM   10  C9  UNL     1     -34.385  15.067  -7.511  1.00 20.00     0.010 C 
ENDBRANCH   5   8
BRANCH   6  11
HETATM   11  C10 UNL     1     -33.874  17.537  -3.256  1.00 20.00     0.000 C 
HETATM   12  C7  UNL     1     -33.692  17.717  -1.785  1.00 20.00     0.005 C 
ENDBRANCH   6  11
TORSDOF 2
ENDMDL
MODEL 3
REMARK VINA RESULT:      -4.7      1.164      1.252
REMARK  2 active torsions:
REMARK  status: ('A' for Active; 'I' for Inactive)
REMARK    1  A    between atoms: C5_5  and  C11_11 
REMARK    2  A    between atoms: C6_6  and  C10_10 
ROOT
HETATM    1  C1  UNL     1     -34.755  17.062  -4.455  1.00 20.00     0.131 C 
HETATM    2  C2  UNL     1     -34.707  18.225  -3.484  1.00 20.00     0.079 C 
HETATM    3  C3  UNL     1     -33.689  17.952  -2.386  1.00 20.00     0.012 C 
HETATM    4  C4  UNL     1     -34.790  15.639  -2.415  1.00 20.00     0.017 C 
HETATM    5  C5  UNL     1     -34.411  15.682  -3.898  1.00 20.00     0.059 C 
HETATM    6  C6  UNL     1     -34.009  16.677  -1.586  1.00 20.00    -0.014 C 
HETATM    7  O12 UNL     1     -35.060  17.239  -5.634  1.00 20.00    -0.298 OA
ENDROOT
BRANCH   5   8
HETATM    8  C11 UNL     1     -35.135  14.585  -4.671  1.00 20.00    -0.011 C 
HETATM    9  C8  UNL     1     -34.349  13.276  -4.612  1.00 20.00     0.010 C 
HETATM   10  C9  UNL     1     -36.548  14.385  -4.125  1.00 20.00     0.010 C 
ENDBRANCH   5   8
BRANCH   6  11
HETATM   11  C10 UNL     1     -34.768  17.002  -0.299  1.00 20.00     0.000 C 
HETATM   12  C7  UNL     1     -34.115  18.109   0.462  1.00 20.00     0.005 C 
ENDBRANCH   6  11
TORSDOF 2
ENDMDL
MODEL 4
REMARK VINA RESULT:      -4.5      2.723      4.165
REMARK  2 active torsions:
REMARK  status: ('A' for Active; 'I' for Inactive)
REMARK    1  A    between atoms: C5_5  and  C11_11 
REMARK    2  A    between atoms: C6_6  and  C10_10 
ROOT
HETATM    1  C1  UNL     1     -34.943  13.969  -3.982  1.00 20.00     0.131 C 
HETATM    2  C2  UNL     1     -33.519  14.483  -3.912  1.00 20.00     0.079 C 
HETATM    3  C3  UNL     1     -33.435  15.671  -2.964  1.00 20.00     0.012 C 
HETATM    4  C4  UNL     1     -35.571  16.366  -4.196  1.00 20.00     0.017 C 
HETATM    5  C5  UNL     1     -36.058  14.986  -3.746  1.00 20.00     0.059 C 
HETATM    6  C6  UNL     1     -34.342  16.838  -3.395  1.00 20.00    -0.014 C 
HETATM    7  O12 UNL     1     -35.172  12.784  -4.221  1.00 20.00    -0.298 OA
ENDROOT
BRANCH   5   8
HETATM    8  C11 UNL     1     -37.326  14.591  -4.496  1.00 20.00    -0.011 C 
HETATM    9  C8  UNL     1     -38.566  14.923  -3.668  1.00 20.00     0.010 C 
HETATM   10  C9  UNL     1     -37.386  15.288  -5.854  1.00 20.00     0.010 C 
ENDBRANCH   5   8
BRANCH   6  11
HETATM   11  C10 UNL     1     -33.563  17.884  -4.192  1.00 20.00     0.000 C 
HETATM   12  C7  UNL     1     -33.741  17.702  -5.664  1.00 20.00     0.005 C 
ENDBRANCH   6  11
TORSDOF 2
ENDMDL
MODEL 5
REMARK VINA RESULT:      -4.5      2.856      5.229
REMARK  2 active torsions:
REMARK  status: ('A' for Active; 'I' for Inactive)
REMARK    1  A    between atoms: C5_5  and  C11_11 
REMARK    2  A    between atoms: C6_6  and  C10_10 
ROOT
HETATM    1  C1  UNL     1     -36.441  14.441  -4.728  1.00 20.00     0.131 C 
HETATM    2  C2  UNL     1     -37.095  15.165  -5.888  1.00 20.00     0.079 C 
HETATM    3  C3  UNL     1     -36.280  14.967  -7.158  1.00 20.00     0.012 C 
HETATM    4  C4  UNL     1     -34.328  15.447  -5.571  1.00 20.00     0.017 C 
HETATM    5  C5  UNL     1     -34.924  14.277  -4.783  1.00 20.00     0.059 C 
HETATM    6  C6  UNL     1     -34.839  15.488  -7.024  1.00 20.00    -0.014 C 
HETATM    7  O12 UNL     1     -37.116  14.013  -3.793  1.00 20.00    -0.298 OA
ENDROOT
BRANCH   5   8
HETATM    8  C11 UNL     1     -34.330  14.215  -3.380  1.00 20.00    -0.011 C 
HETATM    9  C8  UNL     1     -32.916  13.637  -3.419  1.00 20.00     0.010 C 
HETATM   10  C9  UNL     1     -34.324  15.600  -2.736  1.00 20.00     0.010 C 
ENDBRANCH   5   8
BRANCH   6  11
HETATM   11  C10 UNL     1     -34.701  16.901  -7.592  1.00 20.00     0.000 C 
HETATM   12  C7  UNL     1     -34.329  17.887  -6.534  1.00 20.00     0.005 C 
ENDBRANCH   6  11
TORSDOF 2
ENDMDL
MODEL 6
REMARK VINA RESULT:      -4.4      1.767      4.454
REMARK  2 active torsions:
REMARK  status: ('A' for Active; 'I' for Inactive)
REMARK    1  A    between atoms: C5_5  and  C11_11 
REMARK    2  A    between atoms: C6_6  and  C10_10 
ROOT
HETATM    1  C1  UNL     1     -33.543  14.891  -4.029  1.00 20.00     0.131 C 
HETATM    2  C2  UNL     1     -34.322  13.964  -4.941  1.00 20.00     0.079 C 
HETATM    3  C3  UNL     1     -35.097  14.770  -5.973  1.00 20.00     0.012 C 
HETATM    4  C4  UNL     1     -35.649  16.211  -3.928  1.00 20.00     0.017 C 
HETATM    5  C5  UNL     1     -34.125  16.285  -3.800  1.00 20.00     0.059 C 
HETATM    6  C6  UNL     1     -36.093  15.753  -5.331  1.00 20.00    -0.014 C 
HETATM    7  O12 UNL     1     -32.494  14.522  -3.504  1.00 20.00    -0.298 OA
ENDROOT
BRANCH   5   8
HETATM    8  C11 UNL     1     -33.725  16.826  -2.432  1.00 20.00    -0.011 C 
HETATM    9  C8  UNL     1     -33.675  18.353  -2.451  1.00 20.00     0.010 C 
HETATM   10  C9  UNL     1     -34.692  16.336  -1.355  1.00 20.00     0.010 C 
ENDBRANCH   5   8
BRANCH   6  11
HETATM   11  C10 UNL     1     -37.501  15.160  -5.271  1.00 20.00     0.000 C 
HETATM   12  C7  UNL     1     -37.900  14.825  -3.871  1.00 20.00     0.005 C 
ENDBRANCH   6  11
TORSDOF 2
ENDMDL
MODEL 7
REMARK VINA RESULT:      -4.4      1.554      4.437
REMARK  2 active torsions:
REMARK  status: ('A' for Active; 'I' for Inactive)
REMARK    1  A    between atoms: C5_5  and  C11_11 
REMARK    2  A    between atoms: C6_6  and  C10_10 
ROOT
HETATM    1  C1  UNL     1     -35.594  17.953  -2.879  1.00 20.00     0.131 C 
HETATM    2  C2  UNL     1     -35.523  17.210  -4.199  1.00 20.00     0.079 C 
HETATM    3  C3  UNL     1     -35.893  15.748  -3.999  1.00 20.00     0.012 C 
HETATM    4  C4  UNL     1     -34.365  15.997  -1.958  1.00 20.00     0.017 C 
HETATM    5  C5  UNL     1     -35.321  17.143  -1.614  1.00 20.00     0.059 C 
HETATM    6  C6  UNL     1     -34.964  15.033  -3.001  1.00 20.00    -0.014 C 
HETATM    7  O12 UNL     1     -35.858  19.154  -2.848  1.00 20.00    -0.298 OA
ENDROOT
BRANCH   5   8
HETATM    8  C11 UNL     1     -34.734  18.023  -0.517  1.00 20.00    -0.011 C 
HETATM    9  C8  UNL     1     -35.176  17.532   0.861  1.00 20.00     0.010 C 
HETATM   10  C9  UNL     1     -33.209  18.054  -0.610  1.00 20.00     0.010 C 
ENDBRANCH   5   8
BRANCH   6  11
HETATM   11  C10 UNL     1     -33.848  14.276  -3.721  1.00 20.00     0.000 C 
HETATM   12  C7  UNL     1     -34.391  13.338  -4.749  1.00 20.00     0.005 C 
ENDBRANCH   6  11
TORSDOF 2
ENDMDL
MODEL 8
REMARK VINA RESULT:      -4.4      1.463      4.254
REMARK  2 active torsions:
REMARK  status: ('A' for Active; 'I' for Inactive)
REMARK    1  A    between atoms: C5_5  and  C11_11 
REMARK    2  A    between atoms: C6_6  and  C10_10 
ROOT
HETATM    1  C1  UNL     1     -33.940  17.634  -4.210  1.00 20.00     0.131 C 
HETATM    2  C2  UNL     1     -33.399  16.760  -5.324  1.00 20.00     0.079 C 
HETATM    3  C3  UNL     1     -34.479  15.808  -5.817  1.00 20.00     0.012 C 
HETATM    4  C4  UNL     1     -34.890  15.520  -3.305  1.00 20.00     0.017 C 
HETATM    5  C5  UNL     1     -35.052  17.043  -3.346  1.00 20.00     0.059 C 
HETATM    6  C6  UNL     1     -35.009  14.886  -4.704  1.00 20.00    -0.014 C 
HETATM    7  O12 UNL     1     -33.491  18.764  -4.023  1.00 20.00    -0.298 OA
ENDROOT
BRANCH   5   8
HETATM    8  C11 UNL     1     -35.019  17.626  -1.937  1.00 20.00    -0.011 C 
HETATM    9  C8  UNL     1     -36.385  18.196  -1.558  1.00 20.00     0.010 C 
HETATM   10  C9  UNL     1     -34.582  16.567  -0.927  1.00 20.00     0.010 C 
ENDBRANCH   5   8
BRANCH   6  11
HETATM   11  C10 UNL     1     -34.310  13.526  -4.727  1.00 20.00     0.000 C 
HETATM   12  C7  UNL     1     -33.253  13.431  -3.678  1.00 20.00     0.005 C 
ENDBRANCH   6  11
TORSDOF 2
ENDMDL
MODEL 9
REMARK VINA RESULT:      -4.4      1.849      2.983
REMARK  2 active torsions:
REMARK  status: ('A' for Active; 'I' for Inactive)
REMARK    1  A    between atoms: C5_5  and  C11_11 
REMARK    2  A    between atoms: C6_6  and  C10_10 
ROOT
HETATM    1  C1  UNL     1     -34.801  15.566  -5.276  1.00 20.00     0.131 C 
HETATM    2  C2  UNL     1     -33.472  16.026  -4.711  1.00 20.00     0.079 C 
HETATM    3  C3  UNL     1     -33.241  15.406  -3.340  1.00 20.00     0.012 C 
HETATM    4  C4  UNL     1     -35.694  16.065  -3.009  1.00 20.00     0.017 C 
HETATM    5  C5  UNL     1     -35.898  15.221  -4.271  1.00 20.00     0.059 C 
HETATM    6  C6  UNL     1     -34.341  15.777  -2.330  1.00 20.00    -0.014 C 
HETATM    7  O12 UNL     1     -34.972  15.481  -6.491  1.00 20.00    -0.298 OA
ENDROOT
BRANCH   5   8
HETATM    8  C11 UNL     1     -37.281  15.466  -4.865  1.00 20.00    -0.011 C 
HETATM    9  C8  UNL     1     -38.349  14.723  -4.065  1.00 20.00     0.010 C 
HETATM   10  C9  UNL     1     -37.590  16.962  -4.909  1.00 20.00     0.010 C 
ENDBRANCH   5   8
BRANCH   6  11
HETATM   11  C10 UNL     1     -33.924  16.964  -1.461  1.00 20.00     0.000 C 
HETATM   12  C7  UNL     1     -34.753  17.061  -0.223  1.00 20.00     0.005 C 
ENDBRANCH   6  11
TORSDOF 2
ENDMDL
