MODEL 1
REMARK VINA RESULT:      -4.9      0.000      0.000
REMARK  4 active torsions:
REMARK  status: ('A' for Active; 'I' for Inactive)
REMARK    1  A    between atoms: C1_1  and  C6_6 
REMARK    2  A    between atoms: C4_4  and  C6_6 
REMARK    3  A    between atoms: C5_5  and  C6_6 
REMARK    4  A    between atoms: C5_5  and  C7_7 
ROOT
HETATM    1  C6  UNL     1     -33.867   5.663   4.976  1.00 20.00     0.059 C 
ENDROOT
BRANCH   1   2
HETATM    2  C1  UNL     1     -35.051   4.846   4.466  1.00 20.00     0.127 C 
HETATM    3  C2  UNL     1     -36.008   5.545   3.536  1.00 20.00     0.091 C 
HETATM    4  O8  UNL     1     -35.222   3.670   4.790  1.00 20.00    -0.298 OA
ENDBRANCH   1   2
BRANCH   1   5
HETATM    5  C4  UNL     1     -34.132   6.116   6.423  1.00 20.00     0.008 C 
HETATM    6  C3  UNL     1     -33.377   7.385   6.795  1.00 20.00     0.006 C 
ENDBRANCH   1   5
BRANCH   1   7
HETATM    7  C5  UNL     1     -33.629   6.886   4.070  1.00 20.00     0.083 C 
BRANCH   7   8
HETATM    8  C7  UNL     1     -32.345   6.803   3.259  1.00 20.00     0.353 C 
HETATM    9  F9  UNL     1     -31.844   5.546   3.279  1.00 20.00    -0.214 F 
HETATM   10  F10 UNL     1     -31.402   7.617   3.791  1.00 20.00    -0.214 F 
ENDBRANCH   7   8
ENDBRANCH   1   7
TORSDOF 4
ENDMDL
MODEL 2
REMARK VINA RESULT:      -4.8      0.863      1.092
REMARK  4 active torsions:
REMARK  status: ('A' for Active; 'I' for Inactive)
REMARK    1  A    between atoms: C1_1  and  C6_6 
REMARK    2  A    between atoms: C4_4  and  C6_6 
REMARK    3  A    between atoms: C5_5  and  C6_6 
REMARK    4  A    between atoms: C5_5  and  C7_7 
ROOT
HETATM    1  C6  UNL     1     -33.809   5.934   4.985  1.00 20.00     0.059 C 
ENDROOT
BRANCH   1   2
HETATM    2  C1  UNL     1     -34.965   5.064   4.500  1.00 20.00     0.127 C 
HETATM    3  C2  UNL     1     -35.186   3.762   5.225  1.00 20.00     0.091 C 
HETATM    4  O8  UNL     1     -35.692   5.403   3.566  1.00 20.00    -0.298 OA
ENDBRANCH   1   2
BRANCH   1   5
HETATM    5  C4  UNL     1     -34.121   6.477   6.390  1.00 20.00     0.008 C 
HETATM    6  C3  UNL     1     -33.137   7.548   6.845  1.00 20.00     0.006 C 
ENDBRANCH   1   5
BRANCH   1   7
HETATM    7  C5  UNL     1     -33.565   7.098   4.006  1.00 20.00     0.083 C 
BRANCH   7   8
HETATM    8  C7  UNL     1     -32.268   6.973   3.221  1.00 20.00     0.353 C 
HETATM    9  F9  UNL     1     -31.843   5.688   3.195  1.00 20.00    -0.214 F 
HETATM   10  F10 UNL     1     -31.293   7.705   3.811  1.00 20.00    -0.214 F 
ENDBRANCH   7   8
ENDBRANCH   1   7
TORSDOF 4
ENDMDL
MODEL 3
REMARK VINA RESULT:      -4.7      1.741      2.770
REMARK  4 active torsions:
REMARK  status: ('A' for Active; 'I' for Inactive)
REMARK    1  A    between atoms: C1_1  and  C6_6 
REMARK    2  A    between atoms: C4_4  and  C6_6 
REMARK    3  A    between atoms: C5_5  and  C6_6 
REMARK    4  A    between atoms: C5_5  and  C7_7 
ROOT
HETATM    1  C6  UNL     1     -34.068   6.413   4.283  1.00 20.00     0.059 C 
ENDROOT
BRANCH   1   2
HETATM    2  C1  UNL     1     -34.105   6.105   5.778  1.00 20.00     0.127 C 
HETATM    3  C2  UNL     1     -34.748   4.806   6.187  1.00 20.00     0.091 C 
HETATM    4  O8  UNL     1     -33.630   6.872   6.616  1.00 20.00    -0.298 OA
ENDBRANCH   1   2
BRANCH   1   5
HETATM    5  C4  UNL     1     -34.986   5.436   3.528  1.00 20.00     0.008 C 
HETATM    6  C3  UNL     1     -34.408   4.992   2.191  1.00 20.00     0.006 C 
ENDBRANCH   1   5
BRANCH   1   7
HETATM    7  C5  UNL     1     -32.627   6.311   3.749  1.00 20.00     0.083 C 
BRANCH   7   8
HETATM    8  C7  UNL     1     -32.050   7.642   3.291  1.00 20.00     0.353 C 
HETATM    9  F9  UNL     1     -31.769   7.614   1.967  1.00 20.00    -0.214 F 
HETATM   10  F10 UNL     1     -30.889   7.897   3.941  1.00 20.00    -0.214 F 
ENDBRANCH   7   8
ENDBRANCH   1   7
TORSDOF 4
ENDMDL
MODEL 4
REMARK VINA RESULT:      -4.4      2.278      3.304
REMARK  4 active torsions:
REMARK  status: ('A' for Active; 'I' for Inactive)
REMARK    1  A    between atoms: C1_1  and  C6_6 
REMARK    2  A    between atoms: C4_4  and  C6_6 
REMARK    3  A    between atoms: C5_5  and  C6_6 
REMARK    4  A    between atoms: C5_5  and  C7_7 
ROOT
HETATM    1  C6  UNL     1     -34.016   6.393   4.065  1.00 20.00     0.059 C 
ENDROOT
BRANCH   1   2
HETATM    2  C1  UNL     1     -35.160   5.384   4.017  1.00 20.00     0.127 C 
HETATM    3  C2  UNL     1     -34.958   4.093   4.766  1.00 20.00     0.091 C 
HETATM    4  O8  UNL     1     -36.203   5.606   3.402  1.00 20.00    -0.298 OA
ENDBRANCH   1   2
BRANCH   1   5
HETATM    5  C4  UNL     1     -33.033   6.120   2.913  1.00 20.00     0.008 C 
HETATM    6  C3  UNL     1     -32.084   7.283   2.654  1.00 20.00     0.006 C 
ENDBRANCH   1   5
BRANCH   1   7
HETATM    7  C5  UNL     1     -33.286   6.313   5.419  1.00 20.00     0.083 C 
BRANCH   7   8
HETATM    8  C7  UNL     1     -33.978   7.086   6.532  1.00 20.00     0.353 C 
HETATM    9  F9  UNL     1     -33.070   7.628   7.377  1.00 20.00    -0.214 F 
HETATM   10  F10 UNL     1     -34.758   6.255   7.263  1.00 20.00    -0.214 F 
ENDBRANCH   7   8
ENDBRANCH   1   7
TORSDOF 4
ENDMDL
MODEL 5
REMARK VINA RESULT:      -4.3      2.640      3.454
REMARK  4 active torsions:
REMARK  status: ('A' for Active; 'I' for Inactive)
REMARK    1  A    between atoms: C1_1  and  C6_6 
REMARK    2  A    between atoms: C4_4  and  C6_6 
REMARK    3  A    between atoms: C5_5  and  C6_6 
REMARK    4  A    between atoms: C5_5  and  C7_7 
ROOT
HETATM    1  C6  UNL     1     -34.204   6.415   4.601  1.00 20.00     0.059 C 
ENDROOT
BRANCH   1   2
HETATM    2  C1  UNL     1     -33.338   6.239   3.356  1.00 20.00     0.127 C 
HETATM    3  C2  UNL     1     -32.077   7.059   3.284  1.00 20.00     0.091 C 
HETATM    4  O8  UNL     1     -33.645   5.462   2.451  1.00 20.00    -0.298 OA
ENDBRANCH   1   2
BRANCH   1   5
HETATM    5  C4  UNL     1     -33.313   6.428   5.856  1.00 20.00     0.008 C 
HETATM    6  C3  UNL     1     -33.768   7.443   6.897  1.00 20.00     0.006 C 
ENDBRANCH   1   5
BRANCH   1   7
HETATM    7  C5  UNL     1     -35.243   5.282   4.698  1.00 20.00     0.083 C 
BRANCH   7   8
HETATM    8  C7  UNL     1     -34.821   4.144   5.615  1.00 20.00     0.353 C 
HETATM    9  F9  UNL     1     -34.833   2.963   4.953  1.00 20.00    -0.214 F 
HETATM   10  F10 UNL     1     -35.688   4.031   6.649  1.00 20.00    -0.214 F 
ENDBRANCH   7   8
ENDBRANCH   1   7
TORSDOF 4
ENDMDL
MODEL 6
REMARK VINA RESULT:      -4.3     12.272     12.702
REMARK  4 active torsions:
REMARK  status: ('A' for Active; 'I' for Inactive)
REMARK    1  A    between atoms: C1_1  and  C6_6 
REMARK    2  A    between atoms: C4_4  and  C6_6 
REMARK    3  A    between atoms: C5_5  and  C6_6 
REMARK    4  A    between atoms: C5_5  and  C7_7 
ROOT
HETATM    1  C6  UNL     1     -34.300  14.812  -3.139  1.00 20.00     0.059 C 
ENDROOT
BRANCH   1   2
HETATM    2  C1  UNL     1     -35.215  13.881  -3.932  1.00 20.00     0.127 C 
HETATM    3  C2  UNL     1     -36.627  14.352  -4.162  1.00 20.00     0.091 C 
HETATM    4  O8  UNL     1     -34.825  12.799  -4.371  1.00 20.00    -0.298 OA
ENDBRANCH   1   2
BRANCH   1   5
HETATM    5  C4  UNL     1     -35.130  15.947  -2.514  1.00 20.00     0.008 C 
HETATM    6  C3  UNL     1     -34.529  16.477  -1.219  1.00 20.00     0.006 C 
ENDBRANCH   1   5
BRANCH   1   7
HETATM    7  C5  UNL     1     -33.204  15.393  -4.051  1.00 20.00     0.083 C 
BRANCH   7   8
HETATM    8  C7  UNL     1     -33.739  16.315  -5.136  1.00 20.00     0.353 C 
HETATM    9  F9  UNL     1     -33.649  15.730  -6.353  1.00 20.00    -0.214 F 
HETATM   10  F10 UNL     1     -33.006  17.454  -5.184  1.00 20.00    -0.214 F 
ENDBRANCH   7   8
ENDBRANCH   1   7
TORSDOF 4
ENDMDL
MODEL 7
REMARK VINA RESULT:      -4.2      2.895      4.033
REMARK  4 active torsions:
REMARK  status: ('A' for Active; 'I' for Inactive)
REMARK    1  A    between atoms: C1_1  and  C6_6 
REMARK    2  A    between atoms: C4_4  and  C6_6 
REMARK    3  A    between atoms: C5_5  and  C6_6 
REMARK    4  A    between atoms: C5_5  and  C7_7 
ROOT
HETATM    1  C6  UNL     1     -32.885   6.309   4.035  1.00 20.00     0.059 C 
ENDROOT
BRANCH   1   2
HETATM    2  C1  UNL     1     -31.925   7.362   3.488  1.00 20.00     0.127 C 
HETATM    3  C2  UNL     1     -32.192   7.865   2.093  1.00 20.00     0.091 C 
HETATM    4  O8  UNL     1     -30.978   7.791   4.148  1.00 20.00    -0.298 OA
ENDBRANCH   1   2
BRANCH   1   5
HETATM    5  C4  UNL     1     -33.594   5.597   2.869  1.00 20.00     0.008 C 
HETATM    6  C3  UNL     1     -35.070   5.340   3.141  1.00 20.00     0.006 C 
ENDBRANCH   1   5
BRANCH   1   7
HETATM    7  C5  UNL     1     -33.920   6.961   4.970  1.00 20.00     0.083 C 
BRANCH   7   8
HETATM    8  C7  UNL     1     -33.823   6.486   6.413  1.00 20.00     0.353 C 
HETATM    9  F9  UNL     1     -34.895   5.729   6.743  1.00 20.00    -0.214 F 
HETATM   10  F10 UNL     1     -33.809   7.547   7.254  1.00 20.00    -0.214 F 
ENDBRANCH   7   8
ENDBRANCH   1   7
TORSDOF 4
ENDMDL
MODEL 8
REMARK VINA RESULT:      -4.1     11.879     12.469
REMARK  4 active torsions:
REMARK  status: ('A' for Active; 'I' for Inactive)
REMARK    1  A    between atoms: C1_1  and  C6_6 
REMARK    2  A    between atoms: C4_4  and  C6_6 
REMARK    3  A    between atoms: C5_5  and  C6_6 
REMARK    4  A    between atoms: C5_5  and  C7_7 
ROOT
HETATM    1  C6  UNL     1     -35.239  14.706  -3.348  1.00 20.00     0.059 C 
ENDROOT
BRANCH   1   2
HETATM    2  C1  UNL     1     -34.892  13.849  -4.563  1.00 20.00     0.127 C 
HETATM    3  C2  UNL     1     -34.525  14.582  -5.827  1.00 20.00     0.091 C 
HETATM    4  O8  UNL     1     -34.904  12.619  -4.521  1.00 20.00    -0.298 OA
ENDBRANCH   1   2
BRANCH   1   5
HETATM    5  C4  UNL     1     -36.405  15.649  -3.693  1.00 20.00     0.008 C 
HETATM    6  C3  UNL     1     -37.750  14.935  -3.748  1.00 20.00     0.006 C 
ENDBRANCH   1   5
BRANCH   1   7
HETATM    7  C5  UNL     1     -34.012  15.519  -2.896  1.00 20.00     0.083 C 
BRANCH   7   8
HETATM    8  C7  UNL     1     -34.337  16.594  -1.870  1.00 20.00     0.353 C 
HETATM    9  F9  UNL     1     -33.226  17.294  -1.538  1.00 20.00    -0.214 F 
HETATM   10  F10 UNL     1     -34.806  16.027  -0.732  1.00 20.00    -0.214 F 
ENDBRANCH   7   8
ENDBRANCH   1   7
TORSDOF 4
ENDMDL
MODEL 9
REMARK VINA RESULT:      -4.1     12.083     13.000
REMARK  4 active torsions:
REMARK  status: ('A' for Active; 'I' for Inactive)
REMARK    1  A    between atoms: C1_1  and  C6_6 
REMARK    2  A    between atoms: C4_4  and  C6_6 
REMARK    3  A    between atoms: C5_5  and  C6_6 
REMARK    4  A    between atoms: C5_5  and  C7_7 
ROOT
HETATM    1  C6  UNL     1     -33.583  15.636  -3.197  1.00 20.00     0.059 C 
ENDROOT
BRANCH   1   2
HETATM    2  C1  UNL     1     -33.760  16.497  -4.445  1.00 20.00     0.127 C 
HETATM    3  C2  UNL     1     -35.110  17.134  -4.645  1.00 20.00     0.091 C 
HETATM    4  O8  UNL     1     -32.848  16.672  -5.254  1.00 20.00    -0.298 OA
ENDBRANCH   1   2
BRANCH   1   5
HETATM    5  C4  UNL     1     -33.475  14.154  -3.599  1.00 20.00     0.008 C 
HETATM    6  C3  UNL     1     -34.817  13.542  -3.978  1.00 20.00     0.006 C 
ENDBRANCH   1   5
BRANCH   1   7
HETATM    7  C5  UNL     1     -34.766  15.841  -2.232  1.00 20.00     0.083 C 
BRANCH   7   8
HETATM    8  C7  UNL     1     -34.508  16.896  -1.167  1.00 20.00     0.353 C 
HETATM    9  F9  UNL     1     -33.189  17.193  -1.094  1.00 20.00    -0.214 F 
HETATM   10  F10 UNL     1     -34.881  16.431   0.050  1.00 20.00    -0.214 F 
ENDBRANCH   7   8
ENDBRANCH   1   7
TORSDOF 4
ENDMDL
