MODEL 1
REMARK VINA RESULT:      -4.8      0.000      0.000
REMARK  1 active torsions:
REMARK  status: ('A' for Active; 'I' for Inactive)
REMARK    1  A    between atoms: C7_7  and  N12_12 
ROOT
HETATM    1  C1  UNL     1     -33.566  13.815  -3.949  1.00 20.00     0.134 C 
HETATM    2  C2  UNL     1     -34.839  13.389  -4.642  1.00 20.00     0.106 C 
HETATM    3  C4  UNL     1     -35.000  14.108  -5.966  1.00 20.00     0.243 C 
HETATM    4  C5  UNL     1     -33.300  15.308  -3.828  1.00 20.00     0.082 C 
HETATM    5  C8  UNL     1     -33.606  16.029  -5.154  1.00 20.00     0.195 C 
HETATM    6  C9  UNL     1     -33.981  15.842  -2.572  1.00 20.00     0.020 C 
HETATM    7  C11 UNL     1     -33.493  17.549  -5.098  1.00 20.00     0.041 C 
HETATM    8  N12 UNL     1     -34.921  15.604  -5.776  1.00 20.00    -0.061 N 
HETATM    9  O13 UNL     1     -32.826  12.989  -3.414  1.00 20.00    -0.297 OA
HETATM   10  H33 UNL     1     -34.902  15.990  -6.755  1.00 20.00     0.280 HD
ENDROOT
BRANCH   8  11
HETATM   11  C7  UNL     1     -36.190  16.171  -5.186  1.00 20.00     0.193 A 
HETATM   12  C3  UNL     1     -37.498  15.721  -5.779  1.00 20.00     0.040 A 
HETATM   13  C6  UNL     1     -36.995  17.116  -6.040  1.00 20.00     0.014 A 
HETATM   14  C10 UNL     1     -37.677  18.285  -5.419  1.00 20.00     0.012 C 
ENDBRANCH   8  11
TORSDOF 1
ENDMDL
MODEL 2
REMARK VINA RESULT:      -4.7      2.282      4.079
REMARK  1 active torsions:
REMARK  status: ('A' for Active; 'I' for Inactive)
REMARK    1  A    between atoms: C7_7  and  N12_12 
ROOT
HETATM    1  C1  UNL     1     -34.988  15.651  -6.749  1.00 20.00     0.134 C 
HETATM    2  C2  UNL     1     -34.461  16.999  -6.315  1.00 20.00     0.106 C 
HETATM    3  C4  UNL     1     -33.258  16.842  -5.408  1.00 20.00     0.243 C 
HETATM    4  C5  UNL     1     -35.216  14.606  -5.667  1.00 20.00     0.082 C 
HETATM    5  C8  UNL     1     -34.034  14.570  -4.681  1.00 20.00     0.195 C 
HETATM    6  C9  UNL     1     -36.610  14.789  -5.076  1.00 20.00     0.020 C 
HETATM    7  C11 UNL     1     -34.226  13.644  -3.484  1.00 20.00     0.041 C 
HETATM    8  N12 UNL     1     -33.584  15.947  -4.236  1.00 20.00    -0.061 N 
HETATM    9  O13 UNL     1     -35.315  15.442  -7.918  1.00 20.00    -0.297 OA
HETATM   10  H33 UNL     1     -32.659  15.795  -3.759  1.00 20.00     0.280 HD
ENDROOT
BRANCH   8  11
HETATM   11  C7  UNL     1     -34.419  16.654  -3.194  1.00 20.00     0.193 A 
HETATM   12  C3  UNL     1     -33.976  18.024  -2.757  1.00 20.00     0.040 A 
HETATM   13  C6  UNL     1     -33.812  16.850  -1.830  1.00 20.00     0.014 A 
HETATM   14  C10 UNL     1     -34.661  16.733  -0.612  1.00 20.00     0.012 C 
ENDBRANCH   8  11
TORSDOF 1
ENDMDL
MODEL 3
REMARK VINA RESULT:      -4.7      2.006      3.545
REMARK  1 active torsions:
REMARK  status: ('A' for Active; 'I' for Inactive)
REMARK    1  A    between atoms: C7_7  and  N12_12 
ROOT
HETATM    1  C1  UNL     1     -35.346  14.770  -6.303  1.00 20.00     0.134 C 
HETATM    2  C2  UNL     1     -36.119  16.012  -5.927  1.00 20.00     0.106 C 
HETATM    3  C4  UNL     1     -35.190  17.090  -5.405  1.00 20.00     0.243 C 
HETATM    4  C5  UNL     1     -34.351  14.229  -5.287  1.00 20.00     0.082 C 
HETATM    5  C8  UNL     1     -33.517  15.369  -4.675  1.00 20.00     0.195 C 
HETATM    6  C9  UNL     1     -35.075  13.299  -4.319  1.00 20.00     0.020 C 
HETATM    7  C11 UNL     1     -32.579  14.944  -3.550  1.00 20.00     0.041 C 
HETATM    8  N12 UNL     1     -34.351  16.566  -4.264  1.00 20.00    -0.061 N 
HETATM    9  O13 UNL     1     -35.586  14.163  -7.347  1.00 20.00    -0.297 OA
HETATM   10  H33 UNL     1     -33.657  17.335  -4.077  1.00 20.00     0.280 HD
ENDROOT
BRANCH   8  11
HETATM   11  C7  UNL     1     -35.137  16.464  -2.978  1.00 20.00     0.193 A 
HETATM   12  C3  UNL     1     -35.988  17.641  -2.585  1.00 20.00     0.040 A 
HETATM   13  C6  UNL     1     -34.718  17.348  -1.833  1.00 20.00     0.014 A 
HETATM   14  C10 UNL     1     -34.777  16.837  -0.435  1.00 20.00     0.012 C 
ENDBRANCH   8  11
TORSDOF 1
ENDMDL
MODEL 4
REMARK VINA RESULT:      -4.7      2.075      4.059
REMARK  1 active torsions:
REMARK  status: ('A' for Active; 'I' for Inactive)
REMARK    1  A    between atoms: C7_7  and  N12_12 
ROOT
HETATM    1  C1  UNL     1     -35.635  14.595  -6.488  1.00 20.00     0.134 C 
HETATM    2  C2  UNL     1     -34.329  14.539  -5.731  1.00 20.00     0.106 C 
HETATM    3  C4  UNL     1     -34.528  13.943  -4.352  1.00 20.00     0.243 C 
HETATM    4  C5  UNL     1     -36.835  15.194  -5.771  1.00 20.00     0.082 C 
HETATM    5  C8  UNL     1     -36.928  14.671  -4.325  1.00 20.00     0.195 C 
HETATM    6  C9  UNL     1     -36.835  16.707  -5.965  1.00 20.00     0.020 C 
HETATM    7  C11 UNL     1     -38.026  15.312  -3.482  1.00 20.00     0.041 C 
HETATM    8  N12 UNL     1     -35.600  14.691  -3.595  1.00 20.00    -0.061 N 
HETATM    9  O13 UNL     1     -35.698  14.263  -7.672  1.00 20.00    -0.297 OA
HETATM   10  H33 UNL     1     -35.754  14.117  -2.727  1.00 20.00     0.280 HD
ENDROOT
BRANCH   8  11
HETATM   11  C7  UNL     1     -35.108  16.019  -3.072  1.00 20.00     0.193 A 
HETATM   12  C3  UNL     1     -33.662  16.117  -2.667  1.00 20.00     0.040 A 
HETATM   13  C6  UNL     1     -34.739  16.101  -1.615  1.00 20.00     0.014 A 
HETATM   14  C10 UNL     1     -35.043  17.334  -0.836  1.00 20.00     0.012 C 
ENDBRANCH   8  11
TORSDOF 1
ENDMDL
MODEL 5
REMARK VINA RESULT:      -4.6      1.414      2.924
REMARK  1 active torsions:
REMARK  status: ('A' for Active; 'I' for Inactive)
REMARK    1  A    between atoms: C7_7  and  N12_12 
ROOT
HETATM    1  C1  UNL     1     -33.623  13.898  -3.833  1.00 20.00     0.134 C 
HETATM    2  C2  UNL     1     -33.047  15.263  -3.539  1.00 20.00     0.106 C 
HETATM    3  C4  UNL     1     -33.975  16.060  -2.644  1.00 20.00     0.243 C 
HETATM    4  C5  UNL     1     -35.068  13.834  -4.303  1.00 20.00     0.082 C 
HETATM    5  C8  UNL     1     -35.961  14.763  -3.459  1.00 20.00     0.195 C 
HETATM    6  C9  UNL     1     -35.115  14.012  -5.817  1.00 20.00     0.020 C 
HETATM    7  C11 UNL     1     -37.407  14.868  -3.934  1.00 20.00     0.041 C 
HETATM    8  N12 UNL     1     -35.359  16.137  -3.242  1.00 20.00    -0.061 N 
HETATM    9  O13 UNL     1     -32.920  12.888  -3.793  1.00 20.00    -0.297 OA
HETATM   10  H33 UNL     1     -35.944  16.580  -2.488  1.00 20.00     0.280 HD
ENDROOT
BRANCH   8  11
HETATM   11  C7  UNL     1     -35.432  17.122  -4.385  1.00 20.00     0.193 A 
HETATM   12  C3  UNL     1     -34.786  18.466  -4.190  1.00 20.00     0.040 A 
HETATM   13  C6  UNL     1     -36.286  18.347  -4.196  1.00 20.00     0.014 A 
HETATM   14  C10 UNL     1     -37.076  18.890  -5.336  1.00 20.00     0.012 C 
ENDBRANCH   8  11
TORSDOF 1
ENDMDL
MODEL 6
REMARK VINA RESULT:      -4.6      2.145      3.133
REMARK  1 active torsions:
REMARK  status: ('A' for Active; 'I' for Inactive)
REMARK    1  A    between atoms: C7_7  and  N12_12 
ROOT
HETATM    1  C1  UNL     1     -33.847  17.052  -2.390  1.00 20.00     0.134 C 
HETATM    2  C2  UNL     1     -33.850  15.558  -2.615  1.00 20.00     0.106 C 
HETATM    3  C4  UNL     1     -33.028  15.194  -3.835  1.00 20.00     0.243 C 
HETATM    4  C5  UNL     1     -34.164  17.941  -3.583  1.00 20.00     0.082 C 
HETATM    5  C8  UNL     1     -33.419  17.458  -4.841  1.00 20.00     0.195 C 
HETATM    6  C9  UNL     1     -35.676  18.115  -3.694  1.00 20.00     0.020 C 
HETATM    7  C11 UNL     1     -33.772  18.207  -6.122  1.00 20.00     0.041 C 
HETATM    8  N12 UNL     1     -33.502  15.959  -5.047  1.00 20.00    -0.061 N 
HETATM    9  O13 UNL     1     -33.694  17.525  -1.263  1.00 20.00    -0.297 OA
HETATM   10  H33 UNL     1     -32.787  15.741  -5.788  1.00 20.00     0.280 HD
ENDROOT
BRANCH   8  11
HETATM   11  C7  UNL     1     -34.789  15.400  -5.607  1.00 20.00     0.193 A 
HETATM   12  C3  UNL     1     -34.924  13.903  -5.684  1.00 20.00     0.040 A 
HETATM   13  C6  UNL     1     -34.724  14.705  -6.942  1.00 20.00     0.014 A 
HETATM   14  C10 UNL     1     -35.839  14.858  -7.917  1.00 20.00     0.012 C 
ENDBRANCH   8  11
TORSDOF 1
ENDMDL
MODEL 7
REMARK VINA RESULT:      -4.5      2.204      4.166
REMARK  1 active torsions:
REMARK  status: ('A' for Active; 'I' for Inactive)
REMARK    1  A    between atoms: C7_7  and  N12_12 
ROOT
HETATM    1  C1  UNL     1     -34.198  15.779  -5.750  1.00 20.00     0.134 C 
HETATM    2  C2  UNL     1     -33.101  16.034  -4.743  1.00 20.00     0.106 C 
HETATM    3  C4  UNL     1     -33.311  15.201  -3.494  1.00 20.00     0.243 C 
HETATM    4  C5  UNL     1     -35.634  15.841  -5.253  1.00 20.00     0.082 C 
HETATM    5  C8  UNL     1     -35.783  15.101  -3.910  1.00 20.00     0.195 C 
HETATM    6  C9  UNL     1     -36.127  17.283  -5.311  1.00 20.00     0.020 C 
HETATM    7  C11 UNL     1     -37.160  15.215  -3.265  1.00 20.00     0.041 C 
HETATM    8  N12 UNL     1     -34.687  15.437  -2.918  1.00 20.00    -0.061 N 
HETATM    9  O13 UNL     1     -33.942  15.629  -6.946  1.00 20.00    -0.297 OA
HETATM   10  H33 UNL     1     -34.776  14.719  -2.155  1.00 20.00     0.280 HD
ENDROOT
BRANCH   8  11
HETATM   11  C7  UNL     1     -34.782  16.757  -2.191  1.00 20.00     0.193 A 
HETATM   12  C3  UNL     1     -33.538  17.277  -1.524  1.00 20.00     0.040 A 
HETATM   13  C6  UNL     1     -34.667  16.735  -0.689  1.00 20.00     0.014 A 
HETATM   14  C10 UNL     1     -35.497  17.655   0.137  1.00 20.00     0.012 C 
ENDBRANCH   8  11
TORSDOF 1
ENDMDL
MODEL 8
REMARK VINA RESULT:      -4.4      1.328      1.797
REMARK  1 active torsions:
REMARK  status: ('A' for Active; 'I' for Inactive)
REMARK    1  A    between atoms: C7_7  and  N12_12 
ROOT
HETATM    1  C1  UNL     1     -33.183  14.856  -3.952  1.00 20.00     0.134 C 
HETATM    2  C2  UNL     1     -34.361  14.094  -3.391  1.00 20.00     0.106 C 
HETATM    3  C4  UNL     1     -35.214  13.521  -4.505  1.00 20.00     0.243 C 
HETATM    4  C5  UNL     1     -33.465  15.878  -5.043  1.00 20.00     0.082 C 
HETATM    5  C8  UNL     1     -34.445  15.310  -6.087  1.00 20.00     0.195 C 
HETATM    6  C9  UNL     1     -33.828  17.213  -4.402  1.00 20.00     0.020 C 
HETATM    7  C11 UNL     1     -34.891  16.304  -7.153  1.00 20.00     0.041 C 
HETATM    8  N12 UNL     1     -35.636  14.606  -5.468  1.00 20.00    -0.061 N 
HETATM    9  O13 UNL     1     -32.056  14.727  -3.472  1.00 20.00    -0.297 OA
HETATM   10  H33 UNL     1     -36.093  14.086  -6.261  1.00 20.00     0.280 HD
ENDROOT
BRANCH   8  11
HETATM   11  C7  UNL     1     -36.745  15.465  -4.908  1.00 20.00     0.193 A 
HETATM   12  C3  UNL     1     -37.861  14.773  -4.174  1.00 20.00     0.040 A 
HETATM   13  C6  UNL     1     -38.105  15.348  -5.543  1.00 20.00     0.014 A 
HETATM   14  C10 UNL     1     -38.959  16.557  -5.706  1.00 20.00     0.012 C 
ENDBRANCH   8  11
TORSDOF 1
ENDMDL
MODEL 9
REMARK VINA RESULT:      -4.3      2.044      2.545
REMARK  1 active torsions:
REMARK  status: ('A' for Active; 'I' for Inactive)
REMARK    1  A    between atoms: C7_7  and  N12_12 
ROOT
HETATM    1  C1  UNL     1     -35.037  13.670  -4.646  1.00 20.00     0.134 C 
HETATM    2  C2  UNL     1     -36.303  14.131  -3.963  1.00 20.00     0.106 C 
HETATM    3  C4  UNL     1     -36.789  15.440  -4.552  1.00 20.00     0.243 C 
HETATM    4  C5  UNL     1     -33.913  14.684  -4.797  1.00 20.00     0.082 C 
HETATM    5  C8  UNL     1     -34.462  16.045  -5.266  1.00 20.00     0.195 C 
HETATM    6  C9  UNL     1     -33.054  14.677  -3.537  1.00 20.00     0.020 C 
HETATM    7  C11 UNL     1     -33.429  17.166  -5.324  1.00 20.00     0.041 C 
HETATM    8  N12 UNL     1     -35.699  16.484  -4.509  1.00 20.00    -0.061 N 
HETATM    9  O13 UNL     1     -34.883  12.493  -4.974  1.00 20.00    -0.297 OA
HETATM   10  H33 UNL     1     -36.089  17.291  -5.060  1.00 20.00     0.280 HD
ENDROOT
BRANCH   8  11
HETATM   11  C7  UNL     1     -35.507  17.050  -3.122  1.00 20.00     0.193 A 
HETATM   12  C3  UNL     1     -36.710  17.638  -2.435  1.00 20.00     0.040 A 
HETATM   13  C6  UNL     1     -35.625  18.542  -2.956  1.00 20.00     0.014 A 
HETATM   14  C10 UNL     1     -34.730  19.261  -2.007  1.00 20.00     0.012 C 
ENDBRANCH   8  11
TORSDOF 1
ENDMDL
