MODEL 1
REMARK VINA RESULT:      -5.0      0.000      0.000
REMARK  5 active torsions:
REMARK  status: ('A' for Active; 'I' for Inactive)
REMARK    1  A    between atoms: C1_1  and  C10_10 
REMARK    2  A    between atoms: C4_4  and  C8_8 
REMARK    3  A    between atoms: C8_8  and  C9_9 
REMARK    4  A    between atoms: C9_9  and  C10_10 
REMARK    5  A    between atoms: C10_10  and  C11_11 
ROOT
HETATM    1  C10 UNL     1     -33.821   6.408   4.265  1.00 20.00     0.058 C 
ENDROOT
BRANCH   1   2
HETATM    2  C1  UNL     1     -33.904   6.203   5.781  1.00 20.00     0.127 C 
HETATM    3  C5  UNL     1     -34.535   4.919   6.259  1.00 20.00     0.091 C 
HETATM    4  O12 UNL     1     -33.497   7.042   6.584  1.00 20.00    -0.298 OA
ENDBRANCH   1   2
BRANCH   1   5
HETATM    5  C9  UNL     1     -32.364   6.321   3.772  1.00 20.00     0.013 C 
BRANCH   5   6
HETATM    6  C8  UNL     1     -31.821   7.682   3.318  1.00 20.00     0.005 C 
BRANCH   6   7
HETATM    7  C4  UNL     1     -32.475   8.146   2.054  1.00 20.00    -0.014 A 
HETATM    8  C2  UNL     1     -32.490   9.608   1.700  1.00 20.00     0.005 A 
HETATM    9  C3  UNL     1     -31.639   8.653   0.911  1.00 20.00     0.005 A 
ENDBRANCH   6   7
ENDBRANCH   5   6
ENDBRANCH   1   5
BRANCH   1  10
HETATM   10  C11 UNL     1     -34.789   5.420   3.561  1.00 20.00    -0.012 C 
HETATM   11  C6  UNL     1     -36.201   5.977   3.364  1.00 20.00     0.010 C 
HETATM   12  C7  UNL     1     -34.224   4.951   2.215  1.00 20.00     0.010 C 
ENDBRANCH   1  10
TORSDOF 5
ENDMDL
MODEL 2
REMARK VINA RESULT:      -4.9     10.459     12.138
REMARK  5 active torsions:
REMARK  status: ('A' for Active; 'I' for Inactive)
REMARK    1  A    between atoms: C1_1  and  C10_10 
REMARK    2  A    between atoms: C4_4  and  C8_8 
REMARK    3  A    between atoms: C8_8  and  C9_9 
REMARK    4  A    between atoms: C9_9  and  C10_10 
REMARK    5  A    between atoms: C10_10  and  C11_11 
ROOT
HETATM    1  C10 UNL     1     -34.979  15.017  -4.879  1.00 20.00     0.058 C 
ENDROOT
BRANCH   1   2
HETATM    2  C1  UNL     1     -34.459  13.702  -4.291  1.00 20.00     0.127 C 
HETATM    3  C5  UNL     1     -33.070  13.724  -3.702  1.00 20.00     0.091 C 
HETATM    4  O12 UNL     1     -35.120  12.664  -4.307  1.00 20.00    -0.298 OA
ENDBRANCH   1   2
BRANCH   1   5
HETATM    5  C9  UNL     1     -34.625  16.209  -3.969  1.00 20.00     0.013 C 
BRANCH   5   6
HETATM    6  C8  UNL     1     -35.458  16.226  -2.680  1.00 20.00     0.005 C 
BRANCH   6   7
HETATM    7  C4  UNL     1     -34.590  16.226  -1.460  1.00 20.00    -0.014 A 
HETATM    8  C2  UNL     1     -33.690  17.396  -1.171  1.00 20.00     0.005 A 
HETATM    9  C3  UNL     1     -34.899  17.148  -0.312  1.00 20.00     0.005 A 
ENDBRANCH   6   7
ENDBRANCH   5   6
ENDBRANCH   1   5
BRANCH   1  10
HETATM   10  C11 UNL     1     -34.473  15.162  -6.338  1.00 20.00    -0.012 C 
HETATM   11  C6  UNL     1     -35.356  14.454  -7.370  1.00 20.00     0.010 C 
HETATM   12  C7  UNL     1     -34.304  16.636  -6.726  1.00 20.00     0.010 C 
ENDBRANCH   1  10
TORSDOF 5
ENDMDL
MODEL 3
REMARK VINA RESULT:      -4.6      1.564      2.785
REMARK  5 active torsions:
REMARK  status: ('A' for Active; 'I' for Inactive)
REMARK    1  A    between atoms: C1_1  and  C10_10 
REMARK    2  A    between atoms: C4_4  and  C8_8 
REMARK    3  A    between atoms: C8_8  and  C9_9 
REMARK    4  A    between atoms: C9_9  and  C10_10 
REMARK    5  A    between atoms: C10_10  and  C11_11 
ROOT
HETATM    1  C10 UNL     1     -33.580   5.750   4.397  1.00 20.00     0.058 C 
ENDROOT
BRANCH   1   2
HETATM    2  C1  UNL     1     -34.573   5.443   3.271  1.00 20.00     0.127 C 
HETATM    3  C5  UNL     1     -35.989   5.924   3.465  1.00 20.00     0.091 C 
HETATM    4  O12 UNL     1     -34.252   4.819   2.260  1.00 20.00    -0.298 OA
ENDBRANCH   1   2
BRANCH   1   5
HETATM    5  C9  UNL     1     -32.641   6.908   4.008  1.00 20.00     0.013 C 
BRANCH   5   6
HETATM    6  C8  UNL     1     -32.635   7.170   2.495  1.00 20.00     0.005 C 
BRANCH   6   7
HETATM    7  C4  UNL     1     -31.877   8.415   2.153  1.00 20.00    -0.014 A 
HETATM    8  C2  UNL     1     -31.675   8.807   0.715  1.00 20.00     0.005 A 
HETATM    9  C3  UNL     1     -32.599   9.609   1.589  1.00 20.00     0.005 A 
ENDBRANCH   6   7
ENDBRANCH   5   6
ENDBRANCH   1   5
BRANCH   1  10
HETATM   10  C11 UNL     1     -34.360   5.984   5.718  1.00 20.00    -0.012 C 
HETATM   11  C6  UNL     1     -34.637   4.700   6.505  1.00 20.00     0.010 C 
HETATM   12  C7  UNL     1     -33.643   6.997   6.617  1.00 20.00     0.010 C 
ENDBRANCH   1  10
TORSDOF 5
ENDMDL
MODEL 4
REMARK VINA RESULT:      -4.6     10.217     11.649
REMARK  5 active torsions:
REMARK  status: ('A' for Active; 'I' for Inactive)
REMARK    1  A    between atoms: C1_1  and  C10_10 
REMARK    2  A    between atoms: C4_4  and  C8_8 
REMARK    3  A    between atoms: C8_8  and  C9_9 
REMARK    4  A    between atoms: C9_9  and  C10_10 
REMARK    5  A    between atoms: C10_10  and  C11_11 
ROOT
HETATM    1  C10 UNL     1     -35.053  14.999  -3.513  1.00 20.00     0.058 C 
ENDROOT
BRANCH   1   2
HETATM    2  C1  UNL     1     -34.450  13.629  -3.838  1.00 20.00     0.127 C 
HETATM    3  C5  UNL     1     -32.975  13.456  -3.570  1.00 20.00     0.091 C 
HETATM    4  O12 UNL     1     -35.116  12.709  -4.311  1.00 20.00    -0.298 OA
ENDBRANCH   1   2
BRANCH   1   5
HETATM    5  C9  UNL     1     -33.996  16.113  -3.636  1.00 20.00     0.013 C 
BRANCH   5   6
HETATM    6  C8  UNL     1     -33.754  16.837  -2.305  1.00 20.00     0.005 C 
BRANCH   6   7
HETATM    7  C4  UNL     1     -34.879  16.613  -1.341  1.00 20.00    -0.014 A 
HETATM    8  C2  UNL     1     -34.797  17.157   0.059  1.00 20.00     0.005 A 
HETATM    9  C3  UNL     1     -35.759  17.760  -0.926  1.00 20.00     0.005 A 
ENDBRANCH   6   7
ENDBRANCH   5   6
ENDBRANCH   1   5
BRANCH   1  10
HETATM   10  C11 UNL     1     -36.315  15.223  -4.387  1.00 20.00    -0.012 C 
HETATM   11  C6  UNL     1     -37.628  15.163  -3.601  1.00 20.00     0.010 C 
HETATM   12  C7  UNL     1     -36.233  16.547  -5.156  1.00 20.00     0.010 C 
ENDBRANCH   1  10
TORSDOF 5
ENDMDL
MODEL 5
REMARK VINA RESULT:      -4.6     10.936     11.916
REMARK  5 active torsions:
REMARK  status: ('A' for Active; 'I' for Inactive)
REMARK    1  A    between atoms: C1_1  and  C10_10 
REMARK    2  A    between atoms: C4_4  and  C8_8 
REMARK    3  A    between atoms: C8_8  and  C9_9 
REMARK    4  A    between atoms: C9_9  and  C10_10 
REMARK    5  A    between atoms: C10_10  and  C11_11 
ROOT
HETATM    1  C10 UNL     1     -35.543  15.351  -4.100  1.00 20.00     0.058 C 
ENDROOT
BRANCH   1   2
HETATM    2  C1  UNL     1     -37.027  15.253  -3.733  1.00 20.00     0.127 C 
HETATM    3  C5  UNL     1     -37.722  16.541  -3.370  1.00 20.00     0.091 C 
HETATM    4  O12 UNL     1     -37.633  14.182  -3.712  1.00 20.00    -0.298 OA
ENDBRANCH   1   2
BRANCH   1   5
HETATM    5  C9  UNL     1     -34.649  15.071  -2.877  1.00 20.00     0.013 C 
BRANCH   5   6
HETATM    6  C8  UNL     1     -34.070  16.357  -2.272  1.00 20.00     0.005 C 
BRANCH   6   7
HETATM    7  C4  UNL     1     -34.603  16.610  -0.895  1.00 20.00    -0.014 A 
HETATM    8  C2  UNL     1     -34.072  17.753  -0.075  1.00 20.00     0.005 A 
HETATM    9  C3  UNL     1     -35.468  17.811  -0.628  1.00 20.00     0.005 A 
ENDBRANCH   6   7
ENDBRANCH   5   6
ENDBRANCH   1   5
BRANCH   1  10
HETATM   10  C11 UNL     1     -35.255  14.435  -5.318  1.00 20.00    -0.012 C 
HETATM   11  C6  UNL     1     -34.495  15.134  -6.449  1.00 20.00     0.010 C 
HETATM   12  C7  UNL     1     -34.503  13.166  -4.897  1.00 20.00     0.010 C 
ENDBRANCH   1  10
TORSDOF 5
ENDMDL
MODEL 6
REMARK VINA RESULT:      -4.3     10.892     12.443
REMARK  5 active torsions:
REMARK  status: ('A' for Active; 'I' for Inactive)
REMARK    1  A    between atoms: C1_1  and  C10_10 
REMARK    2  A    between atoms: C4_4  and  C8_8 
REMARK    3  A    between atoms: C8_8  and  C9_9 
REMARK    4  A    between atoms: C9_9  and  C10_10 
REMARK    5  A    between atoms: C10_10  and  C11_11 
ROOT
HETATM    1  C10 UNL     1     -36.209  15.317  -4.640  1.00 20.00     0.058 C 
ENDROOT
BRANCH   1   2
HETATM    2  C1  UNL     1     -37.696  14.951  -4.586  1.00 20.00     0.127 C 
HETATM    3  C5  UNL     1     -38.591  15.598  -5.613  1.00 20.00     0.091 C 
HETATM    4  O12 UNL     1     -38.157  14.184  -3.742  1.00 20.00    -0.298 OA
ENDBRANCH   1   2
BRANCH   1   5
HETATM    5  C9  UNL     1     -35.349  14.248  -3.940  1.00 20.00     0.013 C 
BRANCH   5   6
HETATM    6  C8  UNL     1     -34.347  14.860  -2.952  1.00 20.00     0.005 C 
BRANCH   6   7
HETATM    7  C4  UNL     1     -34.835  16.167  -2.408  1.00 20.00    -0.014 A 
HETATM    8  C2  UNL     1     -34.594  16.525  -0.967  1.00 20.00     0.005 A 
HETATM    9  C3  UNL     1     -33.856  17.254  -2.056  1.00 20.00     0.005 A 
ENDBRANCH   6   7
ENDBRANCH   5   6
ENDBRANCH   1   5
BRANCH   1  10
HETATM   10  C11 UNL     1     -35.802  15.594  -6.111  1.00 20.00    -0.012 C 
HETATM   11  C6  UNL     1     -34.808  16.748  -6.269  1.00 20.00     0.010 C 
HETATM   12  C7  UNL     1     -35.243  14.334  -6.782  1.00 20.00     0.010 C 
ENDBRANCH   1  10
TORSDOF 5
ENDMDL
MODEL 7
REMARK VINA RESULT:      -4.3     10.916     12.945
REMARK  5 active torsions:
REMARK  status: ('A' for Active; 'I' for Inactive)
REMARK    1  A    between atoms: C1_1  and  C10_10 
REMARK    2  A    between atoms: C4_4  and  C8_8 
REMARK    3  A    between atoms: C8_8  and  C9_9 
REMARK    4  A    between atoms: C9_9  and  C10_10 
REMARK    5  A    between atoms: C10_10  and  C11_11 
ROOT
HETATM    1  C10 UNL     1     -34.026  15.686  -5.341  1.00 20.00     0.058 C 
ENDROOT
BRANCH   1   2
HETATM    2  C1  UNL     1     -34.338  15.726  -6.841  1.00 20.00     0.127 C 
HETATM    3  C5  UNL     1     -34.588  17.085  -7.445  1.00 20.00     0.091 C 
HETATM    4  O12 UNL     1     -34.403  14.708  -7.529  1.00 20.00    -0.298 OA
ENDBRANCH   1   2
BRANCH   1   5
HETATM    5  C9  UNL     1     -34.703  16.855  -4.602  1.00 20.00     0.013 C 
BRANCH   5   6
HETATM    6  C8  UNL     1     -33.795  17.472  -3.530  1.00 20.00     0.005 C 
BRANCH   6   7
HETATM    7  C4  UNL     1     -34.494  17.584  -2.210  1.00 20.00    -0.014 A 
HETATM    8  C2  UNL     1     -34.630  16.379  -1.320  1.00 20.00     0.005 A 
HETATM    9  C3  UNL     1     -33.709  17.502  -0.929  1.00 20.00     0.005 A 
ENDBRANCH   6   7
ENDBRANCH   5   6
ENDBRANCH   1   5
BRANCH   1  10
HETATM   10  C11 UNL     1     -34.388  14.286  -4.780  1.00 20.00    -0.012 C 
HETATM   11  C6  UNL     1     -33.381  13.753  -3.756  1.00 20.00     0.010 C 
HETATM   12  C7  UNL     1     -35.796  14.276  -4.173  1.00 20.00     0.010 C 
ENDBRANCH   1  10
TORSDOF 5
ENDMDL
MODEL 8
REMARK VINA RESULT:      -4.3     10.582     12.178
REMARK  5 active torsions:
REMARK  status: ('A' for Active; 'I' for Inactive)
REMARK    1  A    between atoms: C1_1  and  C10_10 
REMARK    2  A    between atoms: C4_4  and  C8_8 
REMARK    3  A    between atoms: C8_8  and  C9_9 
REMARK    4  A    between atoms: C9_9  and  C10_10 
REMARK    5  A    between atoms: C10_10  and  C11_11 
ROOT
HETATM    1  C10 UNL     1     -33.916  16.570  -2.457  1.00 20.00     0.058 C 
ENDROOT
BRANCH   1   2
HETATM    2  C1  UNL     1     -34.018  17.131  -1.036  1.00 20.00     0.127 C 
HETATM    3  C5  UNL     1     -33.093  18.271  -0.688  1.00 20.00     0.091 C 
HETATM    4  O12 UNL     1     -34.798  16.676  -0.200  1.00 20.00    -0.298 OA
ENDBRANCH   1   2
BRANCH   1   5
HETATM    5  C9  UNL     1     -34.880  15.385  -2.656  1.00 20.00     0.013 C 
BRANCH   5   6
HETATM    6  C8  UNL     1     -34.231  14.230  -3.431  1.00 20.00     0.005 C 
BRANCH   6   7
HETATM    7  C4  UNL     1     -35.113  13.742  -4.539  1.00 20.00    -0.014 A 
HETATM    8  C2  UNL     1     -36.036  14.695  -5.247  1.00 20.00     0.005 A 
HETATM    9  C3  UNL     1     -34.833  14.145  -5.961  1.00 20.00     0.005 A 
ENDBRANCH   6   7
ENDBRANCH   5   6
ENDBRANCH   1   5
BRANCH   1  10
HETATM   10  C11 UNL     1     -34.108  17.722  -3.479  1.00 20.00    -0.012 C 
HETATM   11  C6  UNL     1     -33.457  17.455  -4.839  1.00 20.00     0.010 C 
HETATM   12  C7  UNL     1     -35.592  18.053  -3.672  1.00 20.00     0.010 C 
ENDBRANCH   1  10
TORSDOF 5
ENDMDL
MODEL 9
REMARK VINA RESULT:      -4.3     10.788     12.234
REMARK  5 active torsions:
REMARK  status: ('A' for Active; 'I' for Inactive)
REMARK    1  A    between atoms: C1_1  and  C10_10 
REMARK    2  A    between atoms: C4_4  and  C8_8 
REMARK    3  A    between atoms: C8_8  and  C9_9 
REMARK    4  A    between atoms: C9_9  and  C10_10 
REMARK    5  A    between atoms: C10_10  and  C11_11 
ROOT
HETATM    1  C10 UNL     1     -35.557  15.786  -3.350  1.00 20.00     0.058 C 
ENDROOT
BRANCH   1   2
HETATM    2  C1  UNL     1     -35.975  14.380  -3.793  1.00 20.00     0.127 C 
HETATM    3  C5  UNL     1     -34.872  13.455  -4.244  1.00 20.00     0.091 C 
HETATM    4  O12 UNL     1     -37.149  14.013  -3.804  1.00 20.00    -0.298 OA
ENDBRANCH   1   2
BRANCH   1   5
HETATM    5  C9  UNL     1     -34.438  15.725  -2.294  1.00 20.00     0.013 C 
BRANCH   5   6
HETATM    6  C8  UNL     1     -34.721  16.638  -1.093  1.00 20.00     0.005 C 
BRANCH   6   7
HETATM    7  C4  UNL     1     -33.617  17.627  -0.877  1.00 20.00    -0.014 A 
HETATM    8  C2  UNL     1     -33.862  19.095  -1.095  1.00 20.00     0.005 A 
HETATM    9  C3  UNL     1     -33.660  18.565   0.297  1.00 20.00     0.005 A 
ENDBRANCH   6   7
ENDBRANCH   5   6
ENDBRANCH   1   5
BRANCH   1  10
HETATM   10  C11 UNL     1     -35.203  16.633  -4.601  1.00 20.00    -0.012 C 
HETATM   11  C6  UNL     1     -35.958  17.962  -4.679  1.00 20.00     0.010 C 
HETATM   12  C7  UNL     1     -33.694  16.889  -4.692  1.00 20.00     0.010 C 
ENDBRANCH   1  10
TORSDOF 5
ENDMDL
