MODEL 1
REMARK VINA RESULT:      -5.4      0.000      0.000
REMARK  4 active torsions:
REMARK  status: ('A' for Active; 'I' for Inactive)
REMARK    1  A    between atoms: C1_1  and  C6_6 
REMARK    2  A    between atoms: C4_4  and  C6_6 
REMARK    3  A    between atoms: C5_5  and  C6_6 
REMARK    4  A    between atoms: C5_5  and  C7_7 
ROOT
HETATM    1  C6  UNL     1     -33.869   5.676   4.996  1.00 20.00     0.063 C 
ENDROOT
BRANCH   1   2
HETATM    2  C1  UNL     1     -35.040   4.846   4.477  1.00 20.00     0.127 C 
HETATM    3  C2  UNL     1     -35.988   5.529   3.525  1.00 20.00     0.091 C 
HETATM    4  O8  UNL     1     -35.210   3.673   4.812  1.00 20.00    -0.298 OA
ENDBRANCH   1   2
BRANCH   1   5
HETATM    5  C4  UNL     1     -34.148   6.123   6.442  1.00 20.00     0.008 C 
HETATM    6  C3  UNL     1     -33.398   7.391   6.823  1.00 20.00     0.006 C 
ENDBRANCH   1   5
BRANCH   1   7
HETATM    7  C5  UNL     1     -33.642   6.900   4.092  1.00 20.00     0.129 C 
BRANCH   7   8
HETATM    8  C7  UNL     1     -32.315   6.871   3.357  1.00 20.00     0.388 C 
HETATM    9  F9  UNL     1     -31.865   5.613   3.177  1.00 20.00    -0.171 F 
HETATM   10  F10 UNL     1     -31.368   7.563   4.025  1.00 20.00    -0.171 F 
HETATM   11  F11 UNL     1     -32.444   7.435   2.134  1.00 20.00    -0.171 F 
ENDBRANCH   7   8
ENDBRANCH   1   7
TORSDOF 4
ENDMDL
MODEL 2
REMARK VINA RESULT:      -4.7      1.624      2.632
REMARK  4 active torsions:
REMARK  status: ('A' for Active; 'I' for Inactive)
REMARK    1  A    between atoms: C1_1  and  C6_6 
REMARK    2  A    between atoms: C4_4  and  C6_6 
REMARK    3  A    between atoms: C5_5  and  C6_6 
REMARK    4  A    between atoms: C5_5  and  C7_7 
ROOT
HETATM    1  C6  UNL     1     -34.066   6.401   4.286  1.00 20.00     0.063 C 
ENDROOT
BRANCH   1   2
HETATM    2  C1  UNL     1     -34.127   6.078   5.776  1.00 20.00     0.127 C 
HETATM    3  C2  UNL     1     -34.765   4.769   6.162  1.00 20.00     0.091 C 
HETATM    4  O8  UNL     1     -33.676   6.842   6.630  1.00 20.00    -0.298 OA
ENDBRANCH   1   2
BRANCH   1   5
HETATM    5  C4  UNL     1     -35.047   5.499   3.517  1.00 20.00     0.008 C 
HETATM    6  C3  UNL     1     -34.478   4.996   2.198  1.00 20.00     0.006 C 
ENDBRANCH   1   5
BRANCH   1   7
HETATM    7  C5  UNL     1     -32.634   6.207   3.757  1.00 20.00     0.129 C 
BRANCH   7   8
HETATM    8  C7  UNL     1     -32.061   7.446   3.093  1.00 20.00     0.388 C 
HETATM    9  F9  UNL     1     -31.505   7.166   1.897  1.00 20.00    -0.171 F 
HETATM   10  F10 UNL     1     -31.119   8.026   3.867  1.00 20.00    -0.171 F 
HETATM   11  F11 UNL     1     -33.036   8.359   2.885  1.00 20.00    -0.171 F 
ENDBRANCH   7   8
ENDBRANCH   1   7
TORSDOF 4
ENDMDL
MODEL 3
REMARK VINA RESULT:      -4.5      0.839      1.427
REMARK  4 active torsions:
REMARK  status: ('A' for Active; 'I' for Inactive)
REMARK    1  A    between atoms: C1_1  and  C6_6 
REMARK    2  A    between atoms: C4_4  and  C6_6 
REMARK    3  A    between atoms: C5_5  and  C6_6 
REMARK    4  A    between atoms: C5_5  and  C7_7 
ROOT
HETATM    1  C6  UNL     1     -33.754   5.833   4.654  1.00 20.00     0.063 C 
ENDROOT
BRANCH   1   2
HETATM    2  C1  UNL     1     -34.878   5.254   3.800  1.00 20.00     0.127 C 
HETATM    3  C2  UNL     1     -34.616   5.135   2.321  1.00 20.00     0.091 C 
HETATM    4  O8  UNL     1     -35.951   4.895   4.287  1.00 20.00    -0.298 OA
ENDBRANCH   1   2
BRANCH   1   5
HETATM    5  C4  UNL     1     -34.237   6.005   6.105  1.00 20.00     0.008 C 
HETATM    6  C3  UNL     1     -33.599   7.197   6.804  1.00 20.00     0.006 C 
ENDBRANCH   1   5
BRANCH   1   7
HETATM    7  C5  UNL     1     -33.291   7.184   4.081  1.00 20.00     0.129 C 
BRANCH   7   8
HETATM    8  C7  UNL     1     -31.961   7.111   3.356  1.00 20.00     0.388 C 
HETATM    9  F9  UNL     1     -31.001   7.815   3.990  1.00 20.00    -0.171 F 
HETATM   10  F10 UNL     1     -32.061   7.581   2.095  1.00 20.00    -0.171 F 
HETATM   11  F11 UNL     1     -31.540   5.828   3.280  1.00 20.00    -0.171 F 
ENDBRANCH   7   8
ENDBRANCH   1   7
TORSDOF 4
ENDMDL
MODEL 4
REMARK VINA RESULT:      -4.4     11.329     12.334
REMARK  4 active torsions:
REMARK  status: ('A' for Active; 'I' for Inactive)
REMARK    1  A    between atoms: C1_1  and  C6_6 
REMARK    2  A    between atoms: C4_4  and  C6_6 
REMARK    3  A    between atoms: C5_5  and  C6_6 
REMARK    4  A    between atoms: C5_5  and  C7_7 
ROOT
HETATM    1  C6  UNL     1     -35.060  14.993  -3.002  1.00 20.00     0.063 C 
ENDROOT
BRANCH   1   2
HETATM    2  C1  UNL     1     -34.418  13.770  -3.651  1.00 20.00     0.127 C 
HETATM    3  C2  UNL     1     -32.914  13.697  -3.624  1.00 20.00     0.091 C 
HETATM    4  O8  UNL     1     -35.089  12.878  -4.173  1.00 20.00    -0.298 OA
ENDBRANCH   1   2
BRANCH   1   5
HETATM    5  C4  UNL     1     -36.160  15.553  -3.921  1.00 20.00     0.008 C 
HETATM    6  C3  UNL     1     -35.620  16.509  -4.975  1.00 20.00     0.006 C 
ENDBRANCH   1   5
BRANCH   1   7
HETATM    7  C5  UNL     1     -33.995  16.069  -2.725  1.00 20.00     0.129 C 
BRANCH   7   8
HETATM    8  C7  UNL     1     -34.268  16.882  -1.473  1.00 20.00     0.388 C 
HETATM    9  F9  UNL     1     -34.837  16.138  -0.503  1.00 20.00    -0.171 F 
HETATM   10  F10 UNL     1     -35.085  17.925  -1.733  1.00 20.00    -0.171 F 
HETATM   11  F11 UNL     1     -33.114  17.382  -0.978  1.00 20.00    -0.171 F 
ENDBRANCH   7   8
ENDBRANCH   1   7
TORSDOF 4
ENDMDL
MODEL 5
REMARK VINA RESULT:      -4.4     11.644     12.215
REMARK  4 active torsions:
REMARK  status: ('A' for Active; 'I' for Inactive)
REMARK    1  A    between atoms: C1_1  and  C6_6 
REMARK    2  A    between atoms: C4_4  and  C6_6 
REMARK    3  A    between atoms: C5_5  and  C6_6 
REMARK    4  A    between atoms: C5_5  and  C7_7 
ROOT
HETATM    1  C6  UNL     1     -34.533  15.901  -2.462  1.00 20.00     0.063 C 
ENDROOT
BRANCH   1   2
HETATM    2  C1  UNL     1     -35.663  16.566  -3.244  1.00 20.00     0.127 C 
HETATM    3  C2  UNL     1     -36.903  15.743  -3.477  1.00 20.00     0.091 C 
HETATM    4  O8  UNL     1     -35.576  17.719  -3.667  1.00 20.00    -0.298 OA
ENDBRANCH   1   2
BRANCH   1   5
HETATM    5  C4  UNL     1     -33.947  16.897  -1.446  1.00 20.00     0.008 C 
HETATM    6  C3  UNL     1     -34.803  17.037  -0.195  1.00 20.00     0.006 C 
ENDBRANCH   1   5
BRANCH   1   7
HETATM    7  C5  UNL     1     -33.436  15.410  -3.424  1.00 20.00     0.129 C 
BRANCH   7   8
HETATM    8  C7  UNL     1     -33.612  13.966  -3.855  1.00 20.00     0.388 C 
HETATM    9  F9  UNL     1     -32.499  13.236  -3.639  1.00 20.00    -0.171 F 
HETATM   10  F10 UNL     1     -33.921  13.880  -5.166  1.00 20.00    -0.171 F 
HETATM   11  F11 UNL     1     -34.618  13.389  -3.160  1.00 20.00    -0.171 F 
ENDBRANCH   7   8
ENDBRANCH   1   7
TORSDOF 4
ENDMDL
MODEL 6
REMARK VINA RESULT:      -4.3     11.826     12.966
REMARK  4 active torsions:
REMARK  status: ('A' for Active; 'I' for Inactive)
REMARK    1  A    between atoms: C1_1  and  C6_6 
REMARK    2  A    between atoms: C4_4  and  C6_6 
REMARK    3  A    between atoms: C5_5  and  C6_6 
REMARK    4  A    between atoms: C5_5  and  C7_7 
ROOT
HETATM    1  C6  UNL     1     -33.895  16.559  -3.277  1.00 20.00     0.063 C 
ENDROOT
BRANCH   1   2
HETATM    2  C1  UNL     1     -33.754  17.789  -4.170  1.00 20.00     0.127 C 
HETATM    3  C2  UNL     1     -33.660  17.544  -5.653  1.00 20.00     0.091 C 
HETATM    4  O8  UNL     1     -33.721  18.930  -3.709  1.00 20.00    -0.298 OA
ENDBRANCH   1   2
BRANCH   1   5
HETATM    5  C4  UNL     1     -33.617  16.942  -1.813  1.00 20.00     0.008 C 
HETATM    6  C3  UNL     1     -34.749  16.551  -0.874  1.00 20.00     0.006 C 
ENDBRANCH   1   5
BRANCH   1   7
HETATM    7  C5  UNL     1     -32.926  15.454  -3.735  1.00 20.00     0.129 C 
BRANCH   7   8
HETATM    8  C7  UNL     1     -33.585  14.097  -3.889  1.00 20.00     0.388 C 
HETATM    9  F9  UNL     1     -34.658  13.962  -3.083  1.00 20.00    -0.171 F 
HETATM   10  F10 UNL     1     -32.722  13.097  -3.607  1.00 20.00    -0.171 F 
HETATM   11  F11 UNL     1     -34.008  13.923  -5.161  1.00 20.00    -0.171 F 
ENDBRANCH   7   8
ENDBRANCH   1   7
TORSDOF 4
ENDMDL
MODEL 7
REMARK VINA RESULT:      -4.3     11.865     12.836
REMARK  4 active torsions:
REMARK  status: ('A' for Active; 'I' for Inactive)
REMARK    1  A    between atoms: C1_1  and  C6_6 
REMARK    2  A    between atoms: C4_4  and  C6_6 
REMARK    3  A    between atoms: C5_5  and  C6_6 
REMARK    4  A    between atoms: C5_5  and  C7_7 
ROOT
HETATM    1  C6  UNL     1     -33.628  15.491  -3.263  1.00 20.00     0.063 C 
ENDROOT
BRANCH   1   2
HETATM    2  C1  UNL     1     -33.761  16.371  -4.503  1.00 20.00     0.127 C 
HETATM    3  C2  UNL     1     -35.116  16.974  -4.767  1.00 20.00     0.091 C 
HETATM    4  O8  UNL     1     -32.811  16.586  -5.257  1.00 20.00    -0.298 OA
ENDBRANCH   1   2
BRANCH   1   5
HETATM    5  C4  UNL     1     -33.580  14.010  -3.677  1.00 20.00     0.008 C 
HETATM    6  C3  UNL     1     -34.949  13.454  -4.042  1.00 20.00     0.006 C 
ENDBRANCH   1   5
BRANCH   1   7
HETATM    7  C5  UNL     1     -34.805  15.741  -2.304  1.00 20.00     0.129 C 
BRANCH   7   8
HETATM    8  C7  UNL     1     -34.517  16.797  -1.254  1.00 20.00     0.388 C 
HETATM    9  F9  UNL     1     -33.210  17.126  -1.214  1.00 20.00    -0.171 F 
HETATM   10  F10 UNL     1     -34.880  16.378  -0.023  1.00 20.00    -0.171 F 
HETATM   11  F11 UNL     1     -35.212  17.926  -1.521  1.00 20.00    -0.171 F 
ENDBRANCH   7   8
ENDBRANCH   1   7
TORSDOF 4
ENDMDL
MODEL 8
REMARK VINA RESULT:      -4.3     11.615     12.594
REMARK  4 active torsions:
REMARK  status: ('A' for Active; 'I' for Inactive)
REMARK    1  A    between atoms: C1_1  and  C6_6 
REMARK    2  A    between atoms: C4_4  and  C6_6 
REMARK    3  A    between atoms: C5_5  and  C6_6 
REMARK    4  A    between atoms: C5_5  and  C7_7 
ROOT
HETATM    1  C6  UNL     1     -35.375  15.708  -3.704  1.00 20.00     0.063 C 
ENDROOT
BRANCH   1   2
HETATM    2  C1  UNL     1     -36.011  14.343  -3.954  1.00 20.00     0.127 C 
HETATM    3  C2  UNL     1     -35.090  13.235  -4.395  1.00 20.00     0.091 C 
HETATM    4  O8  UNL     1     -37.217  14.146  -3.803  1.00 20.00    -0.298 OA
ENDBRANCH   1   2
BRANCH   1   5
HETATM    5  C4  UNL     1     -34.750  16.237  -5.007  1.00 20.00     0.008 C 
HETATM    6  C3  UNL     1     -33.240  16.406  -4.912  1.00 20.00     0.006 C 
ENDBRANCH   1   5
BRANCH   1   7
HETATM    7  C5  UNL     1     -34.307  15.604  -2.602  1.00 20.00     0.129 C 
BRANCH   7   8
HETATM    8  C7  UNL     1     -34.411  16.697  -1.554  1.00 20.00     0.388 C 
HETATM    9  F9  UNL     1     -33.228  17.310  -1.345  1.00 20.00    -0.171 F 
HETATM   10  F10 UNL     1     -34.842  16.205  -0.373  1.00 20.00    -0.171 F 
HETATM   11  F11 UNL     1     -35.294  17.641  -1.949  1.00 20.00    -0.171 F 
ENDBRANCH   7   8
ENDBRANCH   1   7
TORSDOF 4
ENDMDL
MODEL 9
REMARK VINA RESULT:      -4.3     11.786     12.790
REMARK  4 active torsions:
REMARK  status: ('A' for Active; 'I' for Inactive)
REMARK    1  A    between atoms: C1_1  and  C6_6 
REMARK    2  A    between atoms: C4_4  and  C6_6 
REMARK    3  A    between atoms: C5_5  and  C6_6 
REMARK    4  A    between atoms: C5_5  and  C7_7 
ROOT
HETATM    1  C6  UNL     1     -35.232  15.027  -4.829  1.00 20.00     0.063 C 
ENDROOT
BRANCH   1   2
HETATM    2  C1  UNL     1     -36.516  15.039  -4.004  1.00 20.00     0.127 C 
HETATM    3  C2  UNL     1     -36.874  16.335  -3.324  1.00 20.00     0.091 C 
HETATM    4  O8  UNL     1     -37.233  14.044  -3.895  1.00 20.00    -0.298 OA
ENDBRANCH   1   2
BRANCH   1   5
HETATM    5  C4  UNL     1     -35.495  14.361  -6.192  1.00 20.00     0.008 C 
HETATM    6  C3  UNL     1     -34.594  14.896  -7.295  1.00 20.00     0.006 C 
ENDBRANCH   1   5
BRANCH   1   7
HETATM    7  C5  UNL     1     -34.120  14.279  -4.074  1.00 20.00     0.129 C 
BRANCH   7   8
HETATM    8  C7  UNL     1     -32.971  15.173  -3.648  1.00 20.00     0.388 C 
HETATM    9  F9  UNL     1     -31.850  14.468  -3.394  1.00 20.00    -0.171 F 
HETATM   10  F10 UNL     1     -33.282  15.878  -2.540  1.00 20.00    -0.171 F 
HETATM   11  F11 UNL     1     -32.680  16.060  -4.627  1.00 20.00    -0.171 F 
ENDBRANCH   7   8
ENDBRANCH   1   7
TORSDOF 4
ENDMDL
