MODEL 1
REMARK VINA RESULT:      -4.7      0.000      0.000
REMARK  4 active torsions:
REMARK  status: ('A' for Active; 'I' for Inactive)
REMARK    1  A    between atoms: C4_4  and  C6_6 
REMARK    2  A    between atoms: C6_6  and  C8_8 
REMARK    3  A    between atoms: C7_7  and  C8_8 
REMARK    4  A    between atoms: C8_8  and  O10_10 
ROOT
HETATM    1  C6  UNL     1     -32.868   6.284   3.140  1.00 20.00     0.038 C 
ENDROOT
BRANCH   1   2
HETATM    2  C4  UNL     1     -34.012   6.146   4.124  1.00 20.00     0.014 C 
HETATM    3  C1  UNL     1     -34.534   4.734   4.278  1.00 20.00     0.033 C 
HETATM    4  C2  UNL     1     -35.263   4.818   5.603  1.00 20.00     0.168 C 
HETATM    5  O9  UNL     1     -34.568   5.791   6.398  1.00 20.00    -0.391 OA
HETATM    6  C3  UNL     1     -33.632   6.483   5.556  1.00 20.00     0.172 C 
ENDBRANCH   1   2
BRANCH   1   7
HETATM    7  C8  UNL     1     -32.300   7.707   3.100  1.00 20.00     0.118 C 
BRANCH   7   8
HETATM    8  C7  UNL     1     -32.015   8.137   1.657  1.00 20.00     0.027 C 
HETATM    9  C5  UNL     1     -32.366   9.596   1.395  1.00 20.00     0.007 C 
ENDBRANCH   7   8
BRANCH   7  10
HETATM   10  O10 UNL     1     -31.094   7.733   3.860  1.00 20.00    -0.396 OA
HETATM   11  H26 UNL     1     -31.178   8.467   4.487  1.00 20.00     0.210 HD
ENDBRANCH   7  10
ENDBRANCH   1   7
TORSDOF 4
ENDMDL
MODEL 2
REMARK VINA RESULT:      -4.5      1.143      1.516
REMARK  4 active torsions:
REMARK  status: ('A' for Active; 'I' for Inactive)
REMARK    1  A    between atoms: C4_4  and  C6_6 
REMARK    2  A    between atoms: C6_6  and  C8_8 
REMARK    3  A    between atoms: C7_7  and  C8_8 
REMARK    4  A    between atoms: C8_8  and  O10_10 
ROOT
HETATM    1  C6  UNL     1     -33.562   7.214   3.686  1.00 20.00     0.038 C 
ENDROOT
BRANCH   1   2
HETATM    2  C4  UNL     1     -33.852   5.917   4.416  1.00 20.00     0.014 C 
HETATM    3  C1  UNL     1     -34.194   6.091   5.880  1.00 20.00     0.033 C 
HETATM    4  C2  UNL     1     -34.886   4.780   6.191  1.00 20.00     0.168 C 
HETATM    5  O9  UNL     1     -35.542   4.360   4.985  1.00 20.00    -0.391 OA
HETATM    6  C3  UNL     1     -35.082   5.188   3.905  1.00 20.00     0.172 C 
ENDBRANCH   1   2
BRANCH   1   7
HETATM    7  C8  UNL     1     -32.123   7.282   3.166  1.00 20.00     0.118 C 
BRANCH   7   8
HETATM    8  C7  UNL     1     -32.070   7.986   1.805  1.00 20.00     0.027 C 
HETATM    9  C5  UNL     1     -32.494   9.447   1.879  1.00 20.00     0.007 C 
ENDBRANCH   7   8
BRANCH   7  10
HETATM   10  O10 UNL     1     -31.624   5.952   3.042  1.00 20.00    -0.396 OA
HETATM   11  H26 UNL     1     -30.657   6.015   3.085  1.00 20.00     0.210 HD
ENDBRANCH   7  10
ENDBRANCH   1   7
TORSDOF 4
ENDMDL
MODEL 3
REMARK VINA RESULT:      -4.3     10.973     12.200
REMARK  4 active torsions:
REMARK  status: ('A' for Active; 'I' for Inactive)
REMARK    1  A    between atoms: C4_4  and  C6_6 
REMARK    2  A    between atoms: C6_6  and  C8_8 
REMARK    3  A    between atoms: C7_7  and  C8_8 
REMARK    4  A    between atoms: C8_8  and  O10_10 
ROOT
HETATM    1  C6  UNL     1     -33.752  14.290  -3.790  1.00 20.00     0.038 C 
ENDROOT
BRANCH   1   2
HETATM    2  C4  UNL     1     -34.415  15.625  -3.514  1.00 20.00     0.014 C 
HETATM    3  C1  UNL     1     -34.710  15.882  -2.052  1.00 20.00     0.033 C 
HETATM    4  C2  UNL     1     -34.881  17.387  -2.034  1.00 20.00     0.168 C 
HETATM    5  O9  UNL     1     -34.025  17.915  -3.059  1.00 20.00    -0.391 OA
HETATM    6  C3  UNL     1     -33.549  16.823  -3.861  1.00 20.00     0.172 C 
ENDBRANCH   1   2
BRANCH   1   7
HETATM    7  C8  UNL     1     -34.510  13.465  -4.836  1.00 20.00     0.118 C 
BRANCH   7   8
HETATM    8  C7  UNL     1     -35.348  14.376  -5.739  1.00 20.00     0.027 C 
HETATM    9  C5  UNL     1     -34.661  14.689  -7.062  1.00 20.00     0.007 C 
ENDBRANCH   7   8
BRANCH   7  10
HETATM   10  O10 UNL     1     -35.360  12.545  -4.155  1.00 20.00    -0.396 OA
HETATM   11  H26 UNL     1     -35.642  11.891  -4.813  1.00 20.00     0.210 HD
ENDBRANCH   7  10
ENDBRANCH   1   7
TORSDOF 4
ENDMDL
MODEL 4
REMARK VINA RESULT:      -4.3     10.583     11.822
REMARK  4 active torsions:
REMARK  status: ('A' for Active; 'I' for Inactive)
REMARK    1  A    between atoms: C4_4  and  C6_6 
REMARK    2  A    between atoms: C6_6  and  C8_8 
REMARK    3  A    between atoms: C7_7  and  C8_8 
REMARK    4  A    between atoms: C8_8  and  O10_10 
ROOT
HETATM    1  C6  UNL     1     -33.758  15.977  -3.074  1.00 20.00     0.038 C 
ENDROOT
BRANCH   1   2
HETATM    2  C4  UNL     1     -34.579  14.956  -3.837  1.00 20.00     0.014 C 
HETATM    3  C1  UNL     1     -34.461  15.063  -5.342  1.00 20.00     0.033 C 
HETATM    4  C2  UNL     1     -34.941  13.697  -5.786  1.00 20.00     0.168 C 
HETATM    5  O9  UNL     1     -34.576  12.772  -4.750  1.00 20.00    -0.391 OA
HETATM    6  C3  UNL     1     -34.142  13.521  -3.603  1.00 20.00     0.172 C 
ENDBRANCH   1   2
BRANCH   1   7
HETATM    7  C8  UNL     1     -34.629  16.905  -2.220  1.00 20.00     0.118 C 
BRANCH   7   8
HETATM    8  C7  UNL     1     -33.947  17.208  -0.881  1.00 20.00     0.027 C 
HETATM    9  C5  UNL     1     -34.934  17.322   0.273  1.00 20.00     0.007 C 
ENDBRANCH   7   8
BRANCH   7  10
HETATM   10  O10 UNL     1     -35.882  16.265  -1.991  1.00 20.00    -0.396 OA
HETATM   11  H26 UNL     1     -35.704  15.313  -1.962  1.00 20.00     0.210 HD
ENDBRANCH   7  10
ENDBRANCH   1   7
TORSDOF 4
ENDMDL
MODEL 5
REMARK VINA RESULT:      -4.1     11.513     12.172
REMARK  4 active torsions:
REMARK  status: ('A' for Active; 'I' for Inactive)
REMARK    1  A    between atoms: C4_4  and  C6_6 
REMARK    2  A    between atoms: C6_6  and  C8_8 
REMARK    3  A    between atoms: C7_7  and  C8_8 
REMARK    4  A    between atoms: C8_8  and  O10_10 
ROOT
HETATM    1  C6  UNL     1     -34.041  15.168  -3.098  1.00 20.00     0.038 C 
ENDROOT
BRANCH   1   2
HETATM    2  C4  UNL     1     -35.031  16.021  -2.330  1.00 20.00     0.014 C 
HETATM    3  C1  UNL     1     -34.481  16.612  -1.050  1.00 20.00     0.033 C 
HETATM    4  C2  UNL     1     -35.453  17.745  -0.792  1.00 20.00     0.168 C 
HETATM    5  O9  UNL     1     -35.901  18.208  -2.074  1.00 20.00    -0.391 OA
HETATM    6  C3  UNL     1     -35.468  17.271  -3.074  1.00 20.00     0.172 C 
ENDBRANCH   1   2
BRANCH   1   7
HETATM    7  C8  UNL     1     -33.881  15.625  -4.552  1.00 20.00     0.118 C 
BRANCH   7   8
HETATM    8  C7  UNL     1     -34.424  14.564  -5.516  1.00 20.00     0.027 C 
HETATM    9  C5  UNL     1     -34.711  13.234  -4.831  1.00 20.00     0.007 C 
ENDBRANCH   7   8
BRANCH   7  10
HETATM   10  O10 UNL     1     -32.496  15.847  -4.806  1.00 20.00    -0.396 OA
HETATM   11  H26 UNL     1     -32.390  16.801  -4.938  1.00 20.00     0.210 HD
ENDBRANCH   7  10
ENDBRANCH   1   7
TORSDOF 4
ENDMDL
MODEL 6
REMARK VINA RESULT:      -4.1     11.519     13.237
REMARK  4 active torsions:
REMARK  status: ('A' for Active; 'I' for Inactive)
REMARK    1  A    between atoms: C4_4  and  C6_6 
REMARK    2  A    between atoms: C6_6  and  C8_8 
REMARK    3  A    between atoms: C7_7  and  C8_8 
REMARK    4  A    between atoms: C8_8  and  O10_10 
ROOT
HETATM    1  C6  UNL     1     -33.290  16.604  -5.192  1.00 20.00     0.038 C 
ENDROOT
BRANCH   1   2
HETATM    2  C4  UNL     1     -34.296  16.227  -6.262  1.00 20.00     0.014 C 
HETATM    3  C1  UNL     1     -34.463  14.737  -6.462  1.00 20.00     0.033 C 
HETATM    4  C2  UNL     1     -35.800  14.669  -7.168  1.00 20.00     0.168 C 
HETATM    5  O9  UNL     1     -36.580  15.775  -6.688  1.00 20.00    -0.391 OA
HETATM    6  C3  UNL     1     -35.719  16.647  -5.939  1.00 20.00     0.172 C 
ENDBRANCH   1   2
BRANCH   1   7
HETATM    7  C8  UNL     1     -33.190  15.547  -4.087  1.00 20.00     0.118 C 
BRANCH   7   8
HETATM    8  C7  UNL     1     -33.566  16.146  -2.728  1.00 20.00     0.027 C 
HETATM    9  C5  UNL     1     -34.994  15.819  -2.312  1.00 20.00     0.007 C 
ENDBRANCH   7   8
BRANCH   7  10
HETATM   10  O10 UNL     1     -31.850  15.060  -4.048  1.00 20.00    -0.396 OA
HETATM   11  H26 UNL     1     -31.605  15.003  -3.111  1.00 20.00     0.210 HD
ENDBRANCH   7  10
ENDBRANCH   1   7
TORSDOF 4
ENDMDL
MODEL 7
REMARK VINA RESULT:      -4.1     11.196     12.665
REMARK  4 active torsions:
REMARK  status: ('A' for Active; 'I' for Inactive)
REMARK    1  A    between atoms: C4_4  and  C6_6 
REMARK    2  A    between atoms: C6_6  and  C8_8 
REMARK    3  A    between atoms: C7_7  and  C8_8 
REMARK    4  A    between atoms: C8_8  and  O10_10 
ROOT
HETATM    1  C6  UNL     1     -34.280  14.790  -3.158  1.00 20.00     0.038 C 
ENDROOT
BRANCH   1   2
HETATM    2  C4  UNL     1     -33.860  14.925  -4.609  1.00 20.00     0.014 C 
HETATM    3  C1  UNL     1     -34.826  14.307  -5.596  1.00 20.00     0.033 C 
HETATM    4  C2  UNL     1     -34.436  15.000  -6.884  1.00 20.00     0.168 C 
HETATM    5  O9  UNL     1     -33.969  16.310  -6.526  1.00 20.00    -0.391 OA
HETATM    6  C3  UNL     1     -33.810  16.362  -5.099  1.00 20.00     0.172 C 
ENDBRANCH   1   2
BRANCH   1   7
HETATM    7  C8  UNL     1     -35.141  15.966  -2.686  1.00 20.00     0.118 C 
BRANCH   7   8
HETATM    8  C7  UNL     1     -34.739  16.399  -1.272  1.00 20.00     0.027 C 
HETATM    9  C5  UNL     1     -33.631  17.444  -1.267  1.00 20.00     0.007 C 
ENDBRANCH   7   8
BRANCH   7  10
HETATM   10  O10 UNL     1     -36.507  15.559  -2.698  1.00 20.00    -0.396 OA
HETATM   11  H26 UNL     1     -37.013  16.302  -3.062  1.00 20.00     0.210 HD
ENDBRANCH   7  10
ENDBRANCH   1   7
TORSDOF 4
ENDMDL
MODEL 8
REMARK VINA RESULT:      -3.9     10.694     12.031
REMARK  4 active torsions:
REMARK  status: ('A' for Active; 'I' for Inactive)
REMARK    1  A    between atoms: C4_4  and  C6_6 
REMARK    2  A    between atoms: C6_6  and  C8_8 
REMARK    3  A    between atoms: C7_7  and  C8_8 
REMARK    4  A    between atoms: C8_8  and  O10_10 
ROOT
HETATM    1  C6  UNL     1     -33.722  16.246  -2.731  1.00 20.00     0.038 C 
ENDROOT
BRANCH   1   2
HETATM    2  C4  UNL     1     -33.573  15.134  -3.750  1.00 20.00     0.014 C 
HETATM    3  C1  UNL     1     -34.457  13.932  -3.494  1.00 20.00     0.033 C 
HETATM    4  C2  UNL     1     -34.468  13.264  -4.853  1.00 20.00     0.168 C 
HETATM    5  O9  UNL     1     -34.345  14.308  -5.831  1.00 20.00    -0.391 OA
HETATM    6  C3  UNL     1     -34.001  15.528  -5.153  1.00 20.00     0.172 C 
ENDBRANCH   1   2
BRANCH   1   7
HETATM    7  C8  UNL     1     -35.055  16.173  -1.978  1.00 20.00     0.118 C 
BRANCH   7   8
HETATM    8  C7  UNL     1     -36.032  17.229  -2.505  1.00 20.00     0.027 C 
HETATM    9  C5  UNL     1     -37.095  16.643  -3.426  1.00 20.00     0.007 C 
ENDBRANCH   7   8
BRANCH   7  10
HETATM   10  O10 UNL     1     -34.804  16.394  -0.593  1.00 20.00    -0.396 OA
HETATM   11  H26 UNL     1     -34.409  15.578  -0.250  1.00 20.00     0.210 HD
ENDBRANCH   7  10
ENDBRANCH   1   7
TORSDOF 4
ENDMDL
MODEL 9
REMARK VINA RESULT:      -3.9     10.737     12.123
REMARK  4 active torsions:
REMARK  status: ('A' for Active; 'I' for Inactive)
REMARK    1  A    between atoms: C4_4  and  C6_6 
REMARK    2  A    between atoms: C6_6  and  C8_8 
REMARK    3  A    between atoms: C7_7  and  C8_8 
REMARK    4  A    between atoms: C8_8  and  O10_10 
ROOT
HETATM    1  C6  UNL     1     -36.223  15.596  -3.314  1.00 20.00     0.038 C 
ENDROOT
BRANCH   1   2
HETATM    2  C4  UNL     1     -34.832  15.071  -3.018  1.00 20.00     0.014 C 
HETATM    3  C1  UNL     1     -34.511  13.750  -3.682  1.00 20.00     0.033 C 
HETATM    4  C2  UNL     1     -32.997  13.739  -3.630  1.00 20.00     0.168 C 
HETATM    5  O9  UNL     1     -32.569  15.107  -3.714  1.00 20.00    -0.391 OA
HETATM    6  C3  UNL     1     -33.718  15.954  -3.554  1.00 20.00     0.172 C 
ENDBRANCH   1   2
BRANCH   1   7
HETATM    7  C8  UNL     1     -37.008  14.672  -4.252  1.00 20.00     0.118 C 
BRANCH   7   8
HETATM    8  C7  UNL     1     -37.357  15.396  -5.557  1.00 20.00     0.027 C 
HETATM    9  C5  UNL     1     -36.238  15.327  -6.588  1.00 20.00     0.007 C 
ENDBRANCH   7   8
BRANCH   7  10
HETATM   10  O10 UNL     1     -38.203  14.266  -3.590  1.00 20.00    -0.396 OA
HETATM   11  H26 UNL     1     -37.962  13.521  -3.019  1.00 20.00     0.210 HD
ENDBRANCH   7  10
ENDBRANCH   1   7
TORSDOF 4
ENDMDL
