MODEL 1
REMARK VINA RESULT:      -3.9      0.000      0.000
REMARK  2 active torsions:
REMARK  status: ('A' for Active; 'I' for Inactive)
REMARK    1  A    between atoms: C4_4  and  C5_5 
REMARK    2  A    between atoms: C5_5  and  C6_6 
ROOT
HETATM    1  C1  UNL     1     -33.392   6.395   5.068  1.00 20.00     0.038 A 
HETATM    2  C2  UNL     1     -34.829   5.008   3.879  1.00 20.00     0.074 A 
HETATM    3  C3  UNL     1     -34.468   5.461   5.128  1.00 20.00     0.041 A 
HETATM    4  C4  UNL     1     -32.974   6.620   3.775  1.00 20.00    -0.015 A 
HETATM    5  S7  UNL     1     -33.876   5.707   2.640  1.00 20.00    -0.105 SA
HETATM    6 CL8  UNL     1     -35.199   4.982   6.596  1.00 20.00    -0.084 Cl
ENDROOT
BRANCH   4   7
HETATM    7  C5  UNL     1     -31.895   7.511   3.297  1.00 20.00     0.061 C 
BRANCH   7   8
HETATM    8  C6  UNL     1     -32.055   7.991   1.847  1.00 20.00     0.119 C 
HETATM    9 CL9  UNL     1     -32.533   9.705   1.772  1.00 20.00    -0.130 Cl
ENDBRANCH   7   8
ENDBRANCH   4   7
TORSDOF 2
ENDMDL
MODEL 2
REMARK VINA RESULT:      -3.7     11.316     12.371
REMARK  2 active torsions:
REMARK  status: ('A' for Active; 'I' for Inactive)
REMARK    1  A    between atoms: C4_4  and  C5_5 
REMARK    2  A    between atoms: C5_5  and  C6_6 
ROOT
HETATM    1  C1  UNL     1     -34.187  15.757  -5.265  1.00 20.00     0.038 A 
HETATM    2  C2  UNL     1     -34.725  13.498  -5.368  1.00 20.00     0.074 A 
HETATM    3  C3  UNL     1     -34.567  14.660  -6.092  1.00 20.00     0.041 A 
HETATM    4  C4  UNL     1     -34.067  15.392  -3.942  1.00 20.00    -0.015 A 
HETATM    5  S7  UNL     1     -34.414  13.732  -3.701  1.00 20.00    -0.105 SA
HETATM    6 CL8  UNL     1     -34.794  14.804  -7.779  1.00 20.00    -0.084 Cl
ENDROOT
BRANCH   4   7
HETATM    7  C5  UNL     1     -33.695  16.232  -2.784  1.00 20.00     0.061 C 
BRANCH   7   8
HETATM    8  C6  UNL     1     -34.717  16.231  -1.637  1.00 20.00     0.119 C 
HETATM    9 CL9  UNL     1     -34.217  17.312  -0.313  1.00 20.00    -0.130 Cl
ENDBRANCH   7   8
ENDBRANCH   4   7
TORSDOF 2
ENDMDL
MODEL 3
REMARK VINA RESULT:      -3.7     11.480     12.090
REMARK  2 active torsions:
REMARK  status: ('A' for Active; 'I' for Inactive)
REMARK    1  A    between atoms: C4_4  and  C5_5 
REMARK    2  A    between atoms: C5_5  and  C6_6 
ROOT
HETATM    1  C1  UNL     1     -34.187  15.020  -3.054  1.00 20.00     0.038 A 
HETATM    2  C2  UNL     1     -34.005  15.700  -5.269  1.00 20.00     0.074 A 
HETATM    3  C3  UNL     1     -34.261  14.642  -4.427  1.00 20.00     0.041 A 
HETATM    4  C4  UNL     1     -33.878  16.354  -2.902  1.00 20.00    -0.015 A 
HETATM    5  S7  UNL     1     -33.678  17.144  -4.408  1.00 20.00    -0.105 SA
HETATM    6 CL8  UNL     1     -34.626  13.051  -4.932  1.00 20.00    -0.084 Cl
ENDROOT
BRANCH   4   7
HETATM    7  C5  UNL     1     -33.711  17.124  -1.650  1.00 20.00     0.061 C 
BRANCH   7   8
HETATM    8  C6  UNL     1     -34.721  16.776  -0.546  1.00 20.00     0.119 C 
HETATM    9 CL9  UNL     1     -34.536  17.842   0.870  1.00 20.00    -0.130 Cl
ENDBRANCH   7   8
ENDBRANCH   4   7
TORSDOF 2
ENDMDL
MODEL 4
REMARK VINA RESULT:      -3.6     11.390     12.330
REMARK  2 active torsions:
REMARK  status: ('A' for Active; 'I' for Inactive)
REMARK    1  A    between atoms: C4_4  and  C5_5 
REMARK    2  A    between atoms: C5_5  and  C6_6 
ROOT
HETATM    1  C1  UNL     1     -34.663  15.023  -3.012  1.00 20.00     0.038 A 
HETATM    2  C2  UNL     1     -33.705  17.127  -3.251  1.00 20.00     0.074 A 
HETATM    3  C3  UNL     1     -34.309  16.250  -2.378  1.00 20.00     0.041 A 
HETATM    4  C4  UNL     1     -34.314  15.010  -4.344  1.00 20.00    -0.015 A 
HETATM    5  S7  UNL     1     -33.565  16.473  -4.827  1.00 20.00    -0.105 SA
HETATM    6 CL8  UNL     1     -34.615  16.563  -0.726  1.00 20.00    -0.084 Cl
ENDROOT
BRANCH   4   7
HETATM    7  C5  UNL     1     -34.510  13.932  -5.337  1.00 20.00     0.061 C 
BRANCH   7   8
HETATM    8  C6  UNL     1     -35.237  14.365  -6.619  1.00 20.00     0.119 C 
HETATM    9 CL9  UNL     1     -36.797  15.145  -6.256  1.00 20.00    -0.130 Cl
ENDBRANCH   7   8
ENDBRANCH   4   7
TORSDOF 2
ENDMDL
MODEL 5
REMARK VINA RESULT:      -3.6     11.273     12.037
REMARK  2 active torsions:
REMARK  status: ('A' for Active; 'I' for Inactive)
REMARK    1  A    between atoms: C4_4  and  C5_5 
REMARK    2  A    between atoms: C5_5  and  C6_6 
ROOT
HETATM    1  C1  UNL     1     -34.773  15.968  -1.952  1.00 20.00     0.038 A 
HETATM    2  C2  UNL     1     -33.876  17.803  -3.061  1.00 20.00     0.074 A 
HETATM    3  C3  UNL     1     -34.094  17.216  -1.835  1.00 20.00     0.041 A 
HETATM    4  C4  UNL     1     -35.046  15.650  -3.265  1.00 20.00    -0.015 A 
HETATM    5  S7  UNL     1     -34.486  16.852  -4.348  1.00 20.00    -0.105 SA
HETATM    6 CL8  UNL     1     -33.623  17.877  -0.332  1.00 20.00    -0.084 Cl
ENDROOT
BRANCH   4   7
HETATM    7  C5  UNL     1     -35.731  14.452  -3.799  1.00 20.00     0.061 C 
BRANCH   7   8
HETATM    8  C6  UNL     1     -34.809  13.452  -4.513  1.00 20.00     0.119 C 
HETATM    9 CL9  UNL     1     -33.189  13.410  -3.773  1.00 20.00    -0.130 Cl
ENDBRANCH   7   8
ENDBRANCH   4   7
TORSDOF 2
ENDMDL
MODEL 6
REMARK VINA RESULT:      -3.6     11.262     12.032
REMARK  2 active torsions:
REMARK  status: ('A' for Active; 'I' for Inactive)
REMARK    1  A    between atoms: C4_4  and  C5_5 
REMARK    2  A    between atoms: C5_5  and  C6_6 
ROOT
HETATM    1  C1  UNL     1     -34.386  16.167  -1.744  1.00 20.00     0.038 A 
HETATM    2  C2  UNL     1     -34.377  18.490  -1.662  1.00 20.00     0.074 A 
HETATM    3  C3  UNL     1     -34.614  17.333  -0.955  1.00 20.00     0.041 A 
HETATM    4  C4  UNL     1     -33.983  16.480  -3.023  1.00 20.00    -0.015 A 
HETATM    5  S7  UNL     1     -33.881  18.171  -3.270  1.00 20.00    -0.105 SA
HETATM    6 CL8  UNL     1     -35.123  17.265   0.675  1.00 20.00    -0.084 Cl
ENDROOT
BRANCH   4   7
HETATM    7  C5  UNL     1     -33.652  15.562  -4.134  1.00 20.00     0.061 C 
BRANCH   7   8
HETATM    8  C6  UNL     1     -33.612  14.076  -3.748  1.00 20.00     0.119 C 
HETATM    9 CL9  UNL     1     -35.112  13.236  -4.214  1.00 20.00    -0.130 Cl
ENDBRANCH   7   8
ENDBRANCH   4   7
TORSDOF 2
ENDMDL
MODEL 7
REMARK VINA RESULT:      -3.5     10.907     12.612
REMARK  2 active torsions:
REMARK  status: ('A' for Active; 'I' for Inactive)
REMARK    1  A    between atoms: C4_4  and  C5_5 
REMARK    2  A    between atoms: C5_5  and  C6_6 
ROOT
HETATM    1  C1  UNL     1     -34.146  15.935  -4.732  1.00 20.00     0.038 A 
HETATM    2  C2  UNL     1     -34.454  14.057  -3.397  1.00 20.00     0.074 A 
HETATM    3  C3  UNL     1     -34.195  15.409  -3.407  1.00 20.00     0.041 A 
HETATM    4  C4  UNL     1     -34.371  14.963  -5.682  1.00 20.00    -0.015 A 
HETATM    5  S7  UNL     1     -34.639  13.425  -4.978  1.00 20.00    -0.105 SA
HETATM    6 CL8  UNL     1     -33.954  16.373  -2.018  1.00 20.00    -0.084 Cl
ENDROOT
BRANCH   4   7
HETATM    7  C5  UNL     1     -34.403  15.103  -7.154  1.00 20.00     0.061 C 
BRANCH   7   8
HETATM    8  C6  UNL     1     -35.617  14.453  -7.834  1.00 20.00     0.119 C 
HETATM    9 CL9  UNL     1     -37.149  15.112  -7.209  1.00 20.00    -0.130 Cl
ENDBRANCH   7   8
ENDBRANCH   4   7
TORSDOF 2
ENDMDL
MODEL 8
REMARK VINA RESULT:      -3.4     10.069     11.261
REMARK  2 active torsions:
REMARK  status: ('A' for Active; 'I' for Inactive)
REMARK    1  A    between atoms: C4_4  and  C5_5 
REMARK    2  A    between atoms: C5_5  and  C6_6 
ROOT
HETATM    1  C1  UNL     1     -41.308   4.275  -1.549  1.00 20.00     0.038 A 
HETATM    2  C2  UNL     1     -42.257   6.366  -1.906  1.00 20.00     0.074 A 
HETATM    3  C3  UNL     1     -41.336   5.650  -1.175  1.00 20.00     0.041 A 
HETATM    4  C4  UNL     1     -42.209   3.994  -2.552  1.00 20.00    -0.015 A 
HETATM    5  S7  UNL     1     -43.084   5.383  -3.039  1.00 20.00    -0.105 SA
HETATM    6 CL8  UNL     1     -40.330   6.301   0.043  1.00 20.00    -0.084 Cl
ENDROOT
BRANCH   4   7
HETATM    7  C5  UNL     1     -42.481   2.697  -3.209  1.00 20.00     0.061 C 
BRANCH   7   8
HETATM    8  C6  UNL     1     -41.238   1.991  -3.772  1.00 20.00     0.119 C 
HETATM    9 CL9  UNL     1     -41.511   0.242  -3.971  1.00 20.00    -0.130 Cl
ENDBRANCH   7   8
ENDBRANCH   4   7
TORSDOF 2
ENDMDL
MODEL 9
REMARK VINA RESULT:      -3.4      9.964     10.780
REMARK  2 active torsions:
REMARK  status: ('A' for Active; 'I' for Inactive)
REMARK    1  A    between atoms: C4_4  and  C5_5 
REMARK    2  A    between atoms: C5_5  and  C6_6 
ROOT
HETATM    1  C1  UNL     1     -42.302   5.326  -2.581  1.00 20.00     0.038 A 
HETATM    2  C2  UNL     1     -40.757   4.447  -1.083  1.00 20.00     0.074 A 
HETATM    3  C3  UNL     1     -41.555   4.181  -2.173  1.00 20.00     0.041 A 
HETATM    4  C4  UNL     1     -42.043   6.421  -1.787  1.00 20.00    -0.015 A 
HETATM    5  S7  UNL     1     -40.906   6.069  -0.555  1.00 20.00    -0.105 SA
HETATM    6 CL8  UNL     1     -41.664   2.672  -2.966  1.00 20.00    -0.084 Cl
ENDROOT
BRANCH   4   7
HETATM    7  C5  UNL     1     -42.612   7.783  -1.883  1.00 20.00     0.061 C 
BRANCH   7   8
HETATM    8  C6  UNL     1     -43.360   8.074  -3.192  1.00 20.00     0.119 C 
HETATM    9 CL9  UNL     1     -42.238   8.498  -4.509  1.00 20.00    -0.130 Cl
ENDBRANCH   7   8
ENDBRANCH   4   7
TORSDOF 2
ENDMDL
