MODEL 1
REMARK VINA RESULT:      -5.0      0.000      0.000
REMARK  3 active torsions:
REMARK  status: ('A' for Active; 'I' for Inactive)
REMARK    1  A    between atoms: C2_2  and  C10_10 
REMARK    2  A    between atoms: C3_3  and  C8_8 
REMARK    3  A    between atoms: C8_8  and  C10_10 
ROOT
HETATM    1  C4  UNL     1     -33.287  16.555  -5.470  1.00 20.00     0.001 C 
HETATM    2  C5  UNL     1     -34.168  15.699  -6.362  1.00 20.00     0.001 C 
HETATM    3  C6  UNL     1     -33.276  15.830  -4.126  1.00 20.00     0.021 C 
HETATM    4  C7  UNL     1     -35.279  15.259  -5.420  1.00 20.00     0.021 C 
HETATM    5  C8  UNL     1     -34.562  14.979  -4.089  1.00 20.00     0.055 C 
ENDROOT
BRANCH   5   6
HETATM    6  C3  UNL     1     -34.185  13.522  -4.010  1.00 20.00     0.182 C 
HETATM    7  O11 UNL     1     -33.001  13.291  -3.639  1.00 20.00    -0.647 OA
HETATM    8  O12 UNL     1     -35.106  12.718  -4.328  1.00 20.00    -0.647 OA
ENDBRANCH   5   6
BRANCH   5   9
HETATM    9  C10 UNL     1     -35.446  15.313  -2.890  1.00 20.00     0.022 C 
HETATM   10  C9  UNL     1     -34.657  16.090  -1.832  1.00 20.00     0.015 C 
BRANCH   9  11
HETATM   11  C2  UNL     1     -36.649  16.116  -3.326  1.00 20.00    -0.031 C 
HETATM   12  C1  UNL     1     -36.926  17.351  -2.889  1.00 20.00     0.007 C 
ENDBRANCH   9  11
ENDBRANCH   5   9
TORSDOF 3
ENDMDL
MODEL 2
REMARK VINA RESULT:      -4.9      0.838      3.283
REMARK  3 active torsions:
REMARK  status: ('A' for Active; 'I' for Inactive)
REMARK    1  A    between atoms: C2_2  and  C10_10 
REMARK    2  A    between atoms: C3_3  and  C8_8 
REMARK    3  A    between atoms: C8_8  and  C10_10 
ROOT
HETATM    1  C4  UNL     1     -35.986  16.168  -2.855  1.00 20.00     0.001 C 
HETATM    2  C5  UNL     1     -34.751  15.880  -2.020  1.00 20.00     0.001 C 
HETATM    3  C6  UNL     1     -35.840  15.271  -4.083  1.00 20.00     0.021 C 
HETATM    4  C7  UNL     1     -33.658  15.739  -3.069  1.00 20.00     0.021 C 
HETATM    5  C8  UNL     1     -34.333  14.980  -4.223  1.00 20.00     0.055 C 
ENDROOT
BRANCH   5   6
HETATM    6  C3  UNL     1     -34.101  13.499  -4.065  1.00 20.00     0.182 C 
HETATM    7  O11 UNL     1     -35.114  12.772  -4.258  1.00 20.00    -0.647 OA
HETATM    8  O12 UNL     1     -32.919  13.178  -3.757  1.00 20.00    -0.647 OA
ENDBRANCH   5   6
BRANCH   5   9
HETATM    9  C10 UNL     1     -33.781  15.411  -5.580  1.00 20.00     0.022 C 
HETATM   10  C9  UNL     1     -34.789  15.118  -6.695  1.00 20.00     0.015 C 
BRANCH   9  11
HETATM   11  C2  UNL     1     -33.439  16.882  -5.570  1.00 20.00    -0.031 C 
HETATM   12  C1  UNL     1     -34.111  17.813  -6.258  1.00 20.00     0.007 C 
ENDBRANCH   9  11
ENDBRANCH   5   9
TORSDOF 3
ENDMDL
MODEL 3
REMARK VINA RESULT:      -4.9      1.439      2.229
REMARK  3 active torsions:
REMARK  status: ('A' for Active; 'I' for Inactive)
REMARK    1  A    between atoms: C2_2  and  C10_10 
REMARK    2  A    between atoms: C3_3  and  C8_8 
REMARK    3  A    between atoms: C8_8  and  C10_10 
ROOT
HETATM    1  C4  UNL     1     -34.688  16.066  -6.555  1.00 20.00     0.001 C 
HETATM    2  C5  UNL     1     -36.069  16.393  -6.017  1.00 20.00     0.001 C 
HETATM    3  C6  UNL     1     -34.199  14.909  -5.686  1.00 20.00     0.021 C 
HETATM    4  C7  UNL     1     -35.894  16.237  -4.514  1.00 20.00     0.021 C 
HETATM    5  C8  UNL     1     -34.983  15.007  -4.362  1.00 20.00     0.055 C 
ENDROOT
BRANCH   5   6
HETATM    6  C3  UNL     1     -35.824  13.768  -4.195  1.00 20.00     0.182 C 
HETATM    7  O11 UNL     1     -37.026  13.971  -3.868  1.00 20.00    -0.647 OA
HETATM    8  O12 UNL     1     -35.214  12.681  -4.404  1.00 20.00    -0.647 OA
ENDBRANCH   5   6
BRANCH   5   9
HETATM    9  C10 UNL     1     -34.064  15.132  -3.149  1.00 20.00     0.022 C 
HETATM   10  C9  UNL     1     -32.593  15.069  -3.572  1.00 20.00     0.015 C 
BRANCH   9  11
HETATM   11  C2  UNL     1     -34.332  16.423  -2.412  1.00 20.00    -0.031 C 
HETATM   12  C1  UNL     1     -34.595  16.497  -1.101  1.00 20.00     0.007 C 
ENDBRANCH   9  11
ENDBRANCH   5   9
TORSDOF 3
ENDMDL
MODEL 4
REMARK VINA RESULT:      -4.8      1.457      2.483
REMARK  3 active torsions:
REMARK  status: ('A' for Active; 'I' for Inactive)
REMARK    1  A    between atoms: C2_2  and  C10_10 
REMARK    2  A    between atoms: C3_3  and  C8_8 
REMARK    3  A    between atoms: C8_8  and  C10_10 
ROOT
HETATM    1  C4  UNL     1     -36.726  16.735  -5.120  1.00 20.00     0.001 C 
HETATM    2  C5  UNL     1     -37.630  15.570  -4.762  1.00 20.00     0.001 C 
HETATM    3  C6  UNL     1     -35.319  16.140  -5.144  1.00 20.00     0.021 C 
HETATM    4  C7  UNL     1     -36.814  14.813  -3.724  1.00 20.00     0.021 C 
HETATM    5  C8  UNL     1     -35.370  14.886  -4.247  1.00 20.00     0.055 C 
ENDROOT
BRANCH   5   6
HETATM    6  C3  UNL     1     -35.069  13.670  -5.085  1.00 20.00     0.182 C 
HETATM    7  O11 UNL     1     -35.008  12.581  -4.452  1.00 20.00    -0.647 OA
HETATM    8  O12 UNL     1     -34.914  13.901  -6.318  1.00 20.00    -0.647 OA
ENDBRANCH   5   6
BRANCH   5   9
HETATM    9  C10 UNL     1     -34.359  14.947  -3.105  1.00 20.00     0.022 C 
HETATM   10  C9  UNL     1     -32.971  15.330  -3.626  1.00 20.00     0.015 C 
BRANCH   9  11
HETATM   11  C2  UNL     1     -34.805  15.935  -2.054  1.00 20.00    -0.031 C 
HETATM   12  C1  UNL     1     -34.025  16.902  -1.555  1.00 20.00     0.007 C 
ENDBRANCH   9  11
ENDBRANCH   5   9
TORSDOF 3
ENDMDL
MODEL 5
REMARK VINA RESULT:      -4.6      1.816      2.912
REMARK  3 active torsions:
REMARK  status: ('A' for Active; 'I' for Inactive)
REMARK    1  A    between atoms: C2_2  and  C10_10 
REMARK    2  A    between atoms: C3_3  and  C8_8 
REMARK    3  A    between atoms: C8_8  and  C10_10 
ROOT
HETATM    1  C4  UNL     1     -36.459  16.632  -4.324  1.00 20.00     0.001 C 
HETATM    2  C5  UNL     1     -36.217  15.143  -4.158  1.00 20.00     0.001 C 
HETATM    3  C6  UNL     1     -35.088  17.272  -4.114  1.00 20.00     0.021 C 
HETATM    4  C7  UNL     1     -35.218  15.086  -3.012  1.00 20.00     0.021 C 
HETATM    5  C8  UNL     1     -34.273  16.270  -3.271  1.00 20.00     0.055 C 
ENDROOT
BRANCH   5   6
HETATM    6  C3  UNL     1     -33.083  15.808  -4.071  1.00 20.00     0.182 C 
HETATM    7  O11 UNL     1     -32.837  16.481  -5.110  1.00 20.00    -0.647 OA
HETATM    8  O12 UNL     1     -32.484  14.801  -3.597  1.00 20.00    -0.647 OA
ENDBRANCH   5   6
BRANCH   5   9
HETATM    9  C10 UNL     1     -33.768  16.884  -1.967  1.00 20.00     0.022 C 
HETATM   10  C9  UNL     1     -33.623  18.403  -2.101  1.00 20.00     0.015 C 
BRANCH   9  11
HETATM   11  C2  UNL     1     -34.703  16.555  -0.828  1.00 20.00    -0.031 C 
HETATM   12  C1  UNL     1     -34.886  17.337   0.242  1.00 20.00     0.007 C 
ENDBRANCH   9  11
ENDBRANCH   5   9
TORSDOF 3
ENDMDL
MODEL 6
REMARK VINA RESULT:      -4.6      1.928      3.046
REMARK  3 active torsions:
REMARK  status: ('A' for Active; 'I' for Inactive)
REMARK    1  A    between atoms: C2_2  and  C10_10 
REMARK    2  A    between atoms: C3_3  and  C8_8 
REMARK    3  A    between atoms: C8_8  and  C10_10 
ROOT
HETATM    1  C4  UNL     1     -35.250  13.385  -4.143  1.00 20.00     0.001 C 
HETATM    2  C5  UNL     1     -33.736  13.490  -4.183  1.00 20.00     0.001 C 
HETATM    3  C6  UNL     1     -35.743  14.807  -4.402  1.00 20.00     0.021 C 
HETATM    4  C7  UNL     1     -33.468  14.816  -3.487  1.00 20.00     0.021 C 
HETATM    5  C8  UNL     1     -34.589  15.742  -3.988  1.00 20.00     0.055 C 
ENDROOT
BRANCH   5   6
HETATM    6  C3  UNL     1     -34.116  16.506  -5.198  1.00 20.00     0.182 C 
HETATM    7  O11 UNL     1     -33.010  17.099  -5.063  1.00 20.00    -0.647 OA
HETATM    8  O12 UNL     1     -34.892  16.454  -6.194  1.00 20.00    -0.647 OA
ENDBRANCH   5   6
BRANCH   5   9
HETATM    9  C10 UNL     1     -35.010  16.747  -2.918  1.00 20.00     0.022 C 
HETATM   10  C9  UNL     1     -36.513  17.030  -2.999  1.00 20.00     0.015 C 
BRANCH   9  11
HETATM   11  C2  UNL     1     -34.656  16.236  -1.542  1.00 20.00    -0.031 C 
HETATM   12  C1  UNL     1     -34.619  17.002  -0.444  1.00 20.00     0.007 C 
ENDBRANCH   9  11
ENDBRANCH   5   9
TORSDOF 3
ENDMDL
MODEL 7
REMARK VINA RESULT:      -4.4      1.263      2.112
REMARK  3 active torsions:
REMARK  status: ('A' for Active; 'I' for Inactive)
REMARK    1  A    between atoms: C2_2  and  C10_10 
REMARK    2  A    between atoms: C3_3  and  C8_8 
REMARK    3  A    between atoms: C8_8  and  C10_10 
ROOT
HETATM    1  C4  UNL     1     -33.770  16.644  -3.359  1.00 20.00     0.001 C 
HETATM    2  C5  UNL     1     -33.098  16.300  -4.675  1.00 20.00     0.001 C 
HETATM    3  C6  UNL     1     -34.614  15.417  -3.022  1.00 20.00     0.021 C 
HETATM    4  C7  UNL     1     -34.193  15.564  -5.433  1.00 20.00     0.021 C 
HETATM    5  C8  UNL     1     -34.885  14.704  -4.363  1.00 20.00     0.055 C 
ENDROOT
BRANCH   5   6
HETATM    6  C3  UNL     1     -34.259  13.333  -4.326  1.00 20.00     0.182 C 
HETATM    7  O11 UNL     1     -33.214  13.236  -3.627  1.00 20.00    -0.647 OA
HETATM    8  O12 UNL     1     -34.865  12.456  -5.005  1.00 20.00    -0.647 OA
ENDBRANCH   5   6
BRANCH   5   9
HETATM    9  C10 UNL     1     -36.377  14.545  -4.645  1.00 20.00     0.022 C 
HETATM   10  C9  UNL     1     -37.212  15.095  -3.485  1.00 20.00     0.015 C 
BRANCH   9  11
HETATM   11  C2  UNL     1     -36.752  15.249  -5.928  1.00 20.00    -0.031 C 
HETATM   12  C1  UNL     1     -38.012  15.446  -6.335  1.00 20.00     0.007 C 
ENDBRANCH   9  11
ENDBRANCH   5   9
TORSDOF 3
ENDMDL
MODEL 8
REMARK VINA RESULT:      -4.3      1.783      3.450
REMARK  3 active torsions:
REMARK  status: ('A' for Active; 'I' for Inactive)
REMARK    1  A    between atoms: C2_2  and  C10_10 
REMARK    2  A    between atoms: C3_3  and  C8_8 
REMARK    3  A    between atoms: C8_8  and  C10_10 
ROOT
HETATM    1  C4  UNL     1     -32.661  14.668  -3.436  1.00 20.00     0.001 C 
HETATM    2  C5  UNL     1     -33.396  13.346  -3.563  1.00 20.00     0.001 C 
HETATM    3  C6  UNL     1     -33.730  15.731  -3.680  1.00 20.00     0.021 C 
HETATM    4  C7  UNL     1     -34.352  13.599  -4.720  1.00 20.00     0.021 C 
HETATM    5  C8  UNL     1     -34.837  15.042  -4.504  1.00 20.00     0.055 C 
ENDROOT
BRANCH   5   6
HETATM    6  C3  UNL     1     -36.115  15.038  -3.705  1.00 20.00     0.182 C 
HETATM    7  O11 UNL     1     -36.836  14.013  -3.849  1.00 20.00    -0.647 OA
HETATM    8  O12 UNL     1     -36.299  16.065  -2.994  1.00 20.00    -0.647 OA
ENDBRANCH   5   6
BRANCH   5   9
HETATM    9  C10 UNL     1     -35.100  15.752  -5.831  1.00 20.00     0.022 C 
HETATM   10  C9  UNL     1     -34.230  17.006  -5.959  1.00 20.00     0.015 C 
BRANCH   9  11
HETATM   11  C2  UNL     1     -34.838  14.822  -6.991  1.00 20.00    -0.031 C 
HETATM   12  C1  UNL     1     -35.750  14.503  -7.918  1.00 20.00     0.007 C 
ENDBRANCH   9  11
ENDBRANCH   5   9
TORSDOF 3
ENDMDL
MODEL 9
REMARK VINA RESULT:      -4.2      2.110      3.277
REMARK  3 active torsions:
REMARK  status: ('A' for Active; 'I' for Inactive)
REMARK    1  A    between atoms: C2_2  and  C10_10 
REMARK    2  A    between atoms: C3_3  and  C8_8 
REMARK    3  A    between atoms: C8_8  and  C10_10 
ROOT
HETATM    1  C4  UNL     1     -34.257  13.878  -3.599  1.00 20.00     0.001 C 
HETATM    2  C5  UNL     1     -34.704  13.152  -4.855  1.00 20.00     0.001 C 
HETATM    3  C6  UNL     1     -35.314  14.960  -3.382  1.00 20.00     0.021 C 
HETATM    4  C7  UNL     1     -35.217  14.281  -5.736  1.00 20.00     0.021 C 
HETATM    5  C8  UNL     1     -35.948  15.221  -4.763  1.00 20.00     0.055 C 
ENDROOT
BRANCH   5   6
HETATM    6  C3  UNL     1     -37.411  14.861  -4.708  1.00 20.00     0.182 C 
HETATM    7  O11 UNL     1     -37.779  14.262  -3.661  1.00 20.00    -0.647 OA
HETATM    8  O12 UNL     1     -38.080  15.207  -5.723  1.00 20.00    -0.647 OA
ENDBRANCH   5   6
BRANCH   5   9
HETATM    9  C10 UNL     1     -35.827  16.681  -5.192  1.00 20.00     0.022 C 
HETATM   10  C9  UNL     1     -35.942  17.615  -3.983  1.00 20.00     0.015 C 
BRANCH   9  11
HETATM   11  C2  UNL     1     -34.516  16.918  -5.902  1.00 20.00    -0.031 C 
HETATM   12  C1  UNL     1     -33.481  17.578  -5.367  1.00 20.00     0.007 C 
ENDBRANCH   9  11
ENDBRANCH   5   9
TORSDOF 3
ENDMDL
