MODEL 1
REMARK VINA RESULT:      -4.4      0.000      0.000
REMARK  4 active torsions:
REMARK  status: ('A' for Active; 'I' for Inactive)
REMARK    1  A    between atoms: C1_1  and  C9_9 
REMARK    2  A    between atoms: C4_4  and  C8_8 
REMARK    3  A    between atoms: C8_8  and  C9_9 
REMARK    4  A    between atoms: C9_9  and  C10_10 
ROOT
HETATM    1  C9  UNL     1     -34.151  15.460  -3.489  1.00 20.00     0.058 C 
ENDROOT
BRANCH   1   2
HETATM    2  C1  UNL     1     -34.038  13.961  -3.792  1.00 20.00     0.127 C 
HETATM    3  C5  UNL     1     -35.262  13.289  -4.362  1.00 20.00     0.091 C 
HETATM    4  O11 UNL     1     -33.002  13.325  -3.603  1.00 20.00    -0.298 OA
ENDBRANCH   1   2
BRANCH   1   5
HETATM    5  C8  UNL     1     -35.150  15.719  -2.346  1.00 20.00     0.017 C 
BRANCH   5   6
HETATM    6  C4  UNL     1     -34.458  16.385  -1.157  1.00 20.00    -0.014 A 
HETATM    7  C2  UNL     1     -33.736  17.691  -1.335  1.00 20.00     0.005 A 
HETATM    8  C3  UNL     1     -35.023  17.644  -0.560  1.00 20.00     0.005 A 
ENDBRANCH   5   6
ENDBRANCH   1   5
BRANCH   1   9
HETATM    9  C10 UNL     1     -34.471  16.226  -4.798  1.00 20.00    -0.012 C 
HETATM   10  C6  UNL     1     -33.359  17.184  -5.236  1.00 20.00     0.010 C 
HETATM   11  C7  UNL     1     -35.796  16.988  -4.687  1.00 20.00     0.010 C 
ENDBRANCH   1   9
TORSDOF 4
ENDMDL
MODEL 2
REMARK VINA RESULT:      -4.3      1.717      2.511
REMARK  4 active torsions:
REMARK  status: ('A' for Active; 'I' for Inactive)
REMARK    1  A    between atoms: C1_1  and  C9_9 
REMARK    2  A    between atoms: C4_4  and  C8_8 
REMARK    3  A    between atoms: C8_8  and  C9_9 
REMARK    4  A    between atoms: C9_9  and  C10_10 
ROOT
HETATM    1  C9  UNL     1     -35.338  15.280  -3.065  1.00 20.00     0.058 C 
ENDROOT
BRANCH   1   2
HETATM    2  C1  UNL     1     -36.743  15.153  -3.664  1.00 20.00     0.127 C 
HETATM    3  C5  UNL     1     -37.382  16.421  -4.172  1.00 20.00     0.091 C 
HETATM    4  O11 UNL     1     -37.329  14.074  -3.750  1.00 20.00    -0.298 OA
ENDBRANCH   1   2
BRANCH   1   5
HETATM    5  C8  UNL     1     -35.129  16.668  -2.432  1.00 20.00     0.017 C 
BRANCH   5   6
HETATM    6  C4  UNL     1     -34.467  16.549  -1.060  1.00 20.00    -0.014 A 
HETATM    7  C2  UNL     1     -33.676  17.697  -0.498  1.00 20.00     0.005 A 
HETATM    8  C3  UNL     1     -35.001  17.330   0.108  1.00 20.00     0.005 A 
ENDBRANCH   5   6
ENDBRANCH   1   5
BRANCH   1   9
HETATM    9  C10 UNL     1     -34.285  14.908  -4.141  1.00 20.00    -0.012 C 
HETATM   10  C6  UNL     1     -33.421  13.701  -3.763  1.00 20.00     0.010 C 
HETATM   11  C7  UNL     1     -33.386  16.103  -4.477  1.00 20.00     0.010 C 
ENDBRANCH   1   9
TORSDOF 4
ENDMDL
MODEL 3
REMARK VINA RESULT:      -4.2      1.517      2.707
REMARK  4 active torsions:
REMARK  status: ('A' for Active; 'I' for Inactive)
REMARK    1  A    between atoms: C1_1  and  C9_9 
REMARK    2  A    between atoms: C4_4  and  C8_8 
REMARK    3  A    between atoms: C8_8  and  C9_9 
REMARK    4  A    between atoms: C9_9  and  C10_10 
ROOT
HETATM    1  C9  UNL     1     -34.985  15.845  -4.110  1.00 20.00     0.058 C 
ENDROOT
BRANCH   1   2
HETATM    2  C1  UNL     1     -33.870  16.119  -5.126  1.00 20.00     0.127 C 
HETATM    3  C5  UNL     1     -34.276  16.188  -6.577  1.00 20.00     0.091 C 
HETATM    4  O11 UNL     1     -32.699  16.295  -4.791  1.00 20.00    -0.298 OA
ENDBRANCH   1   2
BRANCH   1   5
HETATM    5  C8  UNL     1     -34.412  15.694  -2.688  1.00 20.00     0.017 C 
BRANCH   5   6
HETATM    6  C4  UNL     1     -34.675  16.950  -1.858  1.00 20.00    -0.014 A 
HETATM    7  C2  UNL     1     -34.727  16.869  -0.357  1.00 20.00     0.005 A 
HETATM    8  C3  UNL     1     -33.574  17.557  -1.034  1.00 20.00     0.005 A 
ENDBRANCH   5   6
ENDBRANCH   1   5
BRANCH   1   9
HETATM    9  C10 UNL     1     -35.828  14.634  -4.586  1.00 20.00    -0.012 C 
HETATM   10  C6  UNL     1     -37.249  14.613  -4.015  1.00 20.00     0.010 C 
HETATM   11  C7  UNL     1     -35.125  13.309  -4.275  1.00 20.00     0.010 C 
ENDBRANCH   1   9
TORSDOF 4
ENDMDL
MODEL 4
REMARK VINA RESULT:      -4.2      1.246      1.592
REMARK  4 active torsions:
REMARK  status: ('A' for Active; 'I' for Inactive)
REMARK    1  A    between atoms: C1_1  and  C9_9 
REMARK    2  A    between atoms: C4_4  and  C8_8 
REMARK    3  A    between atoms: C8_8  and  C9_9 
REMARK    4  A    between atoms: C9_9  and  C10_10 
ROOT
HETATM    1  C9  UNL     1     -34.770  15.283  -3.856  1.00 20.00     0.058 C 
ENDROOT
BRANCH   1   2
HETATM    2  C1  UNL     1     -35.682  14.074  -4.096  1.00 20.00     0.127 C 
HETATM    3  C5  UNL     1     -37.162  14.348  -4.192  1.00 20.00     0.091 C 
HETATM    4  O11 UNL     1     -35.244  12.931  -4.225  1.00 20.00    -0.298 OA
ENDBRANCH   1   2
BRANCH   1   5
HETATM    5  C8  UNL     1     -35.325  16.180  -2.734  1.00 20.00     0.017 C 
BRANCH   5   6
HETATM    6  C4  UNL     1     -34.356  16.242  -1.554  1.00 20.00    -0.014 A 
HETATM    7  C2  UNL     1     -33.655  17.528  -1.216  1.00 20.00     0.005 A 
HETATM    8  C3  UNL     1     -34.728  16.996  -0.308  1.00 20.00     0.005 A 
ENDBRANCH   5   6
ENDBRANCH   1   5
BRANCH   1   9
HETATM    9  C10 UNL     1     -34.529  16.020  -5.199  1.00 20.00    -0.012 C 
HETATM   10  C6  UNL     1     -34.314  15.077  -6.386  1.00 20.00     0.010 C 
HETATM   11  C7  UNL     1     -33.354  16.997  -5.094  1.00 20.00     0.010 C 
ENDBRANCH   1   9
TORSDOF 4
ENDMDL
MODEL 5
REMARK VINA RESULT:      -4.2      1.705      3.920
REMARK  4 active torsions:
REMARK  status: ('A' for Active; 'I' for Inactive)
REMARK    1  A    between atoms: C1_1  and  C9_9 
REMARK    2  A    between atoms: C4_4  and  C8_8 
REMARK    3  A    between atoms: C8_8  and  C9_9 
REMARK    4  A    between atoms: C9_9  and  C10_10 
ROOT
HETATM    1  C9  UNL     1     -35.084  15.089  -3.629  1.00 20.00     0.058 C 
ENDROOT
BRANCH   1   2
HETATM    2  C1  UNL     1     -34.415  13.723  -3.824  1.00 20.00     0.127 C 
HETATM    3  C5  UNL     1     -32.939  13.640  -3.524  1.00 20.00     0.091 C 
HETATM    4  O11 UNL     1     -35.040  12.728  -4.188  1.00 20.00    -0.298 OA
ENDBRANCH   1   2
BRANCH   1   5
HETATM    5  C8  UNL     1     -35.523  15.687  -4.978  1.00 20.00     0.017 C 
BRANCH   5   6
HETATM    6  C4  UNL     1     -34.600  15.226  -6.106  1.00 20.00    -0.014 A 
HETATM    7  C2  UNL     1     -35.176  14.658  -7.372  1.00 20.00     0.005 A 
HETATM    8  C3  UNL     1     -34.519  16.010  -7.386  1.00 20.00     0.005 A 
ENDBRANCH   5   6
ENDBRANCH   1   5
BRANCH   1   9
HETATM    9  C10 UNL     1     -34.146  16.007  -2.802  1.00 20.00    -0.012 C 
HETATM   10  C6  UNL     1     -34.662  16.298  -1.390  1.00 20.00     0.010 C 
HETATM   11  C7  UNL     1     -33.870  17.324  -3.534  1.00 20.00     0.010 C 
ENDBRANCH   1   9
TORSDOF 4
ENDMDL
MODEL 6
REMARK VINA RESULT:      -4.0      2.078      4.355
REMARK  4 active torsions:
REMARK  status: ('A' for Active; 'I' for Inactive)
REMARK    1  A    between atoms: C1_1  and  C9_9 
REMARK    2  A    between atoms: C4_4  and  C8_8 
REMARK    3  A    between atoms: C8_8  and  C9_9 
REMARK    4  A    between atoms: C9_9  and  C10_10 
ROOT
HETATM    1  C9  UNL     1     -33.970  16.126  -3.772  1.00 20.00     0.058 C 
ENDROOT
BRANCH   1   2
HETATM    2  C1  UNL     1     -33.996  17.071  -2.564  1.00 20.00     0.127 C 
HETATM    3  C5  UNL     1     -34.501  16.497  -1.264  1.00 20.00     0.091 C 
HETATM    4  O11 UNL     1     -33.611  18.237  -2.630  1.00 20.00    -0.298 OA
ENDBRANCH   1   2
BRANCH   1   5
HETATM    5  C8  UNL     1     -34.766  16.714  -4.951  1.00 20.00     0.017 C 
BRANCH   5   6
HETATM    6  C4  UNL     1     -34.040  16.473  -6.274  1.00 20.00    -0.014 A 
HETATM    7  C2  UNL     1     -34.321  15.234  -7.078  1.00 20.00     0.005 A 
HETATM    8  C3  UNL     1     -34.785  16.574  -7.576  1.00 20.00     0.005 A 
ENDBRANCH   5   6
ENDBRANCH   1   5
BRANCH   1   9
HETATM    9  C10 UNL     1     -34.438  14.715  -3.330  1.00 20.00    -0.012 C 
HETATM   10  C6  UNL     1     -33.495  13.590  -3.769  1.00 20.00     0.010 C 
HETATM   11  C7  UNL     1     -35.859  14.421  -3.823  1.00 20.00     0.010 C 
ENDBRANCH   1   9
TORSDOF 4
ENDMDL
MODEL 7
REMARK VINA RESULT:      -4.0      1.576      2.556
REMARK  4 active torsions:
REMARK  status: ('A' for Active; 'I' for Inactive)
REMARK    1  A    between atoms: C1_1  and  C9_9 
REMARK    2  A    between atoms: C4_4  and  C8_8 
REMARK    3  A    between atoms: C8_8  and  C9_9 
REMARK    4  A    between atoms: C9_9  and  C10_10 
ROOT
HETATM    1  C9  UNL     1     -34.934  15.796  -3.912  1.00 20.00     0.058 C 
ENDROOT
BRANCH   1   2
HETATM    2  C1  UNL     1     -34.097  16.523  -4.971  1.00 20.00     0.127 C 
HETATM    3  C5  UNL     1     -34.242  16.049  -6.395  1.00 20.00     0.091 C 
HETATM    4  O11 UNL     1     -33.351  17.462  -4.693  1.00 20.00    -0.298 OA
ENDBRANCH   1   2
BRANCH   1   5
HETATM    5  C8  UNL     1     -35.322  16.746  -2.765  1.00 20.00     0.017 C 
BRANCH   5   6
HETATM    6  C4  UNL     1     -34.505  16.447  -1.509  1.00 20.00    -0.014 A 
HETATM    7  C2  UNL     1     -33.597  17.495  -0.928  1.00 20.00     0.005 A 
HETATM    8  C3  UNL     1     -34.855  17.105  -0.203  1.00 20.00     0.005 A 
ENDBRANCH   5   6
ENDBRANCH   1   5
BRANCH   1   9
HETATM    9  C10 UNL     1     -34.184  14.518  -3.453  1.00 20.00    -0.012 C 
HETATM   10  C6  UNL     1     -32.669  14.583  -3.674  1.00 20.00     0.010 C 
HETATM   11  C7  UNL     1     -34.752  13.266  -4.129  1.00 20.00     0.010 C 
ENDBRANCH   1   9
TORSDOF 4
ENDMDL
MODEL 8
REMARK VINA RESULT:      -4.0      1.854      3.805
REMARK  4 active torsions:
REMARK  status: ('A' for Active; 'I' for Inactive)
REMARK    1  A    between atoms: C1_1  and  C9_9 
REMARK    2  A    between atoms: C4_4  and  C8_8 
REMARK    3  A    between atoms: C8_8  and  C9_9 
REMARK    4  A    between atoms: C9_9  and  C10_10 
ROOT
HETATM    1  C9  UNL     1     -34.266  16.560  -3.280  1.00 20.00     0.058 C 
ENDROOT
BRANCH   1   2
HETATM    2  C1  UNL     1     -34.013  17.280  -1.950  1.00 20.00     0.127 C 
HETATM    3  C5  UNL     1     -34.627  16.665  -0.718  1.00 20.00     0.091 C 
HETATM    4  O11 UNL     1     -33.330  18.300  -1.871  1.00 20.00    -0.298 OA
ENDBRANCH   1   2
BRANCH   1   5
HETATM    5  C8  UNL     1     -33.332  15.346  -3.439  1.00 20.00     0.017 C 
BRANCH   5   6
HETATM    6  C4  UNL     1     -34.129  14.043  -3.452  1.00 20.00    -0.014 A 
HETATM    7  C2  UNL     1     -35.491  13.993  -4.087  1.00 20.00     0.005 A 
HETATM    8  C3  UNL     1     -34.332  13.292  -4.739  1.00 20.00     0.005 A 
ENDBRANCH   5   6
ENDBRANCH   1   5
BRANCH   1   9
HETATM    9  C10 UNL     1     -34.181  17.584  -4.443  1.00 20.00    -0.012 C 
HETATM   10  C6  UNL     1     -35.516  18.261  -4.763  1.00 20.00     0.010 C 
HETATM   11  C7  UNL     1     -33.609  16.940  -5.710  1.00 20.00     0.010 C 
ENDBRANCH   1   9
TORSDOF 4
ENDMDL
MODEL 9
REMARK VINA RESULT:      -3.9      1.874      3.279
REMARK  4 active torsions:
REMARK  status: ('A' for Active; 'I' for Inactive)
REMARK    1  A    between atoms: C1_1  and  C9_9 
REMARK    2  A    between atoms: C4_4  and  C8_8 
REMARK    3  A    between atoms: C8_8  and  C9_9 
REMARK    4  A    between atoms: C9_9  and  C10_10 
ROOT
HETATM    1  C9  UNL     1     -35.012  14.790  -3.240  1.00 20.00     0.058 C 
ENDROOT
BRANCH   1   2
HETATM    2  C1  UNL     1     -34.213  13.739  -4.020  1.00 20.00     0.127 C 
HETATM    3  C5  UNL     1     -34.777  13.305  -5.349  1.00 20.00     0.091 C 
HETATM    4  O11 UNL     1     -33.151  13.275  -3.605  1.00 20.00    -0.298 OA
ENDBRANCH   1   2
BRANCH   1   5
HETATM    5  C8  UNL     1     -36.117  15.407  -4.118  1.00 20.00     0.017 C 
BRANCH   5   6
HETATM    6  C4  UNL     1     -37.489  15.238  -3.467  1.00 20.00    -0.014 A 
HETATM    7  C2  UNL     1     -38.617  16.166  -3.824  1.00 20.00     0.005 A 
HETATM    8  C3  UNL     1     -38.652  14.732  -4.273  1.00 20.00     0.005 A 
ENDBRANCH   5   6
ENDBRANCH   1   5
BRANCH   1   9
HETATM    9  C10 UNL     1     -34.036  15.826  -2.626  1.00 20.00    -0.012 C 
HETATM   10  C6  UNL     1     -34.543  16.449  -1.322  1.00 20.00     0.010 C 
HETATM   11  C7  UNL     1     -33.694  16.932  -3.629  1.00 20.00     0.010 C 
ENDBRANCH   1   9
TORSDOF 4
ENDMDL
