MODEL 1
REMARK VINA RESULT:      -5.4      0.000      0.000
REMARK  4 active torsions:
REMARK  status: ('A' for Active; 'I' for Inactive)
REMARK    1  A    between atoms: C6_6  and  C9_9 
REMARK    2  A    between atoms: C7_7  and  C10_10 
REMARK    3  A    between atoms: C8_8  and  O11_11 
REMARK    4  A    between atoms: C9_9  and  C10_10 
ROOT
HETATM    1  C1  UNL     1     -35.548   4.649   4.623  1.00 20.00     0.003 C 
HETATM    2  C2  UNL     1     -34.717   5.562   3.721  1.00 20.00     0.007 C 
HETATM    3  C5  UNL     1     -34.749   4.468   5.916  1.00 20.00     0.032 C 
HETATM    4  C7  UNL     1     -33.348   5.662   4.398  1.00 20.00     0.014 C 
HETATM    5  C8  UNL     1     -33.692   5.566   5.885  1.00 20.00     0.122 C 
ENDROOT
BRANCH   4   6
HETATM    6  C10 UNL     1     -32.586   6.916   4.001  1.00 20.00     0.007 C 
BRANCH   6   7
HETATM    7  C9  UNL     1     -32.613   7.131   2.489  1.00 20.00     0.005 C 
BRANCH   7   8
HETATM    8  C6  UNL     1     -31.871   8.398   2.094  1.00 20.00    -0.014 A 
HETATM    9  C3  UNL     1     -31.917   8.891   0.674  1.00 20.00     0.005 A 
HETATM   10  C4  UNL     1     -32.634   9.649   1.757  1.00 20.00     0.005 A 
ENDBRANCH   7   8
ENDBRANCH   6   7
ENDBRANCH   4   6
BRANCH   5  11
HETATM   11  O11 UNL     1     -34.250   6.786   6.358  1.00 20.00    -0.395 OA
HETATM   12  H29 UNL     1     -35.047   6.552   6.862  1.00 20.00     0.210 HD
ENDBRANCH   5  11
TORSDOF 4
ENDMDL
MODEL 2
REMARK VINA RESULT:      -4.9     11.000     12.217
REMARK  4 active torsions:
REMARK  status: ('A' for Active; 'I' for Inactive)
REMARK    1  A    between atoms: C6_6  and  C9_9 
REMARK    2  A    between atoms: C7_7  and  C10_10 
REMARK    3  A    between atoms: C8_8  and  O11_11 
REMARK    4  A    between atoms: C9_9  and  C10_10 
ROOT
HETATM    1  C1  UNL     1     -34.419  13.506  -4.914  1.00 20.00     0.003 C 
HETATM    2  C2  UNL     1     -34.243  14.037  -3.491  1.00 20.00     0.007 C 
HETATM    3  C5  UNL     1     -34.474  14.729  -5.833  1.00 20.00     0.032 C 
HETATM    4  C7  UNL     1     -34.475  15.546  -3.591  1.00 20.00     0.014 C 
HETATM    5  C8  UNL     1     -33.949  15.884  -4.987  1.00 20.00     0.122 C 
ENDROOT
BRANCH   4   6
HETATM    6  C10 UNL     1     -33.817  16.318  -2.459  1.00 20.00     0.007 C 
BRANCH   6   7
HETATM    7  C9  UNL     1     -34.683  16.315  -1.202  1.00 20.00     0.005 C 
BRANCH   7   8
HETATM    8  C6  UNL     1     -34.750  17.696  -0.569  1.00 20.00    -0.014 A 
HETATM    9  C3  UNL     1     -34.893  17.839   0.922  1.00 20.00     0.005 A 
HETATM   10  C4  UNL     1     -33.599  18.209   0.251  1.00 20.00     0.005 A 
ENDBRANCH   7   8
ENDBRANCH   6   7
ENDBRANCH   4   6
BRANCH   5  11
HETATM   11  O11 UNL     1     -32.527  15.888  -5.008  1.00 20.00    -0.395 OA
HETATM   12  H29 UNL     1     -32.256  15.326  -5.753  1.00 20.00     0.210 HD
ENDBRANCH   5  11
TORSDOF 4
ENDMDL
MODEL 3
REMARK VINA RESULT:      -4.8      1.543      2.063
REMARK  4 active torsions:
REMARK  status: ('A' for Active; 'I' for Inactive)
REMARK    1  A    between atoms: C6_6  and  C9_9 
REMARK    2  A    between atoms: C7_7  and  C10_10 
REMARK    3  A    between atoms: C8_8  and  O11_11 
REMARK    4  A    between atoms: C9_9  and  C10_10 
ROOT
HETATM    1  C1  UNL     1     -35.121   4.979   5.315  1.00 20.00     0.003 C 
HETATM    2  C2  UNL     1     -33.658   5.415   5.247  1.00 20.00     0.007 C 
HETATM    3  C5  UNL     1     -35.771   5.421   4.001  1.00 20.00     0.032 C 
HETATM    4  C7  UNL     1     -33.566   6.332   4.026  1.00 20.00     0.014 C 
HETATM    5  C8  UNL     1     -34.606   5.742   3.072  1.00 20.00     0.122 C 
ENDROOT
BRANCH   4   6
HETATM    6  C10 UNL     1     -32.158   6.417   3.458  1.00 20.00     0.007 C 
BRANCH   6   7
HETATM    7  C9  UNL     1     -31.768   7.859   3.143  1.00 20.00     0.005 C 
BRANCH   7   8
HETATM    8  C6  UNL     1     -32.475   8.368   1.897  1.00 20.00    -0.014 A 
HETATM    9  C3  UNL     1     -32.423   9.827   1.539  1.00 20.00     0.005 A 
HETATM   10  C4  UNL     1     -31.678   8.821   0.706  1.00 20.00     0.005 A 
ENDBRANCH   7   8
ENDBRANCH   6   7
ENDBRANCH   4   6
BRANCH   5  11
HETATM   11  O11 UNL     1     -34.125   4.545   2.473  1.00 20.00    -0.395 OA
HETATM   12  H29 UNL     1     -33.449   4.806   1.827  1.00 20.00     0.210 HD
ENDBRANCH   5  11
TORSDOF 4
ENDMDL
MODEL 4
REMARK VINA RESULT:      -4.7     11.463     12.875
REMARK  4 active torsions:
REMARK  status: ('A' for Active; 'I' for Inactive)
REMARK    1  A    between atoms: C6_6  and  C9_9 
REMARK    2  A    between atoms: C7_7  and  C10_10 
REMARK    3  A    between atoms: C8_8  and  O11_11 
REMARK    4  A    between atoms: C9_9  and  C10_10 
ROOT
HETATM    1  C1  UNL     1     -34.456  14.970  -7.135  1.00 20.00     0.003 C 
HETATM    2  C2  UNL     1     -34.742  14.233  -5.827  1.00 20.00     0.007 C 
HETATM    3  C5  UNL     1     -34.171  16.427  -6.763  1.00 20.00     0.032 C 
HETATM    4  C7  UNL     1     -34.885  15.329  -4.769  1.00 20.00     0.014 C 
HETATM    5  C8  UNL     1     -33.920  16.410  -5.259  1.00 20.00     0.122 C 
ENDROOT
BRANCH   4   6
HETATM    6  C10 UNL     1     -34.613  14.826  -3.360  1.00 20.00     0.007 C 
BRANCH   6   7
HETATM    7  C9  UNL     1     -35.203  15.763  -2.308  1.00 20.00     0.005 C 
BRANCH   7   8
HETATM    8  C6  UNL     1     -34.113  16.512  -1.557  1.00 20.00    -0.014 A 
HETATM    9  C3  UNL     1     -34.091  18.016  -1.556  1.00 20.00     0.005 A 
HETATM   10  C4  UNL     1     -34.443  17.267  -0.300  1.00 20.00     0.005 A 
ENDBRANCH   7   8
ENDBRANCH   6   7
ENDBRANCH   4   6
BRANCH   5  11
HETATM   11  O11 UNL     1     -32.571  16.043  -5.001  1.00 20.00    -0.395 OA
HETATM   12  H29 UNL     1     -32.448  15.152  -5.365  1.00 20.00     0.210 HD
ENDBRANCH   5  11
TORSDOF 4
ENDMDL
MODEL 5
REMARK VINA RESULT:      -4.7     11.058     12.064
REMARK  4 active torsions:
REMARK  status: ('A' for Active; 'I' for Inactive)
REMARK    1  A    between atoms: C6_6  and  C9_9 
REMARK    2  A    between atoms: C7_7  and  C10_10 
REMARK    3  A    between atoms: C8_8  and  O11_11 
REMARK    4  A    between atoms: C9_9  and  C10_10 
ROOT
HETATM    1  C1  UNL     1     -36.165  14.952  -6.073  1.00 20.00     0.003 C 
HETATM    2  C2  UNL     1     -35.891  15.579  -4.706  1.00 20.00     0.007 C 
HETATM    3  C5  UNL     1     -35.058  13.921  -6.311  1.00 20.00     0.032 C 
HETATM    4  C7  UNL     1     -34.492  15.097  -4.313  1.00 20.00     0.014 C 
HETATM    5  C8  UNL     1     -34.418  13.706  -4.944  1.00 20.00     0.122 C 
ENDROOT
BRANCH   4   6
HETATM    6  C10 UNL     1     -34.261  15.127  -2.811  1.00 20.00     0.007 C 
BRANCH   6   7
HETATM    7  C9  UNL     1     -35.054  16.249  -2.145  1.00 20.00     0.005 C 
BRANCH   7   8
HETATM    8  C6  UNL     1     -34.473  16.611  -0.787  1.00 20.00    -0.014 A 
HETATM    9  C3  UNL     1     -33.898  17.980  -0.550  1.00 20.00     0.005 A 
HETATM   10  C4  UNL     1     -35.191  17.583   0.108  1.00 20.00     0.005 A 
ENDBRANCH   7   8
ENDBRANCH   6   7
ENDBRANCH   4   6
BRANCH   5  11
HETATM   11  O11 UNL     1     -35.182  12.766  -4.198  1.00 20.00    -0.395 OA
HETATM   12  H29 UNL     1     -36.113  12.922  -4.422  1.00 20.00     0.210 HD
ENDBRANCH   5  11
TORSDOF 4
ENDMDL
MODEL 6
REMARK VINA RESULT:      -4.4     11.363     12.201
REMARK  4 active torsions:
REMARK  status: ('A' for Active; 'I' for Inactive)
REMARK    1  A    between atoms: C6_6  and  C9_9 
REMARK    2  A    between atoms: C7_7  and  C10_10 
REMARK    3  A    between atoms: C8_8  and  O11_11 
REMARK    4  A    between atoms: C9_9  and  C10_10 
ROOT
HETATM    1  C1  UNL     1     -34.793  17.067   0.007  1.00 20.00     0.003 C 
HETATM    2  C2  UNL     1     -34.790  16.359  -1.348  1.00 20.00     0.007 C 
HETATM    3  C5  UNL     1     -33.767  18.199  -0.089  1.00 20.00     0.032 C 
HETATM    4  C7  UNL     1     -33.577  16.920  -2.094  1.00 20.00     0.014 C 
HETATM    5  C8  UNL     1     -33.490  18.358  -1.580  1.00 20.00     0.122 C 
ENDROOT
BRANCH   4   6
HETATM    6  C10 UNL     1     -33.704  16.790  -3.603  1.00 20.00     0.007 C 
BRANCH   6   7
HETATM    7  C9  UNL     1     -33.233  15.421  -4.089  1.00 20.00     0.005 C 
BRANCH   7   8
HETATM    8  C6  UNL     1     -34.331  14.691  -4.846  1.00 20.00    -0.014 A 
HETATM    9  C3  UNL     1     -34.443  13.193  -4.760  1.00 20.00     0.005 A 
HETATM   10  C4  UNL     1     -35.476  14.064  -4.100  1.00 20.00     0.005 A 
ENDBRANCH   7   8
ENDBRANCH   6   7
ENDBRANCH   4   6
BRANCH   5  11
HETATM   11  O11 UNL     1     -34.496  19.171  -2.172  1.00 20.00    -0.395 OA
HETATM   12  H29 UNL     1     -34.753  19.828  -1.505  1.00 20.00     0.210 HD
ENDBRANCH   5  11
TORSDOF 4
ENDMDL
MODEL 7
REMARK VINA RESULT:      -4.4     11.123     12.315
REMARK  4 active torsions:
REMARK  status: ('A' for Active; 'I' for Inactive)
REMARK    1  A    between atoms: C6_6  and  C9_9 
REMARK    2  A    between atoms: C7_7  and  C10_10 
REMARK    3  A    between atoms: C8_8  and  O11_11 
REMARK    4  A    between atoms: C9_9  and  C10_10 
ROOT
HETATM    1  C1  UNL     1     -35.471  16.414  -2.392  1.00 20.00     0.003 C 
HETATM    2  C2  UNL     1     -35.638  15.196  -3.300  1.00 20.00     0.007 C 
HETATM    3  C5  UNL     1     -33.975  16.530  -2.085  1.00 20.00     0.032 C 
HETATM    4  C7  UNL     1     -34.284  14.483  -3.272  1.00 20.00     0.014 C 
HETATM    5  C8  UNL     1     -33.291  15.635  -3.112  1.00 20.00     0.122 C 
ENDROOT
BRANCH   4   6
HETATM    6  C10 UNL     1     -34.054  13.609  -4.495  1.00 20.00     0.007 C 
BRANCH   6   7
HETATM    7  C9  UNL     1     -35.200  13.738  -5.497  1.00 20.00     0.005 C 
BRANCH   7   8
HETATM    8  C6  UNL     1     -34.745  14.420  -6.778  1.00 20.00    -0.014 A 
HETATM    9  C3  UNL     1     -35.709  14.614  -7.916  1.00 20.00     0.005 A 
HETATM   10  C4  UNL     1     -35.239  15.799  -7.117  1.00 20.00     0.005 A 
ENDBRANCH   7   8
ENDBRANCH   6   7
ENDBRANCH   4   6
BRANCH   5  11
HETATM   11  O11 UNL     1     -33.131  16.342  -4.336  1.00 20.00    -0.395 OA
HETATM   12  H29 UNL     1     -32.960  17.269  -4.103  1.00 20.00     0.210 HD
ENDBRANCH   5  11
TORSDOF 4
ENDMDL
MODEL 8
REMARK VINA RESULT:      -4.4     11.235     12.736
REMARK  4 active torsions:
REMARK  status: ('A' for Active; 'I' for Inactive)
REMARK    1  A    between atoms: C6_6  and  C9_9 
REMARK    2  A    between atoms: C7_7  and  C10_10 
REMARK    3  A    between atoms: C8_8  and  O11_11 
REMARK    4  A    between atoms: C9_9  and  C10_10 
ROOT
HETATM    1  C1  UNL     1     -34.218  16.154  -6.876  1.00 20.00     0.003 C 
HETATM    2  C2  UNL     1     -33.817  16.146  -5.400  1.00 20.00     0.007 C 
HETATM    3  C5  UNL     1     -34.815  14.775  -7.174  1.00 20.00     0.032 C 
HETATM    4  C7  UNL     1     -33.937  14.686  -4.957  1.00 20.00     0.014 C 
HETATM    5  C8  UNL     1     -35.096  14.162  -5.807  1.00 20.00     0.122 C 
ENDROOT
BRANCH   4   6
HETATM    6  C10 UNL     1     -34.134  14.542  -3.456  1.00 20.00     0.007 C 
BRANCH   6   7
HETATM    7  C9  UNL     1     -33.789  15.835  -2.721  1.00 20.00     0.005 C 
BRANCH   7   8
HETATM    8  C6  UNL     1     -34.861  16.202  -1.707  1.00 20.00    -0.014 A 
HETATM    9  C3  UNL     1     -34.502  16.983  -0.473  1.00 20.00     0.005 A 
HETATM   10  C4  UNL     1     -35.311  17.630  -1.564  1.00 20.00     0.005 A 
ENDBRANCH   7   8
ENDBRANCH   6   7
ENDBRANCH   4   6
BRANCH   5  11
HETATM   11  O11 UNL     1     -36.344  14.635  -5.315  1.00 20.00    -0.395 OA
HETATM   12  H29 UNL     1     -36.514  15.484  -5.754  1.00 20.00     0.210 HD
ENDBRANCH   5  11
TORSDOF 4
ENDMDL
MODEL 9
REMARK VINA RESULT:      -4.4      1.345      1.888
REMARK  4 active torsions:
REMARK  status: ('A' for Active; 'I' for Inactive)
REMARK    1  A    between atoms: C6_6  and  C9_9 
REMARK    2  A    between atoms: C7_7  and  C10_10 
REMARK    3  A    between atoms: C8_8  and  O11_11 
REMARK    4  A    between atoms: C9_9  and  C10_10 
ROOT
HETATM    1  C1  UNL     1     -34.171   6.349   6.770  1.00 20.00     0.003 C 
HETATM    2  C2  UNL     1     -33.426   6.755   5.498  1.00 20.00     0.007 C 
HETATM    3  C5  UNL     1     -35.194   5.287   6.357  1.00 20.00     0.032 C 
HETATM    4  C7  UNL     1     -34.217   6.125   4.349  1.00 20.00     0.014 C 
HETATM    5  C8  UNL     1     -34.757   4.836   4.968  1.00 20.00     0.122 C 
ENDROOT
BRANCH   4   6
HETATM    6  C10 UNL     1     -33.376   5.926   3.098  1.00 20.00     0.007 C 
BRANCH   6   7
HETATM    7  C9  UNL     1     -32.331   7.030   2.944  1.00 20.00     0.005 C 
BRANCH   7   8
HETATM    8  C6  UNL     1     -32.706   8.001   1.836  1.00 20.00    -0.014 A 
HETATM    9  C3  UNL     1     -32.417   9.469   1.986  1.00 20.00     0.005 A 
HETATM   10  C4  UNL     1     -31.635   8.645   1.000  1.00 20.00     0.005 A 
ENDBRANCH   7   8
ENDBRANCH   6   7
ENDBRANCH   4   6
BRANCH   5  11
HETATM   11  O11 UNL     1     -33.732   3.856   5.081  1.00 20.00    -0.395 OA
HETATM   12  H29 UNL     1     -33.783   3.304   4.284  1.00 20.00     0.210 HD
ENDBRANCH   5  11
TORSDOF 4
ENDMDL
