MODEL 1
REMARK VINA RESULT:      -4.7      0.000      0.000
REMARK  4 active torsions:
REMARK  status: ('A' for Active; 'I' for Inactive)
REMARK    1  A    between atoms: C1_1  and  C10_10 
REMARK    2  A    between atoms: C5_5  and  C8_8 
REMARK    3  A    between atoms: C8_8  and  C10_10 
REMARK    4  A    between atoms: C9_9  and  C10_10 
ROOT
HETATM    1  C10 UNL     1     -34.523  15.096  -2.914  1.00 20.00     0.055 C 
ENDROOT
BRANCH   1   2
HETATM    2  C1  UNL     1     -33.265  15.457  -3.702  1.00 20.00     0.127 C 
HETATM    3  C6  UNL     1     -33.383  16.590  -4.688  1.00 20.00     0.091 C 
HETATM    4  O11 UNL     1     -32.202  14.855  -3.549  1.00 20.00    -0.298 OA
ENDBRANCH   1   2
BRANCH   1   5
HETATM    5  C8  UNL     1     -35.075  16.344  -2.207  1.00 20.00     0.016 C 
BRANCH   5   6
HETATM    6  C5  UNL     1     -34.324  16.681  -0.937  1.00 20.00    -0.014 C 
HETATM    7  C3  UNL     1     -35.138  17.364   0.194  1.00 20.00     0.005 C 
HETATM    8  C2  UNL     1     -33.875  18.194   0.502  1.00 20.00     0.001 C 
HETATM    9  C4  UNL     1     -33.452  17.963  -0.964  1.00 20.00     0.005 C 
ENDBRANCH   5   6
ENDBRANCH   1   5
BRANCH   1  10
HETATM   10  C9  UNL     1     -35.579  14.501  -3.860  1.00 20.00     0.007 C 
HETATM   11  C7  UNL     1     -35.081  13.213  -4.507  1.00 20.00     0.006 C 
ENDBRANCH   1  10
TORSDOF 4
ENDMDL
MODEL 2
REMARK VINA RESULT:      -4.6      1.595      4.402
REMARK  4 active torsions:
REMARK  status: ('A' for Active; 'I' for Inactive)
REMARK    1  A    between atoms: C1_1  and  C10_10 
REMARK    2  A    between atoms: C5_5  and  C8_8 
REMARK    3  A    between atoms: C8_8  and  C10_10 
REMARK    4  A    between atoms: C9_9  and  C10_10 
ROOT
HETATM    1  C10 UNL     1     -33.574  15.217  -3.304  1.00 20.00     0.055 C 
ENDROOT
BRANCH   1   2
HETATM    2  C1  UNL     1     -33.827  13.781  -3.760  1.00 20.00     0.127 C 
HETATM    3  C6  UNL     1     -35.233  13.441  -4.185  1.00 20.00     0.091 C 
HETATM    4  O11 UNL     1     -32.934  12.934  -3.780  1.00 20.00    -0.298 OA
ENDBRANCH   1   2
BRANCH   1   5
HETATM    5  C8  UNL     1     -33.034  16.052  -4.476  1.00 20.00     0.016 C 
BRANCH   5   6
HETATM    6  C5  UNL     1     -34.133  16.618  -5.351  1.00 20.00    -0.014 C 
HETATM    7  C3  UNL     1     -34.271  16.014  -6.773  1.00 20.00     0.005 C 
HETATM    8  C2  UNL     1     -34.627  17.434  -7.261  1.00 20.00     0.001 C 
HETATM    9  C4  UNL     1     -33.839  17.971  -6.048  1.00 20.00     0.005 C 
ENDBRANCH   5   6
ENDBRANCH   1   5
BRANCH   1  10
HETATM   10  C9  UNL     1     -34.875  15.830  -2.761  1.00 20.00     0.007 C 
HETATM   11  C7  UNL     1     -34.679  16.393  -1.357  1.00 20.00     0.006 C 
ENDBRANCH   1  10
TORSDOF 4
ENDMDL
MODEL 3
REMARK VINA RESULT:      -4.5      1.718      2.361
REMARK  4 active torsions:
REMARK  status: ('A' for Active; 'I' for Inactive)
REMARK    1  A    between atoms: C1_1  and  C10_10 
REMARK    2  A    between atoms: C5_5  and  C8_8 
REMARK    3  A    between atoms: C8_8  and  C10_10 
REMARK    4  A    between atoms: C9_9  and  C10_10 
ROOT
HETATM    1  C10 UNL     1     -35.510  14.686  -3.663  1.00 20.00     0.055 C 
ENDROOT
BRANCH   1   2
HETATM    2  C1  UNL     1     -35.050  13.788  -4.811  1.00 20.00     0.127 C 
HETATM    3  C6  UNL     1     -34.888  14.439  -6.161  1.00 20.00     0.091 C 
HETATM    4  O11 UNL     1     -34.821  12.589  -4.652  1.00 20.00    -0.298 OA
ENDBRANCH   1   2
BRANCH   1   5
HETATM    5  C8  UNL     1     -34.828  16.059  -3.766  1.00 20.00     0.016 C 
BRANCH   5   6
HETATM    6  C5  UNL     1     -33.980  16.386  -2.555  1.00 20.00    -0.014 C 
HETATM    7  C3  UNL     1     -34.698  16.379  -1.180  1.00 20.00     0.005 C 
HETATM    8  C2  UNL     1     -33.805  17.574  -0.789  1.00 20.00     0.001 C 
HETATM    9  C4  UNL     1     -33.687  17.886  -2.296  1.00 20.00     0.005 C 
ENDBRANCH   5   6
ENDBRANCH   1   5
BRANCH   1  10
HETATM   10  C9  UNL     1     -37.039  14.840  -3.702  1.00 20.00     0.007 C 
HETATM   11  C7  UNL     1     -37.445  16.301  -3.866  1.00 20.00     0.006 C 
ENDBRANCH   1  10
TORSDOF 4
ENDMDL
MODEL 4
REMARK VINA RESULT:      -4.4      1.788      2.483
REMARK  4 active torsions:
REMARK  status: ('A' for Active; 'I' for Inactive)
REMARK    1  A    between atoms: C1_1  and  C10_10 
REMARK    2  A    between atoms: C5_5  and  C8_8 
REMARK    3  A    between atoms: C8_8  and  C10_10 
REMARK    4  A    between atoms: C9_9  and  C10_10 
ROOT
HETATM    1  C10 UNL     1     -35.175  15.045  -4.390  1.00 20.00     0.055 C 
ENDROOT
BRANCH   1   2
HETATM    2  C1  UNL     1     -34.493  13.697  -4.161  1.00 20.00     0.127 C 
HETATM    3  C6  UNL     1     -33.083  13.730  -3.628  1.00 20.00     0.091 C 
HETATM    4  O11 UNL     1     -35.058  12.630  -4.398  1.00 20.00    -0.298 OA
ENDBRANCH   1   2
BRANCH   1   5
HETATM    5  C8  UNL     1     -34.217  16.188  -4.015  1.00 20.00     0.016 C 
BRANCH   5   6
HETATM    6  C5  UNL     1     -34.689  16.981  -2.815  1.00 20.00    -0.014 C 
HETATM    7  C3  UNL     1     -33.671  17.971  -2.191  1.00 20.00     0.005 C 
HETATM    8  C2  UNL     1     -34.252  17.587  -0.814  1.00 20.00     0.001 C 
HETATM    9  C4  UNL     1     -34.680  16.247  -1.449  1.00 20.00     0.005 C 
ENDBRANCH   5   6
ENDBRANCH   1   5
BRANCH   1  10
HETATM   10  C9  UNL     1     -35.610  15.167  -5.859  1.00 20.00     0.007 C 
HETATM   11  C7  UNL     1     -34.404  15.243  -6.790  1.00 20.00     0.006 C 
ENDBRANCH   1  10
TORSDOF 4
ENDMDL
MODEL 5
REMARK VINA RESULT:      -4.4      1.772      2.651
REMARK  4 active torsions:
REMARK  status: ('A' for Active; 'I' for Inactive)
REMARK    1  A    between atoms: C1_1  and  C10_10 
REMARK    2  A    between atoms: C5_5  and  C8_8 
REMARK    3  A    between atoms: C8_8  and  C10_10 
REMARK    4  A    between atoms: C9_9  and  C10_10 
ROOT
HETATM    1  C10 UNL     1     -35.388  15.727  -3.719  1.00 20.00     0.055 C 
ENDROOT
BRANCH   1   2
HETATM    2  C1  UNL     1     -36.012  14.350  -3.937  1.00 20.00     0.127 C 
HETATM    3  C6  UNL     1     -35.082  13.242  -4.363  1.00 20.00     0.091 C 
HETATM    4  O11 UNL     1     -37.215  14.144  -3.776  1.00 20.00    -0.298 OA
ENDBRANCH   1   2
BRANCH   1   5
HETATM    5  C8  UNL     1     -34.279  15.640  -2.659  1.00 20.00     0.016 C 
BRANCH   5   6
HETATM    6  C5  UNL     1     -34.621  16.387  -1.387  1.00 20.00    -0.014 C 
HETATM    7  C3  UNL     1     -35.671  17.522  -1.508  1.00 20.00     0.005 C 
HETATM    8  C2  UNL     1     -34.840  18.302  -0.469  1.00 20.00     0.001 C 
HETATM    9  C4  UNL     1     -33.620  17.481  -0.933  1.00 20.00     0.005 C 
ENDBRANCH   5   6
ENDBRANCH   1   5
BRANCH   1  10
HETATM   10  C9  UNL     1     -34.822  16.260  -5.046  1.00 20.00     0.007 C 
HETATM   11  C7  UNL     1     -33.339  16.596  -4.921  1.00 20.00     0.006 C 
ENDBRANCH   1  10
TORSDOF 4
ENDMDL
MODEL 6
REMARK VINA RESULT:      -4.3      2.251      3.046
REMARK  4 active torsions:
REMARK  status: ('A' for Active; 'I' for Inactive)
REMARK    1  A    between atoms: C1_1  and  C10_10 
REMARK    2  A    between atoms: C5_5  and  C8_8 
REMARK    3  A    between atoms: C8_8  and  C10_10 
REMARK    4  A    between atoms: C9_9  and  C10_10 
ROOT
HETATM    1  C10 UNL     1     -35.357  15.057  -4.585  1.00 20.00     0.055 C 
ENDROOT
BRANCH   1   2
HETATM    2  C1  UNL     1     -36.822  15.070  -4.148  1.00 20.00     0.127 C 
HETATM    3  C6  UNL     1     -37.503  16.414  -4.095  1.00 20.00     0.091 C 
HETATM    4  O11 UNL     1     -37.424  14.039  -3.851  1.00 20.00    -0.298 OA
ENDBRANCH   1   2
BRANCH   1   5
HETATM    5  C8  UNL     1     -34.472  14.544  -3.438  1.00 20.00     0.016 C 
BRANCH   5   6
HETATM    6  C5  UNL     1     -33.788  15.661  -2.679  1.00 20.00    -0.014 C 
HETATM    7  C3  UNL     1     -34.592  16.312  -1.523  1.00 20.00     0.005 C 
HETATM    8  C2  UNL     1     -33.959  17.656  -1.937  1.00 20.00     0.001 C 
HETATM    9  C4  UNL     1     -33.788  17.059  -3.349  1.00 20.00     0.005 C 
ENDBRANCH   5   6
ENDBRANCH   1   5
BRANCH   1  10
HETATM   10  C9  UNL     1     -35.191  14.171  -5.830  1.00 20.00     0.007 C 
HETATM   11  C7  UNL     1     -34.533  14.939  -6.972  1.00 20.00     0.006 C 
ENDBRANCH   1  10
TORSDOF 4
ENDMDL
MODEL 7
REMARK VINA RESULT:      -4.3      1.654      4.352
REMARK  4 active torsions:
REMARK  status: ('A' for Active; 'I' for Inactive)
REMARK    1  A    between atoms: C1_1  and  C10_10 
REMARK    2  A    between atoms: C5_5  and  C8_8 
REMARK    3  A    between atoms: C8_8  and  C10_10 
REMARK    4  A    between atoms: C9_9  and  C10_10 
ROOT
HETATM    1  C10 UNL     1     -34.022  16.871  -2.811  1.00 20.00     0.055 C 
ENDROOT
BRANCH   1   2
HETATM    2  C1  UNL     1     -33.690  17.976  -3.812  1.00 20.00     0.127 C 
HETATM    3  C6  UNL     1     -33.493  17.557  -5.247  1.00 20.00     0.091 C 
HETATM    4  O11 UNL     1     -33.585  19.155  -3.474  1.00 20.00    -0.298 OA
ENDBRANCH   1   2
BRANCH   1   5
HETATM    5  C8  UNL     1     -33.272  15.582  -3.184  1.00 20.00     0.016 C 
BRANCH   5   6
HETATM    6  C5  UNL     1     -34.192  14.391  -3.342  1.00 20.00    -0.014 C 
HETATM    7  C3  UNL     1     -34.200  13.697  -4.730  1.00 20.00     0.005 C 
HETATM    8  C2  UNL     1     -35.714  13.480  -4.531  1.00 20.00     0.001 C 
HETATM    9  C4  UNL     1     -35.692  14.699  -3.585  1.00 20.00     0.005 C 
ENDBRANCH   5   6
ENDBRANCH   1   5
BRANCH   1  10
HETATM   10  C9  UNL     1     -33.643  17.322  -1.391  1.00 20.00     0.007 C 
HETATM   11  C7  UNL     1     -34.722  16.940  -0.382  1.00 20.00     0.006 C 
ENDBRANCH   1  10
TORSDOF 4
ENDMDL
MODEL 8
REMARK VINA RESULT:      -4.3      2.132      4.727
REMARK  4 active torsions:
REMARK  status: ('A' for Active; 'I' for Inactive)
REMARK    1  A    between atoms: C1_1  and  C10_10 
REMARK    2  A    between atoms: C5_5  and  C8_8 
REMARK    3  A    between atoms: C8_8  and  C10_10 
REMARK    4  A    between atoms: C9_9  and  C10_10 
ROOT
HETATM    1  C10 UNL     1     -33.950  16.041  -3.917  1.00 20.00     0.055 C 
ENDROOT
BRANCH   1   2
HETATM    2  C1  UNL     1     -33.943  17.070  -2.787  1.00 20.00     0.127 C 
HETATM    3  C6  UNL     1     -34.379  16.589  -1.427  1.00 20.00     0.091 C 
HETATM    4  O11 UNL     1     -33.603  18.239  -2.970  1.00 20.00    -0.298 OA
ENDBRANCH   1   2
BRANCH   1   5
HETATM    5  C8  UNL     1     -33.681  16.735  -5.261  1.00 20.00     0.016 C 
BRANCH   5   6
HETATM    6  C5  UNL     1     -34.662  16.328  -6.340  1.00 20.00    -0.014 C 
HETATM    7  C3  UNL     1     -35.934  15.572  -5.875  1.00 20.00     0.005 C 
HETATM    8  C2  UNL     1     -35.820  14.734  -7.165  1.00 20.00     0.001 C 
HETATM    9  C4  UNL     1     -34.311  15.056  -7.154  1.00 20.00     0.005 C 
ENDBRANCH   5   6
ENDBRANCH   1   5
BRANCH   1  10
HETATM   10  C9  UNL     1     -32.889  14.962  -3.646  1.00 20.00     0.007 C 
HETATM   11  C7  UNL     1     -33.470  13.560  -3.805  1.00 20.00     0.006 C 
ENDBRANCH   1  10
TORSDOF 4
ENDMDL
MODEL 9
REMARK VINA RESULT:      -4.3      1.684      2.874
REMARK  4 active torsions:
REMARK  status: ('A' for Active; 'I' for Inactive)
REMARK    1  A    between atoms: C1_1  and  C10_10 
REMARK    2  A    between atoms: C5_5  and  C8_8 
REMARK    3  A    between atoms: C8_8  and  C10_10 
REMARK    4  A    between atoms: C9_9  and  C10_10 
ROOT
HETATM    1  C10 UNL     1     -34.466  15.315  -4.612  1.00 20.00     0.055 C 
ENDROOT
BRANCH   1   2
HETATM    2  C1  UNL     1     -34.818  14.114  -5.489  1.00 20.00     0.127 C 
HETATM    3  C6  UNL     1     -35.134  14.399  -6.935  1.00 20.00     0.091 C 
HETATM    4  O11 UNL     1     -34.847  12.967  -5.046  1.00 20.00    -0.298 OA
ENDBRANCH   1   2
BRANCH   1   5
HETATM    5  C8  UNL     1     -34.132  14.844  -3.187  1.00 20.00     0.016 C 
BRANCH   5   6
HETATM    6  C5  UNL     1     -34.791  15.690  -2.118  1.00 20.00    -0.014 C 
HETATM    7  C3  UNL     1     -35.819  16.746  -2.602  1.00 20.00     0.005 C 
HETATM    8  C2  UNL     1     -35.286  17.669  -1.488  1.00 20.00     0.001 C 
HETATM    9  C4  UNL     1     -33.963  16.878  -1.564  1.00 20.00     0.005 C 
ENDBRANCH   5   6
ENDBRANCH   1   5
BRANCH   1  10
HETATM   10  C9  UNL     1     -33.277  16.076  -5.220  1.00 20.00     0.007 C 
HETATM   11  C7  UNL     1     -33.614  17.547  -5.439  1.00 20.00     0.006 C 
ENDBRANCH   1  10
TORSDOF 4
ENDMDL
