MODEL 1
REMARK VINA RESULT:      -4.6      0.000      0.000
REMARK  2 active torsions:
REMARK  status: ('A' for Active; 'I' for Inactive)
REMARK    1  A    between atoms: C3_3  and  C10_10 
REMARK    2  A    between atoms: C9_9  and  C10_10 
ROOT
HETATM    1  C1  UNL     1     -33.680  15.215  -3.334  1.00 20.00     0.006 C 
HETATM    2  C2  UNL     1     -33.692  13.801  -3.929  1.00 20.00     0.016 C 
HETATM    3  C3  UNL     1     -35.128  15.731  -3.393  1.00 20.00    -0.006 C 
HETATM    4  C4  UNL     1     -35.970  14.478  -3.684  1.00 20.00     0.000 C 
HETATM    5  C5  UNL     1     -35.061  13.631  -4.577  1.00 20.00     0.062 C 
HETATM    6  C6  UNL     1     -37.362  14.773  -4.226  1.00 20.00     0.011 C 
HETATM    7 BR11 UNL     1     -34.980  14.251  -6.428  1.00 20.00    -0.091 Br
ENDROOT
BRANCH   3   8
HETATM    8  C10 UNL     1     -35.540  16.458  -2.120  1.00 20.00    -0.014 C 
HETATM    9  C8  UNL     1     -36.087  17.847  -2.463  1.00 20.00     0.010 C 
BRANCH   8  10
HETATM   10  C9  UNL     1     -34.381  16.597  -1.114  1.00 20.00     0.000 C 
HETATM   11  C7  UNL     1     -34.770  17.331   0.162  1.00 20.00     0.005 C 
ENDBRANCH   8  10
ENDBRANCH   3   8
TORSDOF 2
ENDMDL
MODEL 2
REMARK VINA RESULT:      -4.5      1.322      1.945
REMARK  2 active torsions:
REMARK  status: ('A' for Active; 'I' for Inactive)
REMARK    1  A    between atoms: C3_3  and  C10_10 
REMARK    2  A    between atoms: C9_9  and  C10_10 
ROOT
HETATM    1  C1  UNL     1     -32.848  14.907  -3.526  1.00 20.00     0.006 C 
HETATM    2  C2  UNL     1     -33.543  13.579  -3.851  1.00 20.00     0.016 C 
HETATM    3  C3  UNL     1     -33.958  15.964  -3.389  1.00 20.00    -0.006 C 
HETATM    4  C4  UNL     1     -35.256  15.146  -3.285  1.00 20.00     0.000 C 
HETATM    5  C5  UNL     1     -34.989  13.932  -4.177  1.00 20.00     0.062 C 
HETATM    6  C6  UNL     1     -36.520  15.939  -3.586  1.00 20.00     0.011 C 
HETATM    7 BR11 UNL     1     -35.146  14.311  -6.087  1.00 20.00    -0.091 Br
ENDROOT
BRANCH   3   8
HETATM    8  C10 UNL     1     -33.732  16.896  -2.207  1.00 20.00    -0.014 C 
HETATM    9  C8  UNL     1     -34.621  16.479  -1.031  1.00 20.00     0.010 C 
BRANCH   8  10
HETATM   10  C9  UNL     1     -34.002  18.373  -2.554  1.00 20.00     0.000 C 
HETATM   11  C7  UNL     1     -33.783  18.700  -4.025  1.00 20.00     0.005 C 
ENDBRANCH   8  10
ENDBRANCH   3   8
TORSDOF 2
ENDMDL
MODEL 3
REMARK VINA RESULT:      -4.4      1.972      2.895
REMARK  2 active torsions:
REMARK  status: ('A' for Active; 'I' for Inactive)
REMARK    1  A    between atoms: C3_3  and  C10_10 
REMARK    2  A    between atoms: C9_9  and  C10_10 
ROOT
HETATM    1  C1  UNL     1     -34.065  18.211  -3.887  1.00 20.00     0.006 C 
HETATM    2  C2  UNL     1     -33.488  17.857  -5.263  1.00 20.00     0.016 C 
HETATM    3  C3  UNL     1     -34.098  16.906  -3.073  1.00 20.00    -0.006 C 
HETATM    4  C4  UNL     1     -33.219  15.931  -3.874  1.00 20.00     0.000 C 
HETATM    5  C5  UNL     1     -33.467  16.334  -5.329  1.00 20.00     0.062 C 
HETATM    6  C6  UNL     1     -33.441  14.464  -3.533  1.00 20.00     0.011 C 
HETATM    7 BR11 UNL     1     -35.171  15.695  -6.041  1.00 20.00    -0.091 Br
ENDROOT
BRANCH   3   8
HETATM    8  C10 UNL     1     -33.633  17.102  -1.636  1.00 20.00    -0.014 C 
HETATM    9  C8  UNL     1     -34.714  16.617  -0.665  1.00 20.00     0.010 C 
BRANCH   8  10
HETATM   10  C9  UNL     1     -33.282  18.569  -1.321  1.00 20.00     0.000 C 
HETATM   11  C7  UNL     1     -32.430  18.734  -0.071  1.00 20.00     0.005 C 
ENDBRANCH   8  10
ENDBRANCH   3   8
TORSDOF 2
ENDMDL
MODEL 4
REMARK VINA RESULT:      -4.3      2.239      4.213
REMARK  2 active torsions:
REMARK  status: ('A' for Active; 'I' for Inactive)
REMARK    1  A    between atoms: C3_3  and  C10_10 
REMARK    2  A    between atoms: C9_9  and  C10_10 
ROOT
HETATM    1  C1  UNL     1     -34.591  16.262  -1.407  1.00 20.00     0.006 C 
HETATM    2  C2  UNL     1     -33.779  17.561  -1.330  1.00 20.00     0.016 C 
HETATM    3  C3  UNL     1     -34.749  15.928  -2.900  1.00 20.00    -0.006 C 
HETATM    4  C4  UNL     1     -33.732  16.838  -3.607  1.00 20.00     0.000 C 
HETATM    5  C5  UNL     1     -33.728  18.107  -2.753  1.00 20.00     0.062 C 
HETATM    6  C6  UNL     1     -33.990  17.028  -5.095  1.00 20.00     0.011 C 
HETATM    7 BR11 UNL     1     -35.273  19.263  -3.057  1.00 20.00    -0.091 Br
ENDROOT
BRANCH   3   8
HETATM    8  C10 UNL     1     -34.544  14.447  -3.191  1.00 20.00    -0.014 C 
HETATM    9  C8  UNL     1     -33.122  14.205  -3.705  1.00 20.00     0.010 C 
BRANCH   8  10
HETATM   10  C9  UNL     1     -35.559  13.896  -4.210  1.00 20.00     0.000 C 
HETATM   11  C7  UNL     1     -36.927  14.558  -4.123  1.00 20.00     0.005 C 
ENDBRANCH   8  10
ENDBRANCH   3   8
TORSDOF 2
ENDMDL
MODEL 5
REMARK VINA RESULT:      -4.3      1.593      2.085
REMARK  2 active torsions:
REMARK  status: ('A' for Active; 'I' for Inactive)
REMARK    1  A    between atoms: C3_3  and  C10_10 
REMARK    2  A    between atoms: C9_9  and  C10_10 
ROOT
HETATM    1  C1  UNL     1     -35.242  17.062  -5.152  1.00 20.00     0.006 C 
HETATM    2  C2  UNL     1     -34.150  16.684  -6.161  1.00 20.00     0.016 C 
HETATM    3  C3  UNL     1     -35.657  15.762  -4.442  1.00 20.00    -0.006 C 
HETATM    4  C4  UNL     1     -34.554  14.756  -4.808  1.00 20.00     0.000 C 
HETATM    5  C5  UNL     1     -34.152  15.161  -6.228  1.00 20.00     0.062 C 
HETATM    6  C6  UNL     1     -34.945  13.298  -4.608  1.00 20.00     0.011 C 
HETATM    7 BR11 UNL     1     -35.416  14.577  -7.598  1.00 20.00    -0.091 Br
ENDROOT
BRANCH   3   8
HETATM    8  C10 UNL     1     -35.835  15.948  -2.942  1.00 20.00    -0.014 C 
HETATM    9  C8  UNL     1     -36.592  17.251  -2.661  1.00 20.00     0.010 C 
BRANCH   8  10
HETATM   10  C9  UNL     1     -34.496  15.960  -2.180  1.00 20.00     0.000 C 
HETATM   11  C7  UNL     1     -34.568  16.671  -0.837  1.00 20.00     0.005 C 
ENDBRANCH   8  10
ENDBRANCH   3   8
TORSDOF 2
ENDMDL
MODEL 6
REMARK VINA RESULT:      -4.3      1.217      1.283
REMARK  2 active torsions:
REMARK  status: ('A' for Active; 'I' for Inactive)
REMARK    1  A    between atoms: C3_3  and  C10_10 
REMARK    2  A    between atoms: C9_9  and  C10_10 
ROOT
HETATM    1  C1  UNL     1     -34.016  14.844  -3.204  1.00 20.00     0.006 C 
HETATM    2  C2  UNL     1     -34.834  13.747  -3.897  1.00 20.00     0.016 C 
HETATM    3  C3  UNL     1     -34.662  16.186  -3.590  1.00 20.00    -0.006 C 
HETATM    4  C4  UNL     1     -36.023  15.798  -4.190  1.00 20.00     0.000 C 
HETATM    5  C5  UNL     1     -35.744  14.465  -4.886  1.00 20.00     0.062 C 
HETATM    6  C6  UNL     1     -36.662  16.885  -5.045  1.00 20.00     0.011 C 
HETATM    7 BR11 UNL     1     -34.819  14.651  -6.597  1.00 20.00    -0.091 Br
ENDROOT
BRANCH   3   8
HETATM    8  C10 UNL     1     -34.769  17.143  -2.410  1.00 20.00    -0.014 C 
HETATM    9  C8  UNL     1     -33.731  18.261  -2.547  1.00 20.00     0.010 C 
BRANCH   8  10
HETATM   10  C9  UNL     1     -34.585  16.436  -1.054  1.00 20.00     0.000 C 
HETATM   11  C7  UNL     1     -34.944  17.310   0.140  1.00 20.00     0.005 C 
ENDBRANCH   8  10
ENDBRANCH   3   8
TORSDOF 2
ENDMDL
MODEL 7
REMARK VINA RESULT:      -4.2      1.842      2.579
REMARK  2 active torsions:
REMARK  status: ('A' for Active; 'I' for Inactive)
REMARK    1  A    between atoms: C3_3  and  C10_10 
REMARK    2  A    between atoms: C9_9  and  C10_10 
ROOT
HETATM    1  C1  UNL     1     -33.848  16.275  -6.102  1.00 20.00     0.006 C 
HETATM    2  C2  UNL     1     -34.293  15.262  -7.166  1.00 20.00     0.016 C 
HETATM    3  C3  UNL     1     -34.537  15.866  -4.789  1.00 20.00    -0.006 C 
HETATM    4  C4  UNL     1     -35.060  14.446  -5.055  1.00 20.00     0.000 C 
HETATM    5  C5  UNL     1     -35.435  14.471  -6.538  1.00 20.00     0.062 C 
HETATM    6  C6  UNL     1     -36.148  13.989  -4.093  1.00 20.00     0.011 C 
HETATM    7 BR11 UNL     1     -37.126  15.377  -6.906  1.00 20.00    -0.091 Br
ENDROOT
BRANCH   3   8
HETATM    8  C10 UNL     1     -33.604  15.955  -3.589  1.00 20.00    -0.014 C 
HETATM    9  C8  UNL     1     -32.664  14.745  -3.565  1.00 20.00     0.010 C 
BRANCH   8  10
HETATM   10  C9  UNL     1     -34.362  16.041  -2.251  1.00 20.00     0.000 C 
HETATM   11  C7  UNL     1     -33.843  17.134  -1.328  1.00 20.00     0.005 C 
ENDBRANCH   8  10
ENDBRANCH   3   8
TORSDOF 2
ENDMDL
MODEL 8
REMARK VINA RESULT:      -4.2      2.799      4.686
REMARK  2 active torsions:
REMARK  status: ('A' for Active; 'I' for Inactive)
REMARK    1  A    between atoms: C3_3  and  C10_10 
REMARK    2  A    between atoms: C9_9  and  C10_10 
ROOT
HETATM    1  C1  UNL     1     -35.853  16.682  -4.690  1.00 20.00     0.006 C 
HETATM    2  C2  UNL     1     -36.332  15.969  -3.420  1.00 20.00     0.016 C 
HETATM    3  C3  UNL     1     -34.380  16.284  -4.891  1.00 20.00    -0.006 C 
HETATM    4  C4  UNL     1     -34.173  15.091  -3.944  1.00 20.00     0.000 C 
HETATM    5  C5  UNL     1     -35.079  15.412  -2.754  1.00 20.00     0.062 C 
HETATM    6  C6  UNL     1     -32.715  14.795  -3.621  1.00 20.00     0.011 C 
HETATM    7 BR11 UNL     1     -34.339  16.755  -1.544  1.00 20.00    -0.091 Br
ENDROOT
BRANCH   3   8
HETATM    8  C10 UNL     1     -34.054  15.971  -6.345  1.00 20.00    -0.014 C 
HETATM    9  C8  UNL     1     -34.576  17.089  -7.252  1.00 20.00     0.010 C 
BRANCH   8  10
HETATM   10  C9  UNL     1     -34.637  14.621  -6.807  1.00 20.00     0.000 C 
HETATM   11  C7  UNL     1     -35.671  14.755  -7.915  1.00 20.00     0.005 C 
ENDBRANCH   8  10
ENDBRANCH   3   8
TORSDOF 2
ENDMDL
MODEL 9
REMARK VINA RESULT:      -4.2      2.839      4.398
REMARK  2 active torsions:
REMARK  status: ('A' for Active; 'I' for Inactive)
REMARK    1  A    between atoms: C3_3  and  C10_10 
REMARK    2  A    between atoms: C9_9  and  C10_10 
ROOT
HETATM    1  C1  UNL     1     -34.864  13.593  -4.445  1.00 20.00     0.006 C 
HETATM    2  C2  UNL     1     -33.515  13.845  -3.759  1.00 20.00     0.016 C 
HETATM    3  C3  UNL     1     -35.223  14.884  -5.201  1.00 20.00    -0.006 C 
HETATM    4  C4  UNL     1     -33.917  15.695  -5.218  1.00 20.00     0.000 C 
HETATM    5  C5  UNL     1     -33.256  15.342  -3.884  1.00 20.00     0.062 C 
HETATM    6  C6  UNL     1     -34.106  17.178  -5.506  1.00 20.00     0.011 C 
HETATM    7 BR11 UNL     1     -34.041  16.264  -2.351  1.00 20.00    -0.091 Br
ENDROOT
BRANCH   3   8
HETATM    8  C10 UNL     1     -35.786  14.609  -6.589  1.00 20.00    -0.014 C 
HETATM    9  C8  UNL     1     -34.694  14.802  -7.645  1.00 20.00     0.010 C 
BRANCH   8  10
HETATM   10  C9  UNL     1     -36.992  15.504  -6.929  1.00 20.00     0.000 C 
HETATM   11  C7  UNL     1     -37.818  15.898  -5.712  1.00 20.00     0.005 C 
ENDBRANCH   8  10
ENDBRANCH   3   8
TORSDOF 2
ENDMDL
