MODEL 1
REMARK VINA RESULT:      -6.0      0.000      0.000
REMARK  3 active torsions:
REMARK  status: ('A' for Active; 'I' for Inactive)
REMARK    1  A    between atoms: C7_7  and  C9_9 
REMARK    2  A    between atoms: C8_8  and  C10_10 
REMARK    3  A    between atoms: C9_9  and  C10_10 
ROOT
HETATM    1  C1  UNL     1     -34.855   5.475   4.014  1.00 20.00     0.131 C 
HETATM    2  C2  UNL     1     -35.248   4.610   5.184  1.00 20.00     0.079 C 
HETATM    3  C3  UNL     1     -34.186   4.971   6.214  1.00 20.00     0.008 C 
HETATM    4  C4  UNL     1     -33.854   6.430   5.926  1.00 20.00     0.013 C 
HETATM    5  C7  UNL     1     -33.857   6.546   4.399  1.00 20.00     0.055 C 
HETATM    6  O11 UNL     1     -35.299   5.327   2.883  1.00 20.00    -0.298 OA
ENDROOT
BRANCH   5   7
HETATM    7  C9  UNL     1     -32.501   6.261   3.776  1.00 20.00     0.012 C 
BRANCH   7   8
HETATM    8  C10 UNL     1     -31.821   7.542   3.292  1.00 20.00     0.005 C 
BRANCH   8   9
HETATM    9  C8  UNL     1     -32.484   8.089   2.036  1.00 20.00    -0.014 A 
HETATM   10  C5  UNL     1     -32.490   9.568   1.767  1.00 20.00     0.005 A 
HETATM   11  C6  UNL     1     -31.645   8.655   0.924  1.00 20.00     0.005 A 
ENDBRANCH   8   9
ENDBRANCH   7   8
ENDBRANCH   5   7
TORSDOF 3
ENDMDL
MODEL 2
REMARK VINA RESULT:      -5.3      0.859      1.058
REMARK  3 active torsions:
REMARK  status: ('A' for Active; 'I' for Inactive)
REMARK    1  A    between atoms: C7_7  and  C9_9 
REMARK    2  A    between atoms: C8_8  and  C10_10 
REMARK    3  A    between atoms: C9_9  and  C10_10 
ROOT
HETATM    1  C1  UNL     1     -34.744   4.850   4.829  1.00 20.00     0.131 C 
HETATM    2  C2  UNL     1     -34.723   5.094   6.316  1.00 20.00     0.079 C 
HETATM    3  C3  UNL     1     -33.914   6.380   6.414  1.00 20.00     0.008 C 
HETATM    4  C4  UNL     1     -34.241   7.136   5.131  1.00 20.00     0.013 C 
HETATM    5  C7  UNL     1     -34.301   6.064   4.040  1.00 20.00     0.055 C 
HETATM    6  O11 UNL     1     -35.087   3.791   4.320  1.00 20.00    -0.298 OA
ENDROOT
BRANCH   5   7
HETATM    7  C9  UNL     1     -32.956   5.808   3.380  1.00 20.00     0.012 C 
BRANCH   7   8
HETATM    8  C10 UNL     1     -32.159   7.102   3.204  1.00 20.00     0.005 C 
BRANCH   8   9
HETATM    9  C8  UNL     1     -32.614   7.879   1.978  1.00 20.00    -0.014 A 
HETATM   10  C5  UNL     1     -32.532   9.380   1.961  1.00 20.00     0.005 A 
HETATM   11  C6  UNL     1     -31.605   8.567   1.102  1.00 20.00     0.005 A 
ENDBRANCH   8   9
ENDBRANCH   7   8
ENDBRANCH   5   7
TORSDOF 3
ENDMDL
MODEL 3
REMARK VINA RESULT:      -5.0     11.060     12.068
REMARK  3 active torsions:
REMARK  status: ('A' for Active; 'I' for Inactive)
REMARK    1  A    between atoms: C7_7  and  C9_9 
REMARK    2  A    between atoms: C8_8  and  C10_10 
REMARK    3  A    between atoms: C9_9  and  C10_10 
ROOT
HETATM    1  C1  UNL     1     -34.539  13.837  -4.936  1.00 20.00     0.131 C 
HETATM    2  C2  UNL     1     -34.507  14.472  -6.302  1.00 20.00     0.079 C 
HETATM    3  C3  UNL     1     -34.458  15.955  -5.960  1.00 20.00     0.008 C 
HETATM    4  C4  UNL     1     -33.689  16.019  -4.646  1.00 20.00     0.013 C 
HETATM    5  C7  UNL     1     -34.177  14.814  -3.838  1.00 20.00     0.055 C 
HETATM    6  O11 UNL     1     -34.821  12.662  -4.742  1.00 20.00    -0.298 OA
ENDROOT
BRANCH   5   7
HETATM    7  C9  UNL     1     -35.392  15.125  -2.979  1.00 20.00     0.012 C 
BRANCH   7   8
HETATM    8  C10 UNL     1     -35.297  16.514  -2.348  1.00 20.00     0.005 C 
BRANCH   8   9
HETATM    9  C8  UNL     1     -34.468  16.495  -1.072  1.00 20.00    -0.014 A 
HETATM   10  C5  UNL     1     -33.682  17.710  -0.663  1.00 20.00     0.005 A 
HETATM   11  C6  UNL     1     -34.899  17.303   0.121  1.00 20.00     0.005 A 
ENDBRANCH   8   9
ENDBRANCH   7   8
ENDBRANCH   5   7
TORSDOF 3
ENDMDL
MODEL 4
REMARK VINA RESULT:      -4.8      1.596      2.056
REMARK  3 active torsions:
REMARK  status: ('A' for Active; 'I' for Inactive)
REMARK    1  A    between atoms: C7_7  and  C9_9 
REMARK    2  A    between atoms: C8_8  and  C10_10 
REMARK    3  A    between atoms: C9_9  and  C10_10 
ROOT
HETATM    1  C1  UNL     1     -33.894   6.202   5.953  1.00 20.00     0.131 C 
HETATM    2  C2  UNL     1     -35.097   5.336   6.226  1.00 20.00     0.079 C 
HETATM    3  C3  UNL     1     -35.384   4.752   4.849  1.00 20.00     0.008 C 
HETATM    4  C4  UNL     1     -34.015   4.639   4.189  1.00 20.00     0.013 C 
HETATM    5  C7  UNL     1     -33.263   5.906   4.609  1.00 20.00     0.055 C 
HETATM    6  O11 UNL     1     -33.474   7.045   6.736  1.00 20.00    -0.298 OA
ENDROOT
BRANCH   5   7
HETATM    7  C9  UNL     1     -33.473   7.069   3.654  1.00 20.00     0.012 C 
BRANCH   7   8
HETATM    8  C10 UNL     1     -32.531   6.989   2.452  1.00 20.00     0.005 C 
BRANCH   8   9
HETATM    9  C8  UNL     1     -31.872   8.329   2.165  1.00 20.00    -0.014 A 
HETATM   10  C5  UNL     1     -31.779   8.840   0.754  1.00 20.00     0.005 A 
HETATM   11  C6  UNL     1     -32.705   9.505   1.735  1.00 20.00     0.005 A 
ENDBRANCH   8   9
ENDBRANCH   7   8
ENDBRANCH   5   7
TORSDOF 3
ENDMDL
MODEL 5
REMARK VINA RESULT:      -4.7     10.677     11.645
REMARK  3 active torsions:
REMARK  status: ('A' for Active; 'I' for Inactive)
REMARK    1  A    between atoms: C7_7  and  C9_9 
REMARK    2  A    between atoms: C8_8  and  C10_10 
REMARK    3  A    between atoms: C9_9  and  C10_10 
ROOT
HETATM    1  C1  UNL     1     -35.678  14.851  -3.507  1.00 20.00     0.131 C 
HETATM    2  C2  UNL     1     -35.773  13.702  -4.477  1.00 20.00     0.079 C 
HETATM    3  C3  UNL     1     -34.317  13.500  -4.872  1.00 20.00     0.008 C 
HETATM    4  C4  UNL     1     -33.526  13.890  -3.629  1.00 20.00     0.013 C 
HETATM    5  C7  UNL     1     -34.255  15.109  -3.057  1.00 20.00     0.055 C 
HETATM    6  O11 UNL     1     -36.645  15.496  -3.124  1.00 20.00    -0.298 OA
ENDROOT
BRANCH   5   7
HETATM    7  C9  UNL     1     -33.748  16.426  -3.621  1.00 20.00     0.012 C 
BRANCH   7   8
HETATM    8  C10 UNL     1     -33.935  17.574  -2.628  1.00 20.00     0.005 C 
BRANCH   8   9
HETATM    9  C8  UNL     1     -33.778  17.103  -1.190  1.00 20.00    -0.014 A 
HETATM   10  C5  UNL     1     -33.634  18.105  -0.078  1.00 20.00     0.005 A 
HETATM   11  C6  UNL     1     -34.896  17.299  -0.204  1.00 20.00     0.005 A 
ENDBRANCH   8   9
ENDBRANCH   7   8
ENDBRANCH   5   7
TORSDOF 3
ENDMDL
MODEL 6
REMARK VINA RESULT:      -4.6     10.509     12.289
REMARK  3 active torsions:
REMARK  status: ('A' for Active; 'I' for Inactive)
REMARK    1  A    between atoms: C7_7  and  C9_9 
REMARK    2  A    between atoms: C8_8  and  C10_10 
REMARK    3  A    between atoms: C9_9  and  C10_10 
ROOT
HETATM    1  C1  UNL     1     -34.675  13.606  -3.946  1.00 20.00     0.131 C 
HETATM    2  C2  UNL     1     -33.203  13.821  -3.709  1.00 20.00     0.079 C 
HETATM    3  C3  UNL     1     -33.143  15.318  -3.437  1.00 20.00     0.008 C 
HETATM    4  C4  UNL     1     -34.472  15.638  -2.764  1.00 20.00     0.013 C 
HETATM    5  C7  UNL     1     -35.509  14.790  -3.505  1.00 20.00     0.055 C 
HETATM    6  O11 UNL     1     -35.141  12.584  -4.435  1.00 20.00    -0.298 OA
ENDROOT
BRANCH   5   7
HETATM    7  C9  UNL     1     -36.108  15.498  -4.709  1.00 20.00     0.012 C 
BRANCH   7   8
HETATM    8  C10 UNL     1     -35.911  17.012  -4.629  1.00 20.00     0.005 C 
BRANCH   8   9
HETATM    9  C8  UNL     1     -35.291  17.565  -5.904  1.00 20.00    -0.014 A 
HETATM   10  C5  UNL     1     -33.845  17.978  -5.925  1.00 20.00     0.005 A 
HETATM   11  C6  UNL     1     -34.288  16.751  -6.672  1.00 20.00     0.005 A 
ENDBRANCH   8   9
ENDBRANCH   7   8
ENDBRANCH   5   7
TORSDOF 3
ENDMDL
MODEL 7
REMARK VINA RESULT:      -4.5      9.776     11.329
REMARK  3 active torsions:
REMARK  status: ('A' for Active; 'I' for Inactive)
REMARK    1  A    between atoms: C7_7  and  C9_9 
REMARK    2  A    between atoms: C8_8  and  C10_10 
REMARK    3  A    between atoms: C9_9  and  C10_10 
ROOT
HETATM    1  C1  UNL     1     -41.914   6.075  -2.231  1.00 20.00     0.131 C 
HETATM    2  C2  UNL     1     -41.268   6.969  -1.204  1.00 20.00     0.079 C 
HETATM    3  C3  UNL     1     -40.887   5.974  -0.116  1.00 20.00     0.008 C 
HETATM    4  C4  UNL     1     -40.584   4.683  -0.867  1.00 20.00     0.013 C 
HETATM    5  C7  UNL     1     -41.638   4.609  -1.975  1.00 20.00     0.055 C 
HETATM    6  O11 UNL     1     -42.581   6.493  -3.169  1.00 20.00    -0.298 OA
ENDROOT
BRANCH   5   7
HETATM    7  C9  UNL     1     -42.909   3.895  -1.543  1.00 20.00     0.012 C 
BRANCH   7   8
HETATM    8  C10 UNL     1     -43.086   2.566  -2.277  1.00 20.00     0.005 C 
BRANCH   8   9
HETATM    9  C8  UNL     1     -42.101   2.424  -3.428  1.00 20.00    -0.014 A 
HETATM   10  C5  UNL     1     -41.603   1.064  -3.835  1.00 20.00     0.005 A 
HETATM   11  C6  UNL     1     -42.544   1.819  -4.732  1.00 20.00     0.005 A 
ENDBRANCH   8   9
ENDBRANCH   7   8
ENDBRANCH   5   7
TORSDOF 3
ENDMDL
MODEL 8
REMARK VINA RESULT:      -4.4     10.604     12.061
REMARK  3 active torsions:
REMARK  status: ('A' for Active; 'I' for Inactive)
REMARK    1  A    between atoms: C7_7  and  C9_9 
REMARK    2  A    between atoms: C8_8  and  C10_10 
REMARK    3  A    between atoms: C9_9  and  C10_10 
ROOT
HETATM    1  C1  UNL     1     -36.535  14.474  -4.523  1.00 20.00     0.131 C 
HETATM    2  C2  UNL     1     -36.677  15.677  -5.421  1.00 20.00     0.079 C 
HETATM    3  C3  UNL     1     -35.257  15.852  -5.940  1.00 20.00     0.008 C 
HETATM    4  C4  UNL     1     -34.693  14.438  -5.998  1.00 20.00     0.013 C 
HETATM    5  C7  UNL     1     -35.228  13.743  -4.742  1.00 20.00     0.055 C 
HETATM    6  O11 UNL     1     -37.386  14.128  -3.714  1.00 20.00    -0.298 OA
ENDROOT
BRANCH   5   7
HETATM    7  C9  UNL     1     -34.317  13.907  -3.537  1.00 20.00     0.012 C 
BRANCH   7   8
HETATM    8  C10 UNL     1     -33.400  15.121  -3.683  1.00 20.00     0.005 C 
BRANCH   8   9
HETATM    9  C8  UNL     1     -33.543  16.078  -2.509  1.00 20.00    -0.014 A 
HETATM   10  C5  UNL     1     -34.285  17.375  -2.677  1.00 20.00     0.005 A 
HETATM   11  C6  UNL     1     -34.880  16.270  -1.850  1.00 20.00     0.005 A 
ENDBRANCH   8   9
ENDBRANCH   7   8
ENDBRANCH   5   7
TORSDOF 3
ENDMDL
MODEL 9
REMARK VINA RESULT:      -4.4     10.542     12.077
REMARK  3 active torsions:
REMARK  status: ('A' for Active; 'I' for Inactive)
REMARK    1  A    between atoms: C7_7  and  C9_9 
REMARK    2  A    between atoms: C8_8  and  C10_10 
REMARK    3  A    between atoms: C9_9  and  C10_10 
ROOT
HETATM    1  C1  UNL     1     -34.569  13.548  -4.173  1.00 20.00     0.131 C 
HETATM    2  C2  UNL     1     -33.194  13.868  -3.646  1.00 20.00     0.079 C 
HETATM    3  C3  UNL     1     -33.322  15.346  -3.305  1.00 20.00     0.008 C 
HETATM    4  C4  UNL     1     -34.778  15.518  -2.890  1.00 20.00     0.013 C 
HETATM    5  C7  UNL     1     -35.575  14.633  -3.853  1.00 20.00     0.055 C 
HETATM    6  O11 UNL     1     -34.839  12.523  -4.785  1.00 20.00    -0.298 OA
ENDROOT
BRANCH   5   7
HETATM    7  C9  UNL     1     -35.997  15.359  -5.119  1.00 20.00     0.012 C 
BRANCH   7   8
HETATM    8  C10 UNL     1     -37.475  15.751  -5.079  1.00 20.00     0.005 C 
BRANCH   8   9
HETATM    9  C8  UNL     1     -38.281  14.814  -4.193  1.00 20.00    -0.014 A 
HETATM   10  C5  UNL     1     -39.353  15.360  -3.291  1.00 20.00     0.005 A 
HETATM   11  C6  UNL     1     -39.728  14.545  -4.497  1.00 20.00     0.005 A 
ENDBRANCH   8   9
ENDBRANCH   7   8
ENDBRANCH   5   7
TORSDOF 3
ENDMDL
