MODEL 1
REMARK VINA RESULT:      -4.9      0.000      0.000
REMARK  2 active torsions:
REMARK  status: ('A' for Active; 'I' for Inactive)
REMARK    1  A    between atoms: C1_1  and  C9_9 
REMARK    2  A    between atoms: C6_6  and  C9_9 
ROOT
HETATM    1  C2  UNL     1     -34.061   6.599   5.759  1.00 20.00     0.031 C 
HETATM    2  C3  UNL     1     -35.301   5.517   3.862  1.00 20.00     0.031 C 
HETATM    3  C4  UNL     1     -34.031   5.229   6.427  1.00 20.00     0.168 C 
HETATM    4  C5  UNL     1     -35.201   4.208   4.638  1.00 20.00     0.168 C 
HETATM    5  C6  UNL     1     -34.178   6.494   4.232  1.00 20.00     0.000 C 
HETATM    6  O11 UNL     1     -35.165   4.453   6.043  1.00 20.00    -0.391 OA
ENDROOT
BRANCH   5   7
HETATM    7  C9  UNL     1     -32.847   6.092   3.592  1.00 20.00     0.055 C 
HETATM    8  C8  UNL     1     -33.081   5.363   2.272  1.00 20.00     0.018 C 
BRANCH   7   9
HETATM    9  C1  UNL     1     -31.974   7.327   3.389  1.00 20.00     0.127 C 
HETATM   10  C7  UNL     1     -32.178   8.103   2.113  1.00 20.00     0.091 C 
HETATM   11  O10 UNL     1     -31.122   7.673   4.207  1.00 20.00    -0.298 OA
ENDBRANCH   7   9
ENDBRANCH   5   7
TORSDOF 2
ENDMDL
MODEL 2
REMARK VINA RESULT:      -4.6     11.646     12.772
REMARK  2 active torsions:
REMARK  status: ('A' for Active; 'I' for Inactive)
REMARK    1  A    between atoms: C1_1  and  C9_9 
REMARK    2  A    between atoms: C6_6  and  C9_9 
ROOT
HETATM    1  C2  UNL     1     -36.404  15.594  -3.327  1.00 20.00     0.031 C 
HETATM    2  C3  UNL     1     -34.412  16.216  -1.930  1.00 20.00     0.031 C 
HETATM    3  C4  UNL     1     -36.440  17.044  -3.794  1.00 20.00     0.168 C 
HETATM    4  C5  UNL     1     -34.562  17.632  -2.475  1.00 20.00     0.168 C 
HETATM    5  C6  UNL     1     -34.999  15.165  -2.882  1.00 20.00     0.000 C 
HETATM    6  O11 UNL     1     -35.925  17.914  -2.787  1.00 20.00    -0.391 OA
ENDROOT
BRANCH   5   7
HETATM    7  C9  UNL     1     -34.080  14.915  -4.081  1.00 20.00     0.055 C 
HETATM    8  C8  UNL     1     -32.671  14.558  -3.616  1.00 20.00     0.018 C 
BRANCH   7   9
HETATM    9  C1  UNL     1     -34.663  13.814  -4.961  1.00 20.00     0.127 C 
HETATM   10  C7  UNL     1     -35.052  14.200  -6.366  1.00 20.00     0.091 C 
HETATM   11  O10 UNL     1     -34.839  12.667  -4.552  1.00 20.00    -0.298 OA
ENDBRANCH   7   9
ENDBRANCH   5   7
TORSDOF 2
ENDMDL
MODEL 3
REMARK VINA RESULT:      -4.2     11.517     13.725
REMARK  2 active torsions:
REMARK  status: ('A' for Active; 'I' for Inactive)
REMARK    1  A    between atoms: C1_1  and  C9_9 
REMARK    2  A    between atoms: C6_6  and  C9_9 
ROOT
HETATM    1  C2  UNL     1     -34.139  16.552  -6.144  1.00 20.00     0.031 C 
HETATM    2  C3  UNL     1     -35.276  14.447  -6.905  1.00 20.00     0.031 C 
HETATM    3  C4  UNL     1     -35.492  17.243  -6.267  1.00 20.00     0.168 C 
HETATM    4  C5  UNL     1     -36.565  15.257  -6.987  1.00 20.00     0.168 C 
HETATM    5  C6  UNL     1     -34.281  15.043  -5.902  1.00 20.00     0.000 C 
HETATM    6  O11 UNL     1     -36.286  16.626  -7.279  1.00 20.00    -0.391 OA
ENDROOT
BRANCH   5   7
HETATM    7  C9  UNL     1     -34.688  14.740  -4.457  1.00 20.00     0.055 C 
HETATM    8  C8  UNL     1     -34.999  13.257  -4.283  1.00 20.00     0.018 C 
BRANCH   7   9
HETATM    9  C1  UNL     1     -33.585  15.186  -3.503  1.00 20.00     0.127 C 
HETATM   10  C7  UNL     1     -33.968  16.179  -2.435  1.00 20.00     0.091 C 
HETATM   11  O10 UNL     1     -32.426  14.784  -3.602  1.00 20.00    -0.298 OA
ENDBRANCH   7   9
ENDBRANCH   5   7
TORSDOF 2
ENDMDL
MODEL 4
REMARK VINA RESULT:      -4.1     11.586     14.037
REMARK  2 active torsions:
REMARK  status: ('A' for Active; 'I' for Inactive)
REMARK    1  A    between atoms: C1_1  and  C9_9 
REMARK    2  A    between atoms: C6_6  and  C9_9 
ROOT
HETATM    1  C2  UNL     1     -34.758  14.987  -7.089  1.00 20.00     0.031 C 
HETATM    2  C3  UNL     1     -37.102  15.674  -6.507  1.00 20.00     0.031 C 
HETATM    3  C4  UNL     1     -34.419  16.471  -7.169  1.00 20.00     0.168 C 
HETATM    4  C5  UNL     1     -36.631  17.119  -6.620  1.00 20.00     0.168 C 
HETATM    5  C6  UNL     1     -35.953  14.717  -6.165  1.00 20.00     0.000 C 
HETATM    6  O11 UNL     1     -35.562  17.232  -7.559  1.00 20.00    -0.391 OA
ENDROOT
BRANCH   5   7
HETATM    7  C9  UNL     1     -35.557  14.816  -4.689  1.00 20.00     0.055 C 
HETATM    8  C8  UNL     1     -36.792  14.765  -3.794  1.00 20.00     0.018 C 
BRANCH   7   9
HETATM    9  C1  UNL     1     -34.578  13.700  -4.338  1.00 20.00     0.127 C 
HETATM   10  C7  UNL     1     -33.255  14.115  -3.746  1.00 20.00     0.091 C 
HETATM   11  O10 UNL     1     -34.830  12.513  -4.546  1.00 20.00    -0.298 OA
ENDBRANCH   7   9
ENDBRANCH   5   7
TORSDOF 2
ENDMDL
MODEL 5
REMARK VINA RESULT:      -4.1     11.924     13.415
REMARK  2 active torsions:
REMARK  status: ('A' for Active; 'I' for Inactive)
REMARK    1  A    between atoms: C1_1  and  C9_9 
REMARK    2  A    between atoms: C6_6  and  C9_9 
ROOT
HETATM    1  C2  UNL     1     -33.499  16.284  -5.279  1.00 20.00     0.031 C 
HETATM    2  C3  UNL     1     -33.416  14.430  -3.586  1.00 20.00     0.031 C 
HETATM    3  C4  UNL     1     -34.555  15.468  -6.016  1.00 20.00     0.168 C 
HETATM    4  C5  UNL     1     -34.476  13.718  -4.420  1.00 20.00     0.168 C 
HETATM    5  C6  UNL     1     -33.455  15.951  -3.781  1.00 20.00     0.000 C 
HETATM    6  O11 UNL     1     -34.359  14.071  -5.798  1.00 20.00    -0.391 OA
ENDROOT
BRANCH   5   7
HETATM    7  C9  UNL     1     -34.627  16.586  -3.027  1.00 20.00     0.055 C 
HETATM    8  C8  UNL     1     -34.564  16.242  -1.542  1.00 20.00     0.018 C 
BRANCH   7   9
HETATM    9  C1  UNL     1     -34.624  18.096  -3.241  1.00 20.00     0.127 C 
HETATM   10  C7  UNL     1     -33.513  18.875  -2.584  1.00 20.00     0.091 C 
HETATM   11  O10 UNL     1     -35.495  18.671  -3.895  1.00 20.00    -0.298 OA
ENDBRANCH   7   9
ENDBRANCH   5   7
TORSDOF 2
ENDMDL
MODEL 6
REMARK VINA RESULT:      -4.1     11.064     12.733
REMARK  2 active torsions:
REMARK  status: ('A' for Active; 'I' for Inactive)
REMARK    1  A    between atoms: C1_1  and  C9_9 
REMARK    2  A    between atoms: C6_6  and  C9_9 
ROOT
HETATM    1  C2  UNL     1     -35.092  14.885  -5.097  1.00 20.00     0.031 C 
HETATM    2  C3  UNL     1     -33.038  15.111  -3.669  1.00 20.00     0.031 C 
HETATM    3  C4  UNL     1     -35.067  13.396  -4.772  1.00 20.00     0.168 C 
HETATM    4  C5  UNL     1     -33.129  13.608  -3.426  1.00 20.00     0.168 C 
HETATM    5  C6  UNL     1     -34.402  15.724  -4.012  1.00 20.00     0.000 C 
HETATM    6  O11 UNL     1     -33.731  12.950  -4.539  1.00 20.00    -0.391 OA
ENDROOT
BRANCH   5   7
HETATM    7  C9  UNL     1     -35.283  15.870  -2.768  1.00 20.00     0.055 C 
HETATM    8  C8  UNL     1     -34.470  16.399  -1.591  1.00 20.00     0.018 C 
BRANCH   7   9
HETATM    9  C1  UNL     1     -36.465  16.785  -3.075  1.00 20.00     0.127 C 
HETATM   10  C7  UNL     1     -36.154  18.240  -3.321  1.00 20.00     0.091 C 
HETATM   11  O10 UNL     1     -37.625  16.377  -3.097  1.00 20.00    -0.298 OA
ENDBRANCH   7   9
ENDBRANCH   5   7
TORSDOF 2
ENDMDL
MODEL 7
REMARK VINA RESULT:      -4.1     11.538     13.130
REMARK  2 active torsions:
REMARK  status: ('A' for Active; 'I' for Inactive)
REMARK    1  A    between atoms: C1_1  and  C9_9 
REMARK    2  A    between atoms: C6_6  and  C9_9 
ROOT
HETATM    1  C2  UNL     1     -34.016  15.405  -3.009  1.00 20.00     0.031 C 
HETATM    2  C3  UNL     1     -35.730  13.985  -4.172  1.00 20.00     0.031 C 
HETATM    3  C4  UNL     1     -32.952  14.532  -3.664  1.00 20.00     0.168 C 
HETATM    4  C5  UNL     1     -34.569  13.191  -4.760  1.00 20.00     0.168 C 
HETATM    5  C6  UNL     1     -35.325  15.420  -3.811  1.00 20.00     0.000 C 
HETATM    6  O11 UNL     1     -33.445  13.210  -3.882  1.00 20.00    -0.391 OA
ENDROOT
BRANCH   5   7
HETATM    7  C9  UNL     1     -35.212  16.303  -5.058  1.00 20.00     0.055 C 
HETATM    8  C8  UNL     1     -36.500  16.251  -5.874  1.00 20.00     0.018 C 
BRANCH   7   9
HETATM    9  C1  UNL     1     -34.877  17.735  -4.650  1.00 20.00     0.127 C 
HETATM   10  C7  UNL     1     -33.587  18.309  -5.179  1.00 20.00     0.091 C 
HETATM   11  O10 UNL     1     -35.601  18.394  -3.905  1.00 20.00    -0.298 OA
ENDBRANCH   7   9
ENDBRANCH   5   7
TORSDOF 2
ENDMDL
MODEL 8
REMARK VINA RESULT:      -4.1     11.567     13.263
REMARK  2 active torsions:
REMARK  status: ('A' for Active; 'I' for Inactive)
REMARK    1  A    between atoms: C1_1  and  C9_9 
REMARK    2  A    between atoms: C6_6  and  C9_9 
ROOT
HETATM    1  C2  UNL     1     -36.852  15.253  -3.560  1.00 20.00     0.031 C 
HETATM    2  C3  UNL     1     -36.732  16.745  -5.577  1.00 20.00     0.031 C 
HETATM    3  C4  UNL     1     -38.206  14.781  -4.078  1.00 20.00     0.168 C 
HETATM    4  C5  UNL     1     -38.093  16.189  -5.980  1.00 20.00     0.168 C 
HETATM    5  C6  UNL     1     -35.949  15.768  -4.689  1.00 20.00     0.000 C 
HETATM    6  O11 UNL     1     -38.848  15.811  -4.830  1.00 20.00    -0.391 OA
ENDROOT
BRANCH   5   7
HETATM    7  C9  UNL     1     -35.357  14.617  -5.506  1.00 20.00     0.055 C 
HETATM    8  C8  UNL     1     -34.419  15.147  -6.586  1.00 20.00     0.018 C 
BRANCH   7   9
HETATM    9  C1  UNL     1     -34.633  13.643  -4.581  1.00 20.00     0.127 C 
HETATM   10  C7  UNL     1     -33.417  14.165  -3.859  1.00 20.00     0.091 C 
HETATM   11  O10 UNL     1     -34.996  12.476  -4.439  1.00 20.00    -0.298 OA
ENDBRANCH   7   9
ENDBRANCH   5   7
TORSDOF 2
ENDMDL
MODEL 9
REMARK VINA RESULT:      -4.0     11.593     13.475
REMARK  2 active torsions:
REMARK  status: ('A' for Active; 'I' for Inactive)
REMARK    1  A    between atoms: C1_1  and  C9_9 
REMARK    2  A    between atoms: C6_6  and  C9_9 
ROOT
HETATM    1  C2  UNL     1     -34.106  16.141  -2.411  1.00 20.00     0.031 C 
HETATM    2  C3  UNL     1     -33.381  17.013  -4.651  1.00 20.00     0.031 C 
HETATM    3  C4  UNL     1     -34.504  17.570  -2.063  1.00 20.00     0.168 C 
HETATM    4  C5  UNL     1     -33.819  18.394  -4.176  1.00 20.00     0.168 C 
HETATM    5  C6  UNL     1     -34.129  15.888  -3.924  1.00 20.00     0.000 C 
HETATM    6  O11 UNL     1     -33.685  18.508  -2.760  1.00 20.00    -0.391 OA
ENDROOT
BRANCH   5   7
HETATM    7  C9  UNL     1     -35.559  15.732  -4.449  1.00 20.00     0.055 C 
HETATM    8  C8  UNL     1     -35.620  16.022  -5.945  1.00 20.00     0.018 C 
BRANCH   7   9
HETATM    9  C1  UNL     1     -36.075  14.330  -4.139  1.00 20.00     0.127 C 
HETATM   10  C7  UNL     1     -35.112  13.189  -4.346  1.00 20.00     0.091 C 
HETATM   11  O10 UNL     1     -37.228  14.121  -3.763  1.00 20.00    -0.298 OA
ENDBRANCH   7   9
ENDBRANCH   5   7
TORSDOF 2
ENDMDL
