MODEL 1
REMARK VINA RESULT:      -4.4      0.000      0.000
REMARK  4 active torsions:
REMARK  status: ('A' for Active; 'I' for Inactive)
REMARK    1  A    between atoms: C1_1  and  C7_7 
REMARK    2  A    between atoms: C6_6  and  C8_8 
REMARK    3  A    between atoms: C6_6  and  O10_10 
REMARK    4  A    between atoms: C7_7  and  C8_8 
ROOT
HETATM    1  C3  UNL     1     -33.625   6.731   6.239  1.00 20.00     0.018 C 
HETATM    2  C7  UNL     1     -34.043   6.400   4.804  1.00 20.00     0.056 C 
ENDROOT
BRANCH   2   3
HETATM    3  C1  UNL     1     -35.022   5.223   4.792  1.00 20.00     0.127 C 
HETATM    4  C2  UNL     1     -34.748   4.092   5.750  1.00 20.00     0.091 C 
HETATM    5  O9  UNL     1     -35.983   5.173   4.021  1.00 20.00    -0.298 OA
ENDBRANCH   2   3
BRANCH   2   6
HETATM    6  C8  UNL     1     -32.859   6.141   3.841  1.00 20.00     0.016 C 
HETATM    7  C4  UNL     1     -33.335   5.478   2.541  1.00 20.00     0.013 C 
BRANCH   6   8
HETATM    8  C6  UNL     1     -32.046   7.408   3.532  1.00 20.00     0.172 C 
BRANCH   8   9
HETATM    9  O10 UNL     1     -32.003   7.616   2.124  1.00 20.00    -0.396 OA
HETATM   10  C5  UNL     1     -32.245   8.977   1.793  1.00 20.00     0.201 C 
ENDBRANCH   8   9
ENDBRANCH   6   8
ENDBRANCH   2   6
TORSDOF 4
ENDMDL
MODEL 2
REMARK VINA RESULT:      -4.4     10.984     12.139
REMARK  4 active torsions:
REMARK  status: ('A' for Active; 'I' for Inactive)
REMARK    1  A    between atoms: C1_1  and  C7_7 
REMARK    2  A    between atoms: C6_6  and  C8_8 
REMARK    3  A    between atoms: C6_6  and  O10_10 
REMARK    4  A    between atoms: C7_7  and  C8_8 
ROOT
HETATM    1  C3  UNL     1     -32.786  14.231  -3.600  1.00 20.00     0.018 C 
HETATM    2  C7  UNL     1     -34.215  14.462  -3.102  1.00 20.00     0.056 C 
ENDROOT
BRANCH   2   3
HETATM    3  C1  UNL     1     -35.218  13.746  -4.009  1.00 20.00     0.127 C 
HETATM    4  C2  UNL     1     -36.564  14.401  -4.195  1.00 20.00     0.091 C 
HETATM    5  O9  UNL     1     -34.965  12.669  -4.551  1.00 20.00    -0.298 OA
ENDBRANCH   2   3
BRANCH   2   6
HETATM    6  C8  UNL     1     -34.594  15.953  -2.929  1.00 20.00     0.016 C 
HETATM    7  C4  UNL     1     -34.590  16.358  -1.448  1.00 20.00     0.013 C 
BRANCH   6   8
HETATM    8  C6  UNL     1     -33.702  16.900  -3.746  1.00 20.00     0.172 C 
BRANCH   8   9
HETATM    9  O10 UNL     1     -34.439  17.418  -4.848  1.00 20.00    -0.396 OA
HETATM   10  C5  UNL     1     -34.100  16.755  -6.058  1.00 20.00     0.201 C 
ENDBRANCH   8   9
ENDBRANCH   6   8
ENDBRANCH   2   6
TORSDOF 4
ENDMDL
MODEL 3
REMARK VINA RESULT:      -4.4     11.360     12.332
REMARK  4 active torsions:
REMARK  status: ('A' for Active; 'I' for Inactive)
REMARK    1  A    between atoms: C1_1  and  C7_7 
REMARK    2  A    between atoms: C6_6  and  C8_8 
REMARK    3  A    between atoms: C6_6  and  O10_10 
REMARK    4  A    between atoms: C7_7  and  C8_8 
ROOT
HETATM    1  C3  UNL     1     -33.317  16.061  -4.548  1.00 20.00     0.018 C 
HETATM    2  C7  UNL     1     -33.942  14.845  -3.859  1.00 20.00     0.056 C 
ENDROOT
BRANCH   2   3
HETATM    3  C1  UNL     1     -34.497  13.869  -4.899  1.00 20.00     0.127 C 
HETATM    4  C2  UNL     1     -34.679  14.391  -6.303  1.00 20.00     0.091 C 
HETATM    5  O9  UNL     1     -34.812  12.712  -4.615  1.00 20.00    -0.298 OA
ENDBRANCH   2   3
BRANCH   2   6
HETATM    6  C8  UNL     1     -35.019  15.198  -2.804  1.00 20.00     0.016 C 
HETATM    7  C4  UNL     1     -34.479  16.199  -1.773  1.00 20.00     0.013 C 
BRANCH   6   8
HETATM    8  C6  UNL     1     -36.324  15.719  -3.426  1.00 20.00     0.172 C 
BRANCH   8   9
HETATM    9  O10 UNL     1     -37.355  14.753  -3.253  1.00 20.00    -0.396 OA
HETATM   10  C5  UNL     1     -38.300  14.806  -4.313  1.00 20.00     0.201 C 
ENDBRANCH   8   9
ENDBRANCH   6   8
ENDBRANCH   2   6
TORSDOF 4
ENDMDL
MODEL 4
REMARK VINA RESULT:      -4.3     11.425     12.310
REMARK  4 active torsions:
REMARK  status: ('A' for Active; 'I' for Inactive)
REMARK    1  A    between atoms: C1_1  and  C7_7 
REMARK    2  A    between atoms: C6_6  and  C8_8 
REMARK    3  A    between atoms: C6_6  and  O10_10 
REMARK    4  A    between atoms: C7_7  and  C8_8 
ROOT
HETATM    1  C3  UNL     1     -34.771  13.365  -4.543  1.00 20.00     0.018 C 
HETATM    2  C7  UNL     1     -35.391  14.387  -3.586  1.00 20.00     0.056 C 
ENDROOT
BRANCH   2   3
HETATM    3  C1  UNL     1     -36.792  14.781  -4.062  1.00 20.00     0.127 C 
HETATM    4  C2  UNL     1     -36.901  16.007  -4.934  1.00 20.00     0.091 C 
HETATM    5  O9  UNL     1     -37.800  14.152  -3.737  1.00 20.00    -0.298 OA
ENDBRANCH   2   3
BRANCH   2   6
HETATM    6  C8  UNL     1     -34.518  15.642  -3.344  1.00 20.00     0.016 C 
HETATM    7  C4  UNL     1     -34.603  16.104  -1.882  1.00 20.00     0.013 C 
BRANCH   6   8
HETATM    8  C6  UNL     1     -33.052  15.445  -3.760  1.00 20.00     0.172 C 
BRANCH   8   9
HETATM    9  O10 UNL     1     -32.775  16.224  -4.919  1.00 20.00    -0.396 OA
HETATM   10  C5  UNL     1     -33.508  17.441  -4.913  1.00 20.00     0.201 C 
ENDBRANCH   8   9
ENDBRANCH   6   8
ENDBRANCH   2   6
TORSDOF 4
ENDMDL
MODEL 5
REMARK VINA RESULT:      -4.3     11.155     11.878
REMARK  4 active torsions:
REMARK  status: ('A' for Active; 'I' for Inactive)
REMARK    1  A    between atoms: C1_1  and  C7_7 
REMARK    2  A    between atoms: C6_6  and  C8_8 
REMARK    3  A    between atoms: C6_6  and  O10_10 
REMARK    4  A    between atoms: C7_7  and  C8_8 
ROOT
HETATM    1  C3  UNL     1     -32.510  14.534  -3.598  1.00 20.00     0.018 C 
HETATM    2  C7  UNL     1     -34.034  14.430  -3.489  1.00 20.00     0.056 C 
ENDROOT
BRANCH   2   3
HETATM    3  C1  UNL     1     -34.604  13.681  -4.695  1.00 20.00     0.127 C 
HETATM    4  C2  UNL     1     -34.622  14.414  -6.013  1.00 20.00     0.091 C 
HETATM    5  O9  UNL     1     -35.059  12.539  -4.607  1.00 20.00    -0.298 OA
ENDBRANCH   2   3
BRANCH   2   6
HETATM    6  C8  UNL     1     -34.750  15.788  -3.293  1.00 20.00     0.016 C 
HETATM    7  C4  UNL     1     -36.252  15.592  -3.040  1.00 20.00     0.013 C 
BRANCH   6   8
HETATM    8  C6  UNL     1     -34.125  16.645  -2.182  1.00 20.00     0.172 C 
BRANCH   8   9
HETATM    9  O10 UNL     1     -34.688  16.283  -0.925  1.00 20.00    -0.396 OA
HETATM   10  C5  UNL     1     -34.633  17.361  -0.002  1.00 20.00     0.201 C 
ENDBRANCH   8   9
ENDBRANCH   6   8
ENDBRANCH   2   6
TORSDOF 4
ENDMDL
MODEL 6
REMARK VINA RESULT:      -4.2     11.323     12.360
REMARK  4 active torsions:
REMARK  status: ('A' for Active; 'I' for Inactive)
REMARK    1  A    between atoms: C1_1  and  C7_7 
REMARK    2  A    between atoms: C6_6  and  C8_8 
REMARK    3  A    between atoms: C6_6  and  O10_10 
REMARK    4  A    between atoms: C7_7  and  C8_8 
ROOT
HETATM    1  C3  UNL     1     -34.702  16.184  -1.974  1.00 20.00     0.018 C 
HETATM    2  C7  UNL     1     -34.411  15.087  -3.002  1.00 20.00     0.056 C 
ENDROOT
BRANCH   2   3
HETATM    3  C1  UNL     1     -33.114  15.392  -3.755  1.00 20.00     0.127 C 
HETATM    4  C2  UNL     1     -33.166  16.475  -4.803  1.00 20.00     0.091 C 
HETATM    5  O9  UNL     1     -32.070  14.772  -3.547  1.00 20.00    -0.298 OA
ENDBRANCH   2   3
BRANCH   2   6
HETATM    6  C8  UNL     1     -35.573  14.819  -3.990  1.00 20.00     0.016 C 
HETATM    7  C4  UNL     1     -35.558  13.365  -4.483  1.00 20.00     0.013 C 
BRANCH   6   8
HETATM    8  C6  UNL     1     -36.950  15.176  -3.412  1.00 20.00     0.172 C 
BRANCH   8   9
HETATM    9  O10 UNL     1     -37.889  14.161  -3.751  1.00 20.00    -0.396 OA
HETATM   10  C5  UNL     1     -39.117  14.719  -4.199  1.00 20.00     0.201 C 
ENDBRANCH   8   9
ENDBRANCH   6   8
ENDBRANCH   2   6
TORSDOF 4
ENDMDL
MODEL 7
REMARK VINA RESULT:      -4.2     10.923     12.342
REMARK  4 active torsions:
REMARK  status: ('A' for Active; 'I' for Inactive)
REMARK    1  A    between atoms: C1_1  and  C7_7 
REMARK    2  A    between atoms: C6_6  and  C8_8 
REMARK    3  A    between atoms: C6_6  and  O10_10 
REMARK    4  A    between atoms: C7_7  and  C8_8 
ROOT
HETATM    1  C3  UNL     1     -33.311  16.207  -4.563  1.00 20.00     0.018 C 
HETATM    2  C7  UNL     1     -33.719  15.389  -3.334  1.00 20.00     0.056 C 
ENDROOT
BRANCH   2   3
HETATM    3  C1  UNL     1     -33.915  13.919  -3.713  1.00 20.00     0.127 C 
HETATM    4  C2  UNL     1     -35.279  13.513  -4.211  1.00 20.00     0.091 C 
HETATM    5  O9  UNL     1     -33.016  13.084  -3.599  1.00 20.00    -0.298 OA
ENDBRANCH   2   3
BRANCH   2   6
HETATM    6  C8  UNL     1     -34.963  15.937  -2.592  1.00 20.00     0.016 C 
HETATM    7  C4  UNL     1     -34.601  16.408  -1.176  1.00 20.00     0.013 C 
BRANCH   6   8
HETATM    8  C6  UNL     1     -35.681  17.055  -3.364  1.00 20.00     0.172 C 
BRANCH   8   9
HETATM    9  O10 UNL     1     -36.929  16.575  -3.850  1.00 20.00    -0.396 OA
HETATM   10  C5  UNL     1     -37.015  16.690  -5.264  1.00 20.00     0.201 C 
ENDBRANCH   8   9
ENDBRANCH   6   8
ENDBRANCH   2   6
TORSDOF 4
ENDMDL
MODEL 8
REMARK VINA RESULT:      -4.0     10.925     12.949
REMARK  4 active torsions:
REMARK  status: ('A' for Active; 'I' for Inactive)
REMARK    1  A    between atoms: C1_1  and  C7_7 
REMARK    2  A    between atoms: C6_6  and  C8_8 
REMARK    3  A    between atoms: C6_6  and  O10_10 
REMARK    4  A    between atoms: C7_7  and  C8_8 
ROOT
HETATM    1  C3  UNL     1     -35.359  14.290  -6.888  1.00 20.00     0.018 C 
HETATM    2  C7  UNL     1     -34.370  14.707  -5.796  1.00 20.00     0.056 C 
ENDROOT
BRANCH   2   3
HETATM    3  C1  UNL     1     -34.250  13.609  -4.737  1.00 20.00     0.127 C 
HETATM    4  C2  UNL     1     -33.220  13.808  -3.654  1.00 20.00     0.091 C 
HETATM    5  O9  UNL     1     -34.939  12.587  -4.766  1.00 20.00    -0.298 OA
ENDBRANCH   2   3
BRANCH   2   6
HETATM    6  C8  UNL     1     -34.686  16.073  -5.141  1.00 20.00     0.016 C 
HETATM    7  C4  UNL     1     -33.996  17.222  -5.890  1.00 20.00     0.013 C 
BRANCH   6   8
HETATM    8  C6  UNL     1     -36.193  16.345  -5.012  1.00 20.00     0.172 C 
BRANCH   8   9
HETATM    9  O10 UNL     1     -36.646  15.926  -3.729  1.00 20.00    -0.396 OA
HETATM   10  C5  UNL     1     -37.618  14.895  -3.833  1.00 20.00     0.201 C 
ENDBRANCH   8   9
ENDBRANCH   6   8
ENDBRANCH   2   6
TORSDOF 4
ENDMDL
MODEL 9
REMARK VINA RESULT:      -4.0      1.458      1.773
REMARK  4 active torsions:
REMARK  status: ('A' for Active; 'I' for Inactive)
REMARK    1  A    between atoms: C1_1  and  C7_7 
REMARK    2  A    between atoms: C6_6  and  C8_8 
REMARK    3  A    between atoms: C6_6  and  O10_10 
REMARK    4  A    between atoms: C7_7  and  C8_8 
ROOT
HETATM    1  C3  UNL     1     -35.363   5.828   3.334  1.00 20.00     0.018 C 
HETATM    2  C7  UNL     1     -34.085   5.533   4.124  1.00 20.00     0.056 C 
ENDROOT
BRANCH   2   3
HETATM    3  C1  UNL     1     -34.358   5.609   5.628  1.00 20.00     0.127 C 
HETATM    4  C2  UNL     1     -35.051   4.428   6.261  1.00 20.00     0.091 C 
HETATM    5  O9  UNL     1     -34.055   6.593   6.304  1.00 20.00    -0.298 OA
ENDBRANCH   2   3
BRANCH   2   6
HETATM    6  C8  UNL     1     -32.879   6.424   3.736  1.00 20.00     0.016 C 
HETATM    7  C4  UNL     1     -31.795   5.608   3.018  1.00 20.00     0.013 C 
BRANCH   6   8
HETATM    8  C6  UNL     1     -33.279   7.645   2.894  1.00 20.00     0.172 C 
BRANCH   8   9
HETATM    9  O10 UNL     1     -32.137   8.147   2.208  1.00 20.00    -0.396 OA
HETATM   10  C5  UNL     1     -32.433   9.356   1.523  1.00 20.00     0.201 C 
ENDBRANCH   8   9
ENDBRANCH   6   8
ENDBRANCH   2   6
TORSDOF 4
ENDMDL
