MODEL 1
REMARK VINA RESULT:      -4.7      0.000      0.000
REMARK  3 active torsions:
REMARK  status: ('A' for Active; 'I' for Inactive)
REMARK    1  A    between atoms: C3_3  and  C5_5 
REMARK    2  A    between atoms: C6_6  and  C8_8 
REMARK    3  A    between atoms: C8_8  and  C9_9 
ROOT
HETATM    1  C1  UNL     1     -34.162  15.839  -4.969  1.00 20.00     0.026 A 
HETATM    2  C2  UNL     1     -34.333  14.105  -3.430  1.00 20.00     0.061 A 
HETATM    3  C3  UNL     1     -34.078  15.448  -3.601  1.00 20.00    -0.029 A 
HETATM    4  C4  UNL     1     -34.478  14.779  -5.791  1.00 20.00    -0.021 A 
HETATM    5  C7  UNL     1     -34.655  14.774  -7.259  1.00 20.00     0.056 C 
HETATM    6  S10 UNL     1     -34.670  13.321  -4.914  1.00 20.00    -0.106 SA
ENDROOT
BRANCH   3   7
HETATM    7  C5  UNL     1     -33.758  16.349  -2.482  1.00 20.00     0.008 C 
HETATM    8  C6  UNL     1     -34.510  16.510  -1.382  1.00 20.00    -0.025 C 
BRANCH   8   9
HETATM    9  C8  UNL     1     -34.148  17.450  -0.264  1.00 20.00     0.042 C 
BRANCH   9  10
HETATM   10  C9  UNL     1     -33.222  18.574  -0.716  1.00 20.00     0.118 C 
HETATM   11 CL11 UNL     1     -31.849  18.783   0.399  1.00 20.00    -0.130 Cl
ENDBRANCH   9  10
ENDBRANCH   8   9
ENDBRANCH   3   7
TORSDOF 3
ENDMDL
MODEL 2
REMARK VINA RESULT:      -4.6      1.400      1.549
REMARK  3 active torsions:
REMARK  status: ('A' for Active; 'I' for Inactive)
REMARK    1  A    between atoms: C3_3  and  C5_5 
REMARK    2  A    between atoms: C6_6  and  C8_8 
REMARK    3  A    between atoms: C8_8  and  C9_9 
ROOT
HETATM    1  C1  UNL     1     -34.206  15.852  -4.901  1.00 20.00     0.026 A 
HETATM    2  C2  UNL     1     -34.357  14.042  -3.452  1.00 20.00     0.061 A 
HETATM    3  C3  UNL     1     -34.129  15.396  -3.554  1.00 20.00    -0.029 A 
HETATM    4  C4  UNL     1     -34.491  14.828  -5.778  1.00 20.00    -0.021 A 
HETATM    5  C7  UNL     1     -34.651  14.892  -7.247  1.00 20.00     0.056 C 
HETATM    6  S10 UNL     1     -34.662  13.325  -4.977  1.00 20.00    -0.106 SA
ENDROOT
BRANCH   3   7
HETATM    7  C5  UNL     1     -33.839  16.247  -2.388  1.00 20.00     0.008 C 
HETATM    8  C6  UNL     1     -34.680  16.466  -1.365  1.00 20.00    -0.025 C 
BRANCH   8   9
HETATM    9  C8  UNL     1     -34.346  17.351  -0.196  1.00 20.00     0.042 C 
BRANCH   9  10
HETATM   10  C9  UNL     1     -35.583  17.801   0.575  1.00 20.00     0.118 C 
HETATM   11 CL11 UNL     1     -35.442  17.438   2.313  1.00 20.00    -0.130 Cl
ENDBRANCH   9  10
ENDBRANCH   8   9
ENDBRANCH   3   7
TORSDOF 3
ENDMDL
MODEL 3
REMARK VINA RESULT:      -4.5      3.503      5.839
REMARK  3 active torsions:
REMARK  status: ('A' for Active; 'I' for Inactive)
REMARK    1  A    between atoms: C3_3  and  C5_5 
REMARK    2  A    between atoms: C6_6  and  C8_8 
REMARK    3  A    between atoms: C8_8  and  C9_9 
ROOT
HETATM    1  C1  UNL     1     -34.650  16.522  -0.755  1.00 20.00     0.026 A 
HETATM    2  C2  UNL     1     -33.694  18.156  -2.105  1.00 20.00     0.061 A 
HETATM    3  C3  UNL     1     -34.005  16.819  -1.991  1.00 20.00    -0.029 A 
HETATM    4  C4  UNL     1     -34.808  17.645   0.028  1.00 20.00    -0.021 A 
HETATM    5  C7  UNL     1     -35.424  17.754   1.368  1.00 20.00     0.056 C 
HETATM    6  S10 UNL     1     -34.178  19.048  -0.726  1.00 20.00    -0.106 SA
ENDROOT
BRANCH   3   7
HETATM    7  C5  UNL     1     -33.693  15.834  -3.040  1.00 20.00     0.008 C 
HETATM    8  C6  UNL     1     -34.332  14.667  -3.217  1.00 20.00    -0.025 C 
BRANCH   8   9
HETATM    9  C8  UNL     1     -33.974  13.685  -4.298  1.00 20.00     0.042 C 
BRANCH   9  10
HETATM   10  C9  UNL     1     -34.898  13.778  -5.508  1.00 20.00     0.118 C 
HETATM   11 CL11 UNL     1     -34.346  15.017  -6.663  1.00 20.00    -0.130 Cl
ENDBRANCH   9  10
ENDBRANCH   8   9
ENDBRANCH   3   7
TORSDOF 3
ENDMDL
MODEL 4
REMARK VINA RESULT:      -4.5      1.493      1.843
REMARK  3 active torsions:
REMARK  status: ('A' for Active; 'I' for Inactive)
REMARK    1  A    between atoms: C3_3  and  C5_5 
REMARK    2  A    between atoms: C6_6  and  C8_8 
REMARK    3  A    between atoms: C8_8  and  C9_9 
ROOT
HETATM    1  C1  UNL     1     -34.315  14.946  -3.041  1.00 20.00     0.026 A 
HETATM    2  C2  UNL     1     -33.693  16.932  -4.077  1.00 20.00     0.061 A 
HETATM    3  C3  UNL     1     -33.931  16.308  -2.872  1.00 20.00    -0.029 A 
HETATM    4  C4  UNL     1     -34.356  14.581  -4.369  1.00 20.00    -0.021 A 
HETATM    5  C7  UNL     1     -34.707  13.268  -4.953  1.00 20.00     0.056 C 
HETATM    6  S10 UNL     1     -33.933  15.878  -5.404  1.00 20.00    -0.106 SA
ENDROOT
BRANCH   3   7
HETATM    7  C5  UNL     1     -33.797  16.995  -1.577  1.00 20.00     0.008 C 
HETATM    8  C6  UNL     1     -34.717  16.985  -0.600  1.00 20.00    -0.025 C 
BRANCH   8   9
HETATM    9  C8  UNL     1     -34.543  17.709   0.707  1.00 20.00     0.042 C 
BRANCH   9  10
HETATM   10  C9  UNL     1     -33.817  19.041   0.550  1.00 20.00     0.118 C 
HETATM   11 CL11 UNL     1     -32.071  18.878   0.863  1.00 20.00    -0.130 Cl
ENDBRANCH   9  10
ENDBRANCH   8   9
ENDBRANCH   3   7
TORSDOF 3
ENDMDL
MODEL 5
REMARK VINA RESULT:      -4.3      2.042      2.591
REMARK  3 active torsions:
REMARK  status: ('A' for Active; 'I' for Inactive)
REMARK    1  A    between atoms: C3_3  and  C5_5 
REMARK    2  A    between atoms: C6_6  and  C8_8 
REMARK    3  A    between atoms: C8_8  and  C9_9 
ROOT
HETATM    1  C1  UNL     1     -34.691  14.892  -2.971  1.00 20.00     0.026 A 
HETATM    2  C2  UNL     1     -33.680  16.940  -3.404  1.00 20.00     0.061 A 
HETATM    3  C3  UNL     1     -34.298  16.160  -2.452  1.00 20.00    -0.029 A 
HETATM    4  C4  UNL     1     -34.357  14.752  -4.300  1.00 20.00    -0.021 A 
HETATM    5  C7  UNL     1     -34.593  13.595  -5.191  1.00 20.00     0.056 C 
HETATM    6  S10 UNL     1     -33.576  16.145  -4.917  1.00 20.00    -0.106 SA
ENDROOT
BRANCH   3   7
HETATM    7  C5  UNL     1     -34.515  16.612  -1.068  1.00 20.00     0.008 C 
HETATM    8  C6  UNL     1     -33.953  17.697  -0.514  1.00 20.00    -0.025 C 
BRANCH   8   9
HETATM    9  C8  UNL     1     -34.197  18.118   0.910  1.00 20.00     0.042 C 
BRANCH   9  10
HETATM   10  C9  UNL     1     -35.610  17.797   1.386  1.00 20.00     0.118 C 
HETATM   11 CL11 UNL     1     -35.709  17.748   3.163  1.00 20.00    -0.130 Cl
ENDBRANCH   9  10
ENDBRANCH   8   9
ENDBRANCH   3   7
TORSDOF 3
ENDMDL
MODEL 6
REMARK VINA RESULT:      -4.2      3.742      6.337
REMARK  3 active torsions:
REMARK  status: ('A' for Active; 'I' for Inactive)
REMARK    1  A    between atoms: C3_3  and  C5_5 
REMARK    2  A    between atoms: C6_6  and  C8_8 
REMARK    3  A    between atoms: C8_8  and  C9_9 
ROOT
HETATM    1  C1  UNL     1     -35.122  17.284   0.607  1.00 20.00     0.026 A 
HETATM    2  C2  UNL     1     -33.185  18.106  -0.380  1.00 20.00     0.061 A 
HETATM    3  C3  UNL     1     -34.260  17.258  -0.527  1.00 20.00    -0.029 A 
HETATM    4  C4  UNL     1     -34.672  18.153   1.578  1.00 20.00    -0.021 A 
HETATM    5  C7  UNL     1     -35.280  18.460   2.891  1.00 20.00     0.056 C 
HETATM    6  S10 UNL     1     -33.216  18.929   1.120  1.00 20.00    -0.106 SA
ENDROOT
BRANCH   3   7
HETATM    7  C5  UNL     1     -34.466  16.431  -1.728  1.00 20.00     0.008 C 
HETATM    8  C6  UNL     1     -33.675  16.434  -2.812  1.00 20.00    -0.025 C 
BRANCH   8   9
HETATM    9  C8  UNL     1     -33.928  15.577  -4.022  1.00 20.00     0.042 C 
BRANCH   9  10
HETATM   10  C9  UNL     1     -33.744  14.090  -3.740  1.00 20.00     0.118 C 
HETATM   11 CL11 UNL     1     -35.156  13.141  -4.270  1.00 20.00    -0.130 Cl
ENDBRANCH   9  10
ENDBRANCH   8   9
ENDBRANCH   3   7
TORSDOF 3
ENDMDL
MODEL 7
REMARK VINA RESULT:      -4.0     14.487     16.245
REMARK  3 active torsions:
REMARK  status: ('A' for Active; 'I' for Inactive)
REMARK    1  A    between atoms: C3_3  and  C5_5 
REMARK    2  A    between atoms: C6_6  and  C8_8 
REMARK    3  A    between atoms: C8_8  and  C9_9 
ROOT
HETATM    1  C1  UNL     1     -41.073   4.105  -1.688  1.00 20.00     0.026 A 
HETATM    2  C2  UNL     1     -42.884   4.443  -3.106  1.00 20.00     0.061 A 
HETATM    3  C3  UNL     1     -41.931   3.545  -2.678  1.00 20.00    -0.029 A 
HETATM    4  C4  UNL     1     -41.403   5.411  -1.397  1.00 20.00    -0.021 A 
HETATM    5  C7  UNL     1     -40.759   6.331  -0.435  1.00 20.00     0.056 C 
HETATM    6  S10 UNL     1     -42.741   5.955  -2.316  1.00 20.00    -0.106 SA
ENDROOT
BRANCH   3   7
HETATM    7  C5  UNL     1     -41.835   2.173  -3.203  1.00 20.00     0.008 C 
HETATM    8  C6  UNL     1     -42.395   1.742  -4.344  1.00 20.00    -0.025 C 
BRANCH   8   9
HETATM    9  C8  UNL     1     -42.279   0.327  -4.839  1.00 20.00     0.042 C 
BRANCH   9  10
HETATM   10  C9  UNL     1     -41.880  -0.651  -3.738  1.00 20.00     0.118 C 
HETATM   11 CL11 UNL     1     -40.437  -1.594  -4.188  1.00 20.00    -0.130 Cl
ENDBRANCH   9  10
ENDBRANCH   8   9
ENDBRANCH   3   7
TORSDOF 3
ENDMDL
MODEL 8
REMARK VINA RESULT:      -4.0     10.652     12.085
REMARK  3 active torsions:
REMARK  status: ('A' for Active; 'I' for Inactive)
REMARK    1  A    between atoms: C3_3  and  C5_5 
REMARK    2  A    between atoms: C6_6  and  C8_8 
REMARK    3  A    between atoms: C8_8  and  C9_9 
ROOT
HETATM    1  C1  UNL     1     -34.258   5.232   4.105  1.00 20.00     0.026 A 
HETATM    2  C2  UNL     1     -33.218   7.067   5.081  1.00 20.00     0.061 A 
HETATM    3  C3  UNL     1     -33.465   6.398   3.903  1.00 20.00    -0.029 A 
HETATM    4  C4  UNL     1     -34.587   5.054   5.431  1.00 20.00    -0.021 A 
HETATM    5  C7  UNL     1     -35.388   3.972   6.044  1.00 20.00     0.056 C 
HETATM    6  S10 UNL     1     -33.939   6.288   6.425  1.00 20.00    -0.106 SA
ENDROOT
BRANCH   3   7
HETATM    7  C5  UNL     1     -32.955   6.859   2.601  1.00 20.00     0.008 C 
HETATM    8  C6  UNL     1     -32.090   7.870   2.426  1.00 20.00    -0.025 C 
BRANCH   8   9
HETATM    9  C8  UNL     1     -31.601   8.314   1.075  1.00 20.00     0.042 C 
BRANCH   9  10
HETATM   10  C9  UNL     1     -32.119   9.695   0.685  1.00 20.00     0.118 C 
HETATM   11 CL11 UNL     1     -32.801  10.560   2.084  1.00 20.00    -0.130 Cl
ENDBRANCH   9  10
ENDBRANCH   8   9
ENDBRANCH   3   7
TORSDOF 3
ENDMDL
MODEL 9
REMARK VINA RESULT:      -3.9      4.358      7.266
REMARK  3 active torsions:
REMARK  status: ('A' for Active; 'I' for Inactive)
REMARK    1  A    between atoms: C3_3  and  C5_5 
REMARK    2  A    between atoms: C6_6  and  C8_8 
REMARK    3  A    between atoms: C8_8  and  C9_9 
ROOT
HETATM    1  C1  UNL     1     -33.891  18.427   2.355  1.00 20.00     0.026 A 
HETATM    2  C2  UNL     1     -31.921  18.920   1.224  1.00 20.00     0.061 A 
HETATM    3  C3  UNL     1     -33.221  18.482   1.098  1.00 20.00    -0.029 A 
HETATM    4  C4  UNL     1     -33.077  18.826   3.393  1.00 20.00    -0.021 A 
HETATM    5  C7  UNL     1     -33.397  18.909   4.834  1.00 20.00     0.056 C 
HETATM    6  S10 UNL     1     -31.513  19.262   2.851  1.00 20.00    -0.106 SA
ENDROOT
BRANCH   3   7
HETATM    7  C5  UNL     1     -33.820  18.118  -0.196  1.00 20.00     0.008 C 
HETATM    8  C6  UNL     1     -34.410  16.943  -0.470  1.00 20.00    -0.025 C 
BRANCH   8   9
HETATM    9  C8  UNL     1     -35.002  16.609  -1.812  1.00 20.00     0.042 C 
BRANCH   9  10
HETATM   10  C9  UNL     1     -33.981  16.008  -2.773  1.00 20.00     0.118 C 
HETATM   11 CL11 UNL     1     -34.453  14.371  -3.292  1.00 20.00    -0.130 Cl
ENDBRANCH   9  10
ENDBRANCH   8   9
ENDBRANCH   3   7
TORSDOF 3
ENDMDL
