MODEL 1
REMARK VINA RESULT:      -4.0      0.000      0.000
REMARK  4 active torsions:
REMARK  status: ('A' for Active; 'I' for Inactive)
REMARK    1  A    between atoms: C4_4  and  C6_6 
REMARK    2  A    between atoms: C4_4  and  C7_7 
REMARK    3  A    between atoms: C5_5  and  C6_6 
REMARK    4  A    between atoms: C5_5  and  O8_8 
ROOT
HETATM    1  C1  UNL     1     -32.059   5.295   3.056  1.00 20.00     0.012 C 
HETATM    2  C6  UNL     1     -32.957   6.511   2.828  1.00 20.00     0.007 C 
ENDROOT
BRANCH   2   3
HETATM    3  C4  UNL     1     -34.121   6.579   3.844  1.00 20.00     0.026 C 
BRANCH   3   4
HETATM    4  C7  UNL     1     -33.992   5.674   5.080  1.00 20.00     0.078 C 
HETATM    5  C2  UNL     1     -35.124   4.654   5.129  1.00 20.00     0.026 C 
HETATM    6 CL9  UNL     1     -34.017   6.635   6.589  1.00 20.00    -0.125 Cl
ENDBRANCH   3   4
ENDBRANCH   2   3
BRANCH   2   7
HETATM    7  C5  UNL     1     -32.111   7.791   2.894  1.00 20.00     0.171 C 
BRANCH   7   8
HETATM    8  O8  UNL     1     -31.789   8.230   1.580  1.00 20.00    -0.396 OA
HETATM    9  C3  UNL     1     -32.360   9.500   1.300  1.00 20.00     0.201 C 
ENDBRANCH   7   8
ENDBRANCH   2   7
TORSDOF 4
ENDMDL
MODEL 2
REMARK VINA RESULT:      -3.8      1.344      1.349
REMARK  4 active torsions:
REMARK  status: ('A' for Active; 'I' for Inactive)
REMARK    1  A    between atoms: C4_4  and  C6_6 
REMARK    2  A    between atoms: C4_4  and  C7_7 
REMARK    3  A    between atoms: C5_5  and  C6_6 
REMARK    4  A    between atoms: C5_5  and  O8_8 
ROOT
HETATM    1  C1  UNL     1     -32.176   5.375   2.919  1.00 20.00     0.012 C 
HETATM    2  C6  UNL     1     -32.980   6.586   3.395  1.00 20.00     0.007 C 
ENDROOT
BRANCH   2   3
HETATM    3  C4  UNL     1     -33.392   6.469   4.882  1.00 20.00     0.026 C 
BRANCH   3   4
HETATM    4  C7  UNL     1     -34.731   5.766   5.156  1.00 20.00     0.078 C 
HETATM    5  C2  UNL     1     -34.510   4.425   5.849  1.00 20.00     0.026 C 
HETATM    6 CL9  UNL     1     -35.637   5.489   3.639  1.00 20.00    -0.125 Cl
ENDBRANCH   3   4
ENDBRANCH   2   3
BRANCH   2   7
HETATM    7  C5  UNL     1     -32.160   7.865   3.165  1.00 20.00     0.171 C 
BRANCH   7   8
HETATM    8  O8  UNL     1     -32.080   8.148   1.773  1.00 20.00    -0.396 OA
HETATM    9  C3  UNL     1     -32.385   9.508   1.499  1.00 20.00     0.201 C 
ENDBRANCH   7   8
ENDBRANCH   2   7
TORSDOF 4
ENDMDL
MODEL 3
REMARK VINA RESULT:      -3.7     10.881     11.966
REMARK  4 active torsions:
REMARK  status: ('A' for Active; 'I' for Inactive)
REMARK    1  A    between atoms: C4_4  and  C6_6 
REMARK    2  A    between atoms: C4_4  and  C7_7 
REMARK    3  A    between atoms: C5_5  and  C6_6 
REMARK    4  A    between atoms: C5_5  and  O8_8 
ROOT
HETATM    1  C1  UNL     1     -34.546  16.451  -1.213  1.00 20.00     0.012 C 
HETATM    2  C6  UNL     1     -34.158  16.063  -2.640  1.00 20.00     0.007 C 
ENDROOT
BRANCH   2   3
HETATM    3  C4  UNL     1     -35.238  15.194  -3.326  1.00 20.00     0.026 C 
BRANCH   3   4
HETATM    4  C7  UNL     1     -34.736  13.914  -4.015  1.00 20.00     0.078 C 
HETATM    5  C2  UNL     1     -33.278  13.642  -3.663  1.00 20.00     0.026 C 
HETATM    6 CL9  UNL     1     -34.888  14.036  -5.792  1.00 20.00    -0.125 Cl
ENDBRANCH   3   4
ENDBRANCH   2   3
BRANCH   2   7
HETATM    7  C5  UNL     1     -33.891  17.334  -3.460  1.00 20.00     0.171 C 
BRANCH   7   8
HETATM    8  O8  UNL     1     -33.096  17.023  -4.597  1.00 20.00    -0.396 OA
HETATM    9  C3  UNL     1     -33.650  17.568  -5.786  1.00 20.00     0.201 C 
ENDBRANCH   7   8
ENDBRANCH   2   7
TORSDOF 4
ENDMDL
MODEL 4
REMARK VINA RESULT:      -3.6     11.067     12.587
REMARK  4 active torsions:
REMARK  status: ('A' for Active; 'I' for Inactive)
REMARK    1  A    between atoms: C4_4  and  C6_6 
REMARK    2  A    between atoms: C4_4  and  C7_7 
REMARK    3  A    between atoms: C5_5  and  C6_6 
REMARK    4  A    between atoms: C5_5  and  O8_8 
ROOT
HETATM    1  C1  UNL     1     -33.827  16.199  -2.450  1.00 20.00     0.012 C 
HETATM    2  C6  UNL     1     -33.865  15.464  -3.790  1.00 20.00     0.007 C 
ENDROOT
BRANCH   2   3
HETATM    3  C4  UNL     1     -33.236  16.296  -4.933  1.00 20.00     0.026 C 
BRANCH   3   4
HETATM    4  C7  UNL     1     -34.133  16.547  -6.157  1.00 20.00     0.078 C 
HETATM    5  C2  UNL     1     -35.546  16.927  -5.728  1.00 20.00     0.026 C 
HETATM    6 CL9  UNL     1     -34.217  15.098  -7.202  1.00 20.00    -0.125 Cl
ENDBRANCH   3   4
ENDBRANCH   2   3
BRANCH   2   7
HETATM    7  C5  UNL     1     -33.148  14.113  -3.653  1.00 20.00     0.171 C 
BRANCH   7   8
HETATM    8  O8  UNL     1     -33.850  13.113  -4.381  1.00 20.00    -0.396 OA
HETATM    9  C3  UNL     1     -35.257  13.287  -4.283  1.00 20.00     0.201 C 
ENDBRANCH   7   8
ENDBRANCH   2   7
TORSDOF 4
ENDMDL
MODEL 5
REMARK VINA RESULT:      -3.6     10.826     11.825
REMARK  4 active torsions:
REMARK  status: ('A' for Active; 'I' for Inactive)
REMARK    1  A    between atoms: C4_4  and  C6_6 
REMARK    2  A    between atoms: C4_4  and  C7_7 
REMARK    3  A    between atoms: C5_5  and  C6_6 
REMARK    4  A    between atoms: C5_5  and  O8_8 
ROOT
HETATM    1  C1  UNL     1     -34.856  13.828  -5.660  1.00 20.00     0.012 C 
HETATM    2  C6  UNL     1     -35.554  13.936  -4.303  1.00 20.00     0.007 C 
ENDROOT
BRANCH   2   3
HETATM    3  C4  UNL     1     -34.622  14.502  -3.207  1.00 20.00     0.026 C 
BRANCH   3   4
HETATM    4  C7  UNL     1     -34.760  16.005  -2.914  1.00 20.00     0.078 C 
HETATM    5  C2  UNL     1     -33.672  16.801  -3.626  1.00 20.00     0.026 C 
HETATM    6 CL9  UNL     1     -34.659  16.332  -1.159  1.00 20.00    -0.125 Cl
ENDBRANCH   3   4
ENDBRANCH   2   3
BRANCH   2   7
HETATM    7  C5  UNL     1     -36.811  14.807  -4.443  1.00 20.00     0.171 C 
BRANCH   7   8
HETATM    8  O8  UNL     1     -37.890  14.225  -3.723  1.00 20.00    -0.396 OA
HETATM    9  C3  UNL     1     -38.920  15.172  -3.471  1.00 20.00     0.201 C 
ENDBRANCH   7   8
ENDBRANCH   2   7
TORSDOF 4
ENDMDL
MODEL 6
REMARK VINA RESULT:      -3.6     10.944     11.771
REMARK  4 active torsions:
REMARK  status: ('A' for Active; 'I' for Inactive)
REMARK    1  A    between atoms: C4_4  and  C6_6 
REMARK    2  A    between atoms: C4_4  and  C7_7 
REMARK    3  A    between atoms: C5_5  and  C6_6 
REMARK    4  A    between atoms: C5_5  and  O8_8 
ROOT
HETATM    1  C1  UNL     1     -33.414  13.683  -3.762  1.00 20.00     0.012 C 
HETATM    2  C6  UNL     1     -34.909  13.982  -3.885  1.00 20.00     0.007 C 
ENDROOT
BRANCH   2   3
HETATM    3  C4  UNL     1     -35.332  15.212  -3.047  1.00 20.00     0.026 C 
BRANCH   3   4
HETATM    4  C7  UNL     1     -34.188  16.027  -2.421  1.00 20.00     0.078 C 
HETATM    5  C2  UNL     1     -34.593  16.574  -1.057  1.00 20.00     0.026 C 
HETATM    6 CL9  UNL     1     -33.719  17.394  -3.475  1.00 20.00    -0.125 Cl
ENDBRANCH   3   4
ENDBRANCH   2   3
BRANCH   2   7
HETATM    7  C5  UNL     1     -35.269  14.190  -5.364  1.00 20.00     0.171 C 
BRANCH   7   8
HETATM    8  O8  UNL     1     -34.183  14.802  -6.048  1.00 20.00    -0.396 OA
HETATM    9  C3  UNL     1     -34.627  15.849  -6.900  1.00 20.00     0.201 C 
ENDBRANCH   7   8
ENDBRANCH   2   7
TORSDOF 4
ENDMDL
MODEL 7
REMARK VINA RESULT:      -3.6      2.607      4.463
REMARK  4 active torsions:
REMARK  status: ('A' for Active; 'I' for Inactive)
REMARK    1  A    between atoms: C4_4  and  C6_6 
REMARK    2  A    between atoms: C4_4  and  C7_7 
REMARK    3  A    between atoms: C5_5  and  C6_6 
REMARK    4  A    between atoms: C5_5  and  O8_8 
ROOT
HETATM    1  C1  UNL     1     -35.219   5.802   3.243  1.00 20.00     0.012 C 
HETATM    2  C6  UNL     1     -33.913   5.575   4.004  1.00 20.00     0.007 C 
ENDROOT
BRANCH   2   3
HETATM    3  C4  UNL     1     -32.675   6.033   3.196  1.00 20.00     0.026 C 
BRANCH   3   4
HETATM    4  C7  UNL     1     -32.354   7.536   3.248  1.00 20.00     0.078 C 
HETATM    5  C2  UNL     1     -32.086   8.083   1.850  1.00 20.00     0.026 C 
HETATM    6 CL9  UNL     1     -30.926   7.855   4.275  1.00 20.00    -0.125 Cl
ENDBRANCH   3   4
ENDBRANCH   2   3
BRANCH   2   7
HETATM    7  C5  UNL     1     -33.974   6.307   5.353  1.00 20.00     0.171 C 
BRANCH   7   8
HETATM    8  O8  UNL     1     -34.667   5.513   6.308  1.00 20.00    -0.396 OA
HETATM    9  C3  UNL     1     -34.651   4.138   5.952  1.00 20.00     0.201 C 
ENDBRANCH   7   8
ENDBRANCH   2   7
TORSDOF 4
ENDMDL
MODEL 8
REMARK VINA RESULT:      -3.5     10.950     11.673
REMARK  4 active torsions:
REMARK  status: ('A' for Active; 'I' for Inactive)
REMARK    1  A    between atoms: C4_4  and  C6_6 
REMARK    2  A    between atoms: C4_4  and  C7_7 
REMARK    3  A    between atoms: C5_5  and  C6_6 
REMARK    4  A    between atoms: C5_5  and  O8_8 
ROOT
HETATM    1  C1  UNL     1     -33.570  16.673  -4.744  1.00 20.00     0.012 C 
HETATM    2  C6  UNL     1     -33.252  15.921  -3.450  1.00 20.00     0.007 C 
ENDROOT
BRANCH   2   3
HETATM    3  C4  UNL     1     -34.290  16.204  -2.338  1.00 20.00     0.026 C 
BRANCH   3   4
HETATM    4  C7  UNL     1     -33.809  17.089  -1.176  1.00 20.00     0.078 C 
HETATM    5  C2  UNL     1     -34.856  17.151  -0.070  1.00 20.00     0.026 C 
HETATM    6 CL9  UNL     1     -33.462  18.753  -1.735  1.00 20.00    -0.125 Cl
ENDBRANCH   3   4
ENDBRANCH   2   3
BRANCH   2   7
HETATM    7  C5  UNL     1     -33.173  14.415  -3.741  1.00 20.00     0.171 C 
BRANCH   7   8
HETATM    8  O8  UNL     1     -34.386  13.780  -3.356  1.00 20.00    -0.396 OA
HETATM    9  C3  UNL     1     -35.064  13.230  -4.477  1.00 20.00     0.201 C 
ENDBRANCH   7   8
ENDBRANCH   2   7
TORSDOF 4
ENDMDL
MODEL 9
REMARK VINA RESULT:      -3.5      1.417      1.727
REMARK  4 active torsions:
REMARK  status: ('A' for Active; 'I' for Inactive)
REMARK    1  A    between atoms: C4_4  and  C6_6 
REMARK    2  A    between atoms: C4_4  and  C7_7 
REMARK    3  A    between atoms: C5_5  and  C6_6 
REMARK    4  A    between atoms: C5_5  and  O8_8 
ROOT
HETATM    1  C1  UNL     1     -34.273   5.300   2.557  1.00 20.00     0.012 C 
HETATM    2  C6  UNL     1     -33.537   6.446   3.253  1.00 20.00     0.007 C 
ENDROOT
BRANCH   2   3
HETATM    3  C4  UNL     1     -33.174   6.106   4.718  1.00 20.00     0.026 C 
BRANCH   3   4
HETATM    4  C7  UNL     1     -34.294   6.301   5.753  1.00 20.00     0.078 C 
HETATM    5  C2  UNL     1     -33.789   7.081   6.962  1.00 20.00     0.026 C 
HETATM    6 CL9  UNL     1     -34.938   4.728   6.310  1.00 20.00    -0.125 Cl
ENDBRANCH   3   4
ENDBRANCH   2   3
BRANCH   2   7
HETATM    7  C5  UNL     1     -32.273   6.800   2.456  1.00 20.00     0.171 C 
BRANCH   7   8
HETATM    8  O8  UNL     1     -32.055   8.205   2.486  1.00 20.00    -0.396 OA
HETATM    9  C3  UNL     1     -32.060   8.762   1.179  1.00 20.00     0.201 C 
ENDBRANCH   7   8
ENDBRANCH   2   7
TORSDOF 4
ENDMDL
