MODEL 1
REMARK VINA RESULT:      -5.1      0.000      0.000
REMARK  3 active torsions:
REMARK  status: ('A' for Active; 'I' for Inactive)
REMARK    1  A    between atoms: C1_1  and  C10_10 
REMARK    2  A    between atoms: C8_8  and  C11_11 
REMARK    3  A    between atoms: C10_10  and  C11_11 
ROOT
HETATM    1  C2  UNL     1     -35.824  17.922  -0.937  1.00 20.00     0.005 C 
HETATM    2  C3  UNL     1     -34.729  17.057  -0.296  1.00 20.00     0.005 C 
HETATM    3  C4  UNL     1     -33.769  18.291  -2.081  1.00 20.00     0.009 C 
HETATM    4  C5  UNL     1     -35.358  16.903  -3.181  1.00 20.00     0.009 C 
HETATM    5  C6  UNL     1     -35.270  18.194  -2.347  1.00 20.00    -0.014 C 
HETATM    6  C7  UNL     1     -33.699  16.907  -1.432  1.00 20.00    -0.010 C 
HETATM    7  C8  UNL     1     -34.306  15.987  -2.518  1.00 20.00    -0.010 C 
ENDROOT
BRANCH   7   8
HETATM    8  C11 UNL     1     -33.268  15.483  -3.515  1.00 20.00     0.012 C 
BRANCH   8   9
HETATM    9  C10 UNL     1     -33.343  13.969  -3.677  1.00 20.00     0.078 C 
BRANCH   9  10
HETATM   10  C1  UNL     1     -34.425  13.544  -4.653  1.00 20.00     0.123 C 
HETATM   11  C9  UNL     1     -34.579  14.397  -5.886  1.00 20.00     0.091 C 
HETATM   12  O12 UNL     1     -35.144  12.563  -4.467  1.00 20.00    -0.298 OA
ENDBRANCH   9  10
ENDBRANCH   8   9
ENDBRANCH   7   8
TORSDOF 3
ENDMDL
MODEL 2
REMARK VINA RESULT:      -5.0     10.428     11.738
REMARK  3 active torsions:
REMARK  status: ('A' for Active; 'I' for Inactive)
REMARK    1  A    between atoms: C1_1  and  C10_10 
REMARK    2  A    between atoms: C8_8  and  C11_11 
REMARK    3  A    between atoms: C10_10  and  C11_11 
ROOT
HETATM    1  C2  UNL     1     -35.133   4.391   4.889  1.00 20.00     0.005 C 
HETATM    2  C3  UNL     1     -34.288   5.159   5.916  1.00 20.00     0.005 C 
HETATM    3  C4  UNL     1     -35.150   6.708   4.340  1.00 20.00     0.009 C 
HETATM    4  C5  UNL     1     -33.746   5.317   3.014  1.00 20.00     0.009 C 
HETATM    5  C6  UNL     1     -35.138   5.334   3.672  1.00 20.00    -0.014 C 
HETATM    6  C7  UNL     1     -33.880   6.431   5.149  1.00 20.00    -0.010 C 
HETATM    7  C8  UNL     1     -32.858   6.030   4.058  1.00 20.00    -0.010 C 
ENDROOT
BRANCH   7   8
HETATM    8  C11 UNL     1     -32.123   7.229   3.467  1.00 20.00     0.012 C 
BRANCH   8   9
HETATM    9  C10 UNL     1     -32.215   7.242   1.946  1.00 20.00     0.078 C 
BRANCH   9  10
HETATM   10  C1  UNL     1     -31.952   8.620   1.363  1.00 20.00     0.123 C 
HETATM   11  C9  UNL     1     -32.695   9.764   2.003  1.00 20.00     0.091 C 
HETATM   12  O12 UNL     1     -31.182   8.811   0.423  1.00 20.00    -0.298 OA
ENDBRANCH   9  10
ENDBRANCH   8   9
ENDBRANCH   7   8
TORSDOF 3
ENDMDL
MODEL 3
REMARK VINA RESULT:      -5.0      1.155      1.730
REMARK  3 active torsions:
REMARK  status: ('A' for Active; 'I' for Inactive)
REMARK    1  A    between atoms: C1_1  and  C10_10 
REMARK    2  A    between atoms: C8_8  and  C11_11 
REMARK    3  A    between atoms: C10_10  and  C11_11 
ROOT
HETATM    1  C2  UNL     1     -33.931  18.259   0.378  1.00 20.00     0.005 C 
HETATM    2  C3  UNL     1     -32.937  18.655  -0.724  1.00 20.00     0.005 C 
HETATM    3  C4  UNL     1     -35.116  18.586  -1.660  1.00 20.00     0.009 C 
HETATM    4  C5  UNL     1     -34.740  16.329  -1.006  1.00 20.00     0.009 C 
HETATM    5  C6  UNL     1     -35.124  17.699  -0.417  1.00 20.00    -0.014 C 
HETATM    6  C7  UNL     1     -33.667  18.238  -2.014  1.00 20.00    -0.010 C 
HETATM    7  C8  UNL     1     -33.691  16.692  -2.079  1.00 20.00    -0.010 C 
ENDROOT
BRANCH   7   8
HETATM    8  C11 UNL     1     -34.069  16.164  -3.458  1.00 20.00     0.012 C 
BRANCH   8   9
HETATM    9  C10 UNL     1     -33.795  14.669  -3.575  1.00 20.00     0.078 C 
BRANCH   9  10
HETATM   10  C1  UNL     1     -35.032  13.882  -3.971  1.00 20.00     0.123 C 
HETATM   11  C9  UNL     1     -36.339  14.630  -3.917  1.00 20.00     0.091 C 
HETATM   12  O12 UNL     1     -34.990  12.704  -4.320  1.00 20.00    -0.298 OA
ENDBRANCH   9  10
ENDBRANCH   8   9
ENDBRANCH   7   8
TORSDOF 3
ENDMDL
MODEL 4
REMARK VINA RESULT:      -4.9      2.478      4.810
REMARK  3 active torsions:
REMARK  status: ('A' for Active; 'I' for Inactive)
REMARK    1  A    between atoms: C1_1  and  C10_10 
REMARK    2  A    between atoms: C8_8  and  C11_11 
REMARK    3  A    between atoms: C10_10  and  C11_11 
ROOT
HETATM    1  C2  UNL     1     -34.613  13.967  -5.523  1.00 20.00     0.005 C 
HETATM    2  C3  UNL     1     -35.102  13.580  -4.120  1.00 20.00     0.005 C 
HETATM    3  C4  UNL     1     -35.724  15.830  -4.542  1.00 20.00     0.009 C 
HETATM    4  C5  UNL     1     -33.346  15.914  -4.576  1.00 20.00     0.009 C 
HETATM    5  C6  UNL     1     -34.543  15.503  -5.453  1.00 20.00    -0.014 C 
HETATM    6  C7  UNL     1     -35.215  14.940  -3.405  1.00 20.00    -0.010 C 
HETATM    7  C8  UNL     1     -33.785  15.478  -3.161  1.00 20.00    -0.010 C 
ENDROOT
BRANCH   7   8
HETATM    8  C11 UNL     1     -33.749  16.631  -2.164  1.00 20.00     0.012 C 
BRANCH   8   9
HETATM    9  C10 UNL     1     -34.802  16.458  -1.076  1.00 20.00     0.078 C 
BRANCH   9  10
HETATM   10  C1  UNL     1     -34.576  17.390   0.102  1.00 20.00     0.123 C 
HETATM   11  C9  UNL     1     -33.484  18.415  -0.064  1.00 20.00     0.091 C 
HETATM   12  O12 UNL     1     -35.236  17.329   1.138  1.00 20.00    -0.298 OA
ENDBRANCH   9  10
ENDBRANCH   8   9
ENDBRANCH   7   8
TORSDOF 3
ENDMDL
MODEL 5
REMARK VINA RESULT:      -4.9      1.094      1.776
REMARK  3 active torsions:
REMARK  status: ('A' for Active; 'I' for Inactive)
REMARK    1  A    between atoms: C1_1  and  C10_10 
REMARK    2  A    between atoms: C8_8  and  C11_11 
REMARK    3  A    between atoms: C10_10  and  C11_11 
ROOT
HETATM    1  C2  UNL     1     -34.034  17.941  -1.141  1.00 20.00     0.005 C 
HETATM    2  C3  UNL     1     -34.767  16.638  -0.787  1.00 20.00     0.005 C 
HETATM    3  C4  UNL     1     -33.522  16.289  -2.776  1.00 20.00     0.009 C 
HETATM    4  C5  UNL     1     -35.096  17.956  -3.413  1.00 20.00     0.009 C 
HETATM    5  C6  UNL     1     -33.770  17.790  -2.649  1.00 20.00    -0.014 C 
HETATM    6  C7  UNL     1     -34.867  15.918  -2.145  1.00 20.00    -0.010 C 
HETATM    7  C8  UNL     1     -35.883  16.685  -3.026  1.00 20.00    -0.010 C 
ENDROOT
BRANCH   7   8
HETATM    8  C11 UNL     1     -36.327  15.886  -4.247  1.00 20.00     0.012 C 
BRANCH   8   9
HETATM    9  C10 UNL     1     -36.271  14.387  -3.980  1.00 20.00     0.078 C 
BRANCH   9  10
HETATM   10  C1  UNL     1     -35.251  13.681  -4.857  1.00 20.00     0.123 C 
HETATM   11  C9  UNL     1     -34.753  14.456  -6.050  1.00 20.00     0.091 C 
HETATM   12  O12 UNL     1     -34.843  12.544  -4.624  1.00 20.00    -0.298 OA
ENDBRANCH   9  10
ENDBRANCH   8   9
ENDBRANCH   7   8
TORSDOF 3
ENDMDL
MODEL 6
REMARK VINA RESULT:      -4.8      2.484      5.011
REMARK  3 active torsions:
REMARK  status: ('A' for Active; 'I' for Inactive)
REMARK    1  A    between atoms: C1_1  and  C10_10 
REMARK    2  A    between atoms: C8_8  and  C11_11 
REMARK    3  A    between atoms: C10_10  and  C11_11 
ROOT
HETATM    1  C2  UNL     1     -35.015  14.340  -6.035  1.00 20.00     0.005 C 
HETATM    2  C3  UNL     1     -34.013  15.461  -5.726  1.00 20.00     0.005 C 
HETATM    3  C4  UNL     1     -33.804  13.783  -4.062  1.00 20.00     0.009 C 
HETATM    4  C5  UNL     1     -36.027  14.574  -3.752  1.00 20.00     0.009 C 
HETATM    5  C6  UNL     1     -35.200  13.655  -4.670  1.00 20.00    -0.014 C 
HETATM    6  C7  UNL     1     -33.776  15.306  -4.211  1.00 20.00    -0.010 C 
HETATM    7  C8  UNL     1     -35.063  15.747  -3.473  1.00 20.00    -0.010 C 
ENDROOT
BRANCH   7   8
HETATM    8  C11 UNL     1     -34.841  15.970  -1.981  1.00 20.00     0.012 C 
BRANCH   8   9
HETATM    9  C10 UNL     1     -33.657  16.895  -1.727  1.00 20.00     0.078 C 
BRANCH   9  10
HETATM   10  C1  UNL     1     -33.816  17.703  -0.451  1.00 20.00     0.123 C 
HETATM   11  C9  UNL     1     -35.012  17.366   0.402  1.00 20.00     0.091 C 
HETATM   12  O12 UNL     1     -33.026  18.584  -0.116  1.00 20.00    -0.298 OA
ENDBRANCH   9  10
ENDBRANCH   8   9
ENDBRANCH   7   8
TORSDOF 3
ENDMDL
MODEL 7
REMARK VINA RESULT:      -4.7     12.370     14.034
REMARK  3 active torsions:
REMARK  status: ('A' for Active; 'I' for Inactive)
REMARK    1  A    between atoms: C1_1  and  C10_10 
REMARK    2  A    between atoms: C8_8  and  C11_11 
REMARK    3  A    between atoms: C10_10  and  C11_11 
ROOT
HETATM    1  C2  UNL     1     -41.007   7.096  -0.804  1.00 20.00     0.005 C 
HETATM    2  C3  UNL     1     -42.149   7.109  -1.830  1.00 20.00     0.005 C 
HETATM    3  C4  UNL     1     -42.699   5.572  -0.108  1.00 20.00     0.009 C 
HETATM    4  C5  UNL     1     -40.748   4.616  -1.079  1.00 20.00     0.009 C 
HETATM    5  C6  UNL     1     -41.180   5.733  -0.111  1.00 20.00    -0.014 C 
HETATM    6  C7  UNL     1     -42.813   5.734  -1.626  1.00 20.00    -0.010 C 
HETATM    7  C8  UNL     1     -41.850   4.647  -2.161  1.00 20.00    -0.010 C 
ENDROOT
BRANCH   7   8
HETATM    8  C11 UNL     1     -42.525   3.291  -2.335  1.00 20.00     0.012 C 
BRANCH   8   9
HETATM    9  C10 UNL     1     -43.295   3.219  -3.649  1.00 20.00     0.078 C 
BRANCH   9  10
HETATM   10  C1  UNL     1     -42.696   2.212  -4.615  1.00 20.00     0.123 C 
HETATM   11  C9  UNL     1     -41.605   1.331  -4.064  1.00 20.00     0.091 C 
HETATM   12  O12 UNL     1     -43.068   2.104  -5.783  1.00 20.00    -0.298 OA
ENDBRANCH   9  10
ENDBRANCH   8   9
ENDBRANCH   7   8
TORSDOF 3
ENDMDL
MODEL 8
REMARK VINA RESULT:      -4.5      2.188      5.026
REMARK  3 active torsions:
REMARK  status: ('A' for Active; 'I' for Inactive)
REMARK    1  A    between atoms: C1_1  and  C10_10 
REMARK    2  A    between atoms: C8_8  and  C11_11 
REMARK    3  A    between atoms: C10_10  and  C11_11 
ROOT
HETATM    1  C2  UNL     1     -35.329  14.590  -7.863  1.00 20.00     0.005 C 
HETATM    2  C3  UNL     1     -36.717  14.986  -7.338  1.00 20.00     0.005 C 
HETATM    3  C4  UNL     1     -35.094  16.362  -6.291  1.00 20.00     0.009 C 
HETATM    4  C5  UNL     1     -34.528  14.184  -5.520  1.00 20.00     0.009 C 
HETATM    5  C6  UNL     1     -34.386  15.092  -6.755  1.00 20.00    -0.014 C 
HETATM    6  C7  UNL     1     -36.402  15.631  -5.976  1.00 20.00    -0.010 C 
HETATM    7  C8  UNL     1     -35.946  14.515  -5.005  1.00 20.00    -0.010 C 
ENDROOT
BRANCH   7   8
HETATM    8  C11 UNL     1     -35.940  14.964  -3.548  1.00 20.00     0.012 C 
BRANCH   8   9
HETATM    9  C10 UNL     1     -34.524  15.014  -2.988  1.00 20.00     0.078 C 
BRANCH   9  10
HETATM   10  C1  UNL     1     -34.178  16.375  -2.409  1.00 20.00     0.123 C 
HETATM   11  C9  UNL     1     -34.578  16.607  -0.975  1.00 20.00     0.091 C 
HETATM   12  O12 UNL     1     -33.606  17.250  -3.057  1.00 20.00    -0.298 OA
ENDBRANCH   9  10
ENDBRANCH   8   9
ENDBRANCH   7   8
TORSDOF 3
ENDMDL
MODEL 9
REMARK VINA RESULT:      -4.5      1.422      1.853
REMARK  3 active torsions:
REMARK  status: ('A' for Active; 'I' for Inactive)
REMARK    1  A    between atoms: C1_1  and  C10_10 
REMARK    2  A    between atoms: C8_8  and  C11_11 
REMARK    3  A    between atoms: C10_10  and  C11_11 
ROOT
HETATM    1  C2  UNL     1     -35.451  17.228  -1.378  1.00 20.00     0.005 C 
HETATM    2  C3  UNL     1     -33.971  16.821  -1.328  1.00 20.00     0.005 C 
HETATM    3  C4  UNL     1     -34.523  17.387  -3.565  1.00 20.00     0.009 C 
HETATM    4  C5  UNL     1     -35.899  15.494  -3.135  1.00 20.00     0.009 C 
HETATM    5  C6  UNL     1     -35.821  17.006  -2.855  1.00 20.00    -0.014 C 
HETATM    6  C7  UNL     1     -33.685  16.378  -2.776  1.00 20.00    -0.010 C 
HETATM    7  C8  UNL     1     -34.426  15.043  -3.029  1.00 20.00    -0.010 C 
ENDROOT
BRANCH   7   8
HETATM    8  C11 UNL     1     -33.948  14.332  -4.291  1.00 20.00     0.012 C 
BRANCH   8   9
HETATM    9  C10 UNL     1     -35.118  13.950  -5.190  1.00 20.00     0.078 C 
BRANCH   9  10
HETATM   10  C1  UNL     1     -34.987  14.531  -6.587  1.00 20.00     0.123 C 
HETATM   11  C9  UNL     1     -34.070  15.719  -6.728  1.00 20.00     0.091 C 
HETATM   12  O12 UNL     1     -35.586  14.074  -7.559  1.00 20.00    -0.298 OA
ENDBRANCH   9  10
ENDBRANCH   8   9
ENDBRANCH   7   8
TORSDOF 3
ENDMDL
