MODEL 1
REMARK VINA RESULT:      -5.2      0.000      0.000
REMARK  3 active torsions:
REMARK  status: ('A' for Active; 'I' for Inactive)
REMARK    1  A    between atoms: C1_1  and  C5_5 
REMARK    2  A    between atoms: C2_2  and  C7_7 
REMARK    3  A    between atoms: C5_5  and  C6_6 
ROOT
HETATM    1  C1  UNL     1     -33.028   6.404   3.948  1.00 20.00    -0.029 C 
HETATM    2  C2  UNL     1     -34.182   5.723   4.007  1.00 20.00    -0.027 C 
ENDROOT
BRANCH   1   3
HETATM    3  C5  UNL     1     -32.311   6.721   2.666  1.00 20.00     0.042 C 
BRANCH   3   4
HETATM    4  C6  UNL     1     -32.107   8.220   2.462  1.00 20.00     0.118 C 
HETATM    5 CL8  UNL     1     -31.709   8.604   0.769  1.00 20.00    -0.130 Cl
ENDBRANCH   3   4
ENDBRANCH   1   3
BRANCH   2   6
HETATM    6  C7  UNL     1     -34.902   5.406   5.294  1.00 20.00    -0.001 C 
HETATM    7  C3  UNL     1     -34.264   6.165   6.457  1.00 20.00     0.013 C 
HETATM    8  C4  UNL     1     -34.876   3.901   5.554  1.00 20.00     0.013 C 
ENDBRANCH   2   6
TORSDOF 3
ENDMDL
MODEL 2
REMARK VINA RESULT:      -5.0      1.107      1.543
REMARK  3 active torsions:
REMARK  status: ('A' for Active; 'I' for Inactive)
REMARK    1  A    between atoms: C1_1  and  C5_5 
REMARK    2  A    between atoms: C2_2  and  C7_7 
REMARK    3  A    between atoms: C5_5  and  C6_6 
ROOT
HETATM    1  C1  UNL     1     -32.797   6.544   3.265  1.00 20.00    -0.029 C 
HETATM    2  C2  UNL     1     -33.412   6.347   4.441  1.00 20.00    -0.027 C 
ENDROOT
BRANCH   1   3
HETATM    3  C5  UNL     1     -31.826   7.662   3.009  1.00 20.00     0.042 C 
BRANCH   3   4
HETATM    4  C6  UNL     1     -31.972   8.260   1.613  1.00 20.00     0.118 C 
HETATM    5 CL8  UNL     1     -32.576   9.934   1.676  1.00 20.00    -0.130 Cl
ENDBRANCH   3   4
ENDBRANCH   1   3
BRANCH   2   6
HETATM    6  C7  UNL     1     -34.386   5.225   4.698  1.00 20.00    -0.001 C 
HETATM    7  C3  UNL     1     -35.635   5.401   3.837  1.00 20.00     0.013 C 
HETATM    8  C4  UNL     1     -34.756   5.179   6.180  1.00 20.00     0.013 C 
ENDBRANCH   2   6
TORSDOF 3
ENDMDL
MODEL 3
REMARK VINA RESULT:      -4.7      2.645      4.577
REMARK  3 active torsions:
REMARK  status: ('A' for Active; 'I' for Inactive)
REMARK    1  A    between atoms: C1_1  and  C5_5 
REMARK    2  A    between atoms: C2_2  and  C7_7 
REMARK    3  A    between atoms: C5_5  and  C6_6 
ROOT
HETATM    1  C1  UNL     1     -33.941   6.354   3.788  1.00 20.00    -0.029 C 
HETATM    2  C2  UNL     1     -32.877   6.195   2.986  1.00 20.00    -0.027 C 
ENDROOT
BRANCH   1   3
HETATM    3  C5  UNL     1     -35.031   5.332   3.939  1.00 20.00     0.042 C 
BRANCH   3   4
HETATM    4  C6  UNL     1     -35.077   4.723   5.338  1.00 20.00     0.118 C 
HETATM    5 CL8  UNL     1     -34.396   5.828   6.558  1.00 20.00    -0.130 Cl
ENDBRANCH   3   4
ENDBRANCH   1   3
BRANCH   2   6
HETATM    6  C7  UNL     1     -31.782   7.221   2.836  1.00 20.00    -0.001 C 
HETATM    7  C3  UNL     1     -31.388   7.777   4.203  1.00 20.00     0.013 C 
HETATM    8  C4  UNL     1     -32.238   8.345   1.907  1.00 20.00     0.013 C 
ENDBRANCH   2   6
TORSDOF 3
ENDMDL
MODEL 4
REMARK VINA RESULT:      -4.0      2.681      5.144
REMARK  3 active torsions:
REMARK  status: ('A' for Active; 'I' for Inactive)
REMARK    1  A    between atoms: C1_1  and  C5_5 
REMARK    2  A    between atoms: C2_2  and  C7_7 
REMARK    3  A    between atoms: C5_5  and  C6_6 
ROOT
HETATM    1  C1  UNL     1     -32.909   7.358   2.846  1.00 20.00    -0.029 C 
HETATM    2  C2  UNL     1     -31.876   7.743   2.082  1.00 20.00    -0.027 C 
ENDROOT
BRANCH   1   3
HETATM    3  C5  UNL     1     -32.893   6.130   3.712  1.00 20.00     0.042 C 
BRANCH   3   4
HETATM    4  C6  UNL     1     -34.279   5.759   4.232  1.00 20.00     0.118 C 
HETATM    5 CL8  UNL     1     -34.331   5.745   6.012  1.00 20.00    -0.130 Cl
ENDBRANCH   3   4
ENDBRANCH   1   3
BRANCH   2   6
HETATM    6  C7  UNL     1     -31.891   8.977   1.214  1.00 20.00    -0.001 C 
HETATM    7  C3  UNL     1     -32.711  10.081   1.880  1.00 20.00     0.013 C 
HETATM    8  C4  UNL     1     -32.458   8.642  -0.165  1.00 20.00     0.013 C 
ENDBRANCH   2   6
TORSDOF 3
ENDMDL
MODEL 5
REMARK VINA RESULT:      -3.8      2.721      4.623
REMARK  3 active torsions:
REMARK  status: ('A' for Active; 'I' for Inactive)
REMARK    1  A    between atoms: C1_1  and  C5_5 
REMARK    2  A    between atoms: C2_2  and  C7_7 
REMARK    3  A    between atoms: C5_5  and  C6_6 
ROOT
HETATM    1  C1  UNL     1     -33.664   6.229   4.743  1.00 20.00    -0.029 C 
HETATM    2  C2  UNL     1     -32.599   6.938   4.341  1.00 20.00    -0.027 C 
ENDROOT
BRANCH   1   3
HETATM    3  C5  UNL     1     -34.245   6.309   6.126  1.00 20.00     0.042 C 
BRANCH   3   4
HETATM    4  C6  UNL     1     -34.961   5.026   6.539  1.00 20.00     0.118 C 
HETATM    5 CL8  UNL     1     -35.045   3.860   5.195  1.00 20.00    -0.130 Cl
ENDBRANCH   3   4
ENDBRANCH   1   3
BRANCH   2   6
HETATM    6  C7  UNL     1     -32.016   6.858   2.952  1.00 20.00    -0.001 C 
HETATM    7  C3  UNL     1     -32.213   8.185   2.220  1.00 20.00     0.013 C 
HETATM    8  C4  UNL     1     -32.664   5.713   2.175  1.00 20.00     0.013 C 
ENDBRANCH   2   6
TORSDOF 3
ENDMDL
MODEL 6
REMARK VINA RESULT:      -3.8     11.348     12.076
REMARK  3 active torsions:
REMARK  status: ('A' for Active; 'I' for Inactive)
REMARK    1  A    between atoms: C1_1  and  C5_5 
REMARK    2  A    between atoms: C2_2  and  C7_7 
REMARK    3  A    between atoms: C5_5  and  C6_6 
ROOT
HETATM    1  C1  UNL     1     -34.157  14.682  -3.340  1.00 20.00    -0.029 C 
HETATM    2  C2  UNL     1     -34.733  15.538  -2.483  1.00 20.00    -0.027 C 
ENDROOT
BRANCH   1   3
HETATM    3  C5  UNL     1     -34.905  13.603  -4.069  1.00 20.00     0.042 C 
BRANCH   3   4
HETATM    4  C6  UNL     1     -34.922  13.817  -5.580  1.00 20.00     0.118 C 
HETATM    5 CL8  UNL     1     -34.174  15.369  -6.032  1.00 20.00    -0.130 Cl
ENDBRANCH   3   4
ENDBRANCH   1   3
BRANCH   2   6
HETATM    6  C7  UNL     1     -33.982  16.623  -1.752  1.00 20.00    -0.001 C 
HETATM    7  C3  UNL     1     -34.684  16.956  -0.436  1.00 20.00     0.013 C 
HETATM    8  C4  UNL     1     -33.868  17.867  -2.631  1.00 20.00     0.013 C 
ENDBRANCH   2   6
TORSDOF 3
ENDMDL
MODEL 7
REMARK VINA RESULT:      -3.8      2.757      4.714
REMARK  3 active torsions:
REMARK  status: ('A' for Active; 'I' for Inactive)
REMARK    1  A    between atoms: C1_1  and  C5_5 
REMARK    2  A    between atoms: C2_2  and  C7_7 
REMARK    3  A    between atoms: C5_5  and  C6_6 
ROOT
HETATM    1  C1  UNL     1     -33.507   6.101   5.087  1.00 20.00    -0.029 C 
HETATM    2  C2  UNL     1     -33.739   6.823   3.981  1.00 20.00    -0.027 C 
ENDROOT
BRANCH   1   3
HETATM    3  C5  UNL     1     -34.357   6.173   6.324  1.00 20.00     0.042 C 
BRANCH   3   4
HETATM    4  C6  UNL     1     -35.103   4.871   6.602  1.00 20.00     0.118 C 
HETATM    5 CL8  UNL     1     -34.982   3.740   5.231  1.00 20.00    -0.130 Cl
ENDBRANCH   3   4
ENDBRANCH   1   3
BRANCH   2   6
HETATM    6  C7  UNL     1     -32.886   6.749   2.739  1.00 20.00    -0.001 C 
HETATM    7  C3  UNL     1     -31.921   5.568   2.830  1.00 20.00     0.013 C 
HETATM    8  C4  UNL     1     -32.119   8.057   2.549  1.00 20.00     0.013 C 
ENDBRANCH   2   6
TORSDOF 3
ENDMDL
MODEL 8
REMARK VINA RESULT:      -3.7     11.379     12.317
REMARK  3 active torsions:
REMARK  status: ('A' for Active; 'I' for Inactive)
REMARK    1  A    between atoms: C1_1  and  C5_5 
REMARK    2  A    between atoms: C2_2  and  C7_7 
REMARK    3  A    between atoms: C5_5  and  C6_6 
ROOT
HETATM    1  C1  UNL     1     -33.881  16.732  -1.503  1.00 20.00    -0.029 C 
HETATM    2  C2  UNL     1     -34.210  15.827  -2.438  1.00 20.00    -0.027 C 
ENDROOT
BRANCH   1   3
HETATM    3  C5  UNL     1     -34.821  17.196  -0.427  1.00 20.00     0.042 C 
BRANCH   3   4
HETATM    4  C6  UNL     1     -34.180  18.211   0.516  1.00 20.00     0.118 C 
HETATM    5 CL8  UNL     1     -32.509  18.593   0.030  1.00 20.00    -0.130 Cl
ENDBRANCH   3   4
ENDBRANCH   1   3
BRANCH   2   6
HETATM    6  C7  UNL     1     -33.266  15.360  -3.518  1.00 20.00    -0.001 C 
HETATM    7  C3  UNL     1     -33.382  16.260  -4.747  1.00 20.00     0.013 C 
HETATM    8  C4  UNL     1     -33.564  13.907  -3.884  1.00 20.00     0.013 C 
ENDBRANCH   2   6
TORSDOF 3
ENDMDL
MODEL 9
REMARK VINA RESULT:      -3.7     11.224     12.047
REMARK  3 active torsions:
REMARK  status: ('A' for Active; 'I' for Inactive)
REMARK    1  A    between atoms: C1_1  and  C5_5 
REMARK    2  A    between atoms: C2_2  and  C7_7 
REMARK    3  A    between atoms: C5_5  and  C6_6 
ROOT
HETATM    1  C1  UNL     1     -34.706  16.284  -1.619  1.00 20.00    -0.029 C 
HETATM    2  C2  UNL     1     -33.892  15.934  -2.626  1.00 20.00    -0.027 C 
ENDROOT
BRANCH   1   3
HETATM    3  C5  UNL     1     -34.292  17.181  -0.487  1.00 20.00     0.042 C 
BRANCH   3   4
HETATM    4  C6  UNL     1     -33.450  18.366  -0.952  1.00 20.00     0.118 C 
HETATM    5 CL8  UNL     1     -32.142  18.734   0.200  1.00 20.00    -0.130 Cl
ENDBRANCH   3   4
ENDBRANCH   1   3
BRANCH   2   6
HETATM    6  C7  UNL     1     -34.308  15.035  -3.764  1.00 20.00    -0.001 C 
HETATM    7  C3  UNL     1     -35.796  14.703  -3.658  1.00 20.00     0.013 C 
HETATM    8  C4  UNL     1     -33.470  13.758  -3.759  1.00 20.00     0.013 C 
ENDBRANCH   2   6
TORSDOF 3
ENDMDL
