MODEL 1
REMARK VINA RESULT:      -3.9      0.000      0.000
REMARK  2 active torsions:
REMARK  status: ('A' for Active; 'I' for Inactive)
REMARK    1  A    between atoms: C4_4  and  C7_7 
REMARK    2  A    between atoms: C7_7  and  O8_8 
ROOT
HETATM    1  C1  UNL     1     -32.911   7.032   4.954  1.00 20.00     0.008 C 
HETATM    2  C2  UNL     1     -33.973   6.561   5.951  1.00 20.00     0.016 C 
HETATM    3  C3  UNL     1     -34.502   5.772   3.702  1.00 20.00     0.022 C 
HETATM    4  C4  UNL     1     -33.001   6.053   3.786  1.00 20.00     0.011 C 
HETATM    5  C5  UNL     1     -34.937   5.676   5.159  1.00 20.00     0.058 C 
HETATM    6 BR9  UNL     1     -34.807   3.822   5.773  1.00 20.00    -0.091 Br
ENDROOT
BRANCH   4   7
HETATM    7  C7  UNL     1     -32.424   6.608   2.496  1.00 20.00     0.171 C 
BRANCH   7   8
HETATM    8  O8  UNL     1     -32.098   7.974   2.691  1.00 20.00    -0.396 OA
HETATM    9  C6  UNL     1     -32.007   8.674   1.456  1.00 20.00     0.201 C 
ENDBRANCH   7   8
ENDBRANCH   4   7
TORSDOF 2
ENDMDL
MODEL 2
REMARK VINA RESULT:      -3.9     11.470     12.300
REMARK  2 active torsions:
REMARK  status: ('A' for Active; 'I' for Inactive)
REMARK    1  A    between atoms: C4_4  and  C7_7 
REMARK    2  A    between atoms: C7_7  and  O8_8 
ROOT
HETATM    1  C1  UNL     1     -33.797  13.891  -3.668  1.00 20.00     0.008 C 
HETATM    2  C2  UNL     1     -34.540  13.264  -4.850  1.00 20.00     0.016 C 
HETATM    3  C3  UNL     1     -35.262  15.573  -4.512  1.00 20.00     0.022 C 
HETATM    4  C4  UNL     1     -33.869  15.397  -3.907  1.00 20.00     0.011 C 
HETATM    5  C5  UNL     1     -35.407  14.376  -5.445  1.00 20.00     0.058 C 
HETATM    6 BR9  UNL     1     -34.767  14.844  -7.234  1.00 20.00    -0.091 Br
ENDROOT
BRANCH   4   7
HETATM    7  C7  UNL     1     -33.660  16.212  -2.643  1.00 20.00     0.171 C 
BRANCH   7   8
HETATM    8  O8  UNL     1     -34.730  15.954  -1.749  1.00 20.00    -0.396 OA
HETATM    9  C6  UNL     1     -34.653  16.771  -0.588  1.00 20.00     0.201 C 
ENDBRANCH   7   8
ENDBRANCH   4   7
TORSDOF 2
ENDMDL
MODEL 3
REMARK VINA RESULT:      -3.7     11.208     12.194
REMARK  2 active torsions:
REMARK  status: ('A' for Active; 'I' for Inactive)
REMARK    1  A    between atoms: C4_4  and  C7_7 
REMARK    2  A    between atoms: C7_7  and  O8_8 
ROOT
HETATM    1  C1  UNL     1     -33.271  16.365  -4.393  1.00 20.00     0.008 C 
HETATM    2  C2  UNL     1     -33.866  17.637  -3.784  1.00 20.00     0.016 C 
HETATM    3  C3  UNL     1     -34.487  15.683  -2.458  1.00 20.00     0.022 C 
HETATM    4  C4  UNL     1     -33.214  15.364  -3.243  1.00 20.00     0.011 C 
HETATM    5  C5  UNL     1     -34.564  17.204  -2.493  1.00 20.00     0.058 C 
HETATM    6 BR9  UNL     1     -33.636  17.954  -0.942  1.00 20.00    -0.091 Br
ENDROOT
BRANCH   4   7
HETATM    7  C7  UNL     1     -33.147  13.921  -3.711  1.00 20.00     0.171 C 
BRANCH   7   8
HETATM    8  O8  UNL     1     -34.444  13.353  -3.633  1.00 20.00    -0.396 OA
HETATM    9  C6  UNL     1     -34.980  13.089  -4.924  1.00 20.00     0.201 C 
ENDBRANCH   7   8
ENDBRANCH   4   7
TORSDOF 2
ENDMDL
MODEL 4
REMARK VINA RESULT:      -3.7     11.615     12.309
REMARK  2 active torsions:
REMARK  status: ('A' for Active; 'I' for Inactive)
REMARK    1  A    between atoms: C4_4  and  C7_7 
REMARK    2  A    between atoms: C7_7  and  O8_8 
ROOT
HETATM    1  C1  UNL     1     -34.410  14.508  -3.784  1.00 20.00     0.008 C 
HETATM    2  C2  UNL     1     -33.469  15.476  -3.063  1.00 20.00     0.016 C 
HETATM    3  C3  UNL     1     -35.662  16.498  -3.388  1.00 20.00     0.022 C 
HETATM    4  C4  UNL     1     -35.816  14.977  -3.421  1.00 20.00     0.011 C 
HETATM    5  C5  UNL     1     -34.306  16.713  -2.729  1.00 20.00     0.058 C 
HETATM    6 BR9  UNL     1     -34.524  16.874  -0.791  1.00 20.00    -0.091 Br
ENDROOT
BRANCH   4   7
HETATM    7  C7  UNL     1     -36.875  14.505  -4.402  1.00 20.00     0.171 C 
BRANCH   7   8
HETATM    8  O8  UNL     1     -38.036  14.131  -3.679  1.00 20.00    -0.396 OA
HETATM    9  C6  UNL     1     -39.168  14.895  -4.073  1.00 20.00     0.201 C 
ENDBRANCH   7   8
ENDBRANCH   4   7
TORSDOF 2
ENDMDL
MODEL 5
REMARK VINA RESULT:      -3.7     11.318     12.841
REMARK  2 active torsions:
REMARK  status: ('A' for Active; 'I' for Inactive)
REMARK    1  A    between atoms: C4_4  and  C7_7 
REMARK    2  A    between atoms: C7_7  and  O8_8 
ROOT
HETATM    1  C1  UNL     1     -34.420  13.579  -5.036  1.00 20.00     0.008 C 
HETATM    2  C2  UNL     1     -34.034  13.727  -3.562  1.00 20.00     0.016 C 
HETATM    3  C3  UNL     1     -33.483  15.759  -4.800  1.00 20.00     0.022 C 
HETATM    4  C4  UNL     1     -34.583  15.007  -5.549  1.00 20.00     0.011 C 
HETATM    5  C5  UNL     1     -33.522  15.160  -3.399  1.00 20.00     0.058 C 
HETATM    6 BR9  UNL     1     -34.745  16.187  -2.269  1.00 20.00    -0.091 Br
ENDROOT
BRANCH   4   7
HETATM    7  C7  UNL     1     -34.459  15.116  -7.059  1.00 20.00     0.171 C 
BRANCH   7   8
HETATM    8  O8  UNL     1     -35.438  14.286  -7.660  1.00 20.00    -0.396 OA
HETATM    9  C6  UNL     1     -36.703  14.933  -7.733  1.00 20.00     0.201 C 
ENDBRANCH   7   8
ENDBRANCH   4   7
TORSDOF 2
ENDMDL
MODEL 6
REMARK VINA RESULT:      -3.6     10.054     11.027
REMARK  2 active torsions:
REMARK  status: ('A' for Active; 'I' for Inactive)
REMARK    1  A    between atoms: C4_4  and  C7_7 
REMARK    2  A    between atoms: C7_7  and  O8_8 
ROOT
HETATM    1  C1  UNL     1     -41.016   4.635  -1.132  1.00 20.00     0.008 C 
HETATM    2  C2  UNL     1     -40.819   6.120  -0.818  1.00 20.00     0.016 C 
HETATM    3  C3  UNL     1     -42.344   5.840  -2.704  1.00 20.00     0.022 C 
HETATM    4  C4  UNL     1     -42.351   4.559  -1.869  1.00 20.00     0.011 C 
HETATM    5  C5  UNL     1     -41.746   6.882  -1.768  1.00 20.00     0.058 C 
HETATM    6 BR9  UNL     1     -43.169   7.764  -0.755  1.00 20.00    -0.091 Br
ENDROOT
BRANCH   4   7
HETATM    7  C7  UNL     1     -42.499   3.301  -2.706  1.00 20.00     0.171 C 
BRANCH   7   8
HETATM    8  O8  UNL     1     -41.209   2.792  -3.001  1.00 20.00    -0.396 OA
HETATM    9  C6  UNL     1     -41.269   1.712  -3.924  1.00 20.00     0.201 C 
ENDBRANCH   7   8
ENDBRANCH   4   7
TORSDOF 2
ENDMDL
MODEL 7
REMARK VINA RESULT:      -3.6     11.616     12.726
REMARK  2 active torsions:
REMARK  status: ('A' for Active; 'I' for Inactive)
REMARK    1  A    between atoms: C4_4  and  C7_7 
REMARK    2  A    between atoms: C7_7  and  O8_8 
ROOT
HETATM    1  C1  UNL     1     -33.958  16.049  -2.405  1.00 20.00     0.008 C 
HETATM    2  C2  UNL     1     -34.164  17.521  -2.769  1.00 20.00     0.016 C 
HETATM    3  C3  UNL     1     -33.161  16.311  -4.637  1.00 20.00     0.022 C 
HETATM    4  C4  UNL     1     -33.898  15.314  -3.741  1.00 20.00     0.011 C 
HETATM    5  C5  UNL     1     -33.739  17.661  -4.232  1.00 20.00     0.058 C 
HETATM    6 BR9  UNL     1     -35.291  18.083  -5.346  1.00 20.00    -0.091 Br
ENDROOT
BRANCH   4   7
HETATM    7  C7  UNL     1     -33.204  13.966  -3.651  1.00 20.00     0.171 C 
BRANCH   7   8
HETATM    8  O8  UNL     1     -33.947  13.018  -4.398  1.00 20.00    -0.396 OA
HETATM    9  C6  UNL     1     -35.336  13.323  -4.401  1.00 20.00     0.201 C 
ENDBRANCH   7   8
ENDBRANCH   4   7
TORSDOF 2
ENDMDL
MODEL 8
REMARK VINA RESULT:      -3.5     11.578     12.248
REMARK  2 active torsions:
REMARK  status: ('A' for Active; 'I' for Inactive)
REMARK    1  A    between atoms: C4_4  and  C7_7 
REMARK    2  A    between atoms: C7_7  and  O8_8 
ROOT
HETATM    1  C1  UNL     1     -35.902  16.841  -2.638  1.00 20.00     0.008 C 
HETATM    2  C2  UNL     1     -35.764  16.207  -4.024  1.00 20.00     0.016 C 
HETATM    3  C3  UNL     1     -33.686  15.967  -2.764  1.00 20.00     0.022 C 
HETATM    4  C4  UNL     1     -34.842  16.154  -1.780  1.00 20.00     0.011 C 
HETATM    5  C5  UNL     1     -34.375  15.566  -4.062  1.00 20.00     0.058 C 
HETATM    6 BR9  UNL     1     -34.535  13.618  -4.159  1.00 20.00    -0.091 Br
ENDROOT
BRANCH   4   7
HETATM    7  C7  UNL     1     -34.456  16.958  -0.551  1.00 20.00     0.171 C 
BRANCH   7   8
HETATM    8  O8  UNL     1     -33.289  17.709  -0.843  1.00 20.00    -0.396 OA
HETATM    9  C6  UNL     1     -32.985  18.632   0.195  1.00 20.00     0.201 C 
ENDBRANCH   7   8
ENDBRANCH   4   7
TORSDOF 2
ENDMDL
MODEL 9
REMARK VINA RESULT:      -3.4      3.002      4.217
REMARK  2 active torsions:
REMARK  status: ('A' for Active; 'I' for Inactive)
REMARK    1  A    between atoms: C4_4  and  C7_7 
REMARK    2  A    between atoms: C7_7  and  O8_8 
ROOT
HETATM    1  C1  UNL     1     -33.309   6.828   4.938  1.00 20.00     0.008 C 
HETATM    2  C2  UNL     1     -32.040   7.481   4.386  1.00 20.00     0.016 C 
HETATM    3  C3  UNL     1     -33.007   5.962   2.737  1.00 20.00     0.022 C 
HETATM    4  C4  UNL     1     -34.104   6.402   3.707  1.00 20.00     0.011 C 
HETATM    5  C5  UNL     1     -31.905   6.994   2.942  1.00 20.00     0.058 C 
HETATM    6 BR9  UNL     1     -32.152   8.488   1.702  1.00 20.00    -0.091 Br
ENDROOT
BRANCH   4   7
HETATM    7  C7  UNL     1     -35.116   5.308   3.999  1.00 20.00     0.171 C 
BRANCH   7   8
HETATM    8  O8  UNL     1     -35.231   5.153   5.404  1.00 20.00    -0.396 OA
HETATM    9  C6  UNL     1     -34.885   3.837   5.817  1.00 20.00     0.201 C 
ENDBRANCH   7   8
ENDBRANCH   4   7
TORSDOF 2
ENDMDL
