MODEL 1
REMARK VINA RESULT:      -4.0      0.000      0.000
REMARK  2 active torsions:
REMARK  status: ('A' for Active; 'I' for Inactive)
REMARK    1  A    between atoms: C7_7  and  C8_8 
REMARK    2  A    between atoms: C8_8  and  S9_9 
ROOT
HETATM    1  C1  UNL     1     -34.259  15.301  -5.578  1.00 20.00     0.005 C 
HETATM    2  C2  UNL     1     -33.288  15.995  -4.612  1.00 20.00     0.005 C 
HETATM    3  C3  UNL     1     -33.533  13.739  -3.935  1.00 20.00     0.009 C 
HETATM    4  C4  UNL     1     -35.732  14.632  -3.670  1.00 20.00     0.010 C 
HETATM    5  C5  UNL     1     -34.770  14.108  -4.753  1.00 20.00    -0.014 C 
HETATM    6  C6  UNL     1     -33.398  15.142  -3.336  1.00 20.00    -0.009 C 
HETATM    7  C7  UNL     1     -34.780  15.302  -2.659  1.00 20.00    -0.001 C 
ENDROOT
BRANCH   7   8
HETATM    8  C8  UNL     1     -35.179  16.724  -2.298  1.00 20.00     0.075 C 
BRANCH   8   9
HETATM    9  S9  UNL     1     -34.628  17.131  -0.620  1.00 20.00    -0.182 SA
HETATM   10  H23 UNL     1     -33.531  16.361  -0.638  1.00 20.00     0.101 HD
ENDBRANCH   8   9
ENDBRANCH   7   8
TORSDOF 2
ENDMDL
MODEL 2
REMARK VINA RESULT:      -4.0     11.240     12.457
REMARK  2 active torsions:
REMARK  status: ('A' for Active; 'I' for Inactive)
REMARK    1  A    between atoms: C7_7  and  C8_8 
REMARK    2  A    between atoms: C8_8  and  S9_9 
ROOT
HETATM    1  C1  UNL     1     -42.452   5.449   0.477  1.00 20.00     0.005 C 
HETATM    2  C2  UNL     1     -43.148   5.017  -0.822  1.00 20.00     0.005 C 
HETATM    3  C3  UNL     1     -40.814   4.723  -1.091  1.00 20.00     0.009 C 
HETATM    4  C4  UNL     1     -41.036   7.080  -0.784  1.00 20.00     0.010 C 
HETATM    5  C5  UNL     1     -41.019   5.761   0.011  1.00 20.00    -0.014 C 
HETATM    6  C6  UNL     1     -42.044   5.182  -1.880  1.00 20.00    -0.009 C 
HETATM    7  C7  UNL     1     -41.695   6.671  -2.116  1.00 20.00    -0.001 C 
ENDROOT
BRANCH   7   8
HETATM    8  C8  UNL     1     -42.857   7.566  -2.520  1.00 20.00     0.075 C 
BRANCH   8   9
HETATM    9  S9  UNL     1     -42.584   8.251  -4.175  1.00 20.00    -0.182 SA
HETATM   10  H23 UNL     1     -43.592   7.599  -4.770  1.00 20.00     0.101 HD
ENDBRANCH   8   9
ENDBRANCH   7   8
TORSDOF 2
ENDMDL
MODEL 3
REMARK VINA RESULT:      -3.9      2.639      3.712
REMARK  2 active torsions:
REMARK  status: ('A' for Active; 'I' for Inactive)
REMARK    1  A    between atoms: C7_7  and  C8_8 
REMARK    2  A    between atoms: C8_8  and  S9_9 
ROOT
HETATM    1  C1  UNL     1     -34.892  15.457  -2.859  1.00 20.00     0.005 C 
HETATM    2  C2  UNL     1     -35.677  14.488  -3.755  1.00 20.00     0.005 C 
HETATM    3  C3  UNL     1     -33.394  13.860  -3.794  1.00 20.00     0.009 C 
HETATM    4  C4  UNL     1     -33.377  16.043  -4.762  1.00 20.00     0.010 C 
HETATM    5  C5  UNL     1     -33.456  15.334  -3.397  1.00 20.00    -0.014 C 
HETATM    6  C6  UNL     1     -34.604  13.966  -4.726  1.00 20.00    -0.009 C 
HETATM    7  C7  UNL     1     -34.125  15.071  -5.697  1.00 20.00    -0.001 C 
ENDROOT
BRANCH   7   8
HETATM    8  C8  UNL     1     -35.210  15.739  -6.526  1.00 20.00     0.075 C 
BRANCH   8   9
HETATM    9  S9  UNL     1     -35.697  14.674  -7.910  1.00 20.00    -0.182 SA
HETATM   10  H23 UNL     1     -35.052  15.366  -8.858  1.00 20.00     0.101 HD
ENDBRANCH   8   9
ENDBRANCH   7   8
TORSDOF 2
ENDMDL
MODEL 4
REMARK VINA RESULT:      -3.8     12.344     13.469
REMARK  2 active torsions:
REMARK  status: ('A' for Active; 'I' for Inactive)
REMARK    1  A    between atoms: C7_7  and  C8_8 
REMARK    2  A    between atoms: C8_8  and  S9_9 
ROOT
HETATM    1  C1  UNL     1     -43.055   6.360   0.026  1.00 20.00     0.005 C 
HETATM    2  C2  UNL     1     -42.678   4.933   0.450  1.00 20.00     0.005 C 
HETATM    3  C3  UNL     1     -40.701   6.074  -0.182  1.00 20.00     0.009 C 
HETATM    4  C4  UNL     1     -41.971   6.021  -2.203  1.00 20.00     0.010 C 
HETATM    5  C5  UNL     1     -41.873   6.778  -0.865  1.00 20.00    -0.014 C 
HETATM    6  C6  UNL     1     -41.351   4.691  -0.289  1.00 20.00    -0.009 C 
HETATM    7  C7  UNL     1     -41.557   4.587  -1.819  1.00 20.00    -0.001 C 
ENDROOT
BRANCH   7   8
HETATM    8  C8  UNL     1     -42.542   3.525  -2.282  1.00 20.00     0.075 C 
BRANCH   8   9
HETATM    9  S9  UNL     1     -41.710   2.299  -3.326  1.00 20.00    -0.182 SA
HETATM   10  H23 UNL     1     -40.513   2.903  -3.330  1.00 20.00     0.101 HD
ENDBRANCH   8   9
ENDBRANCH   7   8
TORSDOF 2
ENDMDL
MODEL 5
REMARK VINA RESULT:      -3.8      1.168      1.168
REMARK  2 active torsions:
REMARK  status: ('A' for Active; 'I' for Inactive)
REMARK    1  A    between atoms: C7_7  and  C8_8 
REMARK    2  A    between atoms: C8_8  and  S9_9 
ROOT
HETATM    1  C1  UNL     1     -34.253  15.176  -5.613  1.00 20.00     0.005 C 
HETATM    2  C2  UNL     1     -33.310  16.039  -4.762  1.00 20.00     0.005 C 
HETATM    3  C3  UNL     1     -33.396  13.869  -3.817  1.00 20.00     0.009 C 
HETATM    4  C4  UNL     1     -35.643  14.649  -3.601  1.00 20.00     0.010 C 
HETATM    5  C5  UNL     1     -34.670  14.061  -4.640  1.00 20.00    -0.014 C 
HETATM    6  C6  UNL     1     -33.341  15.340  -3.392  1.00 20.00    -0.009 C 
HETATM    7  C7  UNL     1     -34.717  15.493  -2.702  1.00 20.00    -0.001 C 
ENDROOT
BRANCH   7   8
HETATM    8  C8  UNL     1     -35.201  16.921  -2.501  1.00 20.00     0.075 C 
BRANCH   8   9
HETATM    9  S9  UNL     1     -36.801  17.169  -3.315  1.00 20.00    -0.182 SA
HETATM   10  H23 UNL     1     -36.453  18.278  -3.982  1.00 20.00     0.101 HD
ENDBRANCH   8   9
ENDBRANCH   7   8
TORSDOF 2
ENDMDL
MODEL 6
REMARK VINA RESULT:      -3.8      1.231      2.174
REMARK  2 active torsions:
REMARK  status: ('A' for Active; 'I' for Inactive)
REMARK    1  A    between atoms: C7_7  and  C8_8 
REMARK    2  A    between atoms: C8_8  and  S9_9 
ROOT
HETATM    1  C1  UNL     1     -36.493  14.400  -4.119  1.00 20.00     0.005 C 
HETATM    2  C2  UNL     1     -36.154  15.554  -5.073  1.00 20.00     0.005 C 
HETATM    3  C3  UNL     1     -34.817  13.687  -5.653  1.00 20.00     0.009 C 
HETATM    4  C4  UNL     1     -34.093  14.212  -3.439  1.00 20.00     0.010 C 
HETATM    5  C5  UNL     1     -35.238  13.513  -4.195  1.00 20.00    -0.014 C 
HETATM    6  C6  UNL     1     -34.729  15.212  -5.540  1.00 20.00    -0.009 C 
HETATM    7  C7  UNL     1     -33.700  15.357  -4.394  1.00 20.00    -0.001 C 
ENDROOT
BRANCH   7   8
HETATM    8  C8  UNL     1     -33.649  16.720  -3.720  1.00 20.00     0.075 C 
BRANCH   8   9
HETATM    9  S9  UNL     1     -34.120  16.582  -1.975  1.00 20.00    -0.182 SA
HETATM   10  H23 UNL     1     -33.423  17.647  -1.554  1.00 20.00     0.101 HD
ENDBRANCH   8   9
ENDBRANCH   7   8
TORSDOF 2
ENDMDL
MODEL 7
REMARK VINA RESULT:      -3.8     11.560     12.552
REMARK  2 active torsions:
REMARK  status: ('A' for Active; 'I' for Inactive)
REMARK    1  A    between atoms: C7_7  and  C8_8 
REMARK    2  A    between atoms: C8_8  and  S9_9 
ROOT
HETATM    1  C1  UNL     1     -34.374   4.610   5.752  1.00 20.00     0.005 C 
HETATM    2  C2  UNL     1     -34.209   6.137   5.768  1.00 20.00     0.005 C 
HETATM    3  C3  UNL     1     -35.861   5.580   4.165  1.00 20.00     0.009 C 
HETATM    4  C4  UNL     1     -33.889   4.549   3.299  1.00 20.00     0.010 C 
HETATM    5  C5  UNL     1     -34.983   4.346   4.364  1.00 20.00    -0.014 C 
HETATM    6  C6  UNL     1     -34.697   6.554   4.370  1.00 20.00    -0.009 C 
HETATM    7  C7  UNL     1     -33.727   6.082   3.261  1.00 20.00    -0.001 C 
ENDROOT
BRANCH   7   8
HETATM    8  C8  UNL     1     -32.286   6.545   3.403  1.00 20.00     0.075 C 
BRANCH   8   9
HETATM    9  S9  UNL     1     -31.980   7.997   2.361  1.00 20.00    -0.182 SA
HETATM   10  H23 UNL     1     -30.765   8.275   2.854  1.00 20.00     0.101 HD
ENDBRANCH   8   9
ENDBRANCH   7   8
TORSDOF 2
ENDMDL
MODEL 8
REMARK VINA RESULT:      -3.8      2.542      3.412
REMARK  2 active torsions:
REMARK  status: ('A' for Active; 'I' for Inactive)
REMARK    1  A    between atoms: C7_7  and  C8_8 
REMARK    2  A    between atoms: C8_8  and  S9_9 
ROOT
HETATM    1  C1  UNL     1     -32.907  14.393  -3.661  1.00 20.00     0.005 C 
HETATM    2  C2  UNL     1     -33.188  15.791  -4.232  1.00 20.00     0.005 C 
HETATM    3  C3  UNL     1     -35.194  14.949  -3.295  1.00 20.00     0.009 C 
HETATM    4  C4  UNL     1     -34.731  13.416  -5.066  1.00 20.00     0.010 C 
HETATM    5  C5  UNL     1     -34.305  13.750  -3.625  1.00 20.00    -0.014 C 
HETATM    6  C6  UNL     1     -34.702  15.760  -4.498  1.00 20.00    -0.009 C 
HETATM    7  C7  UNL     1     -35.060  14.801  -5.658  1.00 20.00    -0.001 C 
ENDROOT
BRANCH   7   8
HETATM    8  C8  UNL     1     -34.366  15.077  -6.982  1.00 20.00     0.075 C 
BRANCH   8   9
HETATM    9  S9  UNL     1     -34.869  16.691  -7.638  1.00 20.00    -0.182 SA
HETATM   10  H23 UNL     1     -36.176  16.409  -7.727  1.00 20.00     0.101 HD
ENDBRANCH   8   9
ENDBRANCH   7   8
TORSDOF 2
ENDMDL
MODEL 9
REMARK VINA RESULT:      -3.8     12.201     13.365
REMARK  2 active torsions:
REMARK  status: ('A' for Active; 'I' for Inactive)
REMARK    1  A    between atoms: C7_7  and  C8_8 
REMARK    2  A    between atoms: C8_8  and  S9_9 
ROOT
HETATM    1  C1  UNL     1     -41.185   6.953  -1.332  1.00 20.00     0.005 C 
HETATM    2  C2  UNL     1     -42.662   6.674  -1.645  1.00 20.00     0.005 C 
HETATM    3  C3  UNL     1     -42.129   5.652   0.424  1.00 20.00     0.009 C 
HETATM    4  C4  UNL     1     -40.727   4.502  -1.130  1.00 20.00     0.010 C 
HETATM    5  C5  UNL     1     -40.822   5.827  -0.350  1.00 20.00    -0.014 C 
HETATM    6  C6  UNL     1     -42.951   5.394  -0.842  1.00 20.00    -0.009 C 
HETATM    7  C7  UNL     1     -42.204   4.171  -1.426  1.00 20.00    -0.001 C 
ENDROOT
BRANCH   7   8
HETATM    8  C8  UNL     1     -42.478   3.867  -2.891  1.00 20.00     0.075 C 
BRANCH   8   9
HETATM    9  S9  UNL     1     -41.769   2.263  -3.348  1.00 20.00    -0.182 SA
HETATM   10  H23 UNL     1     -40.538   2.510  -2.880  1.00 20.00     0.101 HD
ENDBRANCH   8   9
ENDBRANCH   7   8
TORSDOF 2
ENDMDL
