MODEL 1
REMARK VINA RESULT:      -4.6      0.000      0.000
REMARK  3 active torsions:
REMARK  status: ('A' for Active; 'I' for Inactive)
REMARK    1  A    between atoms: C7_7  and  C9_9 
REMARK    2  A    between atoms: C9_9  and  N10_10 
REMARK    3  A    between atoms: N10_10  and  O11_11 
ROOT
HETATM    1  C1  UNL     1     -35.143   4.377   4.652  1.00 20.00     0.005 C 
HETATM    2  C2  UNL     1     -34.286   4.991   5.768  1.00 20.00     0.005 C 
HETATM    3  C3  UNL     1     -35.058   6.738   4.361  1.00 20.00     0.010 C 
HETATM    4  C4  UNL     1     -33.689   5.443   2.908  1.00 20.00     0.011 C 
HETATM    5  C5  UNL     1     -35.090   5.446   3.547  1.00 20.00    -0.014 C 
HETATM    6  C6  UNL     1     -33.815   6.320   5.150  1.00 20.00    -0.009 C 
HETATM    7  C7  UNL     1     -32.791   6.000   4.034  1.00 20.00     0.005 C 
ENDROOT
BRANCH   7   8
HETATM    8  C9  UNL     1     -31.999   7.224   3.589  1.00 20.00     0.122 C 
BRANCH   8   9
HETATM    9  N10 UNL     1     -32.238   7.480   2.207  1.00 20.00    -0.206 NA
HETATM   10  H28 UNL     1     -33.208   7.248   1.948  1.00 20.00     0.153 HD
BRANCH   9  11
HETATM   11  O11 UNL     1     -32.286   8.937   2.076  1.00 20.00    -0.311 OA
HETATM   12  C8  UNL     1     -32.350   9.259   0.693  1.00 20.00     0.229 C 
ENDBRANCH   9  11
ENDBRANCH   8   9
ENDBRANCH   7   8
TORSDOF 3
ENDMDL
MODEL 2
REMARK VINA RESULT:      -4.6     10.972     12.011
REMARK  3 active torsions:
REMARK  status: ('A' for Active; 'I' for Inactive)
REMARK    1  A    between atoms: C7_7  and  C9_9 
REMARK    2  A    between atoms: C9_9  and  N10_10 
REMARK    3  A    between atoms: N10_10  and  O11_11 
ROOT
HETATM    1  C1  UNL     1     -33.072  13.907  -3.716  1.00 20.00     0.005 C 
HETATM    2  C2  UNL     1     -34.231  13.325  -4.537  1.00 20.00     0.005 C 
HETATM    3  C3  UNL     1     -34.126  15.662  -4.932  1.00 20.00     0.010 C 
HETATM    4  C4  UNL     1     -34.631  15.532  -2.611  1.00 20.00     0.011 C 
HETATM    5  C5  UNL     1     -33.451  15.393  -3.588  1.00 20.00    -0.014 C 
HETATM    6  C6  UNL     1     -35.152  14.542  -4.747  1.00 20.00    -0.009 C 
HETATM    7  C7  UNL     1     -35.805  14.895  -3.388  1.00 20.00     0.005 C 
ENDROOT
BRANCH   7   8
HETATM    8  C9  UNL     1     -36.988  15.846  -3.530  1.00 20.00     0.122 C 
BRANCH   8   9
HETATM    9  N10 UNL     1     -38.155  15.255  -2.964  1.00 20.00    -0.206 NA
HETATM   10  H28 UNL     1     -38.978  15.861  -3.090  1.00 20.00     0.153 HD
BRANCH   9  11
HETATM   11  O11 UNL     1     -38.516  14.155  -3.860  1.00 20.00    -0.311 OA
HETATM   12  C8  UNL     1     -39.636  14.559  -4.635  1.00 20.00     0.229 C 
ENDBRANCH   9  11
ENDBRANCH   8   9
ENDBRANCH   7   8
TORSDOF 3
ENDMDL
MODEL 3
REMARK VINA RESULT:      -4.5     10.974     11.770
REMARK  3 active torsions:
REMARK  status: ('A' for Active; 'I' for Inactive)
REMARK    1  A    between atoms: C7_7  and  C9_9 
REMARK    2  A    between atoms: C9_9  and  N10_10 
REMARK    3  A    between atoms: N10_10  and  O11_11 
ROOT
HETATM    1  C1  UNL     1     -35.692  17.766  -1.096  1.00 20.00     0.005 C 
HETATM    2  C2  UNL     1     -34.433  17.010  -0.648  1.00 20.00     0.005 C 
HETATM    3  C3  UNL     1     -34.110  17.758  -2.876  1.00 20.00     0.010 C 
HETATM    4  C4  UNL     1     -35.936  16.247  -3.076  1.00 20.00     0.011 C 
HETATM    5  C5  UNL     1     -35.616  17.684  -2.631  1.00 20.00    -0.014 C 
HETATM    6  C6  UNL     1     -33.811  16.553  -1.981  1.00 20.00    -0.009 C 
HETATM    7  C7  UNL     1     -34.711  15.447  -2.582  1.00 20.00     0.005 C 
ENDROOT
BRANCH   7   8
HETATM    8  C9  UNL     1     -34.030  14.678  -3.709  1.00 20.00     0.122 C 
BRANCH   8   9
HETATM    9  N10 UNL     1     -34.110  13.277  -3.456  1.00 20.00    -0.206 NA
HETATM   10  H28 UNL     1     -34.712  13.079  -2.644  1.00 20.00     0.153 HD
BRANCH   9  11
HETATM   11  O11 UNL     1     -34.947  12.729  -4.525  1.00 20.00    -0.311 OA
HETATM   12  C8  UNL     1     -34.913  13.627  -5.625  1.00 20.00     0.229 C 
ENDBRANCH   9  11
ENDBRANCH   8   9
ENDBRANCH   7   8
TORSDOF 3
ENDMDL
MODEL 4
REMARK VINA RESULT:      -4.4     11.007     11.988
REMARK  3 active torsions:
REMARK  status: ('A' for Active; 'I' for Inactive)
REMARK    1  A    between atoms: C7_7  and  C9_9 
REMARK    2  A    between atoms: C9_9  and  N10_10 
REMARK    3  A    between atoms: N10_10  and  O11_11 
ROOT
HETATM    1  C1  UNL     1     -34.095  17.737  -1.826  1.00 20.00     0.005 C 
HETATM    2  C2  UNL     1     -34.674  16.457  -1.207  1.00 20.00     0.005 C 
HETATM    3  C3  UNL     1     -33.394  15.862  -3.114  1.00 20.00     0.010 C 
HETATM    4  C4  UNL     1     -35.147  17.182  -4.034  1.00 20.00     0.011 C 
HETATM    5  C5  UNL     1     -33.812  17.322  -3.280  1.00 20.00    -0.014 C 
HETATM    6  C6  UNL     1     -34.688  15.475  -2.394  1.00 20.00    -0.009 C 
HETATM    7  C7  UNL     1     -35.783  15.932  -3.387  1.00 20.00     0.005 C 
ENDROOT
BRANCH   7   8
HETATM    8  C9  UNL     1     -36.131  14.862  -4.417  1.00 20.00     0.122 C 
BRANCH   8   9
HETATM    9  N10 UNL     1     -36.236  13.592  -3.780  1.00 20.00    -0.206 NA
HETATM   10  H28 UNL     1     -37.081  13.089  -4.086  1.00 20.00     0.153 HD
BRANCH   9  11
HETATM   11  O11 UNL     1     -35.209  12.752  -4.398  1.00 20.00    -0.311 OA
HETATM   12  C8  UNL     1     -34.722  13.419  -5.554  1.00 20.00     0.229 C 
ENDBRANCH   9  11
ENDBRANCH   8   9
ENDBRANCH   7   8
TORSDOF 3
ENDMDL
MODEL 5
REMARK VINA RESULT:      -4.3     10.827     11.788
REMARK  3 active torsions:
REMARK  status: ('A' for Active; 'I' for Inactive)
REMARK    1  A    between atoms: C7_7  and  C9_9 
REMARK    2  A    between atoms: C9_9  and  N10_10 
REMARK    3  A    between atoms: N10_10  and  O11_11 
ROOT
HETATM    1  C1  UNL     1     -35.227  14.145  -5.714  1.00 20.00     0.005 C 
HETATM    2  C2  UNL     1     -34.111  15.194  -5.821  1.00 20.00     0.005 C 
HETATM    3  C3  UNL     1     -33.662  13.803  -3.952  1.00 20.00     0.010 C 
HETATM    4  C4  UNL     1     -35.711  14.856  -3.358  1.00 20.00     0.011 C 
HETATM    5  C5  UNL     1     -35.160  13.719  -4.237  1.00 20.00    -0.014 C 
HETATM    6  C6  UNL     1     -33.568  15.269  -4.382  1.00 20.00    -0.009 C 
HETATM    7  C7  UNL     1     -34.635  15.956  -3.496  1.00 20.00     0.005 C 
ENDROOT
BRANCH   7   8
HETATM    8  C9  UNL     1     -34.086  16.400  -2.145  1.00 20.00     0.122 C 
BRANCH   8   9
HETATM    9  N10 UNL     1     -35.127  16.385  -1.171  1.00 20.00    -0.206 NA
HETATM   10  H28 UNL     1     -35.262  15.440  -0.784  1.00 20.00     0.153 HD
BRANCH   9  11
HETATM   11  O11 UNL     1     -34.579  17.061   0.006  1.00 20.00    -0.311 OA
HETATM   12  C8  UNL     1     -33.588  17.982  -0.427  1.00 20.00     0.229 C 
ENDBRANCH   9  11
ENDBRANCH   8   9
ENDBRANCH   7   8
TORSDOF 3
ENDMDL
MODEL 6
REMARK VINA RESULT:      -4.3     11.360     12.494
REMARK  3 active torsions:
REMARK  status: ('A' for Active; 'I' for Inactive)
REMARK    1  A    between atoms: C7_7  and  C9_9 
REMARK    2  A    between atoms: C9_9  and  N10_10 
REMARK    3  A    between atoms: N10_10  and  O11_11 
ROOT
HETATM    1  C1  UNL     1     -33.682  18.032  -1.788  1.00 20.00     0.005 C 
HETATM    2  C2  UNL     1     -34.304  16.916  -0.936  1.00 20.00     0.005 C 
HETATM    3  C3  UNL     1     -33.556  15.976  -2.982  1.00 20.00     0.010 C 
HETATM    4  C4  UNL     1     -35.244  17.502  -3.677  1.00 20.00     0.011 C 
HETATM    5  C5  UNL     1     -33.776  17.469  -3.217  1.00 20.00    -0.014 C 
HETATM    6  C6  UNL     1     -34.714  15.867  -1.987  1.00 20.00    -0.009 C 
HETATM    7  C7  UNL     1     -35.912  16.428  -2.790  1.00 20.00     0.005 C 
ENDROOT
BRANCH   7   8
HETATM    8  C9  UNL     1     -36.625  15.361  -3.613  1.00 20.00     0.122 C 
BRANCH   8   9
HETATM    9  N10 UNL     1     -37.894  15.071  -3.033  1.00 20.00    -0.206 NA
HETATM   10  H28 UNL     1     -38.552  15.853  -3.166  1.00 20.00     0.153 HD
BRANCH   9  11
HETATM   11  O11 UNL     1     -38.512  14.074  -3.910  1.00 20.00    -0.311 OA
HETATM   12  C8  UNL     1     -39.679  14.646  -4.484  1.00 20.00     0.229 C 
ENDBRANCH   9  11
ENDBRANCH   8   9
ENDBRANCH   7   8
TORSDOF 3
ENDMDL
MODEL 7
REMARK VINA RESULT:      -4.2      9.490     10.768
REMARK  3 active torsions:
REMARK  status: ('A' for Active; 'I' for Inactive)
REMARK    1  A    between atoms: C7_7  and  C9_9 
REMARK    2  A    between atoms: C9_9  and  N10_10 
REMARK    3  A    between atoms: N10_10  and  O11_11 
ROOT
HETATM    1  C1  UNL     1     -40.813   7.054  -0.499  1.00 20.00     0.005 C 
HETATM    2  C2  UNL     1     -41.911   7.367  -1.525  1.00 20.00     0.005 C 
HETATM    3  C3  UNL     1     -42.685   5.640  -0.094  1.00 20.00     0.010 C 
HETATM    4  C4  UNL     1     -40.820   4.641  -1.181  1.00 20.00     0.011 C 
HETATM    5  C5  UNL     1     -41.159   5.624  -0.047  1.00 20.00    -0.014 C 
HETATM    6  C6  UNL     1     -42.729   6.062  -1.564  1.00 20.00    -0.009 C 
HETATM    7  C7  UNL     1     -41.874   4.975  -2.259  1.00 20.00     0.005 C 
ENDROOT
BRANCH   7   8
HETATM    8  C9  UNL     1     -42.690   3.753  -2.669  1.00 20.00     0.122 C 
BRANCH   8   9
HETATM    9  N10 UNL     1     -41.962   2.565  -2.373  1.00 20.00    -0.206 NA
HETATM   10  H28 UNL     1     -42.597   1.774  -2.192  1.00 20.00     0.153 HD
BRANCH   9  11
HETATM   11  O11 UNL     1     -41.378   2.129  -3.642  1.00 20.00    -0.311 OA
HETATM   12  C8  UNL     1     -41.736   0.771  -3.857  1.00 20.00     0.229 C 
ENDBRANCH   9  11
ENDBRANCH   8   9
ENDBRANCH   7   8
TORSDOF 3
ENDMDL
MODEL 8
REMARK VINA RESULT:      -4.2     10.916     12.147
REMARK  3 active torsions:
REMARK  status: ('A' for Active; 'I' for Inactive)
REMARK    1  A    between atoms: C7_7  and  C9_9 
REMARK    2  A    between atoms: C9_9  and  N10_10 
REMARK    3  A    between atoms: N10_10  and  O11_11 
ROOT
HETATM    1  C1  UNL     1     -34.035  18.046   0.308  1.00 20.00     0.005 C 
HETATM    2  C2  UNL     1     -32.999  18.582  -0.690  1.00 20.00     0.005 C 
HETATM    3  C3  UNL     1     -35.123  18.565  -1.745  1.00 20.00     0.010 C 
HETATM    4  C4  UNL     1     -34.719  16.260  -1.315  1.00 20.00     0.011 C 
HETATM    5  C5  UNL     1     -35.170  17.549  -0.605  1.00 20.00    -0.014 C 
HETATM    6  C6  UNL     1     -33.650  18.290  -2.055  1.00 20.00    -0.009 C 
HETATM    7  C7  UNL     1     -33.627  16.761  -2.286  1.00 20.00     0.005 C 
ENDROOT
BRANCH   7   8
HETATM    8  C9  UNL     1     -33.920  16.376  -3.733  1.00 20.00     0.122 C 
BRANCH   8   9
HETATM    9  N10 UNL     1     -32.818  15.652  -4.273  1.00 20.00    -0.206 NA
HETATM   10  H28 UNL     1     -31.927  15.966  -3.861  1.00 20.00     0.153 HD
BRANCH   9  11
HETATM   11  O11 UNL     1     -32.901  14.311  -3.694  1.00 20.00    -0.311 OA
HETATM   12  C8  UNL     1     -33.997  13.633  -4.293  1.00 20.00     0.229 C 
ENDBRANCH   9  11
ENDBRANCH   8   9
ENDBRANCH   7   8
TORSDOF 3
ENDMDL
MODEL 9
REMARK VINA RESULT:      -4.1     11.481     12.450
REMARK  3 active torsions:
REMARK  status: ('A' for Active; 'I' for Inactive)
REMARK    1  A    between atoms: C7_7  and  C9_9 
REMARK    2  A    between atoms: C9_9  and  N10_10 
REMARK    3  A    between atoms: N10_10  and  O11_11 
ROOT
HETATM    1  C1  UNL     1     -34.587  16.484  -1.024  1.00 20.00     0.005 C 
HETATM    2  C2  UNL     1     -33.723  17.623  -1.584  1.00 20.00     0.005 C 
HETATM    3  C3  UNL     1     -35.505  17.215  -3.095  1.00 20.00     0.010 C 
HETATM    4  C4  UNL     1     -34.285  15.174  -3.141  1.00 20.00     0.011 C 
HETATM    5  C5  UNL     1     -35.299  15.943  -2.276  1.00 20.00    -0.014 C 
HETATM    6  C6  UNL     1     -34.016  17.569  -3.095  1.00 20.00    -0.009 C 
HETATM    7  C7  UNL     1     -33.360  16.291  -3.671  1.00 20.00     0.005 C 
ENDROOT
BRANCH   7   8
HETATM    8  C9  UNL     1     -33.280  16.302  -5.193  1.00 20.00     0.122 C 
BRANCH   8   9
HETATM    9  N10 UNL     1     -33.813  15.087  -5.714  1.00 20.00    -0.206 NA
HETATM   10  H28 UNL     1     -34.498  14.672  -5.066  1.00 20.00     0.153 HD
BRANCH   9  11
HETATM   11  O11 UNL     1     -34.708  15.482  -6.803  1.00 20.00    -0.311 OA
HETATM   12  C8  UNL     1     -36.033  15.111  -6.449  1.00 20.00     0.229 C 
ENDBRANCH   9  11
ENDBRANCH   8   9
ENDBRANCH   7   8
TORSDOF 3
ENDMDL
