MODEL 1
REMARK VINA RESULT:      -4.6      0.000      0.000
REMARK  2 active torsions:
REMARK  status: ('A' for Active; 'I' for Inactive)
REMARK    1  A    between atoms: C4_4  and  C7_7 
REMARK    2  A    between atoms: C7_7  and  O8_8 
ROOT
HETATM    1  C1  UNL     1     -34.420   5.432   3.011  1.00 20.00     0.008 C 
HETATM    2  C2  UNL     1     -35.383   4.983   4.099  1.00 20.00     0.020 C 
HETATM    3  C3  UNL     1     -33.618   6.192   5.199  1.00 20.00     0.027 C 
HETATM    4  C4  UNL     1     -33.557   6.503   3.692  1.00 20.00     0.011 C 
HETATM    5  C5  UNL     1     -34.478   4.935   5.320  1.00 20.00     0.082 C 
HETATM    6 CL9  UNL     1     -35.393   4.880   6.834  1.00 20.00    -0.125 Cl
ENDROOT
BRANCH   4   7
HETATM    7  C7  UNL     1     -32.138   6.536   3.147  1.00 20.00     0.171 C 
BRANCH   7   8
HETATM    8  O8  UNL     1     -31.727   7.888   3.032  1.00 20.00    -0.396 OA
HETATM    9  C6  UNL     1     -32.081   8.440   1.769  1.00 20.00     0.201 C 
ENDBRANCH   7   8
ENDBRANCH   4   7
TORSDOF 2
ENDMDL
MODEL 2
REMARK VINA RESULT:      -4.0     11.590     12.518
REMARK  2 active torsions:
REMARK  status: ('A' for Active; 'I' for Inactive)
REMARK    1  A    between atoms: C4_4  and  C7_7 
REMARK    2  A    between atoms: C7_7  and  O8_8 
ROOT
HETATM    1  C1  UNL     1     -34.247  13.830  -3.603  1.00 20.00     0.008 C 
HETATM    2  C2  UNL     1     -34.727  13.273  -4.935  1.00 20.00     0.020 C 
HETATM    3  C3  UNL     1     -34.086  15.556  -5.338  1.00 20.00     0.027 C 
HETATM    4  C4  UNL     1     -33.499  15.115  -3.984  1.00 20.00     0.011 C 
HETATM    5  C5  UNL     1     -35.172  14.532  -5.661  1.00 20.00     0.082 C 
HETATM    6 CL9  UNL     1     -35.365  14.272  -7.401  1.00 20.00    -0.125 Cl
ENDROOT
BRANCH   4   7
HETATM    7  C7  UNL     1     -33.606  16.188  -2.910  1.00 20.00     0.171 C 
BRANCH   7   8
HETATM    8  O8  UNL     1     -34.633  15.822  -2.004  1.00 20.00    -0.396 OA
HETATM    9  C6  UNL     1     -34.618  16.634  -0.836  1.00 20.00     0.201 C 
ENDBRANCH   7   8
ENDBRANCH   4   7
TORSDOF 2
ENDMDL
MODEL 3
REMARK VINA RESULT:      -3.7      0.984      1.659
REMARK  2 active torsions:
REMARK  status: ('A' for Active; 'I' for Inactive)
REMARK    1  A    between atoms: C4_4  and  C7_7 
REMARK    2  A    between atoms: C7_7  and  O8_8 
ROOT
HETATM    1  C1  UNL     1     -33.248   7.186   5.264  1.00 20.00     0.008 C 
HETATM    2  C2  UNL     1     -33.887   6.185   6.214  1.00 20.00     0.020 C 
HETATM    3  C3  UNL     1     -33.998   5.214   4.015  1.00 20.00     0.027 C 
HETATM    4  C4  UNL     1     -32.990   6.378   3.985  1.00 20.00     0.011 C 
HETATM    5  C5  UNL     1     -34.820   5.422   5.286  1.00 20.00     0.082 C 
HETATM    6 CL9  UNL     1     -35.374   3.898   5.995  1.00 20.00    -0.125 Cl
ENDROOT
BRANCH   4   7
HETATM    7  C7  UNL     1     -33.100   7.229   2.729  1.00 20.00     0.171 C 
BRANCH   7   8
HETATM    8  O8  UNL     1     -31.865   7.893   2.521  1.00 20.00    -0.396 OA
HETATM    9  C6  UNL     1     -31.881   8.674   1.332  1.00 20.00     0.201 C 
ENDBRANCH   7   8
ENDBRANCH   4   7
TORSDOF 2
ENDMDL
MODEL 4
REMARK VINA RESULT:      -3.6     11.916     12.500
REMARK  2 active torsions:
REMARK  status: ('A' for Active; 'I' for Inactive)
REMARK    1  A    between atoms: C4_4  and  C7_7 
REMARK    2  A    between atoms: C7_7  and  O8_8 
ROOT
HETATM    1  C1  UNL     1     -34.162  14.774  -4.341  1.00 20.00     0.008 C 
HETATM    2  C2  UNL     1     -33.227  15.509  -3.393  1.00 20.00     0.020 C 
HETATM    3  C3  UNL     1     -35.453  15.817  -2.536  1.00 20.00     0.027 C 
HETATM    4  C4  UNL     1     -35.478  14.666  -3.558  1.00 20.00     0.011 C 
HETATM    5  C5  UNL     1     -34.147  16.564  -2.797  1.00 20.00     0.082 C 
HETATM    6 CL9  UNL     1     -33.474  17.291  -1.331  1.00 20.00    -0.125 Cl
ENDROOT
BRANCH   4   7
HETATM    7  C7  UNL     1     -36.697  14.702  -4.467  1.00 20.00     0.171 C 
BRANCH   7   8
HETATM    8  O8  UNL     1     -37.795  14.130  -3.778  1.00 20.00    -0.396 OA
HETATM    9  C6  UNL     1     -38.951  14.957  -3.849  1.00 20.00     0.201 C 
ENDBRANCH   7   8
ENDBRANCH   4   7
TORSDOF 2
ENDMDL
MODEL 5
REMARK VINA RESULT:      -3.6      1.288      2.019
REMARK  2 active torsions:
REMARK  status: ('A' for Active; 'I' for Inactive)
REMARK    1  A    between atoms: C4_4  and  C7_7 
REMARK    2  A    between atoms: C7_7  and  O8_8 
ROOT
HETATM    1  C1  UNL     1     -32.549   7.283   4.618  1.00 20.00     0.008 C 
HETATM    2  C2  UNL     1     -33.587   6.402   5.296  1.00 20.00     0.020 C 
HETATM    3  C3  UNL     1     -33.478   5.692   3.000  1.00 20.00     0.027 C 
HETATM    4  C4  UNL     1     -32.237   6.552   3.305  1.00 20.00     0.011 C 
HETATM    5  C5  UNL     1     -34.467   5.994   4.124  1.00 20.00     0.082 C 
HETATM    6 CL9  UNL     1     -35.500   4.610   4.511  1.00 20.00    -0.125 Cl
ENDROOT
BRANCH   4   7
HETATM    7  C7  UNL     1     -31.883   7.510   2.178  1.00 20.00     0.171 C 
BRANCH   7   8
HETATM    8  O8  UNL     1     -32.541   8.744   2.408  1.00 20.00    -0.396 OA
HETATM    9  C6  UNL     1     -32.391   9.634   1.307  1.00 20.00     0.201 C 
ENDBRANCH   7   8
ENDBRANCH   4   7
TORSDOF 2
ENDMDL
MODEL 6
REMARK VINA RESULT:      -3.6     11.694     12.450
REMARK  2 active torsions:
REMARK  status: ('A' for Active; 'I' for Inactive)
REMARK    1  A    between atoms: C4_4  and  C7_7 
REMARK    2  A    between atoms: C7_7  and  O8_8 
ROOT
HETATM    1  C1  UNL     1     -33.343  14.957  -3.587  1.00 20.00     0.008 C 
HETATM    2  C2  UNL     1     -33.728  16.110  -2.672  1.00 20.00     0.020 C 
HETATM    3  C3  UNL     1     -35.783  15.069  -3.367  1.00 20.00     0.027 C 
HETATM    4  C4  UNL     1     -34.619  14.109  -3.678  1.00 20.00     0.011 C 
HETATM    5  C5  UNL     1     -35.135  16.435  -3.150  1.00 20.00     0.082 C 
HETATM    6 CL9  UNL     1     -36.024  17.434  -1.992  1.00 20.00    -0.125 Cl
ENDROOT
BRANCH   4   7
HETATM    7  C7  UNL     1     -34.761  13.417  -5.025  1.00 20.00     0.171 C 
BRANCH   7   8
HETATM    8  O8  UNL     1     -34.422  14.339  -6.047  1.00 20.00    -0.396 OA
HETATM    9  C6  UNL     1     -35.398  14.360  -7.082  1.00 20.00     0.201 C 
ENDBRANCH   7   8
ENDBRANCH   4   7
TORSDOF 2
ENDMDL
MODEL 7
REMARK VINA RESULT:      -3.6     11.655     13.089
REMARK  2 active torsions:
REMARK  status: ('A' for Active; 'I' for Inactive)
REMARK    1  A    between atoms: C4_4  and  C7_7 
REMARK    2  A    between atoms: C7_7  and  O8_8 
ROOT
HETATM    1  C1  UNL     1     -34.360  13.582  -4.934  1.00 20.00     0.008 C 
HETATM    2  C2  UNL     1     -34.167  14.029  -3.493  1.00 20.00     0.020 C 
HETATM    3  C3  UNL     1     -34.389  16.031  -4.808  1.00 20.00     0.027 C 
HETATM    4  C4  UNL     1     -34.881  14.837  -5.649  1.00 20.00     0.011 C 
HETATM    5  C5  UNL     1     -33.575  15.418  -3.671  1.00 20.00     0.082 C 
HETATM    6 CL9  UNL     1     -33.653  16.377  -2.185  1.00 20.00    -0.125 Cl
ENDROOT
BRANCH   4   7
HETATM    7  C7  UNL     1     -34.432  14.906  -7.100  1.00 20.00     0.171 C 
BRANCH   7   8
HETATM    8  O8  UNL     1     -35.429  14.310  -7.913  1.00 20.00    -0.396 OA
HETATM    9  C6  UNL     1     -36.710  14.885  -7.681  1.00 20.00     0.201 C 
ENDBRANCH   7   8
ENDBRANCH   4   7
TORSDOF 2
ENDMDL
MODEL 8
REMARK VINA RESULT:      -3.6      9.700     10.832
REMARK  2 active torsions:
REMARK  status: ('A' for Active; 'I' for Inactive)
REMARK    1  A    between atoms: C4_4  and  C7_7 
REMARK    2  A    between atoms: C7_7  and  O8_8 
ROOT
HETATM    1  C1  UNL     1     -40.774   4.234  -1.346  1.00 20.00     0.008 C 
HETATM    2  C2  UNL     1     -40.684   5.611  -0.705  1.00 20.00     0.020 C 
HETATM    3  C3  UNL     1     -42.719   5.582  -1.988  1.00 20.00     0.027 C 
HETATM    4  C4  UNL     1     -42.234   4.132  -1.810  1.00 20.00     0.011 C 
HETATM    5  C5  UNL     1     -41.511   6.458  -1.661  1.00 20.00     0.082 C 
HETATM    6 CL9  UNL     1     -41.969   8.013  -0.954  1.00 20.00    -0.125 Cl
ENDROOT
BRANCH   4   7
HETATM    7  C7  UNL     1     -42.384   3.294  -3.070  1.00 20.00     0.171 C 
BRANCH   7   8
HETATM    8  O8  UNL     1     -41.200   2.538  -3.257  1.00 20.00    -0.396 OA
HETATM    9  C6  UNL     1     -41.465   1.290  -3.888  1.00 20.00     0.201 C 
ENDBRANCH   7   8
ENDBRANCH   4   7
TORSDOF 2
ENDMDL
MODEL 9
REMARK VINA RESULT:      -3.5     11.752     12.482
REMARK  2 active torsions:
REMARK  status: ('A' for Active; 'I' for Inactive)
REMARK    1  A    between atoms: C4_4  and  C7_7 
REMARK    2  A    between atoms: C7_7  and  O8_8 
ROOT
HETATM    1  C1  UNL     1     -33.238  18.471  -1.193  1.00 20.00     0.008 C 
HETATM    2  C2  UNL     1     -33.534  18.508   0.299  1.00 20.00     0.020 C 
HETATM    3  C3  UNL     1     -34.807  16.680  -0.610  1.00 20.00     0.027 C 
HETATM    4  C4  UNL     1     -33.739  17.092  -1.641  1.00 20.00     0.011 C 
HETATM    5  C5  UNL     1     -34.906  17.853   0.363  1.00 20.00     0.082 C 
HETATM    6 CL9  UNL     1     -35.330  17.343   2.003  1.00 20.00    -0.125 Cl
ENDROOT
BRANCH   4   7
HETATM    7  C7  UNL     1     -34.262  17.101  -3.069  1.00 20.00     0.171 C 
BRANCH   7   8
HETATM    8  O8  UNL     1     -33.269  16.553  -3.920  1.00 20.00    -0.396 OA
HETATM    9  C6  UNL     1     -33.058  15.170  -3.661  1.00 20.00     0.201 C 
ENDBRANCH   7   8
ENDBRANCH   4   7
TORSDOF 2
ENDMDL
