MODEL 1
REMARK VINA RESULT:      -4.0      0.000      0.000
REMARK  2 active torsions:
REMARK  status: ('A' for Active; 'I' for Inactive)
REMARK    1  A    between atoms: C7_7  and  C8_8 
REMARK    2  A    between atoms: C8_8  and  S9_9 
ROOT
HETATM    1  C1  UNL     1     -34.632  13.310  -4.479  1.00 20.00     0.005 C 
HETATM    2  C2  UNL     1     -33.328  13.640  -3.737  1.00 20.00     0.005 C 
HETATM    3  C3  UNL     1     -34.000  15.551  -4.973  1.00 20.00     0.009 C 
HETATM    4  C4  UNL     1     -35.773  15.271  -3.410  1.00 20.00     0.010 C 
HETATM    5  C5  UNL     1     -35.245  14.697  -4.738  1.00 20.00    -0.014 C 
HETATM    6  C6  UNL     1     -33.374  15.176  -3.627  1.00 20.00    -0.009 C 
HETATM    7  C7  UNL     1     -34.480  15.558  -2.615  1.00 20.00    -0.001 C 
ENDROOT
BRANCH   7   8
HETATM    8  C8  UNL     1     -34.391  17.010  -2.159  1.00 20.00     0.075 C 
BRANCH   8   9
HETATM    9  S9  UNL     1     -34.677  17.129  -0.376  1.00 20.00    -0.182 SA
HETATM   10  H23 UNL     1     -33.415  17.438  -0.046  1.00 20.00     0.101 HD
ENDBRANCH   8   9
ENDBRANCH   7   8
TORSDOF 2
ENDMDL
MODEL 2
REMARK VINA RESULT:      -3.8     11.036     12.183
REMARK  2 active torsions:
REMARK  status: ('A' for Active; 'I' for Inactive)
REMARK    1  A    between atoms: C7_7  and  C8_8 
REMARK    2  A    between atoms: C8_8  and  S9_9 
ROOT
HETATM    1  C1  UNL     1     -40.663   4.672  -0.775  1.00 20.00     0.005 C 
HETATM    2  C2  UNL     1     -41.539   4.362  -1.999  1.00 20.00     0.005 C 
HETATM    3  C3  UNL     1     -42.815   5.636  -0.457  1.00 20.00     0.009 C 
HETATM    4  C4  UNL     1     -41.067   7.130  -1.071  1.00 20.00     0.010 C 
HETATM    5  C5  UNL     1     -41.341   5.913  -0.169  1.00 20.00    -0.014 C 
HETATM    6  C6  UNL     1     -42.590   5.488  -1.964  1.00 20.00    -0.009 C 
HETATM    7  C7  UNL     1     -41.890   6.816  -2.340  1.00 20.00    -0.001 C 
ENDROOT
BRANCH   7   8
HETATM    8  C8  UNL     1     -42.876   7.929  -2.680  1.00 20.00     0.075 C 
BRANCH   8   9
HETATM    9  S9  UNL     1     -42.670   8.448  -4.402  1.00 20.00    -0.182 SA
HETATM   10  H23 UNL     1     -41.390   8.827  -4.288  1.00 20.00     0.101 HD
ENDBRANCH   8   9
ENDBRANCH   7   8
TORSDOF 2
ENDMDL
MODEL 3
REMARK VINA RESULT:      -3.8      2.129      2.757
REMARK  2 active torsions:
REMARK  status: ('A' for Active; 'I' for Inactive)
REMARK    1  A    between atoms: C7_7  and  C8_8 
REMARK    2  A    between atoms: C8_8  and  S9_9 
ROOT
HETATM    1  C1  UNL     1     -34.427  13.148  -4.821  1.00 20.00     0.005 C 
HETATM    2  C2  UNL     1     -35.034  14.154  -5.811  1.00 20.00     0.005 C 
HETATM    3  C3  UNL     1     -35.500  14.888  -3.604  1.00 20.00     0.009 C 
HETATM    4  C4  UNL     1     -33.125  14.980  -3.710  1.00 20.00     0.010 C 
HETATM    5  C5  UNL     1     -34.278  13.975  -3.533  1.00 20.00    -0.014 C 
HETATM    6  C6  UNL     1     -35.121  15.447  -4.977  1.00 20.00    -0.009 C 
HETATM    7  C7  UNL     1     -33.684  15.975  -4.750  1.00 20.00    -0.001 C 
ENDROOT
BRANCH   7   8
HETATM    8  C8  UNL     1     -33.656  17.415  -4.247  1.00 20.00     0.075 C 
BRANCH   8   9
HETATM    9  S9  UNL     1     -33.722  18.569  -5.641  1.00 20.00    -0.182 SA
HETATM   10  H23 UNL     1     -35.039  18.806  -5.573  1.00 20.00     0.101 HD
ENDBRANCH   8   9
ENDBRANCH   7   8
TORSDOF 2
ENDMDL
MODEL 4
REMARK VINA RESULT:      -3.8     12.169     13.118
REMARK  2 active torsions:
REMARK  status: ('A' for Active; 'I' for Inactive)
REMARK    1  A    between atoms: C7_7  and  C8_8 
REMARK    2  A    between atoms: C8_8  and  S9_9 
ROOT
HETATM    1  C1  UNL     1     -35.410   5.052   6.677  1.00 20.00     0.005 C 
HETATM    2  C2  UNL     1     -34.324   6.139   6.630  1.00 20.00     0.005 C 
HETATM    3  C3  UNL     1     -33.522   4.216   5.494  1.00 20.00     0.009 C 
HETATM    4  C4  UNL     1     -35.388   4.878   4.176  1.00 20.00     0.010 C 
HETATM    5  C5  UNL     1     -35.047   4.148   5.487  1.00 20.00    -0.014 C 
HETATM    6  C6  UNL     1     -33.496   5.743   5.392  1.00 20.00    -0.009 C 
HETATM    7  C7  UNL     1     -34.348   6.019   4.130  1.00 20.00    -0.001 C 
ENDROOT
BRANCH   7   8
HETATM    8  C8  UNL     1     -33.525   6.001   2.846  1.00 20.00     0.075 C 
BRANCH   8   9
HETATM    9  S9  UNL     1     -32.136   7.154   2.973  1.00 20.00    -0.182 SA
HETATM   10  H23 UNL     1     -32.789   8.094   3.668  1.00 20.00     0.101 HD
ENDBRANCH   8   9
ENDBRANCH   7   8
TORSDOF 2
ENDMDL
MODEL 5
REMARK VINA RESULT:      -3.8      2.731      3.595
REMARK  2 active torsions:
REMARK  status: ('A' for Active; 'I' for Inactive)
REMARK    1  A    between atoms: C7_7  and  C8_8 
REMARK    2  A    between atoms: C8_8  and  S9_9 
ROOT
HETATM    1  C1  UNL     1     -34.773  15.645  -2.450  1.00 20.00     0.005 C 
HETATM    2  C2  UNL     1     -33.698  16.549  -3.073  1.00 20.00     0.005 C 
HETATM    3  C3  UNL     1     -33.389  14.339  -3.879  1.00 20.00     0.009 C 
HETATM    4  C4  UNL     1     -35.533  14.927  -4.729  1.00 20.00     0.010 C 
HETATM    5  C5  UNL     1     -34.844  14.464  -3.432  1.00 20.00    -0.014 C 
HETATM    6  C6  UNL     1     -33.314  15.791  -4.358  1.00 20.00    -0.009 C 
HETATM    7  C7  UNL     1     -34.497  15.889  -5.351  1.00 20.00    -0.001 C 
ENDROOT
BRANCH   7   8
HETATM    8  C8  UNL     1     -34.112  15.487  -6.771  1.00 20.00     0.075 C 
BRANCH   8   9
HETATM    9  S9  UNL     1     -35.458  14.558  -7.547  1.00 20.00    -0.182 SA
HETATM   10  H23 UNL     1     -36.430  15.429  -7.246  1.00 20.00     0.101 HD
ENDBRANCH   8   9
ENDBRANCH   7   8
TORSDOF 2
ENDMDL
MODEL 6
REMARK VINA RESULT:      -3.8      1.054      1.540
REMARK  2 active torsions:
REMARK  status: ('A' for Active; 'I' for Inactive)
REMARK    1  A    between atoms: C7_7  and  C8_8 
REMARK    2  A    between atoms: C8_8  and  S9_9 
ROOT
HETATM    1  C1  UNL     1     -34.490  14.605  -5.508  1.00 20.00     0.005 C 
HETATM    2  C2  UNL     1     -34.823  13.681  -4.326  1.00 20.00     0.005 C 
HETATM    3  C3  UNL     1     -32.884  14.936  -3.783  1.00 20.00     0.009 C 
HETATM    4  C4  UNL     1     -34.563  16.609  -4.001  1.00 20.00     0.010 C 
HETATM    5  C5  UNL     1     -33.646  15.713  -4.855  1.00 20.00    -0.014 C 
HETATM    6  C6  UNL     1     -34.160  14.397  -3.133  1.00 20.00    -0.009 C 
HETATM    7  C7  UNL     1     -34.964  15.684  -2.831  1.00 20.00    -0.001 C 
ENDROOT
BRANCH   7   8
HETATM    8  C8  UNL     1     -34.626  16.288  -1.473  1.00 20.00     0.075 C 
BRANCH   8   9
HETATM    9  S9  UNL     1     -33.901  17.934  -1.680  1.00 20.00    -0.182 SA
HETATM   10  H23 UNL     1     -32.668  17.513  -1.989  1.00 20.00     0.101 HD
ENDBRANCH   8   9
ENDBRANCH   7   8
TORSDOF 2
ENDMDL
MODEL 7
REMARK VINA RESULT:      -3.8      1.906      2.777
REMARK  2 active torsions:
REMARK  status: ('A' for Active; 'I' for Inactive)
REMARK    1  A    between atoms: C7_7  and  C8_8 
REMARK    2  A    between atoms: C8_8  and  S9_9 
ROOT
HETATM    1  C1  UNL     1     -33.441  13.712  -3.788  1.00 20.00     0.005 C 
HETATM    2  C2  UNL     1     -34.958  13.762  -4.030  1.00 20.00     0.005 C 
HETATM    3  C3  UNL     1     -34.351  15.595  -2.653  1.00 20.00     0.009 C 
HETATM    4  C4  UNL     1     -33.191  16.042  -4.682  1.00 20.00     0.010 C 
HETATM    5  C5  UNL     1     -33.101  15.166  -3.419  1.00 20.00    -0.014 C 
HETATM    6  C6  UNL     1     -35.293  15.249  -3.808  1.00 20.00    -0.009 C 
HETATM    7  C7  UNL     1     -34.705  16.061  -4.987  1.00 20.00    -0.001 C 
ENDROOT
BRANCH   7   8
HETATM    8  C8  UNL     1     -35.262  17.478  -5.065  1.00 20.00     0.075 C 
BRANCH   8   9
HETATM    9  S9  UNL     1     -33.915  18.687  -5.020  1.00 20.00    -0.182 SA
HETATM   10  H23 UNL     1     -34.161  19.133  -3.781  1.00 20.00     0.101 HD
ENDBRANCH   8   9
ENDBRANCH   7   8
TORSDOF 2
ENDMDL
MODEL 8
REMARK VINA RESULT:      -3.7      2.785      3.730
REMARK  2 active torsions:
REMARK  status: ('A' for Active; 'I' for Inactive)
REMARK    1  A    between atoms: C7_7  and  C8_8 
REMARK    2  A    between atoms: C8_8  and  S9_9 
ROOT
HETATM    1  C1  UNL     1     -34.211  15.105  -3.025  1.00 20.00     0.005 C 
HETATM    2  C2  UNL     1     -33.392  14.078  -3.823  1.00 20.00     0.005 C 
HETATM    3  C3  UNL     1     -35.697  13.617  -4.140  1.00 20.00     0.009 C 
HETATM    4  C4  UNL     1     -35.445  15.779  -5.102  1.00 20.00     0.010 C 
HETATM    5  C5  UNL     1     -35.576  15.085  -3.734  1.00 20.00    -0.014 C 
HETATM    6  C6  UNL     1     -34.378  13.626  -4.916  1.00 20.00    -0.009 C 
HETATM    7  C7  UNL     1     -34.571  14.795  -5.911  1.00 20.00    -0.001 C 
ENDROOT
BRANCH   7   8
HETATM    8  C8  UNL     1     -35.239  14.362  -7.211  1.00 20.00     0.075 C 
BRANCH   8   9
HETATM    9  S9  UNL     1     -36.811  15.232  -7.431  1.00 20.00    -0.182 SA
HETATM   10  H23 UNL     1     -37.522  14.159  -7.801  1.00 20.00     0.101 HD
ENDBRANCH   8   9
ENDBRANCH   7   8
TORSDOF 2
ENDMDL
MODEL 9
REMARK VINA RESULT:      -3.7     11.993     13.185
REMARK  2 active torsions:
REMARK  status: ('A' for Active; 'I' for Inactive)
REMARK    1  A    between atoms: C7_7  and  C8_8 
REMARK    2  A    between atoms: C8_8  and  S9_9 
ROOT
HETATM    1  C1  UNL     1     -41.137   7.255  -0.865  1.00 20.00     0.005 C 
HETATM    2  C2  UNL     1     -40.620   5.983  -0.176  1.00 20.00     0.005 C 
HETATM    3  C3  UNL     1     -42.989   5.887  -0.263  1.00 20.00     0.009 C 
HETATM    4  C4  UNL     1     -42.366   5.874  -2.560  1.00 20.00     0.010 C 
HETATM    5  C5  UNL     1     -42.529   6.836  -1.368  1.00 20.00    -0.014 C 
HETATM    6  C6  UNL     1     -41.766   4.979  -0.405  1.00 20.00    -0.009 C 
HETATM    7  C7  UNL     1     -41.788   4.601  -1.905  1.00 20.00    -0.001 C 
ENDROOT
BRANCH   7   8
HETATM    8  C8  UNL     1     -42.636   3.366  -2.192  1.00 20.00     0.075 C 
BRANCH   8   9
HETATM    9  S9  UNL     1     -41.773   2.263  -3.339  1.00 20.00    -0.182 SA
HETATM   10  H23 UNL     1     -42.641   1.247  -3.245  1.00 20.00     0.101 HD
ENDBRANCH   8   9
ENDBRANCH   7   8
TORSDOF 2
ENDMDL
