MODEL 1
REMARK VINA RESULT:      -3.9      0.000      0.000
REMARK  4 active torsions:
REMARK  status: ('A' for Active; 'I' for Inactive)
REMARK    1  A    between atoms: C6_6  and  C7_7 
REMARK    2  A    between atoms: C6_6  and  O10_10 
REMARK    3  A    between atoms: C7_7  and  C8_8 
REMARK    4  A    between atoms: C7_7  and  O9_9 
ROOT
HETATM    1  C7  UNL     1     -33.564  15.494  -4.139  1.00 20.00     0.154 C 
ENDROOT
BRANCH   1   2
HETATM    2  C6  UNL     1     -34.105  16.680  -3.312  1.00 20.00     0.146 C 
HETATM    3  C1  UNL     1     -33.751  18.036  -3.921  1.00 20.00     0.042 C 
BRANCH   2   4
HETATM    4  O10 UNL     1     -33.594  16.657  -1.984  1.00 20.00    -0.388 OA
HETATM    5  C5  UNL     1     -34.640  16.558  -1.027  1.00 20.00     0.202 C 
ENDBRANCH   2   4
ENDBRANCH   1   2
BRANCH   1   6
HETATM    6  C8  UNL     1     -34.604  14.703  -5.000  1.00 20.00    -0.023 C 
HETATM    7  C2  UNL     1     -36.026  15.142  -4.577  1.00 20.00     0.017 C 
HETATM    8  C3  UNL     1     -34.434  15.023  -6.496  1.00 20.00     0.017 C 
HETATM    9  C4  UNL     1     -34.515  13.178  -4.804  1.00 20.00     0.017 C 
ENDBRANCH   1   6
BRANCH   1  10
HETATM   10  O9  UNL     1     -32.515  15.956  -4.997  1.00 20.00    -0.392 OA
HETATM   11  H28 UNL     1     -31.695  15.576  -4.651  1.00 20.00     0.210 HD
ENDBRANCH   1  10
TORSDOF 4
ENDMDL
MODEL 2
REMARK VINA RESULT:      -3.9      0.055      1.358
REMARK  4 active torsions:
REMARK  status: ('A' for Active; 'I' for Inactive)
REMARK    1  A    between atoms: C6_6  and  C7_7 
REMARK    2  A    between atoms: C6_6  and  O10_10 
REMARK    3  A    between atoms: C7_7  and  C8_8 
REMARK    4  A    between atoms: C7_7  and  O9_9 
ROOT
HETATM    1  C7  UNL     1     -33.593  15.488  -4.159  1.00 20.00     0.154 C 
ENDROOT
BRANCH   1   2
HETATM    2  C6  UNL     1     -34.119  16.672  -3.320  1.00 20.00     0.146 C 
HETATM    3  C1  UNL     1     -33.764  18.029  -3.925  1.00 20.00     0.042 C 
BRANCH   2   4
HETATM    4  O10 UNL     1     -33.593  16.639  -1.997  1.00 20.00    -0.388 OA
HETATM    5  C5  UNL     1     -34.630  16.566  -1.028  1.00 20.00     0.202 C 
ENDBRANCH   2   4
ENDBRANCH   1   2
BRANCH   1   6
HETATM    6  C8  UNL     1     -34.636  14.742  -5.055  1.00 20.00    -0.023 C 
HETATM    7  C2  UNL     1     -34.496  13.221  -4.809  1.00 20.00     0.017 C 
HETATM    8  C3  UNL     1     -36.072  15.153  -4.684  1.00 20.00     0.017 C 
HETATM    9  C4  UNL     1     -34.422  14.986  -6.561  1.00 20.00     0.017 C 
ENDBRANCH   1   6
BRANCH   1  10
HETATM   10  O9  UNL     1     -32.515  15.938  -4.987  1.00 20.00    -0.392 OA
HETATM   11  H28 UNL     1     -32.442  15.297  -5.709  1.00 20.00     0.210 HD
ENDBRANCH   1  10
TORSDOF 4
ENDMDL
MODEL 3
REMARK VINA RESULT:      -3.8      0.141      1.376
REMARK  4 active torsions:
REMARK  status: ('A' for Active; 'I' for Inactive)
REMARK    1  A    between atoms: C6_6  and  C7_7 
REMARK    2  A    between atoms: C6_6  and  O10_10 
REMARK    3  A    between atoms: C7_7  and  C8_8 
REMARK    4  A    between atoms: C7_7  and  O9_9 
ROOT
HETATM    1  C7  UNL     1     -33.593  15.566  -4.126  1.00 20.00     0.154 C 
ENDROOT
BRANCH   1   2
HETATM    2  C6  UNL     1     -34.122  16.826  -3.407  1.00 20.00     0.146 C 
HETATM    3  C1  UNL     1     -33.735  18.120  -4.121  1.00 20.00     0.042 C 
BRANCH   2   4
HETATM    4  O10 UNL     1     -33.625  16.904  -2.075  1.00 20.00    -0.388 OA
HETATM    5  C5  UNL     1     -34.610  16.507  -1.130  1.00 20.00     0.202 C 
ENDBRANCH   2   4
ENDBRANCH   1   2
BRANCH   1   6
HETATM    6  C8  UNL     1     -34.630  14.749  -4.966  1.00 20.00    -0.023 C 
HETATM    7  C2  UNL     1     -34.391  15.048  -6.465  1.00 20.00     0.017 C 
HETATM    8  C3  UNL     1     -34.442  13.237  -4.749  1.00 20.00     0.017 C 
HETATM    9  C4  UNL     1     -36.091  15.120  -4.650  1.00 20.00     0.017 C 
ENDBRANCH   1   6
BRANCH   1  10
HETATM   10  O9  UNL     1     -32.500  15.930  -4.974  1.00 20.00    -0.392 OA
HETATM   11  H28 UNL     1     -32.145  15.102  -5.329  1.00 20.00     0.210 HD
ENDBRANCH   1  10
TORSDOF 4
ENDMDL
MODEL 4
REMARK VINA RESULT:      -3.8      1.468      2.517
REMARK  4 active torsions:
REMARK  status: ('A' for Active; 'I' for Inactive)
REMARK    1  A    between atoms: C6_6  and  C7_7 
REMARK    2  A    between atoms: C6_6  and  O10_10 
REMARK    3  A    between atoms: C7_7  and  C8_8 
REMARK    4  A    between atoms: C7_7  and  O9_9 
ROOT
HETATM    1  C7  UNL     1     -34.914  15.919  -3.268  1.00 20.00     0.154 C 
ENDROOT
BRANCH   1   2
HETATM    2  C6  UNL     1     -33.997  16.529  -2.185  1.00 20.00     0.146 C 
HETATM    3  C1  UNL     1     -34.675  16.619  -0.819  1.00 20.00     0.042 C 
BRANCH   2   4
HETATM    4  O10 UNL     1     -33.577  17.841  -2.546  1.00 20.00    -0.388 OA
HETATM    5  C5  UNL     1     -34.463  18.427  -3.490  1.00 20.00     0.202 C 
ENDBRANCH   2   4
ENDBRANCH   1   2
BRANCH   1   6
HETATM    6  C8  UNL     1     -34.308  14.769  -4.138  1.00 20.00    -0.023 C 
HETATM    7  C2  UNL     1     -34.237  15.250  -5.606  1.00 20.00     0.017 C 
HETATM    8  C3  UNL     1     -32.878  14.431  -3.681  1.00 20.00     0.017 C 
HETATM    9  C4  UNL     1     -35.156  13.483  -4.115  1.00 20.00     0.017 C 
ENDBRANCH   1   6
BRANCH   1  10
HETATM   10  O9  UNL     1     -36.118  15.446  -2.655  1.00 20.00    -0.392 OA
HETATM   11  H28 UNL     1     -35.914  15.324  -1.717  1.00 20.00     0.210 HD
ENDBRANCH   1  10
TORSDOF 4
ENDMDL
MODEL 5
REMARK VINA RESULT:      -3.7      1.523      3.263
REMARK  4 active torsions:
REMARK  status: ('A' for Active; 'I' for Inactive)
REMARK    1  A    between atoms: C6_6  and  C7_7 
REMARK    2  A    between atoms: C6_6  and  O10_10 
REMARK    3  A    between atoms: C7_7  and  C8_8 
REMARK    4  A    between atoms: C7_7  and  O9_9 
ROOT
HETATM    1  C7  UNL     1     -33.659  16.387  -4.410  1.00 20.00     0.154 C 
ENDROOT
BRANCH   1   2
HETATM    2  C6  UNL     1     -34.318  16.757  -5.757  1.00 20.00     0.146 C 
HETATM    3  C1  UNL     1     -34.113  15.687  -6.827  1.00 20.00     0.042 C 
BRANCH   2   4
HETATM    4  O10 UNL     1     -33.797  17.980  -6.265  1.00 20.00    -0.388 OA
HETATM    5  C5  UNL     1     -33.599  18.931  -5.227  1.00 20.00     0.202 C 
ENDBRANCH   2   4
ENDBRANCH   1   2
BRANCH   1   6
HETATM    6  C8  UNL     1     -34.537  15.586  -3.393  1.00 20.00    -0.023 C 
HETATM    7  C2  UNL     1     -34.114  14.099  -3.445  1.00 20.00     0.017 C 
HETATM    8  C3  UNL     1     -34.313  16.092  -1.957  1.00 20.00     0.017 C 
HETATM    9  C4  UNL     1     -36.042  15.648  -3.715  1.00 20.00     0.017 C 
ENDBRANCH   1   6
BRANCH   1  10
HETATM   10  O9  UNL     1     -32.457  15.651  -4.658  1.00 20.00    -0.392 OA
HETATM   11  H28 UNL     1     -32.024  16.083  -5.409  1.00 20.00     0.210 HD
ENDBRANCH   1  10
TORSDOF 4
ENDMDL
MODEL 6
REMARK VINA RESULT:      -3.7      1.532      3.133
REMARK  4 active torsions:
REMARK  status: ('A' for Active; 'I' for Inactive)
REMARK    1  A    between atoms: C6_6  and  C7_7 
REMARK    2  A    between atoms: C6_6  and  O10_10 
REMARK    3  A    between atoms: C7_7  and  C8_8 
REMARK    4  A    between atoms: C7_7  and  O9_9 
ROOT
HETATM    1  C7  UNL     1     -33.620  16.453  -4.393  1.00 20.00     0.154 C 
ENDROOT
BRANCH   1   2
HETATM    2  C6  UNL     1     -34.288  16.832  -5.732  1.00 20.00     0.146 C 
HETATM    3  C1  UNL     1     -34.104  15.764  -6.808  1.00 20.00     0.042 C 
BRANCH   2   4
HETATM    4  O10 UNL     1     -33.762  18.053  -6.241  1.00 20.00    -0.388 OA
HETATM    5  C5  UNL     1     -33.584  19.012  -5.208  1.00 20.00     0.202 C 
ENDBRANCH   2   4
ENDBRANCH   1   2
BRANCH   1   6
HETATM    6  C8  UNL     1     -34.510  15.694  -3.353  1.00 20.00    -0.023 C 
HETATM    7  C2  UNL     1     -35.995  15.948  -3.700  1.00 20.00     0.017 C 
HETATM    8  C3  UNL     1     -34.260  14.177  -3.420  1.00 20.00     0.017 C 
HETATM    9  C4  UNL     1     -34.287  16.172  -1.906  1.00 20.00     0.017 C 
ENDBRANCH   1   6
BRANCH   1  10
HETATM   10  O9  UNL     1     -32.451  15.670  -4.654  1.00 20.00    -0.392 OA
HETATM   11  H28 UNL     1     -32.762  14.832  -5.024  1.00 20.00     0.210 HD
ENDBRANCH   1  10
TORSDOF 4
ENDMDL
MODEL 7
REMARK VINA RESULT:      -3.7      1.664      2.812
REMARK  4 active torsions:
REMARK  status: ('A' for Active; 'I' for Inactive)
REMARK    1  A    between atoms: C6_6  and  C7_7 
REMARK    2  A    between atoms: C6_6  and  O10_10 
REMARK    3  A    between atoms: C7_7  and  C8_8 
REMARK    4  A    between atoms: C7_7  and  O9_9 
ROOT
HETATM    1  C7  UNL     1     -33.886  15.674  -5.036  1.00 20.00     0.154 C 
ENDROOT
BRANCH   1   2
HETATM    2  C6  UNL     1     -34.543  15.434  -3.659  1.00 20.00     0.146 C 
HETATM    3  C1  UNL     1     -33.798  16.127  -2.520  1.00 20.00     0.042 C 
BRANCH   2   4
HETATM    4  O10 UNL     1     -34.603  14.045  -3.354  1.00 20.00    -0.388 OA
HETATM    5  C5  UNL     1     -34.946  13.277  -4.499  1.00 20.00     0.202 C 
ENDBRANCH   2   4
ENDBRANCH   1   2
BRANCH   1   6
HETATM    6  C8  UNL     1     -34.491  16.818  -5.915  1.00 20.00    -0.023 C 
HETATM    7  C2  UNL     1     -35.926  17.113  -5.417  1.00 20.00     0.017 C 
HETATM    8  C3  UNL     1     -33.667  18.110  -5.778  1.00 20.00     0.017 C 
HETATM    9  C4  UNL     1     -34.589  16.446  -7.407  1.00 20.00     0.017 C 
ENDBRANCH   1   6
BRANCH   1  10
HETATM   10  O9  UNL     1     -32.489  15.925  -4.855  1.00 20.00    -0.392 OA
HETATM   11  H28 UNL     1     -32.154  16.224  -5.713  1.00 20.00     0.210 HD
ENDBRANCH   1  10
TORSDOF 4
ENDMDL
MODEL 8
REMARK VINA RESULT:      -3.7      1.634      3.189
REMARK  4 active torsions:
REMARK  status: ('A' for Active; 'I' for Inactive)
REMARK    1  A    between atoms: C6_6  and  C7_7 
REMARK    2  A    between atoms: C6_6  and  O10_10 
REMARK    3  A    between atoms: C7_7  and  C8_8 
REMARK    4  A    between atoms: C7_7  and  O9_9 
ROOT
HETATM    1  C7  UNL     1     -34.074  16.176  -4.754  1.00 20.00     0.154 C 
ENDROOT
BRANCH   1   2
HETATM    2  C6  UNL     1     -34.914  16.106  -6.048  1.00 20.00     0.146 C 
HETATM    3  C1  UNL     1     -34.299  15.186  -7.101  1.00 20.00     0.042 C 
BRANCH   2   4
HETATM    4  O10 UNL     1     -35.063  17.394  -6.634  1.00 20.00    -0.388 OA
HETATM    5  C5  UNL     1     -35.341  18.382  -5.651  1.00 20.00     0.202 C 
ENDBRANCH   2   4
ENDBRANCH   1   2
BRANCH   1   6
HETATM    6  C8  UNL     1     -34.444  15.165  -3.619  1.00 20.00    -0.023 C 
HETATM    7  C2  UNL     1     -34.245  15.865  -2.254  1.00 20.00     0.017 C 
HETATM    8  C3  UNL     1     -35.919  14.739  -3.722  1.00 20.00     0.017 C 
HETATM    9  C4  UNL     1     -33.560  13.904  -3.623  1.00 20.00     0.017 C 
ENDBRANCH   1   6
BRANCH   1  10
HETATM   10  O9  UNL     1     -32.690  16.014  -5.079  1.00 20.00    -0.392 OA
HETATM   11  H28 UNL     1     -32.192  16.442  -4.368  1.00 20.00     0.210 HD
ENDBRANCH   1  10
TORSDOF 4
ENDMDL
MODEL 9
REMARK VINA RESULT:      -3.6      2.333      3.651
REMARK  4 active torsions:
REMARK  status: ('A' for Active; 'I' for Inactive)
REMARK    1  A    between atoms: C6_6  and  C7_7 
REMARK    2  A    between atoms: C6_6  and  O10_10 
REMARK    3  A    between atoms: C7_7  and  C8_8 
REMARK    4  A    between atoms: C7_7  and  O9_9 
ROOT
HETATM    1  C7  UNL     1     -35.605  14.822  -3.408  1.00 20.00     0.154 C 
ENDROOT
BRANCH   1   2
HETATM    2  C6  UNL     1     -36.903  15.100  -4.196  1.00 20.00     0.146 C 
HETATM    3  C1  UNL     1     -37.407  16.532  -4.019  1.00 20.00     0.042 C 
BRANCH   2   4
HETATM    4  O10 UNL     1     -37.948  14.222  -3.792  1.00 20.00    -0.388 OA
HETATM    5  C5  UNL     1     -39.211  14.663  -4.270  1.00 20.00     0.202 C 
ENDBRANCH   2   4
ENDBRANCH   1   2
BRANCH   1   6
HETATM    6  C8  UNL     1     -34.266  14.878  -4.216  1.00 20.00    -0.023 C 
HETATM    7  C2  UNL     1     -33.371  13.699  -3.764  1.00 20.00     0.017 C 
HETATM    8  C3  UNL     1     -34.528  14.723  -5.724  1.00 20.00     0.017 C 
HETATM    9  C4  UNL     1     -33.471  16.176  -3.979  1.00 20.00     0.017 C 
ENDBRANCH   1   6
BRANCH   1  10
HETATM   10  O9  UNL     1     -35.515  15.734  -2.309  1.00 20.00    -0.392 OA
HETATM   11  H28 UNL     1     -35.740  16.607  -2.661  1.00 20.00     0.210 HD
ENDBRANCH   1  10
TORSDOF 4
ENDMDL
