MODEL 1
REMARK VINA RESULT:      -5.1      0.000      0.000
REMARK  4 active torsions:
REMARK  status: ('A' for Active; 'I' for Inactive)
REMARK    1  A    between atoms: C1_1  and  C9_9 
REMARK    2  A    between atoms: C8_8  and  C10_10 
REMARK    3  A    between atoms: C9_9  and  C11_11 
REMARK    4  A    between atoms: C10_10  and  C11_11 
ROOT
HETATM    1  C2  UNL     1     -34.768  13.560  -4.346  1.00 20.00     0.005 C 
HETATM    2  C3  UNL     1     -33.360  13.711  -3.751  1.00 20.00     0.005 C 
HETATM    3  C4  UNL     1     -33.978  15.765  -4.764  1.00 20.00     0.009 C 
HETATM    4  C5  UNL     1     -35.575  15.529  -3.017  1.00 20.00     0.009 C 
HETATM    5  C6  UNL     1     -35.265  15.012  -4.434  1.00 20.00    -0.014 C 
HETATM    6  C7  UNL     1     -33.239  15.232  -3.535  1.00 20.00    -0.010 C 
HETATM    7  C8  UNL     1     -34.177  15.633  -2.371  1.00 20.00    -0.010 C 
ENDROOT
BRANCH   7   8
HETATM    8  C10 UNL     1     -33.891  17.031  -1.835  1.00 20.00     0.005 C 
BRANCH   8   9
HETATM    9  C11 UNL     1     -34.452  17.210  -0.423  1.00 20.00     0.007 C 
BRANCH   9  10
HETATM   10  C9  UNL     1     -33.690  18.266   0.374  1.00 20.00     0.069 C 
BRANCH  10  11
HETATM   11  C1  UNL     1     -32.646  19.006  -0.429  1.00 20.00     0.231 C 
HETATM   12  O12 UNL     1     -31.508  19.253  -0.044  1.00 20.00    -0.307 OA
ENDBRANCH  10  11
ENDBRANCH   9  10
ENDBRANCH   8   9
ENDBRANCH   7   8
TORSDOF 4
ENDMDL
MODEL 2
REMARK VINA RESULT:      -5.1     11.442     12.584
REMARK  4 active torsions:
REMARK  status: ('A' for Active; 'I' for Inactive)
REMARK    1  A    between atoms: C1_1  and  C9_9 
REMARK    2  A    between atoms: C8_8  and  C10_10 
REMARK    3  A    between atoms: C9_9  and  C11_11 
REMARK    4  A    between atoms: C10_10  and  C11_11 
ROOT
HETATM    1  C2  UNL     1     -35.441   5.003   6.661  1.00 20.00     0.005 C 
HETATM    2  C3  UNL     1     -34.327   6.060   6.640  1.00 20.00     0.005 C 
HETATM    3  C4  UNL     1     -33.592   4.161   5.424  1.00 20.00     0.009 C 
HETATM    4  C5  UNL     1     -35.454   4.921   4.155  1.00 20.00     0.009 C 
HETATM    5  C6  UNL     1     -35.118   4.134   5.435  1.00 20.00    -0.014 C 
HETATM    6  C7  UNL     1     -33.524   5.689   5.378  1.00 20.00    -0.010 C 
HETATM    7  C8  UNL     1     -34.383   6.033   4.138  1.00 20.00    -0.010 C 
ENDROOT
BRANCH   7   8
HETATM    8  C10 UNL     1     -33.578   6.041   2.844  1.00 20.00     0.005 C 
BRANCH   8   9
HETATM    9  C11 UNL     1     -32.094   6.296   3.116  1.00 20.00     0.007 C 
BRANCH   9  10
HETATM   10  C9  UNL     1     -31.735   7.777   3.029  1.00 20.00     0.069 C 
BRANCH  10  11
HETATM   11  C1  UNL     1     -32.111   8.424   1.717  1.00 20.00     0.231 C 
HETATM   12  O12 UNL     1     -32.469   9.590   1.585  1.00 20.00    -0.307 OA
ENDBRANCH  10  11
ENDBRANCH   9  10
ENDBRANCH   8   9
ENDBRANCH   7   8
TORSDOF 4
ENDMDL
MODEL 3
REMARK VINA RESULT:      -4.9     10.786     11.948
REMARK  4 active torsions:
REMARK  status: ('A' for Active; 'I' for Inactive)
REMARK    1  A    between atoms: C1_1  and  C9_9 
REMARK    2  A    between atoms: C8_8  and  C10_10 
REMARK    3  A    between atoms: C9_9  and  C11_11 
REMARK    4  A    between atoms: C10_10  and  C11_11 
ROOT
HETATM    1  C2  UNL     1     -34.870   4.756   6.043  1.00 20.00     0.005 C 
HETATM    2  C3  UNL     1     -34.780   3.905   4.768  1.00 20.00     0.005 C 
HETATM    3  C4  UNL     1     -35.495   6.087   4.173  1.00 20.00     0.009 C 
HETATM    4  C5  UNL     1     -33.317   6.459   5.054  1.00 20.00     0.009 C 
HETATM    5  C6  UNL     1     -34.764   6.194   5.509  1.00 20.00    -0.014 C 
HETATM    6  C7  UNL     1     -34.593   4.960   3.662  1.00 20.00    -0.010 C 
HETATM    7  C8  UNL     1     -33.176   5.566   3.803  1.00 20.00    -0.010 C 
ENDROOT
BRANCH   7   8
HETATM    8  C10 UNL     1     -32.745   6.356   2.574  1.00 20.00     0.005 C 
BRANCH   8   9
HETATM    9  C11 UNL     1     -31.942   7.598   2.965  1.00 20.00     0.007 C 
BRANCH   9  10
HETATM   10  C9  UNL     1     -32.329   8.823   2.140  1.00 20.00     0.069 C 
BRANCH  10  11
HETATM   11  C1  UNL     1     -31.976   8.713   0.675  1.00 20.00     0.231 C 
HETATM   12  O12 UNL     1     -32.702   9.057  -0.251  1.00 20.00    -0.307 OA
ENDBRANCH  10  11
ENDBRANCH   9  10
ENDBRANCH   8   9
ENDBRANCH   7   8
TORSDOF 4
ENDMDL
MODEL 4
REMARK VINA RESULT:      -4.8      2.695      5.504
REMARK  4 active torsions:
REMARK  status: ('A' for Active; 'I' for Inactive)
REMARK    1  A    between atoms: C1_1  and  C9_9 
REMARK    2  A    between atoms: C8_8  and  C10_10 
REMARK    3  A    between atoms: C9_9  and  C11_11 
REMARK    4  A    between atoms: C10_10  and  C11_11 
ROOT
HETATM    1  C2  UNL     1     -33.989  18.732   1.273  1.00 20.00     0.005 C 
HETATM    2  C3  UNL     1     -35.197  17.787   1.347  1.00 20.00     0.005 C 
HETATM    3  C4  UNL     1     -35.280  18.959  -0.713  1.00 20.00     0.009 C 
HETATM    4  C5  UNL     1     -33.272  17.697  -0.896  1.00 20.00     0.009 C 
HETATM    5  C6  UNL     1     -33.829  18.972  -0.237  1.00 20.00    -0.014 C 
HETATM    6  C7  UNL     1     -35.556  17.569  -0.135  1.00 20.00    -0.010 C 
HETATM    7  C8  UNL     1     -34.448  16.703  -0.781  1.00 20.00    -0.010 C 
ENDROOT
BRANCH   7   8
HETATM    8  C10 UNL     1     -34.857  16.131  -2.133  1.00 20.00     0.005 C 
BRANCH   8   9
HETATM    9  C11 UNL     1     -33.661  16.039  -3.082  1.00 20.00     0.007 C 
BRANCH   9  10
HETATM   10  C9  UNL     1     -33.514  14.650  -3.697  1.00 20.00     0.069 C 
BRANCH  10  11
HETATM   11  C1  UNL     1     -34.795  13.850  -3.719  1.00 20.00     0.231 C 
HETATM   12  O12 UNL     1     -34.937  12.764  -4.272  1.00 20.00    -0.307 OA
ENDBRANCH  10  11
ENDBRANCH   9  10
ENDBRANCH   8   9
ENDBRANCH   7   8
TORSDOF 4
ENDMDL
MODEL 5
REMARK VINA RESULT:      -4.8      1.634      1.802
REMARK  4 active torsions:
REMARK  status: ('A' for Active; 'I' for Inactive)
REMARK    1  A    between atoms: C1_1  and  C9_9 
REMARK    2  A    between atoms: C8_8  and  C10_10 
REMARK    3  A    between atoms: C9_9  and  C11_11 
REMARK    4  A    between atoms: C10_10  and  C11_11 
ROOT
HETATM    1  C2  UNL     1     -34.847  13.346  -4.329  1.00 20.00     0.005 C 
HETATM    2  C3  UNL     1     -33.438  13.597  -3.773  1.00 20.00     0.005 C 
HETATM    3  C4  UNL     1     -34.047  15.431  -5.150  1.00 20.00     0.009 C 
HETATM    4  C5  UNL     1     -35.643  15.531  -3.389  1.00 20.00     0.009 C 
HETATM    5  C6  UNL     1     -35.337  14.759  -4.686  1.00 20.00    -0.014 C 
HETATM    6  C7  UNL     1     -33.309  15.131  -3.843  1.00 20.00    -0.010 C 
HETATM    7  C8  UNL     1     -34.244  15.746  -2.774  1.00 20.00    -0.010 C 
ENDROOT
BRANCH   7   8
HETATM    8  C10 UNL     1     -33.949  17.217  -2.507  1.00 20.00     0.005 C 
BRANCH   8   9
HETATM    9  C11 UNL     1     -33.658  17.465  -1.025  1.00 20.00     0.007 C 
BRANCH   9  10
HETATM   10  C9  UNL     1     -34.808  17.020  -0.126  1.00 20.00     0.069 C 
BRANCH  10  11
HETATM   11  C1  UNL     1     -34.923  17.807   1.158  1.00 20.00     0.231 C 
HETATM   12  O12 UNL     1     -35.526  17.434   2.160  1.00 20.00    -0.307 OA
ENDBRANCH  10  11
ENDBRANCH   9  10
ENDBRANCH   8   9
ENDBRANCH   7   8
TORSDOF 4
ENDMDL
MODEL 6
REMARK VINA RESULT:      -4.7      1.760      2.303
REMARK  4 active torsions:
REMARK  status: ('A' for Active; 'I' for Inactive)
REMARK    1  A    between atoms: C1_1  and  C9_9 
REMARK    2  A    between atoms: C8_8  and  C10_10 
REMARK    3  A    between atoms: C9_9  and  C11_11 
REMARK    4  A    between atoms: C10_10  and  C11_11 
ROOT
HETATM    1  C2  UNL     1     -34.135  15.479  -5.540  1.00 20.00     0.005 C 
HETATM    2  C3  UNL     1     -34.942  14.498  -4.678  1.00 20.00     0.005 C 
HETATM    3  C4  UNL     1     -32.889  14.956  -3.582  1.00 20.00     0.009 C 
HETATM    4  C5  UNL     1     -33.964  17.078  -3.615  1.00 20.00     0.009 C 
HETATM    5  C6  UNL     1     -33.174  16.122  -4.527  1.00 20.00    -0.014 C 
HETATM    6  C7  UNL     1     -34.369  14.728  -3.267  1.00 20.00    -0.010 C 
HETATM    7  C8  UNL     1     -34.834  16.119  -2.775  1.00 20.00    -0.010 C 
ENDROOT
BRANCH   7   8
HETATM    8  C10 UNL     1     -34.630  16.316  -1.277  1.00 20.00     0.005 C 
BRANCH   8   9
HETATM    9  C11 UNL     1     -33.791  17.562  -0.990  1.00 20.00     0.007 C 
BRANCH   9  10
HETATM   10  C9  UNL     1     -33.974  18.067   0.439  1.00 20.00     0.069 C 
BRANCH  10  11
HETATM   11  C1  UNL     1     -35.262  17.621   1.088  1.00 20.00     0.231 C 
HETATM   12  O12 UNL     1     -35.408  17.408   2.288  1.00 20.00    -0.307 OA
ENDBRANCH  10  11
ENDBRANCH   9  10
ENDBRANCH   8   9
ENDBRANCH   7   8
TORSDOF 4
ENDMDL
MODEL 7
REMARK VINA RESULT:      -4.7      2.821      5.018
REMARK  4 active torsions:
REMARK  status: ('A' for Active; 'I' for Inactive)
REMARK    1  A    between atoms: C1_1  and  C9_9 
REMARK    2  A    between atoms: C8_8  and  C10_10 
REMARK    3  A    between atoms: C9_9  and  C11_11 
REMARK    4  A    between atoms: C10_10  and  C11_11 
ROOT
HETATM    1  C2  UNL     1     -35.239  17.991  -1.363  1.00 20.00     0.005 C 
HETATM    2  C3  UNL     1     -33.803  17.471  -1.198  1.00 20.00     0.005 C 
HETATM    3  C4  UNL     1     -35.114  15.768  -2.203  1.00 20.00     0.009 C 
HETATM    4  C5  UNL     1     -35.164  17.510  -3.823  1.00 20.00     0.009 C 
HETATM    5  C6  UNL     1     -35.803  17.102  -2.483  1.00 20.00    -0.014 C 
HETATM    6  C7  UNL     1     -33.709  16.372  -2.273  1.00 20.00    -0.010 C 
HETATM    7  C8  UNL     1     -33.698  17.053  -3.663  1.00 20.00    -0.010 C 
ENDROOT
BRANCH   7   8
HETATM    8  C10 UNL     1     -33.259  16.112  -4.779  1.00 20.00     0.005 C 
BRANCH   8   9
HETATM    9  C11 UNL     1     -34.354  15.958  -5.837  1.00 20.00     0.007 C 
BRANCH   9  10
HETATM   10  C9  UNL     1     -34.787  14.505  -6.016  1.00 20.00     0.069 C 
BRANCH  10  11
HETATM   11  C1  UNL     1     -34.328  13.587  -4.908  1.00 20.00     0.231 C 
HETATM   12  O12 UNL     1     -34.974  12.644  -4.462  1.00 20.00    -0.307 OA
ENDBRANCH  10  11
ENDBRANCH   9  10
ENDBRANCH   8   9
ENDBRANCH   7   8
TORSDOF 4
ENDMDL
MODEL 8
REMARK VINA RESULT:      -4.7      2.731      5.046
REMARK  4 active torsions:
REMARK  status: ('A' for Active; 'I' for Inactive)
REMARK    1  A    between atoms: C1_1  and  C9_9 
REMARK    2  A    between atoms: C8_8  and  C10_10 
REMARK    3  A    between atoms: C9_9  and  C11_11 
REMARK    4  A    between atoms: C10_10  and  C11_11 
ROOT
HETATM    1  C2  UNL     1     -34.678  18.402  -0.727  1.00 20.00     0.005 C 
HETATM    2  C3  UNL     1     -34.647  16.913  -0.352  1.00 20.00     0.005 C 
HETATM    3  C4  UNL     1     -35.949  17.170  -2.318  1.00 20.00     0.009 C 
HETATM    4  C5  UNL     1     -33.785  17.876  -3.012  1.00 20.00     0.009 C 
HETATM    5  C6  UNL     1     -35.013  18.374  -2.227  1.00 20.00    -0.014 C 
HETATM    6  C7  UNL     1     -34.930  16.213  -1.694  1.00 20.00    -0.010 C 
HETATM    7  C8  UNL     1     -33.691  16.390  -2.605  1.00 20.00    -0.010 C 
ENDROOT
BRANCH   7   8
HETATM    8  C10 UNL     1     -33.705  15.458  -3.811  1.00 20.00     0.005 C 
BRANCH   8   9
HETATM    9  C11 UNL     1     -34.085  14.032  -3.406  1.00 20.00     0.007 C 
BRANCH   9  10
HETATM   10  C9  UNL     1     -35.107  13.413  -4.355  1.00 20.00     0.069 C 
BRANCH  10  11
HETATM   11  C1  UNL     1     -36.379  14.214  -4.497  1.00 20.00     0.231 C 
HETATM   12  O12 UNL     1     -37.342  14.144  -3.740  1.00 20.00    -0.307 OA
ENDBRANCH  10  11
ENDBRANCH   9  10
ENDBRANCH   8   9
ENDBRANCH   7   8
TORSDOF 4
ENDMDL
MODEL 9
REMARK VINA RESULT:      -4.5      2.701      5.207
REMARK  4 active torsions:
REMARK  status: ('A' for Active; 'I' for Inactive)
REMARK    1  A    between atoms: C1_1  and  C9_9 
REMARK    2  A    between atoms: C8_8  and  C10_10 
REMARK    3  A    between atoms: C9_9  and  C11_11 
REMARK    4  A    between atoms: C10_10  and  C11_11 
ROOT
HETATM    1  C2  UNL     1     -35.635  18.126  -0.605  1.00 20.00     0.005 C 
HETATM    2  C3  UNL     1     -35.182  18.923  -1.837  1.00 20.00     0.005 C 
HETATM    3  C4  UNL     1     -33.328  17.700  -1.005  1.00 20.00     0.009 C 
HETATM    4  C5  UNL     1     -34.847  15.990  -1.660  1.00 20.00     0.009 C 
HETATM    5  C6  UNL     1     -34.595  16.997  -0.522  1.00 20.00    -0.014 C 
HETATM    6  C7  UNL     1     -33.959  18.128  -2.332  1.00 20.00    -0.010 C 
HETATM    7  C8  UNL     1     -34.458  16.788  -2.923  1.00 20.00    -0.010 C 
ENDROOT
BRANCH   7   8
HETATM    8  C10 UNL     1     -33.396  16.076  -3.752  1.00 20.00     0.005 C 
BRANCH   8   9
HETATM    9  C11 UNL     1     -33.833  15.934  -5.211  1.00 20.00     0.007 C 
BRANCH   9  10
HETATM   10  C9  UNL     1     -34.908  14.866  -5.393  1.00 20.00     0.069 C 
BRANCH  10  11
HETATM   11  C1  UNL     1     -34.453  13.470  -5.040  1.00 20.00     0.231 C 
HETATM   12  O12 UNL     1     -34.984  12.748  -4.202  1.00 20.00    -0.307 OA
ENDBRANCH  10  11
ENDBRANCH   9  10
ENDBRANCH   8   9
ENDBRANCH   7   8
TORSDOF 4
ENDMDL
