MODEL 1
REMARK VINA RESULT:      -3.7      0.000      0.000
REMARK  4 active torsions:
REMARK  status: ('A' for Active; 'I' for Inactive)
REMARK    1  A    between atoms: C6_6  and  C7_7 
REMARK    2  A    between atoms: C6_6  and  O10_10 
REMARK    3  A    between atoms: C7_7  and  C8_8 
REMARK    4  A    between atoms: C7_7  and  O9_9 
ROOT
HETATM    1  C7  UNL     1     -33.571  15.852  -4.719  1.00 20.00     0.154 C 
ENDROOT
BRANCH   1   2
HETATM    2  C6  UNL     1     -34.133  16.844  -3.677  1.00 20.00     0.146 C 
HETATM    3  C1  UNL     1     -33.806  16.441  -2.241  1.00 20.00     0.042 C 
BRANCH   2   4
HETATM    4  O10 UNL     1     -33.621  18.156  -3.885  1.00 20.00    -0.388 OA
HETATM    5  C5  UNL     1     -33.556  18.475  -5.267  1.00 20.00     0.202 C 
ENDBRANCH   2   4
ENDBRANCH   1   2
BRANCH   1   6
HETATM    6  C8  UNL     1     -34.582  14.850  -5.366  1.00 20.00    -0.023 C 
HETATM    7  C2  UNL     1     -36.019  15.312  -5.025  1.00 20.00     0.017 C 
HETATM    8  C3  UNL     1     -34.439  14.840  -6.899  1.00 20.00     0.017 C 
HETATM    9  C4  UNL     1     -34.425  13.410  -4.843  1.00 20.00     0.017 C 
ENDBRANCH   1   6
BRANCH   1  10
HETATM   10  O9  UNL     1     -32.513  15.093  -4.126  1.00 20.00    -0.392 OA
HETATM   11  H28 UNL     1     -31.718  15.643  -4.189  1.00 20.00     0.210 HD
ENDBRANCH   1  10
TORSDOF 4
ENDMDL
MODEL 2
REMARK VINA RESULT:      -3.7      0.073      1.358
REMARK  4 active torsions:
REMARK  status: ('A' for Active; 'I' for Inactive)
REMARK    1  A    between atoms: C6_6  and  C7_7 
REMARK    2  A    between atoms: C6_6  and  O10_10 
REMARK    3  A    between atoms: C7_7  and  C8_8 
REMARK    4  A    between atoms: C7_7  and  O9_9 
ROOT
HETATM    1  C7  UNL     1     -33.604  15.828  -4.706  1.00 20.00     0.154 C 
ENDROOT
BRANCH   1   2
HETATM    2  C6  UNL     1     -34.136  16.845  -3.673  1.00 20.00     0.146 C 
HETATM    3  C1  UNL     1     -33.817  16.447  -2.234  1.00 20.00     0.042 C 
BRANCH   2   4
HETATM    4  O10 UNL     1     -33.589  18.140  -3.895  1.00 20.00    -0.388 OA
HETATM    5  C5  UNL     1     -33.543  18.455  -5.279  1.00 20.00     0.202 C 
ENDBRANCH   2   4
ENDBRANCH   1   2
BRANCH   1   6
HETATM    6  C8  UNL     1     -34.633  14.812  -5.301  1.00 20.00    -0.023 C 
HETATM    7  C2  UNL     1     -34.479  14.802  -6.841  1.00 20.00     0.017 C 
HETATM    8  C3  UNL     1     -34.356  13.386  -4.789  1.00 20.00     0.017 C 
HETATM    9  C4  UNL     1     -36.095  15.178  -4.987  1.00 20.00     0.017 C 
ENDBRANCH   1   6
BRANCH   1  10
HETATM   10  O9  UNL     1     -32.530  15.082  -4.125  1.00 20.00    -0.392 OA
HETATM   11  H28 UNL     1     -32.096  15.679  -3.498  1.00 20.00     0.210 HD
ENDBRANCH   1  10
TORSDOF 4
ENDMDL
MODEL 3
REMARK VINA RESULT:      -3.7      1.327      3.851
REMARK  4 active torsions:
REMARK  status: ('A' for Active; 'I' for Inactive)
REMARK    1  A    between atoms: C6_6  and  C7_7 
REMARK    2  A    between atoms: C6_6  and  O10_10 
REMARK    3  A    between atoms: C7_7  and  C8_8 
REMARK    4  A    between atoms: C7_7  and  O9_9 
ROOT
HETATM    1  C7  UNL     1     -33.812  15.610  -4.411  1.00 20.00     0.154 C 
ENDROOT
BRANCH   1   2
HETATM    2  C6  UNL     1     -34.732  15.173  -5.571  1.00 20.00     0.146 C 
HETATM    3  C1  UNL     1     -34.213  15.617  -6.936  1.00 20.00     0.042 C 
BRANCH   2   4
HETATM    4  O10 UNL     1     -34.882  13.757  -5.605  1.00 20.00    -0.388 OA
HETATM    5  C5  UNL     1     -35.052  13.221  -4.301  1.00 20.00     0.202 C 
ENDBRANCH   2   4
ENDBRANCH   1   2
BRANCH   1   6
HETATM    6  C8  UNL     1     -34.302  16.800  -3.522  1.00 20.00    -0.023 C 
HETATM    7  C2  UNL     1     -35.844  16.883  -3.621  1.00 20.00     0.017 C 
HETATM    8  C3  UNL     1     -33.935  16.569  -2.045  1.00 20.00     0.017 C 
HETATM    9  C4  UNL     1     -33.738  18.161  -3.968  1.00 20.00     0.017 C 
ENDBRANCH   1   6
BRANCH   1  10
HETATM   10  O9  UNL     1     -32.523  15.949  -4.932  1.00 20.00    -0.392 OA
HETATM   11  H28 UNL     1     -32.575  16.879  -5.199  1.00 20.00     0.210 HD
ENDBRANCH   1  10
TORSDOF 4
ENDMDL
MODEL 4
REMARK VINA RESULT:      -3.6      1.765      2.999
REMARK  4 active torsions:
REMARK  status: ('A' for Active; 'I' for Inactive)
REMARK    1  A    between atoms: C6_6  and  C7_7 
REMARK    2  A    between atoms: C6_6  and  O10_10 
REMARK    3  A    between atoms: C7_7  and  C8_8 
REMARK    4  A    between atoms: C7_7  and  O9_9 
ROOT
HETATM    1  C7  UNL     1     -33.859  15.457  -5.220  1.00 20.00     0.154 C 
ENDROOT
BRANCH   1   2
HETATM    2  C6  UNL     1     -34.782  16.616  -5.655  1.00 20.00     0.146 C 
HETATM    3  C1  UNL     1     -34.018  17.909  -5.929  1.00 20.00     0.042 C 
BRANCH   2   4
HETATM    4  O10 UNL     1     -35.507  16.284  -6.835  1.00 20.00    -0.388 OA
HETATM    5  C5  UNL     1     -34.864  15.250  -7.566  1.00 20.00     0.202 C 
ENDBRANCH   2   4
ENDBRANCH   1   2
BRANCH   1   6
HETATM    6  C8  UNL     1     -34.296  14.631  -3.966  1.00 20.00    -0.023 C 
HETATM    7  C2  UNL     1     -33.158  13.646  -3.606  1.00 20.00     0.017 C 
HETATM    8  C3  UNL     1     -34.526  15.552  -2.754  1.00 20.00     0.017 C 
HETATM    9  C4  UNL     1     -35.568  13.797  -4.205  1.00 20.00     0.017 C 
ENDBRANCH   1   6
BRANCH   1  10
HETATM   10  O9  UNL     1     -32.544  15.966  -4.980  1.00 20.00    -0.392 OA
HETATM   11  H28 UNL     1     -32.128  16.062  -5.850  1.00 20.00     0.210 HD
ENDBRANCH   1  10
TORSDOF 4
ENDMDL
MODEL 5
REMARK VINA RESULT:      -3.6      1.615      2.429
REMARK  4 active torsions:
REMARK  status: ('A' for Active; 'I' for Inactive)
REMARK    1  A    between atoms: C6_6  and  C7_7 
REMARK    2  A    between atoms: C6_6  and  O10_10 
REMARK    3  A    between atoms: C7_7  and  C8_8 
REMARK    4  A    between atoms: C7_7  and  O9_9 
ROOT
HETATM    1  C7  UNL     1     -33.887  15.702  -5.076  1.00 20.00     0.154 C 
ENDROOT
BRANCH   1   2
HETATM    2  C6  UNL     1     -34.558  17.092  -5.076  1.00 20.00     0.146 C 
HETATM    3  C1  UNL     1     -33.589  18.217  -5.432  1.00 20.00     0.042 C 
BRANCH   2   4
HETATM    4  O10 UNL     1     -35.639  17.144  -6.002  1.00 20.00    -0.388 OA
HETATM    5  C5  UNL     1     -35.275  16.588  -7.257  1.00 20.00     0.202 C 
ENDBRANCH   2   4
ENDBRANCH   1   2
BRANCH   1   6
HETATM    6  C8  UNL     1     -34.308  14.707  -3.946  1.00 20.00    -0.023 C 
HETATM    7  C2  UNL     1     -34.550  15.513  -2.647  1.00 20.00     0.017 C 
HETATM    8  C3  UNL     1     -35.621  13.989  -4.308  1.00 20.00     0.017 C 
HETATM    9  C4  UNL     1     -33.232  13.650  -3.638  1.00 20.00     0.017 C 
ENDBRANCH   1   6
BRANCH   1  10
HETATM   10  O9  UNL     1     -32.466  15.864  -5.017  1.00 20.00    -0.392 OA
HETATM   11  H28 UNL     1     -32.136  15.145  -4.458  1.00 20.00     0.210 HD
ENDBRANCH   1  10
TORSDOF 4
ENDMDL
MODEL 6
REMARK VINA RESULT:      -3.6      1.481      2.385
REMARK  4 active torsions:
REMARK  status: ('A' for Active; 'I' for Inactive)
REMARK    1  A    between atoms: C6_6  and  C7_7 
REMARK    2  A    between atoms: C6_6  and  O10_10 
REMARK    3  A    between atoms: C7_7  and  C8_8 
REMARK    4  A    between atoms: C7_7  and  O9_9 
ROOT
HETATM    1  C7  UNL     1     -33.921  16.081  -4.738  1.00 20.00     0.154 C 
ENDROOT
BRANCH   1   2
HETATM    2  C6  UNL     1     -34.397  14.971  -3.777  1.00 20.00     0.146 C 
HETATM    3  C1  UNL     1     -33.475  13.754  -3.777  1.00 20.00     0.042 C 
BRANCH   2   4
HETATM    4  O10 UNL     1     -34.484  15.449  -2.438  1.00 20.00    -0.388 OA
HETATM    5  C5  UNL     1     -34.875  16.813  -2.398  1.00 20.00     0.202 C 
ENDBRANCH   2   4
ENDBRANCH   1   2
BRANCH   1   6
HETATM    6  C8  UNL     1     -34.668  16.209  -6.106  1.00 20.00    -0.023 C 
HETATM    7  C2  UNL     1     -36.191  16.138  -5.842  1.00 20.00     0.017 C 
HETATM    8  C3  UNL     1     -34.366  17.564  -6.772  1.00 20.00     0.017 C 
HETATM    9  C4  UNL     1     -34.318  15.081  -7.093  1.00 20.00     0.017 C 
ENDBRANCH   1   6
BRANCH   1  10
HETATM   10  O9  UNL     1     -32.527  15.905  -5.009  1.00 20.00    -0.392 OA
HETATM   11  H28 UNL     1     -32.336  16.434  -5.798  1.00 20.00     0.210 HD
ENDBRANCH   1  10
TORSDOF 4
ENDMDL
MODEL 7
REMARK VINA RESULT:      -3.5      2.648      4.051
REMARK  4 active torsions:
REMARK  status: ('A' for Active; 'I' for Inactive)
REMARK    1  A    between atoms: C6_6  and  C7_7 
REMARK    2  A    between atoms: C6_6  and  O10_10 
REMARK    3  A    between atoms: C7_7  and  C8_8 
REMARK    4  A    between atoms: C7_7  and  O9_9 
ROOT
HETATM    1  C7  UNL     1     -35.743  14.461  -4.393  1.00 20.00     0.154 C 
ENDROOT
BRANCH   1   2
HETATM    2  C6  UNL     1     -37.008  15.105  -3.786  1.00 20.00     0.146 C 
HETATM    3  C1  UNL     1     -37.491  16.318  -4.577  1.00 20.00     0.042 C 
BRANCH   2   4
HETATM    4  O10 UNL     1     -38.083  14.173  -3.723  1.00 20.00    -0.388 OA
HETATM    5  C5  UNL     1     -39.284  14.729  -4.238  1.00 20.00     0.202 C 
ENDBRANCH   2   4
ENDBRANCH   1   2
BRANCH   1   6
HETATM    6  C8  UNL     1     -34.361  14.976  -3.874  1.00 20.00    -0.023 C 
HETATM    7  C2  UNL     1     -33.409  13.765  -3.727  1.00 20.00     0.017 C 
HETATM    8  C3  UNL     1     -33.728  15.957  -4.877  1.00 20.00     0.017 C 
HETATM    9  C4  UNL     1     -34.450  15.661  -2.497  1.00 20.00     0.017 C 
ENDBRANCH   1   6
BRANCH   1  10
HETATM   10  O9  UNL     1     -35.769  14.619  -5.815  1.00 20.00    -0.392 OA
HETATM   11  H28 UNL     1     -35.883  13.731  -6.184  1.00 20.00     0.210 HD
ENDBRANCH   1  10
TORSDOF 4
ENDMDL
MODEL 8
REMARK VINA RESULT:      -3.5      2.021      3.062
REMARK  4 active torsions:
REMARK  status: ('A' for Active; 'I' for Inactive)
REMARK    1  A    between atoms: C6_6  and  C7_7 
REMARK    2  A    between atoms: C6_6  and  O10_10 
REMARK    3  A    between atoms: C7_7  and  C8_8 
REMARK    4  A    between atoms: C7_7  and  O9_9 
ROOT
HETATM    1  C7  UNL     1     -35.049  15.496  -3.021  1.00 20.00     0.154 C 
ENDROOT
BRANCH   1   2
HETATM    2  C6  UNL     1     -34.137  16.295  -2.065  1.00 20.00     0.146 C 
HETATM    3  C1  UNL     1     -33.904  17.729  -2.532  1.00 20.00     0.042 C 
BRANCH   2   4
HETATM    4  O10 UNL     1     -34.689  16.352  -0.753  1.00 20.00    -0.388 OA
HETATM    5  C5  UNL     1     -34.362  17.572  -0.104  1.00 20.00     0.202 C 
ENDBRANCH   2   4
ENDBRANCH   1   2
BRANCH   1   6
HETATM    6  C8  UNL     1     -34.347  14.619  -4.109  1.00 20.00    -0.023 C 
HETATM    7  C2  UNL     1     -32.921  14.275  -3.616  1.00 20.00     0.017 C 
HETATM    8  C3  UNL     1     -35.106  13.297  -4.323  1.00 20.00     0.017 C 
HETATM    9  C4  UNL     1     -34.205  15.336  -5.464  1.00 20.00     0.017 C 
ENDBRANCH   1   6
BRANCH   1  10
HETATM   10  O9  UNL     1     -35.942  16.396  -3.685  1.00 20.00    -0.392 OA
HETATM   11  H28 UNL     1     -36.213  15.953  -4.502  1.00 20.00     0.210 HD
ENDBRANCH   1  10
TORSDOF 4
ENDMDL
MODEL 9
REMARK VINA RESULT:      -3.5      2.295      3.857
REMARK  4 active torsions:
REMARK  status: ('A' for Active; 'I' for Inactive)
REMARK    1  A    between atoms: C6_6  and  C7_7 
REMARK    2  A    between atoms: C6_6  and  O10_10 
REMARK    3  A    between atoms: C7_7  and  C8_8 
REMARK    4  A    between atoms: C7_7  and  O9_9 
ROOT
HETATM    1  C7  UNL     1     -35.300  14.266  -4.644  1.00 20.00     0.154 C 
ENDROOT
BRANCH   1   2
HETATM    2  C6  UNL     1     -35.859  15.028  -5.865  1.00 20.00     0.146 C 
HETATM    3  C1  UNL     1     -35.511  14.356  -7.191  1.00 20.00     0.042 C 
BRANCH   2   4
HETATM    4  O10 UNL     1     -37.277  15.143  -5.797  1.00 20.00    -0.388 OA
HETATM    5  C5  UNL     1     -37.752  14.936  -4.475  1.00 20.00     0.202 C 
ENDBRANCH   2   4
ENDBRANCH   1   2
BRANCH   1   6
HETATM    6  C8  UNL     1     -34.101  14.921  -3.883  1.00 20.00    -0.023 C 
HETATM    7  C2  UNL     1     -33.055  13.823  -3.575  1.00 20.00     0.017 C 
HETATM    8  C3  UNL     1     -33.419  15.994  -4.752  1.00 20.00     0.017 C 
HETATM    9  C4  UNL     1     -34.512  15.555  -2.541  1.00 20.00     0.017 C 
ENDBRANCH   1   6
BRANCH   1  10
HETATM   10  O9  UNL     1     -34.903  12.952  -5.049  1.00 20.00    -0.392 OA
HETATM   11  H28 UNL     1     -34.914  12.953  -6.017  1.00 20.00     0.210 HD
ENDBRANCH   1  10
TORSDOF 4
ENDMDL
