MODEL 1
REMARK VINA RESULT:      -3.9      0.000      0.000
REMARK  4 active torsions:
REMARK  status: ('A' for Active; 'I' for Inactive)
REMARK    1  A    between atoms: C4_4  and  C6_6 
REMARK    2  A    between atoms: C4_4  and  C7_7 
REMARK    3  A    between atoms: C5_5  and  C6_6 
REMARK    4  A    between atoms: C5_5  and  O8_8 
ROOT
HETATM    1  C1  UNL     1     -32.110   5.442   2.959  1.00 20.00     0.012 C 
HETATM    2  C6  UNL     1     -33.021   6.425   3.697  1.00 20.00     0.007 C 
ENDROOT
BRANCH   2   3
HETATM    3  C4  UNL     1     -34.470   5.899   3.830  1.00 20.00     0.026 C 
BRANCH   3   4
HETATM    4  C7  UNL     1     -34.925   5.530   5.251  1.00 20.00     0.078 C 
HETATM    5  C2  UNL     1     -34.071   6.239   6.297  1.00 20.00     0.026 C 
HETATM    6 CL9  UNL     1     -34.821   3.765   5.523  1.00 20.00    -0.125 Cl
ENDBRANCH   3   4
ENDBRANCH   2   3
BRANCH   2   7
HETATM    7  C5  UNL     1     -33.010   7.778   2.968  1.00 20.00     0.171 C 
BRANCH   7   8
HETATM    8  O8  UNL     1     -31.816   7.912   2.208  1.00 20.00    -0.396 OA
HETATM    9  C3  UNL     1     -31.985   8.821   1.128  1.00 20.00     0.201 C 
ENDBRANCH   7   8
ENDBRANCH   2   7
TORSDOF 4
ENDMDL
MODEL 2
REMARK VINA RESULT:      -3.6     11.041     11.859
REMARK  4 active torsions:
REMARK  status: ('A' for Active; 'I' for Inactive)
REMARK    1  A    between atoms: C4_4  and  C6_6 
REMARK    2  A    between atoms: C4_4  and  C7_7 
REMARK    3  A    between atoms: C5_5  and  C6_6 
REMARK    4  A    between atoms: C5_5  and  O8_8 
ROOT
HETATM    1  C1  UNL     1     -33.175  16.440  -4.959  1.00 20.00     0.012 C 
HETATM    2  C6  UNL     1     -33.811  15.615  -3.839  1.00 20.00     0.007 C 
ENDROOT
BRANCH   2   3
HETATM    3  C4  UNL     1     -33.711  16.316  -2.463  1.00 20.00     0.026 C 
BRANCH   3   4
HETATM    4  C7  UNL     1     -35.019  16.415  -1.661  1.00 20.00     0.078 C 
HETATM    5  C2  UNL     1     -36.031  17.301  -2.379  1.00 20.00     0.026 C 
HETATM    6 CL9  UNL     1     -34.724  17.084  -0.028  1.00 20.00    -0.125 Cl
ENDBRANCH   3   4
ENDBRANCH   2   3
BRANCH   2   7
HETATM    7  C5  UNL     1     -33.146  14.231  -3.782  1.00 20.00     0.171 C 
BRANCH   7   8
HETATM    8  O8  UNL     1     -34.117  13.236  -3.486  1.00 20.00    -0.396 OA
HETATM    9  C3  UNL     1     -35.277  13.384  -4.296  1.00 20.00     0.201 C 
ENDBRANCH   7   8
ENDBRANCH   2   7
TORSDOF 4
ENDMDL
MODEL 3
REMARK VINA RESULT:      -3.6      1.308      1.429
REMARK  4 active torsions:
REMARK  status: ('A' for Active; 'I' for Inactive)
REMARK    1  A    between atoms: C4_4  and  C6_6 
REMARK    2  A    between atoms: C4_4  and  C7_7 
REMARK    3  A    between atoms: C5_5  and  C6_6 
REMARK    4  A    between atoms: C5_5  and  O8_8 
ROOT
HETATM    1  C1  UNL     1     -32.213   5.562   2.346  1.00 20.00     0.012 C 
HETATM    2  C6  UNL     1     -32.590   6.520   3.477  1.00 20.00     0.007 C 
ENDROOT
BRANCH   2   3
HETATM    3  C4  UNL     1     -33.979   6.202   4.079  1.00 20.00     0.026 C 
BRANCH   3   4
HETATM    4  C7  UNL     1     -33.978   5.577   5.484  1.00 20.00     0.078 C 
HETATM    5  C2  UNL     1     -35.190   4.673   5.679  1.00 20.00     0.026 C 
HETATM    6 CL9  UNL     1     -33.991   6.840   6.750  1.00 20.00    -0.125 Cl
ENDBRANCH   3   4
ENDBRANCH   2   3
BRANCH   2   7
HETATM    7  C5  UNL     1     -32.552   7.966   2.957  1.00 20.00     0.171 C 
BRANCH   7   8
HETATM    8  O8  UNL     1     -31.821   8.026   1.740  1.00 20.00    -0.396 OA
HETATM    9  C3  UNL     1     -32.167   9.178   0.981  1.00 20.00     0.201 C 
ENDBRANCH   7   8
ENDBRANCH   2   7
TORSDOF 4
ENDMDL
MODEL 4
REMARK VINA RESULT:      -3.5     11.308     12.165
REMARK  4 active torsions:
REMARK  status: ('A' for Active; 'I' for Inactive)
REMARK    1  A    between atoms: C4_4  and  C6_6 
REMARK    2  A    between atoms: C4_4  and  C7_7 
REMARK    3  A    between atoms: C5_5  and  C6_6 
REMARK    4  A    between atoms: C5_5  and  O8_8 
ROOT
HETATM    1  C1  UNL     1     -36.637  14.412  -4.079  1.00 20.00     0.012 C 
HETATM    2  C6  UNL     1     -35.273  13.727  -3.995  1.00 20.00     0.007 C 
ENDROOT
BRANCH   2   3
HETATM    3  C4  UNL     1     -34.237  14.572  -3.216  1.00 20.00     0.026 C 
BRANCH   3   4
HETATM    4  C7  UNL     1     -34.639  16.027  -2.924  1.00 20.00     0.078 C 
HETATM    5  C2  UNL     1     -33.706  17.002  -3.635  1.00 20.00     0.026 C 
HETATM    6 CL9  UNL     1     -34.597  16.368  -1.169  1.00 20.00    -0.125 Cl
ENDBRANCH   3   4
ENDBRANCH   2   3
BRANCH   2   7
HETATM    7  C5  UNL     1     -34.760  13.431  -5.414  1.00 20.00     0.171 C 
BRANCH   7   8
HETATM    8  O8  UNL     1     -35.359  14.324  -6.343  1.00 20.00    -0.396 OA
HETATM    9  C3  UNL     1     -34.382  15.112  -7.011  1.00 20.00     0.201 C 
ENDBRANCH   7   8
ENDBRANCH   2   7
TORSDOF 4
ENDMDL
MODEL 5
REMARK VINA RESULT:      -3.5     11.567     12.941
REMARK  4 active torsions:
REMARK  status: ('A' for Active; 'I' for Inactive)
REMARK    1  A    between atoms: C4_4  and  C6_6 
REMARK    2  A    between atoms: C4_4  and  C7_7 
REMARK    3  A    between atoms: C5_5  and  C6_6 
REMARK    4  A    between atoms: C5_5  and  O8_8 
ROOT
HETATM    1  C1  UNL     1     -34.008  14.286  -3.323  1.00 20.00     0.012 C 
HETATM    2  C6  UNL     1     -35.259  13.811  -4.064  1.00 20.00     0.007 C 
ENDROOT
BRANCH   2   3
HETATM    3  C4  UNL     1     -35.017  13.654  -5.585  1.00 20.00     0.026 C 
BRANCH   3   4
HETATM    4  C7  UNL     1     -35.357  14.877  -6.451  1.00 20.00     0.078 C 
HETATM    5  C2  UNL     1     -35.692  14.458  -7.878  1.00 20.00     0.026 C 
HETATM    6 CL9  UNL     1     -33.994  16.034  -6.496  1.00 20.00    -0.125 Cl
ENDBRANCH   3   4
ENDBRANCH   2   3
BRANCH   2   7
HETATM    7  C5  UNL     1     -36.411  14.796  -3.807  1.00 20.00     0.171 C 
BRANCH   7   8
HETATM    8  O8  UNL     1     -37.651  14.103  -3.805  1.00 20.00    -0.396 OA
HETATM    9  C3  UNL     1     -38.739  14.982  -4.064  1.00 20.00     0.201 C 
ENDBRANCH   7   8
ENDBRANCH   2   7
TORSDOF 4
ENDMDL
MODEL 6
REMARK VINA RESULT:      -3.4     11.449     12.451
REMARK  4 active torsions:
REMARK  status: ('A' for Active; 'I' for Inactive)
REMARK    1  A    between atoms: C4_4  and  C6_6 
REMARK    2  A    between atoms: C4_4  and  C7_7 
REMARK    3  A    between atoms: C5_5  and  C6_6 
REMARK    4  A    between atoms: C5_5  and  O8_8 
ROOT
HETATM    1  C1  UNL     1     -34.181  13.705  -3.578  1.00 20.00     0.012 C 
HETATM    2  C6  UNL     1     -33.745  15.171  -3.543  1.00 20.00     0.007 C 
ENDROOT
BRANCH   2   3
HETATM    3  C4  UNL     1     -34.639  16.029  -2.617  1.00 20.00     0.026 C 
BRANCH   3   4
HETATM    4  C7  UNL     1     -33.905  16.850  -1.544  1.00 20.00     0.078 C 
HETATM    5  C2  UNL     1     -34.735  16.944  -0.268  1.00 20.00     0.026 C 
HETATM    6 CL9  UNL     1     -33.555  18.504  -2.127  1.00 20.00    -0.125 Cl
ENDBRANCH   3   4
ENDBRANCH   2   3
BRANCH   2   7
HETATM    7  C5  UNL     1     -33.755  15.741  -4.971  1.00 20.00     0.171 C 
BRANCH   7   8
HETATM    8  O8  UNL     1     -32.986  16.936  -5.022  1.00 20.00    -0.396 OA
HETATM    9  C3  UNL     1     -33.674  17.968  -5.718  1.00 20.00     0.201 C 
ENDBRANCH   7   8
ENDBRANCH   2   7
TORSDOF 4
ENDMDL
MODEL 7
REMARK VINA RESULT:      -3.4     11.006     11.950
REMARK  4 active torsions:
REMARK  status: ('A' for Active; 'I' for Inactive)
REMARK    1  A    between atoms: C4_4  and  C6_6 
REMARK    2  A    between atoms: C4_4  and  C7_7 
REMARK    3  A    between atoms: C5_5  and  C6_6 
REMARK    4  A    between atoms: C5_5  and  O8_8 
ROOT
HETATM    1  C1  UNL     1     -33.739  17.273  -4.049  1.00 20.00     0.012 C 
HETATM    2  C6  UNL     1     -33.776  16.288  -2.879  1.00 20.00     0.007 C 
ENDROOT
BRANCH   2   3
HETATM    3  C4  UNL     1     -35.000  15.343  -2.944  1.00 20.00     0.026 C 
BRANCH   3   4
HETATM    4  C7  UNL     1     -34.798  14.032  -3.722  1.00 20.00     0.078 C 
HETATM    5  C2  UNL     1     -33.327  13.631  -3.738  1.00 20.00     0.026 C 
HETATM    6 CL9  UNL     1     -35.371  14.188  -5.408  1.00 20.00    -0.125 Cl
ENDBRANCH   3   4
ENDBRANCH   2   3
BRANCH   2   7
HETATM    7  C5  UNL     1     -33.775  17.068  -1.554  1.00 20.00     0.171 C 
BRANCH   7   8
HETATM    8  O8  UNL     1     -34.694  16.480  -0.643  1.00 20.00    -0.396 OA
HETATM    9  C3  UNL     1     -35.008  17.366   0.424  1.00 20.00     0.201 C 
ENDBRANCH   7   8
ENDBRANCH   2   7
TORSDOF 4
ENDMDL
MODEL 8
REMARK VINA RESULT:      -3.4     11.449     12.307
REMARK  4 active torsions:
REMARK  status: ('A' for Active; 'I' for Inactive)
REMARK    1  A    between atoms: C4_4  and  C6_6 
REMARK    2  A    between atoms: C4_4  and  C7_7 
REMARK    3  A    between atoms: C5_5  and  C6_6 
REMARK    4  A    between atoms: C5_5  and  O8_8 
ROOT
HETATM    1  C1  UNL     1     -34.635  16.562  -0.912  1.00 20.00     0.012 C 
HETATM    2  C6  UNL     1     -34.735  15.892  -2.283  1.00 20.00     0.007 C 
ENDROOT
BRANCH   2   3
HETATM    3  C4  UNL     1     -33.746  16.498  -3.307  1.00 20.00     0.026 C 
BRANCH   3   4
HETATM    4  C7  UNL     1     -33.198  15.531  -4.368  1.00 20.00     0.078 C 
HETATM    5  C2  UNL     1     -33.982  15.650  -5.670  1.00 20.00     0.026 C 
HETATM    6 CL9  UNL     1     -33.280  13.837  -3.799  1.00 20.00    -0.125 Cl
ENDBRANCH   3   4
ENDBRANCH   2   3
BRANCH   2   7
HETATM    7  C5  UNL     1     -36.177  16.004  -2.803  1.00 20.00     0.171 C 
BRANCH   7   8
HETATM    8  O8  UNL     1     -36.619  14.742  -3.284  1.00 20.00    -0.396 OA
HETATM    9  C3  UNL     1     -37.829  14.861  -4.022  1.00 20.00     0.201 C 
ENDBRANCH   7   8
ENDBRANCH   2   7
TORSDOF 4
ENDMDL
MODEL 9
REMARK VINA RESULT:      -3.4      2.735      4.383
REMARK  4 active torsions:
REMARK  status: ('A' for Active; 'I' for Inactive)
REMARK    1  A    between atoms: C4_4  and  C6_6 
REMARK    2  A    between atoms: C4_4  and  C7_7 
REMARK    3  A    between atoms: C5_5  and  C6_6 
REMARK    4  A    between atoms: C5_5  and  O8_8 
ROOT
HETATM    1  C1  UNL     1     -35.526   5.671   3.306  1.00 20.00     0.012 C 
HETATM    2  C6  UNL     1     -34.289   6.139   4.074  1.00 20.00     0.007 C 
ENDROOT
BRANCH   2   3
HETATM    3  C4  UNL     1     -33.047   6.274   3.162  1.00 20.00     0.026 C 
BRANCH   3   4
HETATM    4  C7  UNL     1     -32.409   7.671   3.095  1.00 20.00     0.078 C 
HETATM    5  C2  UNL     1     -31.968   8.000   1.672  1.00 20.00     0.026 C 
HETATM    6 CL9  UNL     1     -30.991   7.784   4.178  1.00 20.00    -0.125 Cl
ENDBRANCH   3   4
ENDBRANCH   2   3
BRANCH   2   7
HETATM    7  C5  UNL     1     -34.002   5.162   5.225  1.00 20.00     0.171 C 
BRANCH   7   8
HETATM    8  O8  UNL     1     -34.390   5.742   6.463  1.00 20.00    -0.396 OA
HETATM    9  C3  UNL     1     -33.764   7.003   6.666  1.00 20.00     0.201 C 
ENDBRANCH   7   8
ENDBRANCH   2   7
TORSDOF 4
ENDMDL
