MODEL 1
REMARK VINA RESULT:      -4.5      0.000      0.000
REMARK  2 active torsions:
REMARK  status: ('A' for Active; 'I' for Inactive)
REMARK    1  A    between atoms: C3_3  and  C4_4 
REMARK    2  A    between atoms: C3_3  and  S9_9 
ROOT
HETATM    1  C1  UNL     1     -33.958   6.505   5.454  1.00 20.00     0.083 C 
HETATM    2  C3  UNL     1     -33.972   6.474   3.984  1.00 20.00     0.261 C 
HETATM    3  N5  UNL     1     -33.944   6.533   6.614  1.00 20.00    -0.196 NA
ENDROOT
BRANCH   2   4
HETATM    4  C4  UNL     1     -34.863   5.356   3.469  1.00 20.00     0.412 C 
HETATM    5  F6  UNL     1     -36.142   5.772   3.325  1.00 20.00    -0.169 F 
HETATM    6  F7  UNL     1     -34.446   4.932   2.252  1.00 20.00    -0.169 F 
HETATM    7  F8  UNL     1     -34.867   4.285   4.293  1.00 20.00    -0.169 F 
ENDBRANCH   2   4
BRANCH   2   8
HETATM    8  S9  UNL     1     -32.282   6.280   3.321  1.00 20.00    -0.145 SA
HETATM    9  C2  UNL     1     -32.174   7.853   2.441  1.00 20.00     0.091 C 
ENDBRANCH   2   8
TORSDOF 2
ENDMDL
MODEL 2
REMARK VINA RESULT:      -4.1      1.946      2.609
REMARK  2 active torsions:
REMARK  status: ('A' for Active; 'I' for Inactive)
REMARK    1  A    between atoms: C3_3  and  C4_4 
REMARK    2  A    between atoms: C3_3  and  S9_9 
ROOT
HETATM    1  C1  UNL     1     -33.998   6.502   6.068  1.00 20.00     0.083 C 
HETATM    2  C3  UNL     1     -34.860   5.646   5.238  1.00 20.00     0.261 C 
HETATM    3  N5  UNL     1     -33.320   7.182   6.718  1.00 20.00    -0.196 NA
ENDROOT
BRANCH   2   4
HETATM    4  C4  UNL     1     -34.837   4.208   5.729  1.00 20.00     0.412 C 
HETATM    5  F6  UNL     1     -33.623   3.878   6.227  1.00 20.00    -0.169 F 
HETATM    6  F7  UNL     1     -35.735   4.027   6.726  1.00 20.00    -0.169 F 
HETATM    7  F8  UNL     1     -35.134   3.327   4.748  1.00 20.00    -0.169 F 
ENDBRANCH   2   4
BRANCH   2   8
HETATM    8  S9  UNL     1     -34.351   5.713   3.486  1.00 20.00    -0.145 SA
HETATM    9  C2  UNL     1     -32.719   6.448   3.726  1.00 20.00     0.091 C 
ENDBRANCH   2   8
TORSDOF 2
ENDMDL
MODEL 3
REMARK VINA RESULT:      -3.9     11.656     12.344
REMARK  2 active torsions:
REMARK  status: ('A' for Active; 'I' for Inactive)
REMARK    1  A    between atoms: C3_3  and  C4_4 
REMARK    2  A    between atoms: C3_3  and  S9_9 
ROOT
HETATM    1  C1  UNL     1     -35.958  14.123  -4.331  1.00 20.00     0.083 C 
HETATM    2  C3  UNL     1     -34.603  14.101  -4.900  1.00 20.00     0.261 C 
HETATM    3  N5  UNL     1     -37.030  14.139  -3.886  1.00 20.00    -0.196 NA
ENDROOT
BRANCH   2   4
HETATM    4  C4  UNL     1     -33.559  14.403  -3.838  1.00 20.00     0.412 C 
HETATM    5  F6  UNL     1     -32.769  15.438  -4.205  1.00 20.00    -0.169 F 
HETATM    6  F7  UNL     1     -34.148  14.750  -2.670  1.00 20.00    -0.169 F 
HETATM    7  F8  UNL     1     -32.759  13.341  -3.590  1.00 20.00    -0.169 F 
ENDBRANCH   2   4
BRANCH   2   8
HETATM    8  S9  UNL     1     -34.455  15.294  -6.275  1.00 20.00    -0.145 SA
HETATM    9  C2  UNL     1     -35.503  14.434  -7.468  1.00 20.00     0.091 C 
ENDBRANCH   2   8
TORSDOF 2
ENDMDL
MODEL 4
REMARK VINA RESULT:      -3.9     11.664     12.339
REMARK  2 active torsions:
REMARK  status: ('A' for Active; 'I' for Inactive)
REMARK    1  A    between atoms: C3_3  and  C4_4 
REMARK    2  A    between atoms: C3_3  and  S9_9 
ROOT
HETATM    1  C1  UNL     1     -35.950  14.126  -4.330  1.00 20.00     0.083 C 
HETATM    2  C3  UNL     1     -34.593  14.110  -4.896  1.00 20.00     0.261 C 
HETATM    3  N5  UNL     1     -37.023  14.137  -3.889  1.00 20.00    -0.196 NA
ENDROOT
BRANCH   2   4
HETATM    4  C4  UNL     1     -33.554  14.426  -3.834  1.00 20.00     0.412 C 
HETATM    5  F6  UNL     1     -34.137  14.759  -2.659  1.00 20.00    -0.169 F 
HETATM    6  F7  UNL     1     -32.770  13.348  -3.593  1.00 20.00    -0.169 F 
HETATM    7  F8  UNL     1     -32.744  15.445  -4.197  1.00 20.00    -0.169 F 
ENDBRANCH   2   4
BRANCH   2   8
HETATM    8  S9  UNL     1     -34.450  15.295  -6.278  1.00 20.00    -0.145 SA
HETATM    9  C2  UNL     1     -35.510  14.434  -7.460  1.00 20.00     0.091 C 
ENDBRANCH   2   8
TORSDOF 2
ENDMDL
MODEL 5
REMARK VINA RESULT:      -3.9     11.770     12.451
REMARK  2 active torsions:
REMARK  status: ('A' for Active; 'I' for Inactive)
REMARK    1  A    between atoms: C3_3  and  C4_4 
REMARK    2  A    between atoms: C3_3  and  S9_9 
ROOT
HETATM    1  C1  UNL     1     -34.725  13.687  -4.562  1.00 20.00     0.083 C 
HETATM    2  C3  UNL     1     -34.629  15.135  -4.325  1.00 20.00     0.261 C 
HETATM    3  N5  UNL     1     -34.807  12.545  -4.750  1.00 20.00    -0.196 NA
ENDROOT
BRANCH   2   4
HETATM    4  C4  UNL     1     -33.232  15.522  -3.868  1.00 20.00     0.412 C 
HETATM    5  F6  UNL     1     -32.599  16.269  -4.801  1.00 20.00    -0.169 F 
HETATM    6  F7  UNL     1     -33.285  16.264  -2.737  1.00 20.00    -0.169 F 
HETATM    7  F8  UNL     1     -32.461  14.442  -3.611  1.00 20.00    -0.169 F 
ENDBRANCH   2   4
BRANCH   2   8
HETATM    8  S9  UNL     1     -35.860  15.676  -3.090  1.00 20.00    -0.145 SA
HETATM    9  C2  UNL     1     -37.314  14.898  -3.826  1.00 20.00     0.091 C 
ENDBRANCH   2   8
TORSDOF 2
ENDMDL
MODEL 6
REMARK VINA RESULT:      -3.8      1.989      2.720
REMARK  2 active torsions:
REMARK  status: ('A' for Active; 'I' for Inactive)
REMARK    1  A    between atoms: C3_3  and  C4_4 
REMARK    2  A    between atoms: C3_3  and  S9_9 
ROOT
HETATM    1  C1  UNL     1     -32.707   6.760   3.387  1.00 20.00     0.083 C 
HETATM    2  C3  UNL     1     -33.442   5.800   4.223  1.00 20.00     0.261 C 
HETATM    3  N5  UNL     1     -32.123   7.519   2.732  1.00 20.00    -0.196 NA
ENDROOT
BRANCH   2   4
HETATM    4  C4  UNL     1     -34.647   5.242   3.484  1.00 20.00     0.412 C 
HETATM    5  F6  UNL     1     -35.708   6.076   3.574  1.00 20.00    -0.169 F 
HETATM    6  F7  UNL     1     -34.374   5.091   2.167  1.00 20.00    -0.169 F 
HETATM    7  F8  UNL     1     -35.027   4.036   3.962  1.00 20.00    -0.169 F 
ENDBRANCH   2   4
BRANCH   2   8
HETATM    8  S9  UNL     1     -33.976   6.574   5.788  1.00 20.00    -0.145 SA
HETATM    9  C2  UNL     1     -34.662   5.101   6.577  1.00 20.00     0.091 C 
ENDBRANCH   2   8
TORSDOF 2
ENDMDL
MODEL 7
REMARK VINA RESULT:      -3.8     11.651     12.320
REMARK  2 active torsions:
REMARK  status: ('A' for Active; 'I' for Inactive)
REMARK    1  A    between atoms: C3_3  and  C4_4 
REMARK    2  A    between atoms: C3_3  and  S9_9 
ROOT
HETATM    1  C1  UNL     1     -33.306  16.466  -4.443  1.00 20.00     0.083 C 
HETATM    2  C3  UNL     1     -33.464  15.494  -3.351  1.00 20.00     0.261 C 
HETATM    3  N5  UNL     1     -33.180  17.238  -5.300  1.00 20.00    -0.196 NA
ENDROOT
BRANCH   2   4
HETATM    4  C4  UNL     1     -33.710  14.097  -3.895  1.00 20.00     0.412 C 
HETATM    5  F6  UNL     1     -32.658  13.281  -3.651  1.00 20.00    -0.169 F 
HETATM    6  F7  UNL     1     -34.790  13.535  -3.305  1.00 20.00    -0.169 F 
HETATM    7  F8  UNL     1     -33.930  14.099  -5.229  1.00 20.00    -0.169 F 
ENDBRANCH   2   4
BRANCH   2   8
HETATM    8  S9  UNL     1     -34.829  15.978  -2.240  1.00 20.00    -0.145 SA
HETATM    9  C2  UNL     1     -33.911  17.137  -1.203  1.00 20.00     0.091 C 
ENDBRANCH   2   8
TORSDOF 2
ENDMDL
MODEL 8
REMARK VINA RESULT:      -3.8     11.385     11.884
REMARK  2 active torsions:
REMARK  status: ('A' for Active; 'I' for Inactive)
REMARK    1  A    between atoms: C3_3  and  C4_4 
REMARK    2  A    between atoms: C3_3  and  S9_9 
ROOT
HETATM    1  C1  UNL     1     -36.994  14.682  -3.836  1.00 20.00     0.083 C 
HETATM    2  C3  UNL     1     -35.585  15.081  -3.976  1.00 20.00     0.261 C 
HETATM    3  N5  UNL     1     -38.106  14.373  -3.726  1.00 20.00    -0.196 NA
ENDROOT
BRANCH   2   4
HETATM    4  C4  UNL     1     -34.698  13.874  -4.233  1.00 20.00     0.412 C 
HETATM    5  F6  UNL     1     -35.419  12.730  -4.255  1.00 20.00    -0.169 F 
HETATM    6  F7  UNL     1     -34.085  13.977  -5.436  1.00 20.00    -0.169 F 
HETATM    7  F8  UNL     1     -33.735  13.738  -3.295  1.00 20.00    -0.169 F 
ENDBRANCH   2   4
BRANCH   2   8
HETATM    8  S9  UNL     1     -35.010  15.970  -2.489  1.00 20.00    -0.145 SA
HETATM    9  C2  UNL     1     -33.814  17.059  -3.293  1.00 20.00     0.091 C 
ENDBRANCH   2   8
TORSDOF 2
ENDMDL
MODEL 9
REMARK VINA RESULT:      -3.8     11.577     12.288
REMARK  2 active torsions:
REMARK  status: ('A' for Active; 'I' for Inactive)
REMARK    1  A    between atoms: C3_3  and  C4_4 
REMARK    2  A    between atoms: C3_3  and  S9_9 
ROOT
HETATM    1  C1  UNL     1     -34.384  13.887  -3.812  1.00 20.00     0.083 C 
HETATM    2  C3  UNL     1     -33.872  15.179  -3.331  1.00 20.00     0.261 C 
HETATM    3  N5  UNL     1     -34.783  12.867  -4.194  1.00 20.00    -0.196 NA
ENDROOT
BRANCH   2   4
HETATM    4  C4  UNL     1     -34.931  15.924  -2.536  1.00 20.00     0.412 C 
HETATM    5  F6  UNL     1     -36.154  15.372  -2.707  1.00 20.00    -0.169 F 
HETATM    6  F7  UNL     1     -34.658  15.876  -1.211  1.00 20.00    -0.169 F 
HETATM    7  F8  UNL     1     -35.013  17.227  -2.888  1.00 20.00    -0.169 F 
ENDBRANCH   2   4
BRANCH   2   8
HETATM    8  S9  UNL     1     -33.299  16.211  -4.723  1.00 20.00    -0.145 SA
HETATM    9  C2  UNL     1     -34.680  15.909  -5.847  1.00 20.00     0.091 C 
ENDBRANCH   2   8
TORSDOF 2
ENDMDL
