MODEL 1
REMARK VINA RESULT:      -5.3      0.000      0.000
REMARK  3 active torsions:
REMARK  status: ('A' for Active; 'I' for Inactive)
REMARK    1  A    between atoms: C3_3  and  C9_9 
REMARK    2  A    between atoms: C7_7  and  O11_11 
REMARK    3  A    between atoms: C9_9  and  O11_11 
ROOT
HETATM    1  C1  UNL     1     -34.979   4.778   5.837  1.00 20.00     0.129 C 
HETATM    2  C4  UNL     1     -34.369   6.013   6.447  1.00 20.00     0.081 C 
HETATM    3  C5  UNL     1     -34.820   4.739   4.339  1.00 20.00     0.110 C 
HETATM    4  C6  UNL     1     -33.520   6.533   5.296  1.00 20.00     0.040 C 
HETATM    5  C7  UNL     1     -34.291   6.138   4.041  1.00 20.00     0.129 C 
HETATM    6  O10 UNL     1     -35.551   3.910   6.484  1.00 20.00    -0.298 OA
ENDROOT
BRANCH   5   7
HETATM    7  O11 UNL     1     -33.438   6.117   2.911  1.00 20.00    -0.382 OA
BRANCH   7   8
HETATM    8  C9  UNL     1     -32.157   6.653   3.217  1.00 20.00     0.195 C 
BRANCH   8   9
HETATM    9  C3  UNL     1     -31.821   7.699   2.206  1.00 20.00    -0.005 C 
HETATM   10  C2  UNL     1     -32.572   8.788   1.984  1.00 20.00    -0.033 C 
HETATM   11  C8  UNL     1     -32.242   9.834   0.971  1.00 20.00     0.036 C 
ENDBRANCH   8   9
ENDBRANCH   7   8
ENDBRANCH   5   7
TORSDOF 3
ENDMDL
MODEL 2
REMARK VINA RESULT:      -4.8     11.023     12.224
REMARK  3 active torsions:
REMARK  status: ('A' for Active; 'I' for Inactive)
REMARK    1  A    between atoms: C3_3  and  C9_9 
REMARK    2  A    between atoms: C7_7  and  O11_11 
REMARK    3  A    between atoms: C9_9  and  O11_11 
ROOT
HETATM    1  C1  UNL     1     -34.459  13.648  -4.746  1.00 20.00     0.129 C 
HETATM    2  C4  UNL     1     -34.449  14.702  -5.823  1.00 20.00     0.081 C 
HETATM    3  C5  UNL     1     -33.993  14.182  -3.417  1.00 20.00     0.110 C 
HETATM    4  C6  UNL     1     -34.304  15.974  -5.002  1.00 20.00     0.040 C 
HETATM    5  C7  UNL     1     -33.466  15.562  -3.797  1.00 20.00     0.129 C 
HETATM    6  O10 UNL     1     -34.797  12.486  -4.933  1.00 20.00    -0.298 OA
ENDROOT
BRANCH   5   7
HETATM    7  O11 UNL     1     -33.638  16.473  -2.727  1.00 20.00    -0.382 OA
BRANCH   7   8
HETATM    8  C9  UNL     1     -34.721  16.093  -1.890  1.00 20.00     0.195 C 
BRANCH   8   9
HETATM    9  C3  UNL     1     -34.622  16.848  -0.605  1.00 20.00    -0.005 C 
HETATM   10  C2  UNL     1     -33.694  17.784  -0.362  1.00 20.00    -0.033 C 
HETATM   11  C8  UNL     1     -33.589  18.538   0.922  1.00 20.00     0.036 C 
ENDBRANCH   8   9
ENDBRANCH   7   8
ENDBRANCH   5   7
TORSDOF 3
ENDMDL
MODEL 3
REMARK VINA RESULT:      -4.3     11.416     12.693
REMARK  3 active torsions:
REMARK  status: ('A' for Active; 'I' for Inactive)
REMARK    1  A    between atoms: C3_3  and  C9_9 
REMARK    2  A    between atoms: C7_7  and  O11_11 
REMARK    3  A    between atoms: C9_9  and  O11_11 
ROOT
HETATM    1  C1  UNL     1     -36.731  15.101  -5.937  1.00 20.00     0.129 C 
HETATM    2  C4  UNL     1     -35.579  14.570  -6.749  1.00 20.00     0.081 C 
HETATM    3  C5  UNL     1     -36.515  14.929  -4.456  1.00 20.00     0.110 C 
HETATM    4  C6  UNL     1     -34.506  14.402  -5.683  1.00 20.00     0.040 C 
HETATM    5  C7  UNL     1     -35.275  14.043  -4.416  1.00 20.00     0.129 C 
HETATM    6  O10 UNL     1     -37.734  15.605  -6.425  1.00 20.00    -0.298 OA
ENDROOT
BRANCH   5   7
HETATM    7  O11 UNL     1     -34.502  14.318  -3.263  1.00 20.00    -0.382 OA
BRANCH   7   8
HETATM    8  C9  UNL     1     -33.600  15.393  -3.485  1.00 20.00     0.195 C 
BRANCH   8   9
HETATM    9  C3  UNL     1     -33.756  16.386  -2.381  1.00 20.00    -0.005 C 
HETATM   10  C2  UNL     1     -34.637  16.252  -1.379  1.00 20.00    -0.033 C 
HETATM   11  C8  UNL     1     -34.799  17.244  -0.275  1.00 20.00     0.036 C 
ENDBRANCH   8   9
ENDBRANCH   7   8
ENDBRANCH   5   7
TORSDOF 3
ENDMDL
MODEL 4
REMARK VINA RESULT:      -4.2     10.857     12.803
REMARK  3 active torsions:
REMARK  status: ('A' for Active; 'I' for Inactive)
REMARK    1  A    between atoms: C3_3  and  C9_9 
REMARK    2  A    between atoms: C7_7  and  O11_11 
REMARK    3  A    between atoms: C9_9  and  O11_11 
ROOT
HETATM    1  C1  UNL     1     -34.639  13.589  -4.033  1.00 20.00     0.129 C 
HETATM    2  C4  UNL     1     -33.190  13.769  -3.660  1.00 20.00     0.081 C 
HETATM    3  C5  UNL     1     -35.443  14.846  -3.827  1.00 20.00     0.110 C 
HETATM    4  C6  UNL     1     -33.085  15.283  -3.567  1.00 20.00     0.040 C 
HETATM    5  C7  UNL     1     -34.456  15.735  -3.078  1.00 20.00     0.129 C 
HETATM    6  O10 UNL     1     -35.111  12.538  -4.445  1.00 20.00    -0.298 OA
ENDROOT
BRANCH   5   7
HETATM    7  O11 UNL     1     -34.679  17.098  -3.388  1.00 20.00    -0.382 OA
BRANCH   7   8
HETATM    8  C9  UNL     1     -33.652  17.615  -4.225  1.00 20.00     0.195 C 
BRANCH   8   9
HETATM    9  C3  UNL     1     -34.248  17.980  -5.545  1.00 20.00    -0.005 C 
HETATM   10  C2  UNL     1     -34.297  17.149  -6.595  1.00 20.00    -0.033 C 
HETATM   11  C8  UNL     1     -34.887  17.511  -7.917  1.00 20.00     0.036 C 
ENDBRANCH   8   9
ENDBRANCH   7   8
ENDBRANCH   5   7
TORSDOF 3
ENDMDL
MODEL 5
REMARK VINA RESULT:      -4.2     11.586     12.598
REMARK  3 active torsions:
REMARK  status: ('A' for Active; 'I' for Inactive)
REMARK    1  A    between atoms: C3_3  and  C9_9 
REMARK    2  A    between atoms: C7_7  and  O11_11 
REMARK    3  A    between atoms: C9_9  and  O11_11 
ROOT
HETATM    1  C1  UNL     1     -37.323  14.955  -4.120  1.00 20.00     0.129 C 
HETATM    2  C4  UNL     1     -37.599  16.209  -4.908  1.00 20.00     0.081 C 
HETATM    3  C5  UNL     1     -35.851  14.739  -3.883  1.00 20.00     0.110 C 
HETATM    4  C6  UNL     1     -36.259  16.924  -4.820  1.00 20.00     0.040 C 
HETATM    5  C7  UNL     1     -35.226  15.804  -4.778  1.00 20.00     0.129 C 
HETATM    6  O10 UNL     1     -38.195  14.191  -3.727  1.00 20.00    -0.298 OA
ENDROOT
BRANCH   5   7
HETATM    7  O11 UNL     1     -34.006  16.264  -4.228  1.00 20.00    -0.382 OA
BRANCH   7   8
HETATM    8  C9  UNL     1     -33.744  15.662  -2.967  1.00 20.00     0.195 C 
BRANCH   8   9
HETATM    9  C3  UNL     1     -33.855  16.707  -1.906  1.00 20.00    -0.005 C 
HETATM   10  C2  UNL     1     -34.631  16.585  -0.820  1.00 20.00    -0.033 C 
HETATM   11  C8  UNL     1     -34.748  17.629   0.241  1.00 20.00     0.036 C 
ENDBRANCH   8   9
ENDBRANCH   7   8
ENDBRANCH   5   7
TORSDOF 3
ENDMDL
MODEL 6
REMARK VINA RESULT:      -4.1     11.309     12.808
REMARK  3 active torsions:
REMARK  status: ('A' for Active; 'I' for Inactive)
REMARK    1  A    between atoms: C3_3  and  C9_9 
REMARK    2  A    between atoms: C7_7  and  O11_11 
REMARK    3  A    between atoms: C9_9  and  O11_11 
ROOT
HETATM    1  C1  UNL     1     -33.705  18.029  -2.642  1.00 20.00     0.129 C 
HETATM    2  C4  UNL     1     -33.954  17.626  -1.212  1.00 20.00     0.081 C 
HETATM    3  C5  UNL     1     -33.863  16.875  -3.597  1.00 20.00     0.110 C 
HETATM    4  C6  UNL     1     -34.622  16.270  -1.389  1.00 20.00     0.040 C 
HETATM    5  C7  UNL     1     -33.985  15.689  -2.646  1.00 20.00     0.129 C 
HETATM    6  O10 UNL     1     -33.397  19.162  -2.987  1.00 20.00    -0.298 OA
ENDROOT
BRANCH   5   7
HETATM    7  O11 UNL     1     -34.806  14.683  -3.208  1.00 20.00    -0.382 OA
BRANCH   7   8
HETATM    8  C9  UNL     1     -34.096  13.905  -4.162  1.00 20.00     0.195 C 
BRANCH   8   9
HETATM    9  C3  UNL     1     -34.909  13.820  -5.412  1.00 20.00    -0.005 C 
HETATM   10  C2  UNL     1     -34.682  14.572  -6.498  1.00 20.00    -0.033 C 
HETATM   11  C8  UNL     1     -35.495  14.493  -7.749  1.00 20.00     0.036 C 
ENDBRANCH   8   9
ENDBRANCH   7   8
ENDBRANCH   5   7
TORSDOF 3
ENDMDL
MODEL 7
REMARK VINA RESULT:      -4.1     11.260     12.649
REMARK  3 active torsions:
REMARK  status: ('A' for Active; 'I' for Inactive)
REMARK    1  A    between atoms: C3_3  and  C9_9 
REMARK    2  A    between atoms: C7_7  and  O11_11 
REMARK    3  A    between atoms: C9_9  and  O11_11 
ROOT
HETATM    1  C1  UNL     1     -34.448  13.678  -4.846  1.00 20.00     0.129 C 
HETATM    2  C4  UNL     1     -34.580  14.565  -6.057  1.00 20.00     0.081 C 
HETATM    3  C5  UNL     1     -33.858  14.405  -3.666  1.00 20.00     0.110 C 
HETATM    4  C6  UNL     1     -34.384  15.945  -5.447  1.00 20.00     0.040 C 
HETATM    5  C7  UNL     1     -33.412  15.721  -4.294  1.00 20.00     0.129 C 
HETATM    6  O10 UNL     1     -34.772  12.498  -4.827  1.00 20.00    -0.298 OA
ENDROOT
BRANCH   5   7
HETATM    7  O11 UNL     1     -33.494  16.776  -3.354  1.00 20.00    -0.382 OA
BRANCH   7   8
HETATM    8  C9  UNL     1     -34.013  16.324  -2.110  1.00 20.00     0.195 C 
BRANCH   8   9
HETATM    9  C3  UNL     1     -35.150  17.208  -1.715  1.00 20.00    -0.005 C 
HETATM   10  C2  UNL     1     -36.247  17.387  -2.464  1.00 20.00    -0.033 C 
HETATM   11  C8  UNL     1     -37.384  18.274  -2.075  1.00 20.00     0.036 C 
ENDBRANCH   8   9
ENDBRANCH   7   8
ENDBRANCH   5   7
TORSDOF 3
ENDMDL
MODEL 8
REMARK VINA RESULT:      -4.0     11.648     12.283
REMARK  3 active torsions:
REMARK  status: ('A' for Active; 'I' for Inactive)
REMARK    1  A    between atoms: C3_3  and  C9_9 
REMARK    2  A    between atoms: C7_7  and  O11_11 
REMARK    3  A    between atoms: C9_9  and  O11_11 
ROOT
HETATM    1  C1  UNL     1     -33.067  18.507   3.501  1.00 20.00     0.129 C 
HETATM    2  C4  UNL     1     -31.732  18.994   3.002  1.00 20.00     0.081 C 
HETATM    3  C5  UNL     1     -34.088  18.406   2.398  1.00 20.00     0.110 C 
HETATM    4  C6  UNL     1     -31.892  18.834   1.497  1.00 20.00     0.040 C 
HETATM    5  C7  UNL     1     -33.372  19.090   1.238  1.00 20.00     0.129 C 
HETATM    6  O10 UNL     1     -33.299  18.235   4.672  1.00 20.00    -0.298 OA
ENDROOT
BRANCH   5   7
HETATM    7  O11 UNL     1     -33.773  18.527   0.003  1.00 20.00    -0.382 OA
BRANCH   7   8
HETATM    8  C9  UNL     1     -34.780  17.541   0.184  1.00 20.00     0.195 C 
BRANCH   8   9
HETATM    9  C3  UNL     1     -34.664  16.530  -0.910  1.00 20.00    -0.005 C 
HETATM   10  C2  UNL     1     -33.861  16.675  -1.973  1.00 20.00    -0.033 C 
HETATM   11  C8  UNL     1     -33.745  15.669  -3.071  1.00 20.00     0.036 C 
ENDBRANCH   8   9
ENDBRANCH   7   8
ENDBRANCH   5   7
TORSDOF 3
ENDMDL
MODEL 9
REMARK VINA RESULT:      -4.0     10.237     10.855
REMARK  3 active torsions:
REMARK  status: ('A' for Active; 'I' for Inactive)
REMARK    1  A    between atoms: C3_3  and  C9_9 
REMARK    2  A    between atoms: C7_7  and  O11_11 
REMARK    3  A    between atoms: C9_9  and  O11_11 
ROOT
HETATM    1  C1  UNL     1     -41.166   5.072  -1.447  1.00 20.00     0.129 C 
HETATM    2  C4  UNL     1     -40.689   5.983  -0.347  1.00 20.00     0.081 C 
HETATM    3  C5  UNL     1     -42.198   5.728  -2.327  1.00 20.00     0.110 C 
HETATM    4  C6  UNL     1     -41.209   7.332  -0.821  1.00 20.00     0.040 C 
HETATM    5  C7  UNL     1     -42.504   7.008  -1.556  1.00 20.00     0.129 C 
HETATM    6  O10 UNL     1     -40.769   3.924  -1.602  1.00 20.00    -0.298 OA
ENDROOT
BRANCH   5   7
HETATM    7  O11 UNL     1     -42.854   8.053  -2.445  1.00 20.00    -0.382 OA
BRANCH   7   8
HETATM    8  C9  UNL     1     -42.630   7.681  -3.798  1.00 20.00     0.195 C 
BRANCH   8   9
HETATM    9  C3  UNL     1     -42.615   8.915  -4.639  1.00 20.00    -0.005 C 
HETATM   10  C2  UNL     1     -41.683   9.171  -5.567  1.00 20.00    -0.033 C 
HETATM   11  C8  UNL     1     -41.661  10.406  -6.406  1.00 20.00     0.036 C 
ENDBRANCH   8   9
ENDBRANCH   7   8
ENDBRANCH   5   7
TORSDOF 3
ENDMDL
