MODEL 1
REMARK VINA RESULT:      -5.3      0.000      0.000
REMARK  3 active torsions:
REMARK  status: ('A' for Active; 'I' for Inactive)
REMARK    1  A    between atoms: C7_7  and  C9_9 
REMARK    2  A    between atoms: C8_8  and  O11_11 
REMARK    3  A    between atoms: C9_9  and  O11_11 
ROOT
HETATM    1  C1  UNL     1     -34.946   4.970   5.688  1.00 20.00     0.129 C 
HETATM    2  C2  UNL     1     -35.456   4.810   4.280  1.00 20.00     0.081 C 
HETATM    3  C3  UNL     1     -33.830   5.978   5.782  1.00 20.00     0.110 C 
HETATM    4  C4  UNL     1     -34.359   5.492   3.479  1.00 20.00     0.040 C 
HETATM    5  C8  UNL     1     -33.848   6.602   4.390  1.00 20.00     0.128 C 
HETATM    6  O10 UNL     1     -35.395   4.359   6.650  1.00 20.00    -0.298 OA
ENDROOT
BRANCH   5   7
HETATM    7  O11 UNL     1     -32.547   7.010   4.010  1.00 20.00    -0.385 OA
BRANCH   7   8
HETATM    8  C9  UNL     1     -32.399   7.026   2.597  1.00 20.00     0.172 C 
BRANCH   8   9
HETATM    9  C7  UNL     1     -31.785   8.346   2.182  1.00 20.00     0.009 A 
HETATM   10  C5  UNL     1     -31.772   8.753   0.734  1.00 20.00     0.007 A 
HETATM   11  C6  UNL     1     -32.661   9.473   1.709  1.00 20.00     0.007 A 
ENDBRANCH   8   9
ENDBRANCH   7   8
ENDBRANCH   5   7
TORSDOF 3
ENDMDL
MODEL 2
REMARK VINA RESULT:      -4.7     10.646     11.952
REMARK  3 active torsions:
REMARK  status: ('A' for Active; 'I' for Inactive)
REMARK    1  A    between atoms: C7_7  and  C9_9 
REMARK    2  A    between atoms: C8_8  and  O11_11 
REMARK    3  A    between atoms: C9_9  and  O11_11 
ROOT
HETATM    1  C1  UNL     1     -34.665  13.631  -4.192  1.00 20.00     0.129 C 
HETATM    2  C2  UNL     1     -33.195  13.538  -3.875  1.00 20.00     0.081 C 
HETATM    3  C3  UNL     1     -35.127  15.056  -4.356  1.00 20.00     0.110 C 
HETATM    4  C4  UNL     1     -32.874  14.975  -3.496  1.00 20.00     0.040 C 
HETATM    5  C8  UNL     1     -33.806  15.819  -4.359  1.00 20.00     0.128 C 
HETATM    6  O10 UNL     1     -35.398  12.658  -4.314  1.00 20.00    -0.298 OA
ENDROOT
BRANCH   5   7
HETATM    7  O11 UNL     1     -33.977  17.110  -3.804  1.00 20.00    -0.385 OA
BRANCH   7   8
HETATM    8  C9  UNL     1     -35.240  17.240  -3.169  1.00 20.00     0.172 C 
BRANCH   8   9
HETATM    9  C7  UNL     1     -35.028  17.669  -1.733  1.00 20.00     0.009 A 
HETATM   10  C5  UNL     1     -34.653  16.655  -0.687  1.00 20.00     0.007 A 
HETATM   11  C6  UNL     1     -33.646  17.675  -1.141  1.00 20.00     0.007 A 
ENDBRANCH   8   9
ENDBRANCH   7   8
ENDBRANCH   5   7
TORSDOF 3
ENDMDL
MODEL 3
REMARK VINA RESULT:      -4.7     11.155     12.285
REMARK  3 active torsions:
REMARK  status: ('A' for Active; 'I' for Inactive)
REMARK    1  A    between atoms: C7_7  and  C9_9 
REMARK    2  A    between atoms: C8_8  and  O11_11 
REMARK    3  A    between atoms: C9_9  and  O11_11 
ROOT
HETATM    1  C1  UNL     1     -34.599  13.677  -4.916  1.00 20.00     0.129 C 
HETATM    2  C2  UNL     1     -34.742  14.478  -6.183  1.00 20.00     0.081 C 
HETATM    3  C3  UNL     1     -34.207  14.532  -3.739  1.00 20.00     0.110 C 
HETATM    4  C4  UNL     1     -34.067  15.784  -5.796  1.00 20.00     0.040 C 
HETATM    5  C8  UNL     1     -34.353  15.940  -4.307  1.00 20.00     0.128 C 
HETATM    6  O10 UNL     1     -34.791  12.469  -4.847  1.00 20.00    -0.298 OA
ENDROOT
BRANCH   5   7
HETATM    7  O11 UNL     1     -33.422  16.819  -3.702  1.00 20.00    -0.385 OA
BRANCH   7   8
HETATM    8  C9  UNL     1     -34.047  17.656  -2.740  1.00 20.00     0.172 C 
BRANCH   8   9
HETATM    9  C7  UNL     1     -33.689  17.163  -1.353  1.00 20.00     0.009 A 
HETATM   10  C5  UNL     1     -33.802  18.084  -0.170  1.00 20.00     0.007 A 
HETATM   11  C6  UNL     1     -34.766  16.941  -0.328  1.00 20.00     0.007 A 
ENDBRANCH   8   9
ENDBRANCH   7   8
ENDBRANCH   5   7
TORSDOF 3
ENDMDL
MODEL 4
REMARK VINA RESULT:      -4.7     11.027     11.966
REMARK  3 active torsions:
REMARK  status: ('A' for Active; 'I' for Inactive)
REMARK    1  A    between atoms: C7_7  and  C9_9 
REMARK    2  A    between atoms: C8_8  and  O11_11 
REMARK    3  A    between atoms: C9_9  and  O11_11 
ROOT
HETATM    1  C1  UNL     1     -36.218  14.348  -4.083  1.00 20.00     0.129 C 
HETATM    2  C2  UNL     1     -35.133  13.311  -4.206  1.00 20.00     0.081 C 
HETATM    3  C3  UNL     1     -35.682  15.753  -4.179  1.00 20.00     0.110 C 
HETATM    4  C4  UNL     1     -33.883  14.154  -4.013  1.00 20.00     0.040 C 
HETATM    5  C8  UNL     1     -34.238  15.512  -4.608  1.00 20.00     0.128 C 
HETATM    6  O10 UNL     1     -37.404  14.080  -3.935  1.00 20.00    -0.298 OA
ENDROOT
BRANCH   5   7
HETATM    7  O11 UNL     1     -33.391  16.525  -4.095  1.00 20.00    -0.385 OA
BRANCH   7   8
HETATM    8  C9  UNL     1     -34.075  17.351  -3.164  1.00 20.00     0.172 C 
BRANCH   8   9
HETATM    9  C7  UNL     1     -33.623  16.993  -1.764  1.00 20.00     0.009 A 
HETATM   10  C5  UNL     1     -33.879  17.935  -0.620  1.00 20.00     0.007 A 
HETATM   11  C6  UNL     1     -34.634  16.638  -0.710  1.00 20.00     0.007 A 
ENDBRANCH   8   9
ENDBRANCH   7   8
ENDBRANCH   5   7
TORSDOF 3
ENDMDL
MODEL 5
REMARK VINA RESULT:      -4.5     10.816     12.159
REMARK  3 active torsions:
REMARK  status: ('A' for Active; 'I' for Inactive)
REMARK    1  A    between atoms: C7_7  and  C9_9 
REMARK    2  A    between atoms: C8_8  and  O11_11 
REMARK    3  A    between atoms: C9_9  and  O11_11 
ROOT
HETATM    1  C1  UNL     1     -34.522  14.427  -5.796  1.00 20.00     0.129 C 
HETATM    2  C2  UNL     1     -34.513  13.176  -4.957  1.00 20.00     0.081 C 
HETATM    3  C3  UNL     1     -33.995  15.623  -5.046  1.00 20.00     0.110 C 
HETATM    4  C4  UNL     1     -34.303  13.745  -3.563  1.00 20.00     0.040 C 
HETATM    5  C8  UNL     1     -33.439  14.983  -3.777  1.00 20.00     0.128 C 
HETATM    6  O10 UNL     1     -34.902  14.465  -6.959  1.00 20.00    -0.298 OA
ENDROOT
BRANCH   5   7
HETATM    7  O11 UNL     1     -33.549  15.872  -2.682  1.00 20.00    -0.385 OA
BRANCH   7   8
HETATM    8  C9  UNL     1     -34.904  16.068  -2.306  1.00 20.00     0.172 C 
BRANCH   8   9
HETATM    9  C7  UNL     1     -34.993  17.273  -1.393  1.00 20.00     0.009 A 
HETATM   10  C5  UNL     1     -34.765  17.122   0.086  1.00 20.00     0.007 A 
HETATM   11  C6  UNL     1     -33.751  17.838  -0.762  1.00 20.00     0.007 A 
ENDBRANCH   8   9
ENDBRANCH   7   8
ENDBRANCH   5   7
TORSDOF 3
ENDMDL
MODEL 6
REMARK VINA RESULT:      -4.1     10.741     12.670
REMARK  3 active torsions:
REMARK  status: ('A' for Active; 'I' for Inactive)
REMARK    1  A    between atoms: C7_7  and  C9_9 
REMARK    2  A    between atoms: C8_8  and  O11_11 
REMARK    3  A    between atoms: C9_9  and  O11_11 
ROOT
HETATM    1  C1  UNL     1     -34.289  13.633  -4.654  1.00 20.00     0.129 C 
HETATM    2  C2  UNL     1     -33.185  13.828  -3.648  1.00 20.00     0.081 C 
HETATM    3  C3  UNL     1     -34.607  14.899  -5.407  1.00 20.00     0.110 C 
HETATM    4  C4  UNL     1     -33.105  15.345  -3.573  1.00 20.00     0.040 C 
HETATM    5  C8  UNL     1     -33.471  15.820  -4.974  1.00 20.00     0.128 C 
HETATM    6  O10 UNL     1     -34.855  12.565  -4.845  1.00 20.00    -0.298 OA
ENDROOT
BRANCH   5   7
HETATM    7  O11 UNL     1     -33.904  17.168  -4.954  1.00 20.00    -0.385 OA
BRANCH   7   8
HETATM    8  C9  UNL     1     -33.881  17.701  -3.638  1.00 20.00     0.172 C 
BRANCH   8   9
HETATM    9  C7  UNL     1     -35.243  18.280  -3.317  1.00 20.00     0.009 A 
HETATM   10  C5  UNL     1     -36.432  17.938  -4.173  1.00 20.00     0.007 A 
HETATM   11  C6  UNL     1     -36.332  17.396  -2.774  1.00 20.00     0.007 A 
ENDBRANCH   8   9
ENDBRANCH   7   8
ENDBRANCH   5   7
TORSDOF 3
ENDMDL
MODEL 7
REMARK VINA RESULT:      -4.1     10.912     12.027
REMARK  3 active torsions:
REMARK  status: ('A' for Active; 'I' for Inactive)
REMARK    1  A    between atoms: C7_7  and  C9_9 
REMARK    2  A    between atoms: C8_8  and  O11_11 
REMARK    3  A    between atoms: C9_9  and  O11_11 
ROOT
HETATM    1  C1  UNL     1     -34.410  17.364  -0.311  1.00 20.00     0.129 C 
HETATM    2  C2  UNL     1     -33.517  18.398  -0.943  1.00 20.00     0.081 C 
HETATM    3  C3  UNL     1     -34.780  16.263  -1.271  1.00 20.00     0.110 C 
HETATM    4  C4  UNL     1     -33.664  18.067  -2.420  1.00 20.00     0.040 C 
HETATM    5  C8  UNL     1     -33.867  16.556  -2.458  1.00 20.00     0.128 C 
HETATM    6  O10 UNL     1     -34.784  17.406   0.854  1.00 20.00    -0.298 OA
ENDROOT
BRANCH   5   7
HETATM    7  O11 UNL     1     -34.483  16.159  -3.669  1.00 20.00    -0.385 OA
BRANCH   7   8
HETATM    8  C9  UNL     1     -35.672  15.421  -3.430  1.00 20.00     0.172 C 
BRANCH   8   9
HETATM    9  C7  UNL     1     -35.667  14.184  -4.303  1.00 20.00     0.009 A 
HETATM   10  C5  UNL     1     -34.772  14.111  -5.509  1.00 20.00     0.007 A 
HETATM   11  C6  UNL     1     -34.480  13.262  -4.303  1.00 20.00     0.007 A 
ENDBRANCH   8   9
ENDBRANCH   7   8
ENDBRANCH   5   7
TORSDOF 3
ENDMDL
MODEL 8
REMARK VINA RESULT:      -4.1      9.831     11.404
REMARK  3 active torsions:
REMARK  status: ('A' for Active; 'I' for Inactive)
REMARK    1  A    between atoms: C7_7  and  C9_9 
REMARK    2  A    between atoms: C8_8  and  O11_11 
REMARK    3  A    between atoms: C9_9  and  O11_11 
ROOT
HETATM    1  C1  UNL     1     -41.372   6.809  -1.136  1.00 20.00     0.129 C 
HETATM    2  C2  UNL     1     -40.666   5.745  -0.337  1.00 20.00     0.081 C 
HETATM    3  C3  UNL     1     -42.230   6.228  -2.230  1.00 20.00     0.110 C 
HETATM    4  C4  UNL     1     -40.849   4.525  -1.225  1.00 20.00     0.040 C 
HETATM    5  C8  UNL     1     -42.198   4.739  -1.902  1.00 20.00     0.128 C 
HETATM    6  O10 UNL     1     -41.269   8.009  -0.914  1.00 20.00    -0.298 OA
ENDROOT
BRANCH   5   7
HETATM    7  O11 UNL     1     -42.298   3.967  -3.085  1.00 20.00    -0.385 OA
BRANCH   7   8
HETATM    8  C9  UNL     1     -41.538   2.771  -2.991  1.00 20.00     0.172 C 
BRANCH   8   9
HETATM    9  C7  UNL     1     -42.205   1.696  -3.823  1.00 20.00     0.009 A 
HETATM   10  C5  UNL     1     -41.555   0.350  -3.982  1.00 20.00     0.007 A 
HETATM   11  C6  UNL     1     -42.805   0.489  -3.158  1.00 20.00     0.007 A 
ENDBRANCH   8   9
ENDBRANCH   7   8
ENDBRANCH   5   7
TORSDOF 3
ENDMDL
MODEL 9
REMARK VINA RESULT:      -4.0     10.686     12.762
REMARK  3 active torsions:
REMARK  status: ('A' for Active; 'I' for Inactive)
REMARK    1  A    between atoms: C7_7  and  C9_9 
REMARK    2  A    between atoms: C8_8  and  O11_11 
REMARK    3  A    between atoms: C9_9  and  O11_11 
ROOT
HETATM    1  C1  UNL     1     -33.700  13.814  -3.826  1.00 20.00     0.129 C 
HETATM    2  C2  UNL     1     -35.148  13.562  -4.154  1.00 20.00     0.081 C 
HETATM    3  C3  UNL     1     -33.403  15.278  -3.631  1.00 20.00     0.110 C 
HETATM    4  C4  UNL     1     -35.628  14.961  -4.506  1.00 20.00     0.040 C 
HETATM    5  C8  UNL     1     -34.801  15.887  -3.622  1.00 20.00     0.128 C 
HETATM    6  O10 UNL     1     -32.861  12.928  -3.719  1.00 20.00    -0.298 OA
ENDROOT
BRANCH   5   7
HETATM    7  O11 UNL     1     -34.776  17.201  -4.150  1.00 20.00    -0.385 OA
BRANCH   7   8
HETATM    8  C9  UNL     1     -33.589  17.439  -4.892  1.00 20.00     0.172 C 
BRANCH   8   9
HETATM    9  C7  UNL     1     -33.960  18.003  -6.247  1.00 20.00     0.009 A 
HETATM   10  C5  UNL     1     -34.515  17.103  -7.316  1.00 20.00     0.007 A 
HETATM   11  C6  UNL     1     -35.404  18.116  -6.650  1.00 20.00     0.007 A 
ENDBRANCH   8   9
ENDBRANCH   7   8
ENDBRANCH   5   7
TORSDOF 3
ENDMDL
