MODEL 1
REMARK VINA RESULT:      -4.5      0.000      0.000
REMARK  3 active torsions:
REMARK  status: ('A' for Active; 'I' for Inactive)
REMARK    1  A    between atoms: C4_4  and  C9_9 
REMARK    2  A    between atoms: C7_7  and  C8_8 
REMARK    3  A    between atoms: C8_8  and  N11_11 
ROOT
HETATM    1  C1  UNL     1     -34.742  13.697  -5.164  1.00 20.00     0.060 C 
HETATM    2  C7  UNL     1     -34.619  15.009  -5.818  1.00 20.00     0.151 C 
HETATM    3  N10 UNL     1     -34.839  12.663  -4.650  1.00 20.00    -0.197 NA
ENDROOT
BRANCH   2   4
HETATM    4  C8  UNL     1     -34.677  16.157  -4.821  1.00 20.00     0.249 C 
BRANCH   4   5
HETATM    5  N11 UNL     1     -34.667  15.633  -3.438  1.00 20.00    -0.069 N 
HETATM    6  C2  UNL     1     -35.673  16.303  -2.588  1.00 20.00     0.241 C 
HETATM    7  C4  UNL     1     -34.604  16.362  -1.477  1.00 20.00     0.041 C 
HETATM    8  C3  UNL     1     -33.586  16.232  -2.630  1.00 20.00     0.241 C 
HETATM    9  H28 UNL     1     -34.701  14.606  -3.384  1.00 20.00     0.279 HD
BRANCH   7  10
HETATM   10  C9  UNL     1     -34.545  17.630  -0.652  1.00 20.00    -0.015 C 
HETATM   11  C5  UNL     1     -35.153  17.411   0.736  1.00 20.00     0.010 C 
HETATM   12  C6  UNL     1     -33.105  18.134  -0.522  1.00 20.00     0.010 C 
ENDBRANCH   7  10
ENDBRANCH   4   5
ENDBRANCH   2   4
TORSDOF 3
ENDMDL
MODEL 2
REMARK VINA RESULT:      -4.1      1.294      2.057
REMARK  3 active torsions:
REMARK  status: ('A' for Active; 'I' for Inactive)
REMARK    1  A    between atoms: C4_4  and  C9_9 
REMARK    2  A    between atoms: C7_7  and  C8_8 
REMARK    3  A    between atoms: C8_8  and  N11_11 
ROOT
HETATM    1  C1  UNL     1     -34.873  14.073  -6.014  1.00 20.00     0.060 C 
HETATM    2  C7  UNL     1     -34.770  13.160  -4.866  1.00 20.00     0.151 C 
HETATM    3  N10 UNL     1     -34.954  14.792  -6.920  1.00 20.00    -0.197 NA
ENDROOT
BRANCH   2   4
HETATM    4  C8  UNL     1     -34.128  13.825  -3.657  1.00 20.00     0.249 C 
BRANCH   4   5
HETATM    5  N11 UNL     1     -34.433  15.273  -3.648  1.00 20.00    -0.069 N 
HETATM    6  C2  UNL     1     -33.269  16.077  -3.223  1.00 20.00     0.241 C 
HETATM    7  C4  UNL     1     -34.241  16.916  -2.365  1.00 20.00     0.041 C 
HETATM    8  C3  UNL     1     -35.158  15.675  -2.426  1.00 20.00     0.241 C 
HETATM    9  H28 UNL     1     -34.872  15.608  -4.516  1.00 20.00     0.279 HD
BRANCH   7  10
HETATM   10  C9  UNL     1     -33.753  17.340  -0.996  1.00 20.00    -0.015 C 
HETATM   11  C5  UNL     1     -33.139  18.742  -1.043  1.00 20.00     0.010 C 
HETATM   12  C6  UNL     1     -34.888  17.296   0.030  1.00 20.00     0.010 C 
ENDBRANCH   7  10
ENDBRANCH   4   5
ENDBRANCH   2   4
TORSDOF 3
ENDMDL
MODEL 3
REMARK VINA RESULT:      -4.1      0.836      1.490
REMARK  3 active torsions:
REMARK  status: ('A' for Active; 'I' for Inactive)
REMARK    1  A    between atoms: C4_4  and  C9_9 
REMARK    2  A    between atoms: C7_7  and  C8_8 
REMARK    3  A    between atoms: C8_8  and  N11_11 
ROOT
HETATM    1  C1  UNL     1     -34.627  13.662  -5.022  1.00 20.00     0.060 C 
HETATM    2  C7  UNL     1     -34.294  15.006  -5.519  1.00 20.00     0.151 C 
HETATM    3  N10 UNL     1     -34.890  12.602  -4.632  1.00 20.00    -0.197 NA
ENDROOT
BRANCH   2   4
HETATM    4  C8  UNL     1     -33.539  15.831  -4.487  1.00 20.00     0.249 C 
BRANCH   4   5
HETATM    5  N11 UNL     1     -34.484  16.660  -3.706  1.00 20.00    -0.069 N 
HETATM    6  C2  UNL     1     -33.788  17.714  -2.939  1.00 20.00     0.241 C 
HETATM    7  C4  UNL     1     -34.712  17.372  -1.751  1.00 20.00     0.041 C 
HETATM    8  C3  UNL     1     -34.880  16.003  -2.444  1.00 20.00     0.241 C 
HETATM    9  H28 UNL     1     -35.281  17.009  -4.256  1.00 20.00     0.279 HD
BRANCH   7  10
HETATM   10  C9  UNL     1     -34.083  17.369  -0.374  1.00 20.00    -0.015 C 
HETATM   11  C5  UNL     1     -33.077  18.514  -0.228  1.00 20.00     0.010 C 
HETATM   12  C6  UNL     1     -35.151  17.464   0.719  1.00 20.00     0.010 C 
ENDBRANCH   7  10
ENDBRANCH   4   5
ENDBRANCH   2   4
TORSDOF 3
ENDMDL
MODEL 4
REMARK VINA RESULT:      -4.0      1.862      5.130
REMARK  3 active torsions:
REMARK  status: ('A' for Active; 'I' for Inactive)
REMARK    1  A    between atoms: C4_4  and  C9_9 
REMARK    2  A    between atoms: C7_7  and  C8_8 
REMARK    3  A    between atoms: C8_8  and  N11_11 
ROOT
HETATM    1  C1  UNL     1     -34.737  16.987  -0.319  1.00 20.00     0.060 C 
HETATM    2  C7  UNL     1     -34.284  16.508  -1.633  1.00 20.00     0.151 C 
HETATM    3  N10 UNL     1     -35.093  17.364   0.718  1.00 20.00    -0.197 NA
ENDROOT
BRANCH   2   4
HETATM    4  C8  UNL     1     -33.968  17.651  -2.586  1.00 20.00     0.249 C 
BRANCH   4   5
HETATM    5  N11 UNL     1     -33.511  17.119  -3.889  1.00 20.00    -0.069 N 
HETATM    6  C2  UNL     1     -34.622  17.006  -4.857  1.00 20.00     0.241 C 
HETATM    7  C4  UNL     1     -34.049  15.631  -5.259  1.00 20.00     0.041 C 
HETATM    8  C3  UNL     1     -33.381  15.648  -3.867  1.00 20.00     0.241 C 
HETATM    9  H28 UNL     1     -32.684  17.600  -4.266  1.00 20.00     0.279 HD
BRANCH   7  10
HETATM   10  C9  UNL     1     -35.048  14.524  -5.523  1.00 20.00    -0.015 C 
HETATM   11  C5  UNL     1     -35.293  14.353  -7.025  1.00 20.00     0.010 C 
HETATM   12  C6  UNL     1     -34.579  13.202  -4.913  1.00 20.00     0.010 C 
ENDBRANCH   7  10
ENDBRANCH   4   5
ENDBRANCH   2   4
TORSDOF 3
ENDMDL
MODEL 5
REMARK VINA RESULT:      -4.0     10.780     11.486
REMARK  3 active torsions:
REMARK  status: ('A' for Active; 'I' for Inactive)
REMARK    1  A    between atoms: C4_4  and  C9_9 
REMARK    2  A    between atoms: C7_7  and  C8_8 
REMARK    3  A    between atoms: C8_8  and  N11_11 
ROOT
HETATM    1  C1  UNL     1     -32.562   9.122   0.649  1.00 20.00     0.060 C 
HETATM    2  C7  UNL     1     -32.238   9.161   2.083  1.00 20.00     0.151 C 
HETATM    3  N10 UNL     1     -32.818   9.093  -0.481  1.00 20.00    -0.197 NA
ENDROOT
BRANCH   2   4
HETATM    4  C8  UNL     1     -31.803   7.802   2.612  1.00 20.00     0.249 C 
BRANCH   4   5
HETATM    5  N11 UNL     1     -32.956   6.875   2.647  1.00 20.00    -0.069 N 
HETATM    6  C2  UNL     1     -33.876   7.183   3.761  1.00 20.00     0.241 C 
HETATM    7  C4  UNL     1     -33.963   5.664   4.026  1.00 20.00     0.041 C 
HETATM    8  C3  UNL     1     -32.609   5.591   3.288  1.00 20.00     0.241 C 
HETATM    9  H28 UNL     1     -33.428   6.768   1.740  1.00 20.00     0.279 HD
BRANCH   7  10
HETATM   10  C9  UNL     1     -33.977   5.222   5.474  1.00 20.00    -0.015 C 
HETATM   11  C5  UNL     1     -34.225   6.410   6.408  1.00 20.00     0.010 C 
HETATM   12  C6  UNL     1     -35.034   4.140   5.708  1.00 20.00     0.010 C 
ENDBRANCH   7  10
ENDBRANCH   4   5
ENDBRANCH   2   4
TORSDOF 3
ENDMDL
MODEL 6
REMARK VINA RESULT:      -3.9      2.051      5.468
REMARK  3 active torsions:
REMARK  status: ('A' for Active; 'I' for Inactive)
REMARK    1  A    between atoms: C4_4  and  C9_9 
REMARK    2  A    between atoms: C7_7  and  C8_8 
REMARK    3  A    between atoms: C8_8  and  N11_11 
ROOT
HETATM    1  C1  UNL     1     -32.667  18.678  -0.214  1.00 20.00     0.060 C 
HETATM    2  C7  UNL     1     -33.936  17.955  -0.387  1.00 20.00     0.151 C 
HETATM    3  N10 UNL     1     -31.667  19.247  -0.077  1.00 20.00    -0.197 NA
ENDROOT
BRANCH   2   4
HETATM    4  C8  UNL     1     -34.339  17.840  -1.850  1.00 20.00     0.249 C 
BRANCH   4   5
HETATM    5  N11 UNL     1     -33.528  16.802  -2.524  1.00 20.00    -0.069 N 
HETATM    6  C2  UNL     1     -33.590  16.924  -3.995  1.00 20.00     0.241 C 
HETATM    7  C4  UNL     1     -33.733  15.388  -4.053  1.00 20.00     0.041 C 
HETATM    8  C3  UNL     1     -34.240  15.511  -2.600  1.00 20.00     0.241 C 
HETATM    9  H28 UNL     1     -32.570  16.723  -2.157  1.00 20.00     0.279 HD
BRANCH   7  10
HETATM   10  C9  UNL     1     -34.704  14.830  -5.072  1.00 20.00    -0.015 C 
HETATM   11  C5  UNL     1     -34.301  15.233  -6.493  1.00 20.00     0.010 C 
HETATM   12  C6  UNL     1     -34.799  13.306  -4.964  1.00 20.00     0.010 C 
ENDBRANCH   7  10
ENDBRANCH   4   5
ENDBRANCH   2   4
TORSDOF 3
ENDMDL
MODEL 7
REMARK VINA RESULT:      -3.9      1.753      2.181
REMARK  3 active torsions:
REMARK  status: ('A' for Active; 'I' for Inactive)
REMARK    1  A    between atoms: C4_4  and  C9_9 
REMARK    2  A    between atoms: C7_7  and  C8_8 
REMARK    3  A    between atoms: C8_8  and  N11_11 
ROOT
HETATM    1  C1  UNL     1     -37.047  14.590  -4.593  1.00 20.00     0.060 C 
HETATM    2  C7  UNL     1     -35.988  14.991  -5.532  1.00 20.00     0.151 C 
HETATM    3  N10 UNL     1     -37.882  14.275  -3.854  1.00 20.00    -0.197 NA
ENDROOT
BRANCH   2   4
HETATM    4  C8  UNL     1     -34.786  14.059  -5.477  1.00 20.00     0.249 C 
BRANCH   4   5
HETATM    5  N11 UNL     1     -33.737  14.629  -4.603  1.00 20.00    -0.069 N 
HETATM    6  C2  UNL     1     -34.156  14.655  -3.187  1.00 20.00     0.241 C 
HETATM    7  C4  UNL     1     -33.552  16.073  -3.099  1.00 20.00     0.041 C 
HETATM    8  C3  UNL     1     -33.740  16.105  -4.631  1.00 20.00     0.241 C 
HETATM    9  H28 UNL     1     -32.807  14.216  -4.750  1.00 20.00     0.279 HD
BRANCH   7  10
HETATM   10  C9  UNL     1     -34.325  17.096  -2.294  1.00 20.00    -0.015 C 
HETATM   11  C5  UNL     1     -34.522  16.623  -0.851  1.00 20.00     0.010 C 
HETATM   12  C6  UNL     1     -33.620  18.455  -2.310  1.00 20.00     0.010 C 
ENDBRANCH   7  10
ENDBRANCH   4   5
ENDBRANCH   2   4
TORSDOF 3
ENDMDL
MODEL 8
REMARK VINA RESULT:      -3.8      1.918      2.277
REMARK  3 active torsions:
REMARK  status: ('A' for Active; 'I' for Inactive)
REMARK    1  A    between atoms: C4_4  and  C9_9 
REMARK    2  A    between atoms: C7_7  and  C8_8 
REMARK    3  A    between atoms: C8_8  and  N11_11 
ROOT
HETATM    1  C1  UNL     1     -36.686  15.438  -6.449  1.00 20.00     0.060 C 
HETATM    2  C7  UNL     1     -35.265  15.684  -6.163  1.00 20.00     0.151 C 
HETATM    3  N10 UNL     1     -37.807  15.245  -6.675  1.00 20.00    -0.197 NA
ENDROOT
BRANCH   2   4
HETATM    4  C8  UNL     1     -34.520  14.407  -5.805  1.00 20.00     0.249 C 
BRANCH   4   5
HETATM    5  N11 UNL     1     -33.693  14.620  -4.596  1.00 20.00    -0.069 N 
HETATM    6  C2  UNL     1     -34.511  14.647  -3.367  1.00 20.00     0.241 C 
HETATM    7  C4  UNL     1     -33.664  15.851  -2.903  1.00 20.00     0.041 C 
HETATM    8  C3  UNL     1     -33.357  16.045  -4.404  1.00 20.00     0.241 C 
HETATM    9  H28 UNL     1     -32.879  13.993  -4.536  1.00 20.00     0.279 HD
BRANCH   7  10
HETATM   10  C9  UNL     1     -34.398  16.975  -2.204  1.00 20.00    -0.015 C 
HETATM   11  C5  UNL     1     -34.612  16.653  -0.723  1.00 20.00     0.010 C 
HETATM   12  C6  UNL     1     -33.644  18.299  -2.352  1.00 20.00     0.010 C 
ENDBRANCH   7  10
ENDBRANCH   4   5
ENDBRANCH   2   4
TORSDOF 3
ENDMDL
MODEL 9
REMARK VINA RESULT:      -3.8      2.226      5.278
REMARK  3 active torsions:
REMARK  status: ('A' for Active; 'I' for Inactive)
REMARK    1  A    between atoms: C4_4  and  C9_9 
REMARK    2  A    between atoms: C7_7  and  C8_8 
REMARK    3  A    between atoms: C8_8  and  N11_11 
ROOT
HETATM    1  C1  UNL     1     -32.367  18.667  -0.058  1.00 20.00     0.060 C 
HETATM    2  C7  UNL     1     -33.578  17.912  -0.415  1.00 20.00     0.151 C 
HETATM    3  N10 UNL     1     -31.413  19.262   0.223  1.00 20.00    -0.197 NA
ENDROOT
BRANCH   2   4
HETATM    4  C8  UNL     1     -34.223  18.427  -1.692  1.00 20.00     0.249 C 
BRANCH   4   5
HETATM    5  N11 UNL     1     -35.081  17.379  -2.290  1.00 20.00    -0.069 N 
HETATM    6  C2  UNL     1     -34.481  16.035  -2.156  1.00 20.00     0.241 C 
HETATM    7  C4  UNL     1     -34.908  15.768  -3.615  1.00 20.00     0.041 C 
HETATM    8  C3  UNL     1     -34.919  17.305  -3.756  1.00 20.00     0.241 C 
HETATM    9  H28 UNL     1     -36.062  17.424  -1.985  1.00 20.00     0.279 HD
BRANCH   7  10
HETATM   10  C9  UNL     1     -33.930  15.008  -4.486  1.00 20.00    -0.015 C 
HETATM   11  C5  UNL     1     -33.623  13.630  -3.893  1.00 20.00     0.010 C 
HETATM   12  C6  UNL     1     -34.464  14.861  -5.913  1.00 20.00     0.010 C 
ENDBRANCH   7  10
ENDBRANCH   4   5
ENDBRANCH   2   4
TORSDOF 3
ENDMDL
