MODEL 1
REMARK VINA RESULT:      -4.7      0.000      0.000
REMARK  4 active torsions:
REMARK  status: ('A' for Active; 'I' for Inactive)
REMARK    1  A    between atoms: C2_2  and  C7_7 
REMARK    2  A    between atoms: C2_2  and  O11_11 
REMARK    3  A    between atoms: C6_6  and  C7_7 
REMARK    4  A    between atoms: C6_6  and  C8_8 
ROOT
HETATM    1  C1  UNL     1     -36.878  14.547  -3.961  1.00 20.00     0.074 C 
HETATM    2  C7  UNL     1     -35.454  14.737  -4.293  1.00 20.00     0.192 C 
HETATM    3  N9  UNL     1     -38.000  14.401  -3.704  1.00 20.00    -0.196 NA
ENDROOT
BRANCH   2   4
HETATM    4  C2  UNL     1     -34.988  13.652  -5.254  1.00 20.00     0.276 C 
HETATM    5  O10 UNL     1     -34.524  12.569  -4.922  1.00 20.00    -0.264 OA
BRANCH   4   6
HETATM    6  O11 UNL     1     -35.176  14.075  -6.541  1.00 20.00    -0.325 OA
HETATM    7  C5  UNL     1     -34.355  15.172  -6.955  1.00 20.00     0.213 C 
ENDBRANCH   4   6
ENDBRANCH   2   4
BRANCH   2   8
HETATM    8  C6  UNL     1     -34.575  14.701  -3.031  1.00 20.00     0.033 C 
BRANCH   8   9
HETATM    9  C8  UNL     1     -33.988  16.062  -2.597  1.00 20.00    -0.021 C 
HETATM   10  C3  UNL     1     -34.620  16.496  -1.272  1.00 20.00     0.009 C 
HETATM   11  C4  UNL     1     -34.200  17.150  -3.650  1.00 20.00     0.009 C 
ENDBRANCH   8   9
ENDBRANCH   2   8
TORSDOF 4
ENDMDL
MODEL 2
REMARK VINA RESULT:      -4.3      2.286      2.721
REMARK  4 active torsions:
REMARK  status: ('A' for Active; 'I' for Inactive)
REMARK    1  A    between atoms: C2_2  and  C7_7 
REMARK    2  A    between atoms: C2_2  and  O11_11 
REMARK    3  A    between atoms: C6_6  and  C7_7 
REMARK    4  A    between atoms: C6_6  and  C8_8 
ROOT
HETATM    1  C1  UNL     1     -33.460  15.750  -4.222  1.00 20.00     0.074 C 
HETATM    2  C7  UNL     1     -34.192  15.034  -3.160  1.00 20.00     0.192 C 
HETATM    3  N9  UNL     1     -32.882  16.311  -5.057  1.00 20.00    -0.196 NA
ENDROOT
BRANCH   2   4
HETATM    4  C2  UNL     1     -35.170  14.041  -3.773  1.00 20.00     0.276 C 
HETATM    5  O10 UNL     1     -34.882  12.917  -4.161  1.00 20.00    -0.264 OA
BRANCH   4   6
HETATM    6  O11 UNL     1     -36.417  14.601  -3.815  1.00 20.00    -0.325 OA
HETATM    7  C5  UNL     1     -36.904  14.924  -5.121  1.00 20.00     0.213 C 
ENDBRANCH   4   6
ENDBRANCH   2   4
BRANCH   2   8
HETATM    8  C6  UNL     1     -34.965  16.009  -2.256  1.00 20.00     0.033 C 
BRANCH   8   9
HETATM    9  C8  UNL     1     -34.094  16.856  -1.303  1.00 20.00    -0.021 C 
HETATM   10  C3  UNL     1     -34.835  17.067   0.020  1.00 20.00     0.009 C 
HETATM   11  C4  UNL     1     -33.720  18.211  -1.904  1.00 20.00     0.009 C 
ENDBRANCH   8   9
ENDBRANCH   2   8
TORSDOF 4
ENDMDL
MODEL 3
REMARK VINA RESULT:      -4.3      2.084      2.705
REMARK  4 active torsions:
REMARK  status: ('A' for Active; 'I' for Inactive)
REMARK    1  A    between atoms: C2_2  and  C7_7 
REMARK    2  A    between atoms: C2_2  and  O11_11 
REMARK    3  A    between atoms: C6_6  and  C7_7 
REMARK    4  A    between atoms: C6_6  and  C8_8 
ROOT
HETATM    1  C1  UNL     1     -34.692  13.820  -4.462  1.00 20.00     0.074 C 
HETATM    2  C7  UNL     1     -34.564  15.270  -4.225  1.00 20.00     0.192 C 
HETATM    3  N9  UNL     1     -34.796  12.679  -4.651  1.00 20.00    -0.196 NA
ENDROOT
BRANCH   2   4
HETATM    4  C2  UNL     1     -33.844  15.932  -5.391  1.00 20.00     0.276 C 
HETATM    5  O10 UNL     1     -33.959  15.608  -6.566  1.00 20.00    -0.264 OA
BRANCH   4   6
HETATM    6  O11 UNL     1     -33.056  16.947  -4.920  1.00 20.00    -0.325 OA
HETATM    7  C5  UNL     1     -33.511  18.270  -5.220  1.00 20.00     0.213 C 
ENDBRANCH   4   6
ENDBRANCH   2   4
BRANCH   2   8
HETATM    8  C6  UNL     1     -33.790  15.559  -2.926  1.00 20.00     0.033 C 
BRANCH   8   9
HETATM    9  C8  UNL     1     -34.606  16.250  -1.813  1.00 20.00    -0.021 C 
HETATM   10  C3  UNL     1     -35.860  16.890  -2.416  1.00 20.00     0.009 C 
HETATM   11  C4  UNL     1     -33.795  17.311  -1.068  1.00 20.00     0.009 C 
ENDBRANCH   8   9
ENDBRANCH   2   8
TORSDOF 4
ENDMDL
MODEL 4
REMARK VINA RESULT:      -4.3      2.386      3.018
REMARK  4 active torsions:
REMARK  status: ('A' for Active; 'I' for Inactive)
REMARK    1  A    between atoms: C2_2  and  C7_7 
REMARK    2  A    between atoms: C2_2  and  O11_11 
REMARK    3  A    between atoms: C6_6  and  C7_7 
REMARK    4  A    between atoms: C6_6  and  C8_8 
ROOT
HETATM    1  C1  UNL     1     -35.099  13.656  -4.113  1.00 20.00     0.074 C 
HETATM    2  C7  UNL     1     -35.579  14.829  -3.361  1.00 20.00     0.192 C 
HETATM    3  N9  UNL     1     -34.722  12.730  -4.702  1.00 20.00    -0.196 NA
ENDROOT
BRANCH   2   4
HETATM    4  C2  UNL     1     -37.050  15.080  -3.659  1.00 20.00     0.276 C 
HETATM    5  O10 UNL     1     -37.912  14.213  -3.731  1.00 20.00    -0.264 OA
BRANCH   4   6
HETATM    6  O11 UNL     1     -37.257  16.421  -3.829  1.00 20.00    -0.325 OA
HETATM    7  C5  UNL     1     -38.364  16.971  -3.107  1.00 20.00     0.213 C 
ENDBRANCH   4   6
ENDBRANCH   2   4
BRANCH   2   8
HETATM    8  C6  UNL     1     -34.772  16.091  -3.714  1.00 20.00     0.033 C 
BRANCH   8   9
HETATM    9  C8  UNL     1     -33.953  16.696  -2.555  1.00 20.00    -0.021 C 
HETATM   10  C3  UNL     1     -34.653  16.407  -1.224  1.00 20.00     0.009 C 
HETATM   11  C4  UNL     1     -33.746  18.203  -2.710  1.00 20.00     0.009 C 
ENDBRANCH   8   9
ENDBRANCH   2   8
TORSDOF 4
ENDMDL
MODEL 5
REMARK VINA RESULT:      -4.3      2.552      3.974
REMARK  4 active torsions:
REMARK  status: ('A' for Active; 'I' for Inactive)
REMARK    1  A    between atoms: C2_2  and  C7_7 
REMARK    2  A    between atoms: C2_2  and  O11_11 
REMARK    3  A    between atoms: C6_6  and  C7_7 
REMARK    4  A    between atoms: C6_6  and  C8_8 
ROOT
HETATM    1  C1  UNL     1     -34.416  13.683  -3.967  1.00 20.00     0.074 C 
HETATM    2  C7  UNL     1     -33.724  14.853  -3.394  1.00 20.00     0.192 C 
HETATM    3  N9  UNL     1     -34.959  12.760  -4.413  1.00 20.00    -0.196 NA
ENDROOT
BRANCH   2   4
HETATM    4  C2  UNL     1     -34.708  15.720  -2.622  1.00 20.00     0.276 C 
HETATM    5  O10 UNL     1     -35.927  15.659  -2.718  1.00 20.00    -0.264 OA
BRANCH   4   6
HETATM    6  O11 UNL     1     -34.017  16.569  -1.802  1.00 20.00    -0.325 OA
HETATM    7  C5  UNL     1     -34.629  16.838  -0.536  1.00 20.00     0.213 C 
ENDBRANCH   4   6
ENDBRANCH   2   4
BRANCH   2   8
HETATM    8  C6  UNL     1     -33.059  15.703  -4.491  1.00 20.00     0.033 C 
BRANCH   8   9
HETATM    9  C8  UNL     1     -34.030  16.497  -5.391  1.00 20.00    -0.021 C 
HETATM   10  C3  UNL     1     -34.115  15.833  -6.768  1.00 20.00     0.009 C 
HETATM   11  C4  UNL     1     -33.614  17.959  -5.549  1.00 20.00     0.009 C 
ENDBRANCH   8   9
ENDBRANCH   2   8
TORSDOF 4
ENDMDL
MODEL 6
REMARK VINA RESULT:      -4.1      2.857      4.008
REMARK  4 active torsions:
REMARK  status: ('A' for Active; 'I' for Inactive)
REMARK    1  A    between atoms: C2_2  and  C7_7 
REMARK    2  A    between atoms: C2_2  and  O11_11 
REMARK    3  A    between atoms: C6_6  and  C7_7 
REMARK    4  A    between atoms: C6_6  and  C8_8 
ROOT
HETATM    1  C1  UNL     1     -34.435  16.570  -1.236  1.00 20.00     0.074 C 
HETATM    2  C7  UNL     1     -33.954  16.192  -2.579  1.00 20.00     0.192 C 
HETATM    3  N9  UNL     1     -34.810  16.867  -0.179  1.00 20.00    -0.196 NA
ENDROOT
BRANCH   2   4
HETATM    4  C2  UNL     1     -33.751  17.435  -3.434  1.00 20.00     0.276 C 
HETATM    5  O10 UNL     1     -33.914  18.587  -3.052  1.00 20.00    -0.264 OA
BRANCH   4   6
HETATM    6  O11 UNL     1     -33.355  17.062  -4.689  1.00 20.00    -0.325 OA
HETATM    7  C5  UNL     1     -33.672  17.984  -5.735  1.00 20.00     0.213 C 
ENDBRANCH   4   6
ENDBRANCH   2   4
BRANCH   2   8
HETATM    8  C6  UNL     1     -34.946  15.251  -3.285  1.00 20.00     0.033 C 
BRANCH   8   9
HETATM    9  C8  UNL     1     -34.414  13.833  -3.581  1.00 20.00    -0.021 C 
HETATM   10  C3  UNL     1     -32.884  13.830  -3.498  1.00 20.00     0.009 C 
HETATM   11  C4  UNL     1     -34.855  13.318  -4.951  1.00 20.00     0.009 C 
ENDBRANCH   8   9
ENDBRANCH   2   8
TORSDOF 4
ENDMDL
MODEL 7
REMARK VINA RESULT:      -4.1      1.861      3.746
REMARK  4 active torsions:
REMARK  status: ('A' for Active; 'I' for Inactive)
REMARK    1  A    between atoms: C2_2  and  C7_7 
REMARK    2  A    between atoms: C2_2  and  O11_11 
REMARK    3  A    between atoms: C6_6  and  C7_7 
REMARK    4  A    between atoms: C6_6  and  C8_8 
ROOT
HETATM    1  C1  UNL     1     -36.467  14.222  -3.904  1.00 20.00     0.074 C 
HETATM    2  C7  UNL     1     -35.006  14.020  -3.943  1.00 20.00     0.192 C 
HETATM    3  N9  UNL     1     -37.616  14.378  -3.870  1.00 20.00    -0.196 NA
ENDROOT
BRANCH   2   4
HETATM    4  C2  UNL     1     -34.302  15.110  -3.148  1.00 20.00     0.276 C 
HETATM    5  O10 UNL     1     -33.142  15.465  -3.314  1.00 20.00    -0.264 OA
BRANCH   4   6
HETATM    6  O11 UNL     1     -35.170  15.632  -2.228  1.00 20.00    -0.325 OA
HETATM    7  C5  UNL     1     -34.581  16.481  -1.238  1.00 20.00     0.213 C 
ENDBRANCH   4   6
ENDBRANCH   2   4
BRANCH   2   8
HETATM    8  C6  UNL     1     -34.478  14.030  -5.389  1.00 20.00     0.033 C 
BRANCH   8   9
HETATM    9  C8  UNL     1     -35.133  15.070  -6.323  1.00 20.00    -0.021 C 
HETATM   10  C3  UNL     1     -35.566  14.390  -7.625  1.00 20.00     0.009 C 
HETATM   11  C4  UNL     1     -34.200  16.239  -6.639  1.00 20.00     0.009 C 
ENDBRANCH   8   9
ENDBRANCH   2   8
TORSDOF 4
ENDMDL
MODEL 8
REMARK VINA RESULT:      -4.1      2.191      3.161
REMARK  4 active torsions:
REMARK  status: ('A' for Active; 'I' for Inactive)
REMARK    1  A    between atoms: C2_2  and  C7_7 
REMARK    2  A    between atoms: C2_2  and  O11_11 
REMARK    3  A    between atoms: C6_6  and  C7_7 
REMARK    4  A    between atoms: C6_6  and  C8_8 
ROOT
HETATM    1  C1  UNL     1     -34.864  17.042  -3.801  1.00 20.00     0.074 C 
HETATM    2  C7  UNL     1     -33.921  16.426  -2.849  1.00 20.00     0.192 C 
HETATM    3  N9  UNL     1     -35.602  17.528  -4.553  1.00 20.00    -0.196 NA
ENDROOT
BRANCH   2   4
HETATM    4  C2  UNL     1     -33.517  15.040  -3.330  1.00 20.00     0.276 C 
HETATM    5  O10 UNL     1     -32.375  14.694  -3.605  1.00 20.00    -0.264 OA
BRANCH   4   6
HETATM    6  O11 UNL     1     -34.627  14.244  -3.402  1.00 20.00    -0.325 OA
HETATM    7  C5  UNL     1     -34.677  13.355  -4.523  1.00 20.00     0.213 C 
ENDBRANCH   4   6
ENDBRANCH   2   4
BRANCH   2   8
HETATM    8  C6  UNL     1     -34.538  16.311  -1.444  1.00 20.00     0.033 C 
BRANCH   8   9
HETATM    9  C8  UNL     1     -34.568  17.621  -0.628  1.00 20.00    -0.021 C 
HETATM   10  C3  UNL     1     -33.156  18.206  -0.542  1.00 20.00     0.009 C 
HETATM   11  C4  UNL     1     -35.128  17.418   0.780  1.00 20.00     0.009 C 
ENDBRANCH   8   9
ENDBRANCH   2   8
TORSDOF 4
ENDMDL
MODEL 9
REMARK VINA RESULT:      -4.0      1.956      3.500
REMARK  4 active torsions:
REMARK  status: ('A' for Active; 'I' for Inactive)
REMARK    1  A    between atoms: C2_2  and  C7_7 
REMARK    2  A    between atoms: C2_2  and  O11_11 
REMARK    3  A    between atoms: C6_6  and  C7_7 
REMARK    4  A    between atoms: C6_6  and  C8_8 
ROOT
HETATM    1  C1  UNL     1     -34.600  15.717  -3.046  1.00 20.00     0.074 C 
HETATM    2  C7  UNL     1     -35.112  15.219  -4.337  1.00 20.00     0.192 C 
HETATM    3  N9  UNL     1     -34.201  16.111  -2.030  1.00 20.00    -0.196 NA
ENDROOT
BRANCH   2   4
HETATM    4  C2  UNL     1     -35.734  13.841  -4.159  1.00 20.00     0.276 C 
HETATM    5  O10 UNL     1     -35.142  12.778  -4.299  1.00 20.00    -0.264 OA
BRANCH   4   6
HETATM    6  O11 UNL     1     -37.050  13.978  -3.814  1.00 20.00    -0.325 OA
HETATM    7  C5  UNL     1     -37.791  14.934  -4.579  1.00 20.00     0.213 C 
ENDBRANCH   4   6
ENDBRANCH   2   4
BRANCH   2   8
HETATM    8  C6  UNL     1     -33.993  15.134  -5.389  1.00 20.00     0.033 C 
BRANCH   8   9
HETATM    9  C8  UNL     1     -34.348  15.707  -6.777  1.00 20.00    -0.021 C 
HETATM   10  C3  UNL     1     -35.212  16.961  -6.610  1.00 20.00     0.009 C 
HETATM   11  C4  UNL     1     -35.078  14.693  -7.658  1.00 20.00     0.009 C 
ENDBRANCH   8   9
ENDBRANCH   2   8
TORSDOF 4
ENDMDL
