MODEL 1
REMARK VINA RESULT:      -5.1      0.000      0.000
REMARK  2 active torsions:
REMARK  status: ('A' for Active; 'I' for Inactive)
REMARK    1  A    between atoms: C2_2  and  C8_8 
REMARK    2  A    between atoms: C2_2  and  C9_9 
ROOT
HETATM    1  C1  UNL     1     -34.651  13.581  -4.001  1.00 20.00     0.127 C 
HETATM    2  C3  UNL     1     -33.178  13.781  -3.775  1.00 20.00     0.079 C 
HETATM    3  C4  UNL     1     -35.473  14.728  -3.471  1.00 20.00     0.090 C 
HETATM    4  C5  UNL     1     -33.113  15.264  -3.444  1.00 20.00     0.020 C 
HETATM    5  C8  UNL     1     -34.431  15.567  -2.736  1.00 20.00     0.063 C 
HETATM    6  O10 UNL     1     -35.132  12.591  -4.537  1.00 20.00    -0.298 OA
ENDROOT
BRANCH   5   7
HETATM    7  C2  UNL     1     -34.762  17.022  -2.818  1.00 20.00     0.135 C 
HETATM    8  O11 UNL     1     -34.986  17.573  -3.895  1.00 20.00    -0.297 OA
BRANCH   7   9
HETATM    9  C9  UNL     1     -34.807  17.780  -1.518  1.00 20.00     0.056 A 
HETATM   10  C6  UNL     1     -34.744  17.006  -0.252  1.00 20.00     0.013 A 
HETATM   11  C7  UNL     1     -33.571  17.829  -0.694  1.00 20.00     0.013 A 
ENDBRANCH   7   9
ENDBRANCH   5   7
TORSDOF 2
ENDMDL
MODEL 2
REMARK VINA RESULT:      -5.0     10.341     11.443
REMARK  2 active torsions:
REMARK  status: ('A' for Active; 'I' for Inactive)
REMARK    1  A    between atoms: C2_2  and  C8_8 
REMARK    2  A    between atoms: C2_2  and  C9_9 
ROOT
HETATM    1  C1  UNL     1     -34.515   5.542   5.204  1.00 20.00     0.127 C 
HETATM    2  C3  UNL     1     -34.910   5.039   3.843  1.00 20.00     0.079 C 
HETATM    3  C4  UNL     1     -33.253   6.363   5.169  1.00 20.00     0.090 C 
HETATM    4  C5  UNL     1     -34.059   5.912   2.932  1.00 20.00     0.020 C 
HETATM    5  C8  UNL     1     -32.785   6.184   3.727  1.00 20.00     0.063 C 
HETATM    6  O10 UNL     1     -35.138   5.297   6.230  1.00 20.00    -0.298 OA
ENDROOT
BRANCH   5   7
HETATM    7  C2  UNL     1     -32.097   7.415   3.232  1.00 20.00     0.135 C 
HETATM    8  O11 UNL     1     -31.129   7.895   3.820  1.00 20.00    -0.297 OA
BRANCH   7   9
HETATM    9  C9  UNL     1     -32.649   8.041   1.979  1.00 20.00     0.056 A 
HETATM   10  C6  UNL     1     -32.510   9.511   1.810  1.00 20.00     0.013 A 
HETATM   11  C7  UNL     1     -31.686   8.573   0.979  1.00 20.00     0.013 A 
ENDBRANCH   7   9
ENDBRANCH   5   7
TORSDOF 2
ENDMDL
MODEL 3
REMARK VINA RESULT:      -4.9      1.368      1.679
REMARK  2 active torsions:
REMARK  status: ('A' for Active; 'I' for Inactive)
REMARK    1  A    between atoms: C2_2  and  C8_8 
REMARK    2  A    between atoms: C2_2  and  C9_9 
ROOT
HETATM    1  C1  UNL     1     -34.497  13.712  -4.828  1.00 20.00     0.127 C 
HETATM    2  C3  UNL     1     -34.574  14.565  -6.064  1.00 20.00     0.079 C 
HETATM    3  C4  UNL     1     -33.962  14.469  -3.640  1.00 20.00     0.090 C 
HETATM    4  C5  UNL     1     -34.438  15.965  -5.482  1.00 20.00     0.020 C 
HETATM    5  C8  UNL     1     -33.537  15.797  -4.261  1.00 20.00     0.063 C 
HETATM    6  O10 UNL     1     -34.814  12.529  -4.794  1.00 20.00    -0.298 OA
ENDROOT
BRANCH   5   7
HETATM    7  C2  UNL     1     -33.727  16.923  -3.297  1.00 20.00     0.135 C 
HETATM    8  O11 UNL     1     -33.830  18.088  -3.677  1.00 20.00    -0.297 OA
BRANCH   7   9
HETATM    9  C9  UNL     1     -33.784  16.561  -1.837  1.00 20.00     0.056 A 
HETATM   10  C6  UNL     1     -33.630  17.651  -0.838  1.00 20.00     0.013 A 
HETATM   11  C7  UNL     1     -34.966  17.004  -1.052  1.00 20.00     0.013 A 
ENDBRANCH   7   9
ENDBRANCH   5   7
TORSDOF 2
ENDMDL
MODEL 4
REMARK VINA RESULT:      -4.9     10.784     11.905
REMARK  2 active torsions:
REMARK  status: ('A' for Active; 'I' for Inactive)
REMARK    1  A    between atoms: C2_2  and  C8_8 
REMARK    2  A    between atoms: C2_2  and  C9_9 
ROOT
HETATM    1  C1  UNL     1     -34.752   5.069   5.490  1.00 20.00     0.127 C 
HETATM    2  C3  UNL     1     -34.272   6.215   6.337  1.00 20.00     0.079 C 
HETATM    3  C4  UNL     1     -34.329   5.202   4.050  1.00 20.00     0.090 C 
HETATM    4  C5  UNL     1     -33.215   6.841   5.439  1.00 20.00     0.020 C 
HETATM    5  C8  UNL     1     -33.713   6.598   4.016  1.00 20.00     0.063 C 
HETATM    6  O10 UNL     1     -35.427   4.140   5.917  1.00 20.00    -0.298 OA
ENDROOT
BRANCH   5   7
HETATM    7  C2  UNL     1     -32.587   6.662   3.035  1.00 20.00     0.135 C 
HETATM    8  O11 UNL     1     -32.145   5.650   2.494  1.00 20.00    -0.297 OA
BRANCH   7   9
HETATM    9  C9  UNL     1     -32.019   8.025   2.744  1.00 20.00     0.056 A 
HETATM   10  C6  UNL     1     -31.746   8.383   1.328  1.00 20.00     0.013 A 
HETATM   11  C7  UNL     1     -32.892   9.015   2.061  1.00 20.00     0.013 A 
ENDBRANCH   7   9
ENDBRANCH   5   7
TORSDOF 2
ENDMDL
MODEL 5
REMARK VINA RESULT:      -4.9      1.140      1.774
REMARK  2 active torsions:
REMARK  status: ('A' for Active; 'I' for Inactive)
REMARK    1  A    between atoms: C2_2  and  C8_8 
REMARK    2  A    between atoms: C2_2  and  C9_9 
ROOT
HETATM    1  C1  UNL     1     -33.903  13.840  -3.795  1.00 20.00     0.127 C 
HETATM    2  C3  UNL     1     -35.326  13.660  -4.248  1.00 20.00     0.079 C 
HETATM    3  C4  UNL     1     -33.673  15.178  -3.141  1.00 20.00     0.090 C 
HETATM    4  C5  UNL     1     -36.034  14.776  -3.493  1.00 20.00     0.020 C 
HETATM    5  C8  UNL     1     -35.001  15.894  -3.383  1.00 20.00     0.063 C 
HETATM    6  O10 UNL     1     -33.025  13.003  -3.956  1.00 20.00    -0.298 OA
ENDROOT
BRANCH   5   7
HETATM    7  C2  UNL     1     -35.325  16.814  -2.250  1.00 20.00     0.135 C 
HETATM    8  O11 UNL     1     -36.203  17.671  -2.346  1.00 20.00    -0.297 OA
BRANCH   7   9
HETATM    9  C9  UNL     1     -34.523  16.642  -0.988  1.00 20.00     0.056 A 
HETATM   10  C6  UNL     1     -33.745  17.805  -0.489  1.00 20.00     0.013 A 
HETATM   11  C7  UNL     1     -34.980  17.356   0.233  1.00 20.00     0.013 A 
ENDBRANCH   7   9
ENDBRANCH   5   7
TORSDOF 2
ENDMDL
MODEL 6
REMARK VINA RESULT:      -4.6      1.835      4.710
REMARK  2 active torsions:
REMARK  status: ('A' for Active; 'I' for Inactive)
REMARK    1  A    between atoms: C2_2  and  C8_8 
REMARK    2  A    between atoms: C2_2  and  C9_9 
ROOT
HETATM    1  C1  UNL     1     -33.860  16.931  -2.708  1.00 20.00     0.127 C 
HETATM    2  C3  UNL     1     -34.880  16.232  -1.852  1.00 20.00     0.079 C 
HETATM    3  C4  UNL     1     -33.384  16.073  -3.851  1.00 20.00     0.090 C 
HETATM    4  C5  UNL     1     -35.291  15.072  -2.746  1.00 20.00     0.020 C 
HETATM    5  C8  UNL     1     -34.036  14.727  -3.544  1.00 20.00     0.063 C 
HETATM    6  O10 UNL     1     -33.447  18.063  -2.490  1.00 20.00    -0.298 OA
ENDROOT
BRANCH   5   7
HETATM    7  C2  UNL     1     -34.384  14.003  -4.804  1.00 20.00     0.135 C 
HETATM    8  O11 UNL     1     -34.536  12.782  -4.826  1.00 20.00    -0.297 OA
BRANCH   7   9
HETATM    9  C9  UNL     1     -34.537  14.839  -6.046  1.00 20.00     0.056 A 
HETATM   10  C6  UNL     1     -35.200  14.227  -7.227  1.00 20.00     0.013 A 
HETATM   11  C7  UNL     1     -35.904  15.282  -6.427  1.00 20.00     0.013 A 
ENDBRANCH   7   9
ENDBRANCH   5   7
TORSDOF 2
ENDMDL
MODEL 7
REMARK VINA RESULT:      -4.5      2.043      4.553
REMARK  2 active torsions:
REMARK  status: ('A' for Active; 'I' for Inactive)
REMARK    1  A    between atoms: C2_2  and  C8_8 
REMARK    2  A    between atoms: C2_2  and  C9_9 
ROOT
HETATM    1  C1  UNL     1     -34.701  16.061  -2.053  1.00 20.00     0.127 C 
HETATM    2  C3  UNL     1     -33.330  16.319  -2.615  1.00 20.00     0.079 C 
HETATM    3  C4  UNL     1     -35.552  15.228  -2.977  1.00 20.00     0.090 C 
HETATM    4  C5  UNL     1     -33.252  15.285  -3.729  1.00 20.00     0.020 C 
HETATM    5  C8  UNL     1     -34.686  15.140  -4.232  1.00 20.00     0.063 C 
HETATM    6  O10 UNL     1     -35.090  16.494  -0.976  1.00 20.00    -0.298 OA
ENDROOT
BRANCH   5   7
HETATM    7  C2  UNL     1     -34.881  13.831  -4.925  1.00 20.00     0.135 C 
HETATM    8  O11 UNL     1     -34.934  12.772  -4.301  1.00 20.00    -0.297 OA
BRANCH   7   9
HETATM    9  C9  UNL     1     -35.008  13.871  -6.424  1.00 20.00     0.056 A 
HETATM   10  C6  UNL     1     -35.979  14.824  -7.020  1.00 20.00     0.013 A 
HETATM   11  C7  UNL     1     -34.505  15.075  -7.137  1.00 20.00     0.013 A 
ENDBRANCH   7   9
ENDBRANCH   5   7
TORSDOF 2
ENDMDL
MODEL 8
REMARK VINA RESULT:      -4.4      1.740      2.636
REMARK  2 active torsions:
REMARK  status: ('A' for Active; 'I' for Inactive)
REMARK    1  A    between atoms: C2_2  and  C8_8 
REMARK    2  A    between atoms: C2_2  and  C9_9 
ROOT
HETATM    1  C1  UNL     1     -34.585  13.613  -4.020  1.00 20.00     0.127 C 
HETATM    2  C3  UNL     1     -33.128  13.674  -3.654  1.00 20.00     0.079 C 
HETATM    3  C4  UNL     1     -35.269  14.948  -3.882  1.00 20.00     0.090 C 
HETATM    4  C5  UNL     1     -32.868  15.173  -3.668  1.00 20.00     0.020 C 
HETATM    5  C8  UNL     1     -34.187  15.805  -3.228  1.00 20.00     0.063 C 
HETATM    6  O10 UNL     1     -35.157  12.589  -4.373  1.00 20.00    -0.298 OA
ENDROOT
BRANCH   5   7
HETATM    7  C2  UNL     1     -34.281  17.224  -3.686  1.00 20.00     0.135 C 
HETATM    8  O11 UNL     1     -34.997  18.042  -3.110  1.00 20.00    -0.297 OA
BRANCH   7   9
HETATM    9  C9  UNL     1     -33.457  17.604  -4.887  1.00 20.00     0.056 A 
HETATM   10  C6  UNL     1     -34.141  17.702  -6.203  1.00 20.00     0.013 A 
HETATM   11  C7  UNL     1     -33.682  18.941  -5.495  1.00 20.00     0.013 A 
ENDBRANCH   7   9
ENDBRANCH   5   7
TORSDOF 2
ENDMDL
MODEL 9
REMARK VINA RESULT:      -4.3      1.814      4.565
REMARK  2 active torsions:
REMARK  status: ('A' for Active; 'I' for Inactive)
REMARK    1  A    between atoms: C2_2  and  C8_8 
REMARK    2  A    between atoms: C2_2  and  C9_9 
ROOT
HETATM    1  C1  UNL     1     -34.425  18.165  -1.291  1.00 20.00     0.127 C 
HETATM    2  C3  UNL     1     -34.839  16.863  -0.661  1.00 20.00     0.079 C 
HETATM    3  C4  UNL     1     -33.711  17.967  -2.603  1.00 20.00     0.090 C 
HETATM    4  C5  UNL     1     -34.697  15.896  -1.828  1.00 20.00     0.020 C 
HETATM    5  C8  UNL     1     -33.542  16.450  -2.659  1.00 20.00     0.063 C 
HETATM    6  O10 UNL     1     -34.628  19.262  -0.786  1.00 20.00    -0.298 OA
ENDROOT
BRANCH   5   7
HETATM    7  C2  UNL     1     -33.612  15.957  -4.068  1.00 20.00     0.135 C 
HETATM    8  O11 UNL     1     -32.859  16.387  -4.941  1.00 20.00    -0.297 OA
BRANCH   7   9
HETATM    9  C9  UNL     1     -34.650  14.909  -4.368  1.00 20.00     0.056 A 
HETATM   10  C6  UNL     1     -34.664  14.304  -5.725  1.00 20.00     0.013 A 
HETATM   11  C7  UNL     1     -34.196  13.505  -4.546  1.00 20.00     0.013 A 
ENDBRANCH   7   9
ENDBRANCH   5   7
TORSDOF 2
ENDMDL
