MODEL 1
REMARK VINA RESULT:      -4.6      0.000      0.000
REMARK  0 active torsions:
REMARK  status: ('A' for Active; 'I' for Inactive)
ROOT
HETATM    1  C1  UNL     1     -35.266  14.340  -3.746  1.00 20.00     0.009 A 
HETATM    2  C2  UNL     1     -35.356  14.156  -5.126  1.00 20.00     0.019 A 
HETATM    3  C3  UNL     1     -34.366  16.343  -5.523  1.00 20.00     0.028 A 
HETATM    4  C4  UNL     1     -34.740  15.531  -3.274  1.00 20.00    -0.050 A 
HETATM    5  C5  UNL     1     -34.298  16.531  -4.152  1.00 20.00    -0.032 A 
HETATM    6  C6  UNL     1     -34.908  15.150  -6.009  1.00 20.00     0.011 A 
HETATM    7  C7  UNL     1     -34.504  15.921  -1.847  1.00 20.00     0.045 C 
HETATM    8  C8  UNL     1     -33.722  17.682  -3.384  1.00 20.00     0.119 C 
HETATM    9  C9  UNL     1     -34.329  17.449  -1.978  1.00 20.00     0.009 C 
HETATM   10  C10 UNL     1     -33.479  18.033  -0.859  1.00 20.00     0.012 C 
HETATM   11 CL11 UNL     1     -34.181  19.263  -4.031  1.00 20.00    -0.119 Cl
HETATM   12 BR12 UNL     1     -35.045  14.874  -7.875  1.00 20.00    -0.051 Br
ENDROOT
TORSDOF 0
ENDMDL
MODEL 2
REMARK VINA RESULT:      -4.6      3.095      4.910
REMARK  0 active torsions:
REMARK  status: ('A' for Active; 'I' for Inactive)
ROOT
HETATM    1  C1  UNL     1     -33.678  18.367  -3.402  1.00 20.00     0.009 A 
HETATM    2  C2  UNL     1     -33.928  18.437  -2.032  1.00 20.00     0.019 A 
HETATM    3  C3  UNL     1     -34.901  16.207  -2.052  1.00 20.00     0.028 A 
HETATM    4  C4  UNL     1     -34.058  17.220  -4.082  1.00 20.00    -0.050 A 
HETATM    5  C5  UNL     1     -34.671  16.149  -3.418  1.00 20.00    -0.032 A 
HETATM    6  C6  UNL     1     -34.534  17.364  -1.361  1.00 20.00     0.011 A 
HETATM    7  C7  UNL     1     -33.845  16.908  -5.532  1.00 20.00     0.045 C 
HETATM    8  C8  UNL     1     -34.920  15.019  -4.370  1.00 20.00     0.119 C 
HETATM    9  C9  UNL     1     -34.836  15.743  -5.736  1.00 20.00     0.009 C 
HETATM   10  C10 UNL     1     -34.421  14.822  -6.874  1.00 20.00     0.012 C 
HETATM   11 CL11 UNL     1     -36.493  14.241  -4.147  1.00 20.00    -0.119 Cl
HETATM   12 BR12 UNL     1     -34.863  17.490   0.498  1.00 20.00    -0.051 Br
ENDROOT
TORSDOF 0
ENDMDL
MODEL 3
REMARK VINA RESULT:      -4.6      2.651      4.437
REMARK  0 active torsions:
REMARK  status: ('A' for Active; 'I' for Inactive)
ROOT
HETATM    1  C1  UNL     1     -33.911  15.151  -3.244  1.00 20.00     0.009 A 
HETATM    2  C2  UNL     1     -33.663  16.289  -2.476  1.00 20.00     0.019 A 
HETATM    3  C3  UNL     1     -34.312  17.730  -4.326  1.00 20.00     0.028 A 
HETATM    4  C4  UNL     1     -34.342  15.320  -4.550  1.00 20.00    -0.050 A 
HETATM    5  C5  UNL     1     -34.536  16.597  -5.093  1.00 20.00    -0.032 A 
HETATM    6  C6  UNL     1     -33.864  17.569  -3.013  1.00 20.00     0.011 A 
HETATM    7  C7  UNL     1     -34.714  14.251  -5.532  1.00 20.00     0.045 C 
HETATM    8  C8  UNL     1     -35.060  16.494  -6.494  1.00 20.00     0.119 C 
HETATM    9  C9  UNL     1     -34.678  15.038  -6.859  1.00 20.00     0.009 C 
HETATM   10  C10 UNL     1     -35.588  14.431  -7.917  1.00 20.00     0.012 C 
HETATM   11 CL11 UNL     1     -34.326  17.653  -7.610  1.00 20.00    -0.119 Cl
HETATM   12 BR12 UNL     1     -33.518  19.094  -1.948  1.00 20.00    -0.051 Br
ENDROOT
TORSDOF 0
ENDMDL
MODEL 4
REMARK VINA RESULT:      -4.6      3.273      4.783
REMARK  0 active torsions:
REMARK  status: ('A' for Active; 'I' for Inactive)
ROOT
HETATM    1  C1  UNL     1     -36.604  17.527  -3.329  1.00 20.00     0.009 A 
HETATM    2  C2  UNL     1     -36.302  17.765  -1.988  1.00 20.00     0.019 A 
HETATM    3  C3  UNL     1     -34.361  16.303  -2.122  1.00 20.00     0.028 A 
HETATM    4  C4  UNL     1     -35.786  16.668  -4.045  1.00 20.00    -0.050 A 
HETATM    5  C5  UNL     1     -34.676  16.053  -3.449  1.00 20.00    -0.032 A 
HETATM    6  C6  UNL     1     -35.187  17.158  -1.389  1.00 20.00     0.011 A 
HETATM    7  C7  UNL     1     -35.889  16.309  -5.496  1.00 20.00     0.045 C 
HETATM    8  C8  UNL     1     -33.934  15.227  -4.456  1.00 20.00     0.119 C 
HETATM    9  C9  UNL     1     -35.009  15.042  -5.555  1.00 20.00     0.009 C 
HETATM   10  C10 UNL     1     -34.414  14.815  -6.937  1.00 20.00     0.012 C 
HETATM   11 CL11 UNL     1     -33.383  13.670  -3.824  1.00 20.00    -0.119 Cl
HETATM   12 BR12 UNL     1     -34.805  17.497   0.433  1.00 20.00    -0.051 Br
ENDROOT
TORSDOF 0
ENDMDL
MODEL 5
REMARK VINA RESULT:      -4.4      1.070      1.070
REMARK  0 active torsions:
REMARK  status: ('A' for Active; 'I' for Inactive)
ROOT
HETATM    1  C1  UNL     1     -34.413  14.416  -3.358  1.00 20.00     0.009 A 
HETATM    2  C2  UNL     1     -34.467  14.192  -4.734  1.00 20.00     0.019 A 
HETATM    3  C3  UNL     1     -34.913  16.549  -5.142  1.00 20.00     0.028 A 
HETATM    4  C4  UNL     1     -34.624  15.704  -2.892  1.00 20.00    -0.050 A 
HETATM    5  C5  UNL     1     -34.880  16.764  -3.773  1.00 20.00    -0.032 A 
HETATM    6  C6  UNL     1     -34.714  15.252  -5.620  1.00 20.00     0.011 A 
HETATM    7  C7  UNL     1     -34.563  16.181  -1.474  1.00 20.00     0.045 C 
HETATM    8  C8  UNL     1     -35.009  18.051  -3.015  1.00 20.00     0.119 C 
HETATM    9  C9  UNL     1     -35.290  17.538  -1.582  1.00 20.00     0.009 C 
HETATM   10  C10 UNL     1     -34.853  18.517  -0.502  1.00 20.00     0.012 C 
HETATM   11 CL11 UNL     1     -36.320  19.085  -3.600  1.00 20.00    -0.119 Cl
HETATM   12 BR12 UNL     1     -34.785  14.917  -7.481  1.00 20.00    -0.051 Br
ENDROOT
TORSDOF 0
ENDMDL
MODEL 6
REMARK VINA RESULT:      -4.4      5.040      7.202
REMARK  0 active torsions:
REMARK  status: ('A' for Active; 'I' for Inactive)
ROOT
HETATM    1  C1  UNL     1     -31.774  19.024   0.652  1.00 20.00     0.009 A 
HETATM    2  C2  UNL     1     -31.573  19.255   2.013  1.00 20.00     0.019 A 
HETATM    3  C3  UNL     1     -33.787  18.385   2.529  1.00 20.00     0.028 A 
HETATM    4  C4  UNL     1     -32.986  18.489   0.247  1.00 20.00    -0.050 A 
HETATM    5  C5  UNL     1     -33.991  18.177   1.173  1.00 20.00    -0.032 A 
HETATM    6  C6  UNL     1     -32.572  18.936   2.945  1.00 20.00     0.011 A 
HETATM    7  C7  UNL     1     -33.398  18.115  -1.144  1.00 20.00     0.045 C 
HETATM    8  C8  UNL     1     -35.168  17.561   0.479  1.00 20.00     0.119 C 
HETATM    9  C9  UNL     1     -34.929  18.005  -0.984  1.00 20.00     0.009 C 
HETATM   10  C10 UNL     1     -35.552  17.061  -2.003  1.00 20.00     0.012 C 
HETATM   11 CL11 UNL     1     -36.726  18.138   1.084  1.00 20.00    -0.119 Cl
HETATM   12 BR12 UNL     1     -32.273  19.263   4.785  1.00 20.00    -0.051 Br
ENDROOT
TORSDOF 0
ENDMDL
MODEL 7
REMARK VINA RESULT:      -4.4      3.101      4.620
REMARK  0 active torsions:
REMARK  status: ('A' for Active; 'I' for Inactive)
ROOT
HETATM    1  C1  UNL     1     -34.042  16.576  -1.536  1.00 20.00     0.009 A 
HETATM    2  C2  UNL     1     -34.848  17.613  -1.065  1.00 20.00     0.019 A 
HETATM    3  C3  UNL     1     -36.590  17.042  -2.666  1.00 20.00     0.028 A 
HETATM    4  C4  UNL     1     -34.517  15.795  -2.577  1.00 20.00    -0.050 A 
HETATM    5  C5  UNL     1     -35.777  16.026  -3.146  1.00 20.00    -0.032 A 
HETATM    6  C6  UNL     1     -36.114  17.843  -1.625  1.00 20.00     0.011 A 
HETATM    7  C7  UNL     1     -33.851  14.608  -3.203  1.00 20.00     0.045 C 
HETATM    8  C8  UNL     1     -36.067  15.006  -4.205  1.00 20.00     0.119 C 
HETATM    9  C9  UNL     1     -34.646  14.477  -4.519  1.00 20.00     0.009 C 
HETATM   10  C10 UNL     1     -34.647  13.053  -5.056  1.00 20.00     0.012 C 
HETATM   11 CL11 UNL     1     -36.836  15.685  -5.646  1.00 20.00    -0.119 Cl
HETATM   12 BR12 UNL     1     -37.183  19.258  -0.967  1.00 20.00    -0.051 Br
ENDROOT
TORSDOF 0
ENDMDL
MODEL 8
REMARK VINA RESULT:      -4.4      5.905      7.756
REMARK  0 active torsions:
REMARK  status: ('A' for Active; 'I' for Inactive)
ROOT
HETATM    1  C1  UNL     1     -34.090  18.140   4.092  1.00 20.00     0.009 A 
HETATM    2  C2  UNL     1     -32.798  18.456   4.515  1.00 20.00     0.019 A 
HETATM    3  C3  UNL     1     -32.116  18.917   2.225  1.00 20.00     0.028 A 
HETATM    4  C4  UNL     1     -34.372  18.204   2.736  1.00 20.00    -0.050 A 
HETATM    5  C5  UNL     1     -33.395  18.582   1.806  1.00 20.00    -0.032 A 
HETATM    6  C6  UNL     1     -31.819  18.843   3.588  1.00 20.00     0.011 A 
HETATM    7  C7  UNL     1     -35.690  17.959   2.068  1.00 20.00     0.045 C 
HETATM    8  C8  UNL     1     -33.978  18.626   0.426  1.00 20.00     0.119 C 
HETATM    9  C9  UNL     1     -35.251  17.762   0.601  1.00 20.00     0.009 C 
HETATM   10  C10 UNL     1     -36.353  18.118  -0.386  1.00 20.00     0.012 C 
HETATM   11 CL11 UNL     1     -32.909  17.957  -0.814  1.00 20.00    -0.119 Cl
HETATM   12 BR12 UNL     1     -30.075  19.262   4.191  1.00 20.00    -0.051 Br
ENDROOT
TORSDOF 0
ENDMDL
MODEL 9
REMARK VINA RESULT:      -4.3      3.316      4.076
REMARK  0 active torsions:
REMARK  status: ('A' for Active; 'I' for Inactive)
ROOT
HETATM    1  C1  UNL     1     -38.145  14.695  -4.113  1.00 20.00     0.009 A 
HETATM    2  C2  UNL     1     -38.982  15.760  -3.781  1.00 20.00     0.019 A 
HETATM    3  C3  UNL     1     -37.091  17.043  -2.946  1.00 20.00     0.028 A 
HETATM    4  C4  UNL     1     -36.791  14.814  -3.842  1.00 20.00    -0.050 A 
HETATM    5  C5  UNL     1     -36.264  15.974  -3.257  1.00 20.00    -0.032 A 
HETATM    6  C6  UNL     1     -38.459  16.926  -3.203  1.00 20.00     0.011 A 
HETATM    7  C7  UNL     1     -35.709  13.827  -4.156  1.00 20.00     0.045 C 
HETATM    8  C8  UNL     1     -34.774  15.864  -3.131  1.00 20.00     0.119 C 
HETATM    9  C9  UNL     1     -34.567  14.335  -3.249  1.00 20.00     0.009 C 
HETATM   10  C10 UNL     1     -33.192  13.959  -3.784  1.00 20.00     0.012 C 
HETATM   11 CL11 UNL     1     -34.149  16.484  -1.597  1.00 20.00    -0.119 Cl
HETATM   12 BR12 UNL     1     -39.620  18.353  -2.761  1.00 20.00    -0.051 Br
ENDROOT
TORSDOF 0
ENDMDL
