MODEL 1
REMARK VINA RESULT:      -5.2      0.000      0.000
REMARK  1 active torsions:
REMARK  status: ('A' for Active; 'I' for Inactive)
REMARK    1  A    between atoms: C2_2  and  C3_3 
ROOT
HETATM    1  C1  UNL     1     -35.356  15.658  -4.680  1.00 20.00    -0.034 C 
HETATM    2  C2  UNL     1     -34.538  14.715  -5.166  1.00 20.00     0.194 C 
HETATM    3  C4  UNL     1     -35.663  16.920  -5.445  1.00 20.00     0.038 C 
HETATM    4  C5  UNL     1     -35.993  15.553  -3.323  1.00 20.00     0.042 C 
HETATM    5  C6  UNL     1     -36.104  18.063  -4.520  1.00 20.00     0.009 C 
HETATM    6  C7  UNL     1     -35.609  16.736  -2.404  1.00 20.00    -0.011 C 
HETATM    7  C8  UNL     1     -35.348  18.066  -3.178  1.00 20.00    -0.014 C 
HETATM    8  C9  UNL     1     -34.481  16.342  -1.446  1.00 20.00     0.010 C 
HETATM    9  C10 UNL     1     -33.869  18.411  -3.398  1.00 20.00     0.010 C 
HETATM   10  F13 UNL     1     -33.981  14.920  -6.379  1.00 20.00    -0.199 F 
ENDROOT
BRANCH   2  11
HETATM   11  C3  UNL     1     -34.215  13.426  -4.403  1.00 20.00     0.239 C 
HETATM   12  O11 UNL     1     -35.077  12.511  -4.549  1.00 20.00    -0.642 OA
HETATM   13  O12 UNL     1     -33.148  13.414  -3.726  1.00 20.00    -0.642 OA
ENDBRANCH   2  11
TORSDOF 1
ENDMDL
MODEL 2
REMARK VINA RESULT:      -5.0      1.829      3.384
REMARK  1 active torsions:
REMARK  status: ('A' for Active; 'I' for Inactive)
REMARK    1  A    between atoms: C2_2  and  C3_3 
ROOT
HETATM    1  C1  UNL     1     -34.675  15.824  -4.814  1.00 20.00    -0.034 C 
HETATM    2  C2  UNL     1     -34.804  14.894  -3.858  1.00 20.00     0.194 C 
HETATM    3  C4  UNL     1     -35.228  17.217  -4.653  1.00 20.00     0.038 C 
HETATM    4  C5  UNL     1     -34.011  15.540  -6.132  1.00 20.00     0.042 C 
HETATM    5  C6  UNL     1     -35.491  17.894  -6.005  1.00 20.00     0.009 C 
HETATM    6  C7  UNL     1     -34.960  15.785  -7.329  1.00 20.00    -0.011 C 
HETATM    7  C8  UNL     1     -36.009  16.911  -7.071  1.00 20.00    -0.014 C 
HETATM    8  C9  UNL     1     -35.568  14.470  -7.824  1.00 20.00     0.010 C 
HETATM    9  C10 UNL     1     -37.415  16.418  -6.703  1.00 20.00     0.010 C 
HETATM   10  F13 UNL     1     -35.454  15.235  -2.724  1.00 20.00    -0.199 F 
ENDROOT
BRANCH   2  11
HETATM   11  C3  UNL     1     -34.248  13.474  -4.004  1.00 20.00     0.239 C 
HETATM   12  O11 UNL     1     -35.082  12.640  -4.465  1.00 20.00    -0.642 OA
HETATM   13  O12 UNL     1     -33.047  13.291  -3.659  1.00 20.00    -0.642 OA
ENDBRANCH   2  11
TORSDOF 1
ENDMDL
MODEL 3
REMARK VINA RESULT:      -5.0      2.873      3.865
REMARK  1 active torsions:
REMARK  status: ('A' for Active; 'I' for Inactive)
REMARK    1  A    between atoms: C2_2  and  C3_3 
ROOT
HETATM    1  C1  UNL     1     -35.941  15.369  -3.320  1.00 20.00    -0.034 C 
HETATM    2  C2  UNL     1     -37.205  15.774  -3.505  1.00 20.00     0.194 C 
HETATM    3  C4  UNL     1     -34.996  16.098  -2.399  1.00 20.00     0.038 C 
HETATM    4  C5  UNL     1     -35.356  14.190  -4.045  1.00 20.00     0.042 C 
HETATM    5  C6  UNL     1     -33.526  15.853  -2.768  1.00 20.00     0.009 C 
HETATM    6  C7  UNL     1     -34.120  14.578  -4.890  1.00 20.00    -0.011 C 
HETATM    7  C8  UNL     1     -33.302  15.763  -4.289  1.00 20.00    -0.014 C 
HETATM    8  C9  UNL     1     -34.499  14.766  -6.362  1.00 20.00     0.010 C 
HETATM    9  C10 UNL     1     -33.554  17.126  -4.947  1.00 20.00     0.010 C 
HETATM   10  F13 UNL     1     -37.625  16.870  -2.838  1.00 20.00    -0.199 F 
ENDROOT
BRANCH   2  11
HETATM   11  C3  UNL     1     -38.179  15.045  -4.436  1.00 20.00     0.239 C 
HETATM   12  O11 UNL     1     -38.857  14.141  -3.866  1.00 20.00    -0.642 OA
HETATM   13  O12 UNL     1     -38.201  15.415  -5.644  1.00 20.00    -0.642 OA
ENDBRANCH   2  11
TORSDOF 1
ENDMDL
MODEL 4
REMARK VINA RESULT:      -5.0      2.906      3.878
REMARK  1 active torsions:
REMARK  status: ('A' for Active; 'I' for Inactive)
REMARK    1  A    between atoms: C2_2  and  C3_3 
ROOT
HETATM    1  C1  UNL     1     -35.426  14.576  -5.027  1.00 20.00    -0.034 C 
HETATM    2  C2  UNL     1     -36.733  14.860  -5.097  1.00 20.00     0.194 C 
HETATM    3  C4  UNL     1     -34.868  13.634  -3.990  1.00 20.00     0.038 C 
HETATM    4  C5  UNL     1     -34.413  15.205  -5.941  1.00 20.00     0.042 C 
HETATM    5  C6  UNL     1     -33.382  13.897  -3.711  1.00 20.00     0.009 C 
HETATM    6  C7  UNL     1     -33.329  15.988  -5.163  1.00 20.00    -0.011 C 
HETATM    7  C8  UNL     1     -33.025  15.395  -3.752  1.00 20.00    -0.014 C 
HETATM    8  C9  UNL     1     -33.637  17.488  -5.155  1.00 20.00     0.010 C 
HETATM    9  C10 UNL     1     -33.687  16.133  -2.581  1.00 20.00     0.010 C 
HETATM   10  F13 UNL     1     -37.560  14.276  -4.203  1.00 20.00    -0.199 F 
ENDROOT
BRANCH   2  11
HETATM   11  C3  UNL     1     -37.318  15.814  -6.143  1.00 20.00     0.239 C 
HETATM   12  O11 UNL     1     -37.712  15.241  -7.201  1.00 20.00    -0.642 OA
HETATM   13  O12 UNL     1     -37.343  17.043  -5.847  1.00 20.00    -0.642 OA
ENDBRANCH   2  11
TORSDOF 1
ENDMDL
MODEL 5
REMARK VINA RESULT:      -5.0      1.840      3.272
REMARK  1 active torsions:
REMARK  status: ('A' for Active; 'I' for Inactive)
REMARK    1  A    between atoms: C2_2  and  C3_3 
ROOT
HETATM    1  C1  UNL     1     -34.260  15.845  -4.601  1.00 20.00    -0.034 C 
HETATM    2  C2  UNL     1     -34.316  14.913  -3.639  1.00 20.00     0.194 C 
HETATM    3  C4  UNL     1     -34.512  17.304  -4.313  1.00 20.00     0.038 C 
HETATM    4  C5  UNL     1     -33.986  15.507  -6.039  1.00 20.00     0.042 C 
HETATM    5  C6  UNL     1     -34.968  18.067  -5.565  1.00 20.00     0.009 C 
HETATM    6  C7  UNL     1     -35.135  15.953  -6.973  1.00 20.00    -0.011 C 
HETATM    7  C8  UNL     1     -35.885  17.227  -6.473  1.00 20.00    -0.014 C 
HETATM    8  C9  UNL     1     -36.058  14.778  -7.306  1.00 20.00     0.010 C 
HETATM    9  C10 UNL     1     -37.226  16.961  -5.778  1.00 20.00     0.010 C 
HETATM   10  F13 UNL     1     -34.611  15.312  -2.383  1.00 20.00    -0.199 F 
ENDROOT
BRANCH   2  11
HETATM   11  C3  UNL     1     -34.062  13.427  -3.912  1.00 20.00     0.239 C 
HETATM   12  O11 UNL     1     -32.868  13.062  -3.703  1.00 20.00    -0.642 OA
HETATM   13  O12 UNL     1     -35.047  12.741  -4.308  1.00 20.00    -0.642 OA
ENDBRANCH   2  11
TORSDOF 1
ENDMDL
MODEL 6
REMARK VINA RESULT:      -4.9      2.007      3.129
REMARK  1 active torsions:
REMARK  status: ('A' for Active; 'I' for Inactive)
REMARK    1  A    between atoms: C2_2  and  C3_3 
ROOT
HETATM    1  C1  UNL     1     -34.259  15.686  -4.909  1.00 20.00    -0.034 C 
HETATM    2  C2  UNL     1     -34.660  14.894  -3.905  1.00 20.00     0.194 C 
HETATM    3  C4  UNL     1     -33.404  16.905  -4.670  1.00 20.00     0.038 C 
HETATM    4  C5  UNL     1     -34.664  15.449  -6.336  1.00 20.00     0.042 C 
HETATM    5  C6  UNL     1     -33.551  17.941  -5.793  1.00 20.00     0.009 C 
HETATM    6  C7  UNL     1     -35.427  16.653  -6.935  1.00 20.00    -0.011 C 
HETATM    7  C8  UNL     1     -34.989  18.027  -6.338  1.00 20.00    -0.014 C 
HETATM    8  C9  UNL     1     -36.939  16.414  -6.903  1.00 20.00     0.010 C 
HETATM    9  C10 UNL     1     -35.931  18.602  -5.271  1.00 20.00     0.010 C 
HETATM   10  F13 UNL     1     -34.278  15.214  -2.650  1.00 20.00    -0.199 F 
ENDROOT
BRANCH   2  11
HETATM   11  C3  UNL     1     -35.529  13.651  -4.128  1.00 20.00     0.239 C 
HETATM   12  O11 UNL     1     -36.765  13.847  -3.942  1.00 20.00    -0.642 OA
HETATM   13  O12 UNL     1     -34.933  12.590  -4.466  1.00 20.00    -0.642 OA
ENDBRANCH   2  11
TORSDOF 1
ENDMDL
MODEL 7
REMARK VINA RESULT:      -4.8      1.823      2.787
REMARK  1 active torsions:
REMARK  status: ('A' for Active; 'I' for Inactive)
REMARK    1  A    between atoms: C2_2  and  C3_3 
ROOT
HETATM    1  C1  UNL     1     -34.731  15.412  -3.351  1.00 20.00    -0.034 C 
HETATM    2  C2  UNL     1     -35.559  14.508  -3.892  1.00 20.00     0.194 C 
HETATM    3  C4  UNL     1     -35.089  16.172  -2.099  1.00 20.00     0.038 C 
HETATM    4  C5  UNL     1     -33.409  15.769  -3.970  1.00 20.00     0.042 C 
HETATM    5  C6  UNL     1     -34.327  17.501  -1.995  1.00 20.00     0.009 C 
HETATM    6  C7  UNL     1     -33.315  17.273  -4.320  1.00 20.00    -0.011 C 
HETATM    7  C8  UNL     1     -34.138  18.188  -3.360  1.00 20.00    -0.014 C 
HETATM    8  C9  UNL     1     -33.603  17.509  -5.805  1.00 20.00     0.010 C 
HETATM    9  C10 UNL     1     -35.490  18.659  -3.912  1.00 20.00     0.010 C 
HETATM   10  F13 UNL     1     -36.744  14.287  -3.284  1.00 20.00    -0.199 F 
ENDROOT
BRANCH   2  11
HETATM   11  C3  UNL     1     -35.213  13.725  -5.163  1.00 20.00     0.239 C 
HETATM   12  O11 UNL     1     -34.703  12.587  -4.945  1.00 20.00    -0.642 OA
HETATM   13  O12 UNL     1     -35.467  14.285  -6.267  1.00 20.00    -0.642 OA
ENDBRANCH   2  11
TORSDOF 1
ENDMDL
MODEL 8
REMARK VINA RESULT:      -4.8      2.860      4.314
REMARK  1 active torsions:
REMARK  status: ('A' for Active; 'I' for Inactive)
REMARK    1  A    between atoms: C2_2  and  C3_3 
ROOT
HETATM    1  C1  UNL     1     -34.980  15.179  -3.147  1.00 20.00    -0.034 C 
HETATM    2  C2  UNL     1     -34.481  16.233  -2.486  1.00 20.00     0.194 C 
HETATM    3  C4  UNL     1     -34.115  14.015  -3.561  1.00 20.00     0.038 C 
HETATM    4  C5  UNL     1     -36.421  15.095  -3.561  1.00 20.00     0.042 C 
HETATM    5  C6  UNL     1     -34.710  13.251  -4.753  1.00 20.00     0.009 C 
HETATM    6  C7  UNL     1     -36.581  14.944  -5.093  1.00 20.00    -0.011 C 
HETATM    7  C8  UNL     1     -35.401  14.179  -5.769  1.00 20.00    -0.014 C 
HETATM    8  C9  UNL     1     -36.905  16.291  -5.745  1.00 20.00     0.010 C 
HETATM    9  C10 UNL     1     -34.366  15.069  -6.470  1.00 20.00     0.010 C 
HETATM   10  F13 UNL     1     -33.162  16.234  -2.195  1.00 20.00    -0.199 F 
ENDROOT
BRANCH   2  11
HETATM   11  C3  UNL     1     -35.344  17.424  -2.057  1.00 20.00     0.239 C 
HETATM   12  O11 UNL     1     -35.653  17.420  -0.829  1.00 20.00    -0.642 OA
HETATM   13  O12 UNL     1     -35.648  18.263  -2.951  1.00 20.00    -0.642 OA
ENDBRANCH   2  11
TORSDOF 1
ENDMDL
MODEL 9
REMARK VINA RESULT:      -4.7      2.682      4.082
REMARK  1 active torsions:
REMARK  status: ('A' for Active; 'I' for Inactive)
REMARK    1  A    between atoms: C2_2  and  C3_3 
ROOT
HETATM    1  C1  UNL     1     -33.699  16.905  -3.964  1.00 20.00    -0.034 C 
HETATM    2  C2  UNL     1     -34.140  17.613  -2.915  1.00 20.00     0.194 C 
HETATM    3  C4  UNL     1     -33.855  17.398  -5.380  1.00 20.00     0.038 C 
HETATM    4  C5  UNL     1     -33.059  15.554  -3.815  1.00 20.00     0.042 C 
HETATM    5  C6  UNL     1     -33.835  16.248  -6.397  1.00 20.00     0.009 C 
HETATM    6  C7  UNL     1     -33.827  14.456  -4.588  1.00 20.00    -0.011 C 
HETATM    7  C8  UNL     1     -34.538  14.981  -5.874  1.00 20.00    -0.014 C 
HETATM    8  C9  UNL     1     -34.742  13.664  -3.650  1.00 20.00     0.010 C 
HETATM    9  C10 UNL     1     -36.045  15.228  -5.729  1.00 20.00     0.010 C 
HETATM   10  F13 UNL     1     -34.740  18.799  -3.154  1.00 20.00    -0.199 F 
ENDROOT
BRANCH   2  11
HETATM   11  C3  UNL     1     -33.991  17.128  -1.469  1.00 20.00     0.239 C 
HETATM   12  O11 UNL     1     -33.093  17.733  -0.813  1.00 20.00    -0.642 OA
HETATM   13  O12 UNL     1     -34.761  16.199  -1.094  1.00 20.00    -0.642 OA
ENDBRANCH   2  11
TORSDOF 1
ENDMDL
