MODEL 1
REMARK VINA RESULT:      -5.1      0.000      0.000
REMARK  0 active torsions:
REMARK  status: ('A' for Active; 'I' for Inactive)
ROOT
HETATM    1  C1  UNL     1     -33.766  17.921  -4.175  1.00 20.00     0.009 A 
HETATM    2  C2  UNL     1     -33.884  17.879  -2.784  1.00 20.00     0.024 A 
HETATM    3  C3  UNL     1     -34.885  15.664  -2.895  1.00 20.00     0.033 A 
HETATM    4  C4  UNL     1     -34.196  16.825  -4.906  1.00 20.00    -0.050 A 
HETATM    5  C5  UNL     1     -34.745  15.700  -4.274  1.00 20.00    -0.031 A 
HETATM    6  C6  UNL     1     -34.441  16.759  -2.150  1.00 20.00     0.034 A 
HETATM    7  C7  UNL     1     -34.211  16.671  -6.395  1.00 20.00     0.045 C 
HETATM    8  C8  UNL     1     -35.181  14.691  -5.294  1.00 20.00     0.119 C 
HETATM    9  C9  UNL     1     -34.376  15.143  -6.537  1.00 20.00     0.009 C 
HETATM   10  C10 UNL     1     -35.038  14.750  -7.850  1.00 20.00     0.012 C 
HETATM   11 CL11 UNL     1     -34.573  16.731  -0.432  1.00 20.00    -0.084 Cl
HETATM   12 CL12 UNL     1     -34.796  13.023  -4.848  1.00 20.00    -0.119 Cl
ENDROOT
TORSDOF 0
ENDMDL
MODEL 2
REMARK VINA RESULT:      -4.8      1.889      4.919
REMARK  0 active torsions:
REMARK  status: ('A' for Active; 'I' for Inactive)
ROOT
HETATM    1  C1  UNL     1     -34.423  14.366  -3.397  1.00 20.00     0.009 A 
HETATM    2  C2  UNL     1     -34.430  14.110  -4.769  1.00 20.00     0.024 A 
HETATM    3  C3  UNL     1     -34.384  16.493  -5.256  1.00 20.00     0.033 A 
HETATM    4  C4  UNL     1     -34.381  15.686  -2.973  1.00 20.00    -0.050 A 
HETATM    5  C5  UNL     1     -34.353  16.744  -3.893  1.00 20.00    -0.031 A 
HETATM    6  C6  UNL     1     -34.412  15.166  -5.692  1.00 20.00     0.034 A 
HETATM    7  C7  UNL     1     -34.415  16.193  -1.565  1.00 20.00     0.045 C 
HETATM    8  C8  UNL     1     -34.371  18.059  -3.174  1.00 20.00     0.119 C 
HETATM    9  C9  UNL     1     -33.913  17.640  -1.755  1.00 20.00     0.009 C 
HETATM   10  C10 UNL     1     -34.417  18.576  -0.666  1.00 20.00     0.012 C 
HETATM   11 CL11 UNL     1     -34.418  14.822  -7.380  1.00 20.00    -0.084 Cl
HETATM   12 CL12 UNL     1     -33.279  19.262  -3.875  1.00 20.00    -0.119 Cl
ENDROOT
TORSDOF 0
ENDMDL
MODEL 3
REMARK VINA RESULT:      -4.7      1.230      1.344
REMARK  0 active torsions:
REMARK  status: ('A' for Active; 'I' for Inactive)
ROOT
HETATM    1  C1  UNL     1     -35.304  18.281  -3.388  1.00 20.00     0.009 A 
HETATM    2  C2  UNL     1     -35.259  18.323  -1.994  1.00 20.00     0.024 A 
HETATM    3  C3  UNL     1     -34.722  15.952  -1.898  1.00 20.00     0.033 A 
HETATM    4  C4  UNL     1     -35.042  17.075  -4.019  1.00 20.00    -0.050 A 
HETATM    5  C5  UNL     1     -34.745  15.919  -3.285  1.00 20.00    -0.031 A 
HETATM    6  C6  UNL     1     -34.972  17.167  -1.254  1.00 20.00     0.034 A 
HETATM    7  C7  UNL     1     -35.082  16.788  -5.488  1.00 20.00     0.045 C 
HETATM    8  C8  UNL     1     -34.564  14.749  -4.204  1.00 20.00     0.119 C 
HETATM    9  C9  UNL     1     -34.300  15.459  -5.555  1.00 20.00     0.009 C 
HETATM   10  C10 UNL     1     -34.695  14.613  -6.758  1.00 20.00     0.012 C 
HETATM   11 CL11 UNL     1     -34.919  17.247   0.466  1.00 20.00    -0.084 Cl
HETATM   12 CL12 UNL     1     -33.214  13.698  -3.754  1.00 20.00    -0.119 Cl
ENDROOT
TORSDOF 0
ENDMDL
MODEL 4
REMARK VINA RESULT:      -4.6      1.698      1.839
REMARK  0 active torsions:
REMARK  status: ('A' for Active; 'I' for Inactive)
ROOT
HETATM    1  C1  UNL     1     -33.261  15.534  -4.182  1.00 20.00     0.009 A 
HETATM    2  C2  UNL     1     -33.369  15.894  -2.837  1.00 20.00     0.024 A 
HETATM    3  C3  UNL     1     -35.783  16.112  -3.049  1.00 20.00     0.033 A 
HETATM    4  C4  UNL     1     -34.419  15.454  -4.938  1.00 20.00    -0.050 A 
HETATM    5  C5  UNL     1     -35.674  15.732  -4.378  1.00 20.00    -0.031 A 
HETATM    6  C6  UNL     1     -34.622  16.183  -2.276  1.00 20.00     0.034 A 
HETATM    7  C7  UNL     1     -34.536  15.137  -6.397  1.00 20.00     0.045 C 
HETATM    8  C8  UNL     1     -36.745  15.630  -5.422  1.00 20.00     0.119 C 
HETATM    9  C9  UNL     1     -36.034  14.786  -6.509  1.00 20.00     0.009 C 
HETATM   10  C10 UNL     1     -36.585  15.032  -7.907  1.00 20.00     0.012 C 
HETATM   11 CL11 UNL     1     -34.729  16.622  -0.613  1.00 20.00    -0.084 Cl
HETATM   12 CL12 UNL     1     -38.217  14.834  -4.849  1.00 20.00    -0.119 Cl
ENDROOT
TORSDOF 0
ENDMDL
MODEL 5
REMARK VINA RESULT:      -4.6      1.832      2.279
REMARK  0 active torsions:
REMARK  status: ('A' for Active; 'I' for Inactive)
ROOT
HETATM    1  C1  UNL     1     -36.570  17.659  -2.680  1.00 20.00     0.009 A 
HETATM    2  C2  UNL     1     -36.167  18.043  -1.400  1.00 20.00     0.024 A 
HETATM    3  C3  UNL     1     -34.447  16.322  -1.382  1.00 20.00     0.033 A 
HETATM    4  C4  UNL     1     -35.894  16.621  -3.301  1.00 20.00    -0.050 A 
HETATM    5  C5  UNL     1     -34.835  15.960  -2.663  1.00 20.00    -0.031 A 
HETATM    6  C6  UNL     1     -35.114  17.378  -0.755  1.00 20.00     0.034 A 
HETATM    7  C7  UNL     1     -36.183  16.015  -4.639  1.00 20.00     0.045 C 
HETATM    8  C8  UNL     1     -34.323  14.844  -3.524  1.00 20.00     0.119 C 
HETATM    9  C9  UNL     1     -34.869  15.255  -4.915  1.00 20.00     0.009 C 
HETATM   10  C10 UNL     1     -35.069  14.070  -5.849  1.00 20.00     0.012 C 
HETATM   11 CL11 UNL     1     -34.634  17.872   0.823  1.00 20.00    -0.084 Cl
HETATM   12 CL12 UNL     1     -32.559  14.714  -3.537  1.00 20.00    -0.119 Cl
ENDROOT
TORSDOF 0
ENDMDL
MODEL 6
REMARK VINA RESULT:      -4.5      1.924      2.597
REMARK  0 active torsions:
REMARK  status: ('A' for Active; 'I' for Inactive)
ROOT
HETATM    1  C1  UNL     1     -34.762  15.580  -2.289  1.00 20.00     0.009 A 
HETATM    2  C2  UNL     1     -34.407  16.602  -1.407  1.00 20.00     0.024 A 
HETATM    3  C3  UNL     1     -33.585  17.962  -3.250  1.00 20.00     0.033 A 
HETATM    4  C4  UNL     1     -34.536  15.770  -3.643  1.00 20.00    -0.050 A 
HETATM    5  C5  UNL     1     -33.960  16.954  -4.125  1.00 20.00    -0.031 A 
HETATM    6  C6  UNL     1     -33.821  17.784  -1.885  1.00 20.00     0.034 A 
HETATM    7  C7  UNL     1     -34.790  14.800  -4.755  1.00 20.00     0.045 C 
HETATM    8  C8  UNL     1     -33.773  16.875  -5.610  1.00 20.00     0.119 C 
HETATM    9  C9  UNL     1     -34.752  15.734  -5.983  1.00 20.00     0.009 C 
HETATM   10  C10 UNL     1     -34.354  15.001  -7.257  1.00 20.00     0.012 C 
HETATM   11 CL11 UNL     1     -33.396  19.032  -0.776  1.00 20.00    -0.084 Cl
HETATM   12 CL12 UNL     1     -34.182  18.375  -6.455  1.00 20.00    -0.119 Cl
ENDROOT
TORSDOF 0
ENDMDL
MODEL 7
REMARK VINA RESULT:      -4.5      2.225      4.842
REMARK  0 active torsions:
REMARK  status: ('A' for Active; 'I' for Inactive)
ROOT
HETATM    1  C1  UNL     1     -34.420  14.048  -5.092  1.00 20.00     0.009 A 
HETATM    2  C2  UNL     1     -35.160  14.070  -6.275  1.00 20.00     0.024 A 
HETATM    3  C3  UNL     1     -36.519  15.908  -5.439  1.00 20.00     0.033 A 
HETATM    4  C4  UNL     1     -34.731  14.968  -4.103  1.00 20.00    -0.050 A 
HETATM    5  C5  UNL     1     -35.766  15.898  -4.274  1.00 20.00    -0.031 A 
HETATM    6  C6  UNL     1     -36.203  14.993  -6.446  1.00 20.00     0.034 A 
HETATM    7  C7  UNL     1     -34.109  15.095  -2.747  1.00 20.00     0.045 C 
HETATM    8  C8  UNL     1     -35.930  16.729  -3.037  1.00 20.00     0.119 C 
HETATM    9  C9  UNL     1     -34.566  16.511  -2.338  1.00 20.00     0.009 C 
HETATM   10  C10 UNL     1     -34.637  16.684  -0.828  1.00 20.00     0.012 C 
HETATM   11 CL11 UNL     1     -37.099  15.001  -7.918  1.00 20.00    -0.084 Cl
HETATM   12 CL12 UNL     1     -36.217  18.443  -3.371  1.00 20.00    -0.119 Cl
ENDROOT
TORSDOF 0
ENDMDL
MODEL 8
REMARK VINA RESULT:      -4.4      2.176      4.883
REMARK  0 active torsions:
REMARK  status: ('A' for Active; 'I' for Inactive)
ROOT
HETATM    1  C1  UNL     1     -33.851  14.709  -3.086  1.00 20.00     0.009 A 
HETATM    2  C2  UNL     1     -34.083  14.247  -4.382  1.00 20.00     0.024 A 
HETATM    3  C3  UNL     1     -35.887  15.854  -4.675  1.00 20.00     0.033 A 
HETATM    4  C4  UNL     1     -34.632  15.749  -2.607  1.00 20.00    -0.050 A 
HETATM    5  C5  UNL     1     -35.638  16.326  -3.395  1.00 20.00    -0.031 A 
HETATM    6  C6  UNL     1     -35.095  14.815  -5.171  1.00 20.00     0.034 A 
HETATM    7  C7  UNL     1     -34.593  16.366  -1.243  1.00 20.00     0.045 C 
HETATM    8  C8  UNL     1     -36.367  17.381  -2.619  1.00 20.00     0.119 C 
HETATM    9  C9  UNL     1     -35.353  17.686  -1.489  1.00 20.00     0.009 C 
HETATM   10  C10 UNL     1     -36.014  18.218  -0.225  1.00 20.00     0.012 C 
HETATM   11 CL11 UNL     1     -35.359  14.229  -6.769  1.00 20.00    -0.084 Cl
HETATM   12 CL12 UNL     1     -36.729  18.831  -3.567  1.00 20.00    -0.119 Cl
ENDROOT
TORSDOF 0
ENDMDL
MODEL 9
REMARK VINA RESULT:      -4.3      5.409      8.470
REMARK  0 active torsions:
REMARK  status: ('A' for Active; 'I' for Inactive)
ROOT
HETATM    1  C1  UNL     1     -32.015  18.939   0.790  1.00 20.00     0.009 A 
HETATM    2  C2  UNL     1     -32.916  18.573  -0.211  1.00 20.00     0.024 A 
HETATM    3  C3  UNL     1     -34.594  17.997   1.454  1.00 20.00     0.033 A 
HETATM    4  C4  UNL     1     -32.422  18.842   2.111  1.00 20.00    -0.050 A 
HETATM    5  C5  UNL     1     -33.704  18.383   2.445  1.00 20.00    -0.031 A 
HETATM    6  C6  UNL     1     -34.197  18.104   0.119  1.00 20.00     0.034 A 
HETATM    7  C7  UNL     1     -31.613  19.130   3.338  1.00 20.00     0.045 C 
HETATM    8  C8  UNL     1     -33.862  18.319   3.934  1.00 20.00     0.119 C 
HETATM    9  C9  UNL     1     -32.721  19.254   4.405  1.00 20.00     0.009 C 
HETATM   10  C10 UNL     1     -32.219  18.922   5.803  1.00 20.00     0.012 C 
HETATM   11 CL11 UNL     1     -35.292  17.663  -1.135  1.00 20.00    -0.084 Cl
HETATM   12 CL12 UNL     1     -35.438  18.890   4.502  1.00 20.00    -0.119 Cl
ENDROOT
TORSDOF 0
ENDMDL
