MODEL 1
REMARK VINA RESULT:      -4.9      0.000      0.000
REMARK  0 active torsions:
REMARK  status: ('A' for Active; 'I' for Inactive)
ROOT
HETATM    1  C1  UNL     1     -34.748  14.822  -7.230  1.00 20.00     0.009 A 
HETATM    2  C2  UNL     1     -34.885  16.129  -7.701  1.00 20.00     0.024 A 
HETATM    3  C3  UNL     1     -35.186  16.958  -5.433  1.00 20.00     0.032 A 
HETATM    4  C4  UNL     1     -34.816  14.607  -5.863  1.00 20.00    -0.050 A 
HETATM    5  C5  UNL     1     -35.020  15.663  -4.964  1.00 20.00    -0.035 A 
HETATM    6  C6  UNL     1     -35.105  17.188  -6.810  1.00 20.00     0.034 A 
HETATM    7  C7  UNL     1     -34.751  13.293  -5.144  1.00 20.00     0.045 C 
HETATM    8  C8  UNL     1     -35.118  15.128  -3.567  1.00 20.00     0.095 C 
HETATM    9  C9  UNL     1     -34.435  13.743  -3.695  1.00 20.00     0.005 C 
HETATM   10  C10 UNL     1     -32.914  13.717  -3.471  1.00 20.00     0.011 C 
HETATM   11 CL11 UNL     1     -35.270  18.792  -7.416  1.00 20.00    -0.084 Cl
HETATM   12 BR12 UNL     1     -34.347  16.289  -2.236  1.00 20.00    -0.086 Br
ENDROOT
TORSDOF 0
ENDMDL
MODEL 2
REMARK VINA RESULT:      -4.8      2.660      3.860
REMARK  0 active torsions:
REMARK  status: ('A' for Active; 'I' for Inactive)
ROOT
HETATM    1  C1  UNL     1     -34.415  15.069  -3.079  1.00 20.00     0.009 A 
HETATM    2  C2  UNL     1     -34.113  16.242  -2.386  1.00 20.00     0.024 A 
HETATM    3  C3  UNL     1     -33.727  17.425  -4.478  1.00 20.00     0.032 A 
HETATM    4  C4  UNL     1     -34.385  15.097  -4.463  1.00 20.00    -0.050 A 
HETATM    5  C5  UNL     1     -34.057  16.266  -5.165  1.00 20.00    -0.035 A 
HETATM    6  C6  UNL     1     -33.769  17.411  -3.080  1.00 20.00     0.034 A 
HETATM    7  C7  UNL     1     -34.619  13.953  -5.404  1.00 20.00     0.045 C 
HETATM    8  C8  UNL     1     -34.036  15.985  -6.638  1.00 20.00     0.095 C 
HETATM    9  C9  UNL     1     -34.886  14.693  -6.739  1.00 20.00     0.005 C 
HETATM   10  C10 UNL     1     -36.400  14.893  -6.919  1.00 20.00     0.011 C 
HETATM   11 CL11 UNL     1     -33.401  18.847  -2.202  1.00 20.00    -0.084 Cl
HETATM   12 BR12 UNL     1     -34.666  17.453  -7.716  1.00 20.00    -0.086 Br
ENDROOT
TORSDOF 0
ENDMDL
MODEL 3
REMARK VINA RESULT:      -4.7      1.187      1.187
REMARK  0 active torsions:
REMARK  status: ('A' for Active; 'I' for Inactive)
ROOT
HETATM    1  C1  UNL     1     -35.434  14.395  -6.950  1.00 20.00     0.009 A 
HETATM    2  C2  UNL     1     -36.180  15.490  -7.386  1.00 20.00     0.024 A 
HETATM    3  C3  UNL     1     -36.407  16.297  -5.101  1.00 20.00     0.032 A 
HETATM    4  C4  UNL     1     -35.171  14.277  -5.595  1.00 20.00    -0.050 A 
HETATM    5  C5  UNL     1     -35.640  15.224  -4.672  1.00 20.00    -0.035 A 
HETATM    6  C6  UNL     1     -36.665  16.433  -6.468  1.00 20.00     0.034 A 
HETATM    7  C7  UNL     1     -34.443  13.165  -4.900  1.00 20.00     0.045 C 
HETATM    8  C8  UNL     1     -35.266  14.805  -3.282  1.00 20.00     0.095 C 
HETATM    9  C9  UNL     1     -34.102  13.816  -3.536  1.00 20.00     0.005 C 
HETATM   10  C10 UNL     1     -32.694  14.431  -3.602  1.00 20.00     0.011 C 
HETATM   11 CL11 UNL     1     -37.583  17.778  -7.032  1.00 20.00    -0.084 Cl
HETATM   12 BR12 UNL     1     -34.834  16.280  -2.118  1.00 20.00    -0.086 Br
ENDROOT
TORSDOF 0
ENDMDL
MODEL 4
REMARK VINA RESULT:      -4.6      3.055      4.260
REMARK  0 active torsions:
REMARK  status: ('A' for Active; 'I' for Inactive)
ROOT
HETATM    1  C1  UNL     1     -34.099  16.570  -1.395  1.00 20.00     0.009 A 
HETATM    2  C2  UNL     1     -35.089  17.410  -0.885  1.00 20.00     0.024 A 
HETATM    3  C3  UNL     1     -36.293  17.341  -2.999  1.00 20.00     0.032 A 
HETATM    4  C4  UNL     1     -34.230  16.114  -2.696  1.00 20.00    -0.050 A 
HETATM    5  C5  UNL     1     -35.323  16.483  -3.494  1.00 20.00    -0.035 A 
HETATM    6  C6  UNL     1     -36.177  17.795  -1.682  1.00 20.00     0.034 A 
HETATM    7  C7  UNL     1     -33.270  15.255  -3.463  1.00 20.00     0.045 C 
HETATM    8  C8  UNL     1     -35.167  15.901  -4.868  1.00 20.00     0.095 C 
HETATM    9  C9  UNL     1     -34.161  14.748  -4.625  1.00 20.00     0.005 C 
HETATM   10  C10 UNL     1     -34.769  13.387  -4.247  1.00 20.00     0.011 C 
HETATM   11 CL11 UNL     1     -37.387  18.833  -1.028  1.00 20.00    -0.084 Cl
HETATM   12 BR12 UNL     1     -36.832  15.363  -5.676  1.00 20.00    -0.086 Br
ENDROOT
TORSDOF 0
ENDMDL
MODEL 5
REMARK VINA RESULT:      -4.5      2.584      4.049
REMARK  0 active torsions:
REMARK  status: ('A' for Active; 'I' for Inactive)
ROOT
HETATM    1  C1  UNL     1     -34.455  13.801  -4.714  1.00 20.00     0.009 A 
HETATM    2  C2  UNL     1     -34.427  14.259  -3.396  1.00 20.00     0.024 A 
HETATM    3  C3  UNL     1     -34.974  16.515  -4.126  1.00 20.00     0.032 A 
HETATM    4  C4  UNL     1     -34.759  14.706  -5.717  1.00 20.00    -0.050 A 
HETATM    5  C5  UNL     1     -35.030  16.052  -5.432  1.00 20.00    -0.035 A 
HETATM    6  C6  UNL     1     -34.682  15.606  -3.104  1.00 20.00     0.034 A 
HETATM    7  C7  UNL     1     -34.792  14.452  -7.195  1.00 20.00     0.045 C 
HETATM    8  C8  UNL     1     -35.257  16.805  -6.709  1.00 20.00     0.095 C 
HETATM    9  C9  UNL     1     -35.603  15.671  -7.705  1.00 20.00     0.005 C 
HETATM   10  C10 UNL     1     -37.089  15.289  -7.806  1.00 20.00     0.011 C 
HETATM   11 CL11 UNL     1     -34.643  16.147  -1.469  1.00 20.00    -0.084 Cl
HETATM   12 BR12 UNL     1     -36.589  18.190  -6.566  1.00 20.00    -0.086 Br
ENDROOT
TORSDOF 0
ENDMDL
MODEL 6
REMARK VINA RESULT:      -4.5      2.480      3.567
REMARK  0 active torsions:
REMARK  status: ('A' for Active; 'I' for Inactive)
ROOT
HETATM    1  C1  UNL     1     -34.254  14.278  -3.424  1.00 20.00     0.009 A 
HETATM    2  C2  UNL     1     -34.457  13.898  -4.751  1.00 20.00     0.024 A 
HETATM    3  C3  UNL     1     -35.660  15.966  -5.201  1.00 20.00     0.032 A 
HETATM    4  C4  UNL     1     -34.743  15.506  -3.010  1.00 20.00    -0.050 A 
HETATM    5  C5  UNL     1     -35.432  16.354  -3.889  1.00 20.00    -0.035 A 
HETATM    6  C6  UNL     1     -35.157  14.735  -5.633  1.00 20.00     0.034 A 
HETATM    7  C7  UNL     1     -34.690  16.090  -1.630  1.00 20.00     0.045 C 
HETATM    8  C8  UNL     1     -35.902  17.574  -3.154  1.00 20.00     0.095 C 
HETATM    9  C9  UNL     1     -34.975  17.588  -1.912  1.00 20.00     0.005 C 
HETATM   10  C10 UNL     1     -33.644  18.341  -2.069  1.00 20.00     0.011 C 
HETATM   11 CL11 UNL     1     -35.394  14.243  -7.267  1.00 20.00    -0.084 Cl
HETATM   12 BR12 UNL     1     -35.857  19.183  -4.213  1.00 20.00    -0.086 Br
ENDROOT
TORSDOF 0
ENDMDL
MODEL 7
REMARK VINA RESULT:      -4.4      3.043      4.296
REMARK  0 active torsions:
REMARK  status: ('A' for Active; 'I' for Inactive)
ROOT
HETATM    1  C1  UNL     1     -36.598  17.663  -3.209  1.00 20.00     0.009 A 
HETATM    2  C2  UNL     1     -35.984  18.053  -2.019  1.00 20.00     0.024 A 
HETATM    3  C3  UNL     1     -34.786  15.938  -1.897  1.00 20.00     0.032 A 
HETATM    4  C4  UNL     1     -36.283  16.420  -3.734  1.00 20.00    -0.050 A 
HETATM    5  C5  UNL     1     -35.375  15.564  -3.095  1.00 20.00    -0.035 A 
HETATM    6  C6  UNL     1     -35.087  17.196  -1.366  1.00 20.00     0.034 A 
HETATM    7  C7  UNL     1     -36.857  15.777  -4.962  1.00 20.00     0.045 C 
HETATM    8  C8  UNL     1     -35.282  14.270  -3.848  1.00 20.00     0.095 C 
HETATM    9  C9  UNL     1     -35.817  14.664  -5.248  1.00 20.00     0.005 C 
HETATM   10  C10 UNL     1     -34.773  15.184  -6.250  1.00 20.00     0.011 C 
HETATM   11 CL11 UNL     1     -34.341  17.701   0.103  1.00 20.00    -0.084 Cl
HETATM   12 BR12 UNL     1     -33.517  13.497  -3.847  1.00 20.00    -0.086 Br
ENDROOT
TORSDOF 0
ENDMDL
MODEL 8
REMARK VINA RESULT:      -4.4      2.857      4.022
REMARK  0 active torsions:
REMARK  status: ('A' for Active; 'I' for Inactive)
ROOT
HETATM    1  C1  UNL     1     -34.057  16.998  -5.843  1.00 20.00     0.009 A 
HETATM    2  C2  UNL     1     -34.229  15.624  -6.016  1.00 20.00     0.024 A 
HETATM    3  C3  UNL     1     -34.013  15.255  -3.620  1.00 20.00     0.032 A 
HETATM    4  C4  UNL     1     -33.883  17.481  -4.557  1.00 20.00    -0.050 A 
HETATM    5  C5  UNL     1     -33.872  16.624  -3.447  1.00 20.00    -0.035 A 
HETATM    6  C6  UNL     1     -34.204  14.759  -4.913  1.00 20.00     0.034 A 
HETATM    7  C7  UNL     1     -33.628  18.900  -4.142  1.00 20.00     0.045 C 
HETATM    8  C8  UNL     1     -33.597  17.411  -2.201  1.00 20.00     0.095 C 
HETATM    9  C9  UNL     1     -33.969  18.852  -2.631  1.00 20.00     0.005 C 
HETATM   10  C10 UNL     1     -35.436  19.263  -2.424  1.00 20.00     0.011 C 
HETATM   11 CL11 UNL     1     -34.419  13.066  -5.153  1.00 20.00    -0.084 Cl
HETATM   12 BR12 UNL     1     -34.541  16.762  -0.651  1.00 20.00    -0.086 Br
ENDROOT
TORSDOF 0
ENDMDL
MODEL 9
REMARK VINA RESULT:      -4.4      7.490      8.921
REMARK  0 active torsions:
REMARK  status: ('A' for Active; 'I' for Inactive)
ROOT
HETATM    1  C1  UNL     1     -31.314  18.896   2.117  1.00 20.00     0.009 A 
HETATM    2  C2  UNL     1     -31.502  18.802   3.496  1.00 20.00     0.024 A 
HETATM    3  C3  UNL     1     -33.915  18.954   3.219  1.00 20.00     0.032 A 
HETATM    4  C4  UNL     1     -32.434  19.001   1.308  1.00 20.00    -0.050 A 
HETATM    5  C5  UNL     1     -33.728  19.018   1.846  1.00 20.00    -0.035 A 
HETATM    6  C6  UNL     1     -32.792  18.833   4.044  1.00 20.00     0.034 A 
HETATM    7  C7  UNL     1     -32.469  19.168  -0.183  1.00 20.00     0.045 C 
HETATM    8  C8  UNL     1     -34.732  19.208   0.749  1.00 20.00     0.095 C 
HETATM    9  C9  UNL     1     -33.934  18.778  -0.507  1.00 20.00     0.005 C 
HETATM   10  C10 UNL     1     -33.997  17.285  -0.871  1.00 20.00     0.011 C 
HETATM   11 CL11 UNL     1     -32.997  18.714   5.750  1.00 20.00    -0.084 Cl
HETATM   12 BR12 UNL     1     -36.378  18.246   1.028  1.00 20.00    -0.086 Br
ENDROOT
TORSDOF 0
ENDMDL
