MODEL 1
REMARK VINA RESULT:      -4.8      0.000      0.000
REMARK  0 active torsions:
REMARK  status: ('A' for Active; 'I' for Inactive)
ROOT
HETATM    1  C1  UNL     1     -34.743  14.800  -7.167  1.00 20.00     0.009 A 
HETATM    2  C2  UNL     1     -34.803  16.103  -7.660  1.00 20.00     0.024 A 
HETATM    3  C3  UNL     1     -34.943  16.997  -5.401  1.00 20.00     0.033 A 
HETATM    4  C4  UNL     1     -34.768  14.615  -5.793  1.00 20.00    -0.050 A 
HETATM    5  C5  UNL     1     -34.858  15.701  -4.913  1.00 20.00    -0.031 A 
HETATM    6  C6  UNL     1     -34.904  17.194  -6.783  1.00 20.00     0.034 A 
HETATM    7  C7  UNL     1     -34.760  13.315  -5.047  1.00 20.00     0.045 C 
HETATM    8  C8  UNL     1     -34.932  15.212  -3.495  1.00 20.00     0.119 C 
HETATM    9  C9  UNL     1     -34.357  13.773  -3.624  1.00 20.00     0.009 C 
HETATM   10  C10 UNL     1     -32.835  13.658  -3.448  1.00 20.00     0.012 C 
HETATM   11 CL11 UNL     1     -34.973  18.794  -7.419  1.00 20.00    -0.084 Cl
HETATM   12 CL12 UNL     1     -34.092  16.243  -2.334  1.00 20.00    -0.119 Cl
ENDROOT
TORSDOF 0
ENDMDL
MODEL 2
REMARK VINA RESULT:      -4.8      2.525      4.129
REMARK  0 active torsions:
REMARK  status: ('A' for Active; 'I' for Inactive)
ROOT
HETATM    1  C1  UNL     1     -36.603  17.237  -3.222  1.00 20.00     0.009 A 
HETATM    2  C2  UNL     1     -36.004  17.789  -2.089  1.00 20.00     0.024 A 
HETATM    3  C3  UNL     1     -34.496  15.887  -1.909  1.00 20.00     0.033 A 
HETATM    4  C4  UNL     1     -36.128  16.023  -3.692  1.00 20.00    -0.050 A 
HETATM    5  C5  UNL     1     -35.078  15.353  -3.050  1.00 20.00    -0.031 A 
HETATM    6  C6  UNL     1     -34.959  17.118  -1.437  1.00 20.00     0.034 A 
HETATM    7  C7  UNL     1     -36.645  15.228  -4.853  1.00 20.00     0.045 C 
HETATM    8  C8  UNL     1     -34.812  14.039  -3.727  1.00 20.00     0.119 C 
HETATM    9  C9  UNL     1     -35.465  14.262  -5.122  1.00 20.00     0.009 C 
HETATM   10  C10 UNL     1     -34.536  14.855  -6.192  1.00 20.00     0.012 C 
HETATM   11 CL11 UNL     1     -34.233  17.823  -0.043  1.00 20.00    -0.084 Cl
HETATM   12 CL12 UNL     1     -33.107  13.586  -3.772  1.00 20.00    -0.119 Cl
ENDROOT
TORSDOF 0
ENDMDL
MODEL 3
REMARK VINA RESULT:      -4.8      1.495      3.810
REMARK  0 active torsions:
REMARK  status: ('A' for Active; 'I' for Inactive)
ROOT
HETATM    1  C1  UNL     1     -34.558  14.945  -3.101  1.00 20.00     0.009 A 
HETATM    2  C2  UNL     1     -34.236  16.098  -2.385  1.00 20.00     0.024 A 
HETATM    3  C3  UNL     1     -33.727  17.287  -4.447  1.00 20.00     0.033 A 
HETATM    4  C4  UNL     1     -34.475  14.985  -4.484  1.00 20.00    -0.050 A 
HETATM    5  C5  UNL     1     -34.072  16.146  -5.157  1.00 20.00    -0.031 A 
HETATM    6  C6  UNL     1     -33.822  17.260  -3.054  1.00 20.00     0.034 A 
HETATM    7  C7  UNL     1     -34.726  13.863  -5.446  1.00 20.00     0.045 C 
HETATM    8  C8  UNL     1     -34.008  15.890  -6.635  1.00 20.00     0.119 C 
HETATM    9  C9  UNL     1     -34.907  14.629  -6.779  1.00 20.00     0.009 C 
HETATM   10  C10 UNL     1     -36.398  14.912  -7.023  1.00 20.00     0.012 C 
HETATM   11 CL11 UNL     1     -33.434  18.672  -2.146  1.00 20.00    -0.084 Cl
HETATM   12 CL12 UNL     1     -34.500  17.266  -7.625  1.00 20.00    -0.119 Cl
ENDROOT
TORSDOF 0
ENDMDL
MODEL 4
REMARK VINA RESULT:      -4.7      2.551      4.102
REMARK  0 active torsions:
REMARK  status: ('A' for Active; 'I' for Inactive)
ROOT
HETATM    1  C1  UNL     1     -33.936  16.957  -5.477  1.00 20.00     0.009 A 
HETATM    2  C2  UNL     1     -34.151  15.594  -5.678  1.00 20.00     0.024 A 
HETATM    3  C3  UNL     1     -34.112  15.191  -3.278  1.00 20.00     0.033 A 
HETATM    4  C4  UNL     1     -33.828  17.422  -4.175  1.00 20.00    -0.050 A 
HETATM    5  C5  UNL     1     -33.924  16.551  -3.081  1.00 20.00    -0.031 A 
HETATM    6  C6  UNL     1     -34.237  14.717  -4.586  1.00 20.00     0.034 A 
HETATM    7  C7  UNL     1     -33.554  18.825  -3.726  1.00 20.00     0.045 C 
HETATM    8  C8  UNL     1     -33.706  17.306  -1.801  1.00 20.00     0.119 C 
HETATM    9  C9  UNL     1     -33.991  18.770  -2.242  1.00 20.00     0.009 C 
HETATM   10  C10 UNL     1     -35.454  19.221  -2.108  1.00 20.00     0.012 C 
HETATM   11 CL11 UNL     1     -34.506  13.038  -4.862  1.00 20.00    -0.084 Cl
HETATM   12 CL12 UNL     1     -34.693  16.733  -0.453  1.00 20.00    -0.119 Cl
ENDROOT
TORSDOF 0
ENDMDL
MODEL 5
REMARK VINA RESULT:      -4.6      2.619      4.247
REMARK  0 active torsions:
REMARK  status: ('A' for Active; 'I' for Inactive)
ROOT
HETATM    1  C1  UNL     1     -34.088  16.579  -1.418  1.00 20.00     0.009 A 
HETATM    2  C2  UNL     1     -35.081  17.414  -0.907  1.00 20.00     0.024 A 
HETATM    3  C3  UNL     1     -36.302  17.317  -3.011  1.00 20.00     0.033 A 
HETATM    4  C4  UNL     1     -34.224  16.111  -2.715  1.00 20.00    -0.050 A 
HETATM    5  C5  UNL     1     -35.324  16.467  -3.507  1.00 20.00    -0.031 A 
HETATM    6  C6  UNL     1     -36.180  17.781  -1.698  1.00 20.00     0.034 A 
HETATM    7  C7  UNL     1     -33.266  15.248  -3.480  1.00 20.00     0.045 C 
HETATM    8  C8  UNL     1     -35.185  15.877  -4.880  1.00 20.00     0.119 C 
HETATM    9  C9  UNL     1     -34.161  14.732  -4.633  1.00 20.00     0.009 C 
HETATM   10  C10 UNL     1     -34.775  13.376  -4.253  1.00 20.00     0.012 C 
HETATM   11 CL11 UNL     1     -37.395  18.811  -1.042  1.00 20.00    -0.084 Cl
HETATM   12 CL12 UNL     1     -36.713  15.361  -5.600  1.00 20.00    -0.119 Cl
ENDROOT
TORSDOF 0
ENDMDL
MODEL 6
REMARK VINA RESULT:      -4.5      6.641      8.769
REMARK  0 active torsions:
REMARK  status: ('A' for Active; 'I' for Inactive)
ROOT
HETATM    1  C1  UNL     1     -31.435  18.864   2.015  1.00 20.00     0.009 A 
HETATM    2  C2  UNL     1     -31.575  18.785   3.401  1.00 20.00     0.024 A 
HETATM    3  C3  UNL     1     -34.001  18.810   3.199  1.00 20.00     0.033 A 
HETATM    4  C4  UNL     1     -32.583  18.899   1.239  1.00 20.00    -0.050 A 
HETATM    5  C5  UNL     1     -33.858  18.864   1.821  1.00 20.00    -0.031 A 
HETATM    6  C6  UNL     1     -32.849  18.759   3.989  1.00 20.00     0.034 A 
HETATM    7  C7  UNL     1     -32.674  19.029  -0.251  1.00 20.00     0.045 C 
HETATM    8  C8  UNL     1     -34.913  18.981   0.759  1.00 20.00     0.119 C 
HETATM    9  C9  UNL     1     -34.127  18.567  -0.519  1.00 20.00     0.009 C 
HETATM   10  C10 UNL     1     -34.149  17.066  -0.844  1.00 20.00     0.012 C 
HETATM   11 CL11 UNL     1     -32.994  18.657   5.702  1.00 20.00    -0.084 Cl
HETATM   12 CL12 UNL     1     -36.362  18.025   1.078  1.00 20.00    -0.119 Cl
ENDROOT
TORSDOF 0
ENDMDL
MODEL 7
REMARK VINA RESULT:      -4.5      2.340      3.493
REMARK  0 active torsions:
REMARK  status: ('A' for Active; 'I' for Inactive)
ROOT
HETATM    1  C1  UNL     1     -34.295  14.202  -3.503  1.00 20.00     0.009 A 
HETATM    2  C2  UNL     1     -34.487  13.837  -4.835  1.00 20.00     0.024 A 
HETATM    3  C3  UNL     1     -35.641  15.932  -5.287  1.00 20.00     0.033 A 
HETATM    4  C4  UNL     1     -34.767  15.436  -3.084  1.00 20.00    -0.050 A 
HETATM    5  C5  UNL     1     -35.427  16.302  -3.967  1.00 20.00    -0.031 A 
HETATM    6  C6  UNL     1     -35.156  14.695  -5.721  1.00 20.00     0.034 A 
HETATM    7  C7  UNL     1     -34.714  16.013  -1.702  1.00 20.00     0.045 C 
HETATM    8  C8  UNL     1     -35.885  17.532  -3.238  1.00 20.00     0.119 C 
HETATM    9  C9  UNL     1     -34.972  17.514  -1.978  1.00 20.00     0.009 C 
HETATM   10  C10 UNL     1     -33.636  18.257  -2.127  1.00 20.00     0.012 C 
HETATM   11 CL11 UNL     1     -35.376  14.222  -7.363  1.00 20.00    -0.084 Cl
HETATM   12 CL12 UNL     1     -35.794  19.011  -4.197  1.00 20.00    -0.119 Cl
ENDROOT
TORSDOF 0
ENDMDL
MODEL 8
REMARK VINA RESULT:      -4.5     11.788     13.071
REMARK  0 active torsions:
REMARK  status: ('A' for Active; 'I' for Inactive)
ROOT
HETATM    1  C1  UNL     1     -43.416   7.812  -0.675  1.00 20.00     0.009 A 
HETATM    2  C2  UNL     1     -43.362   8.435  -1.922  1.00 20.00     0.024 A 
HETATM    3  C3  UNL     1     -41.960   6.651  -2.800  1.00 20.00     0.033 A 
HETATM    4  C4  UNL     1     -42.752   6.607  -0.513  1.00 20.00    -0.050 A 
HETATM    5  C5  UNL     1     -42.035   6.022  -1.566  1.00 20.00    -0.031 A 
HETATM    6  C6  UNL     1     -42.638   7.859  -2.976  1.00 20.00     0.034 A 
HETATM    7  C7  UNL     1     -42.635   5.790   0.738  1.00 20.00     0.045 C 
HETATM    8  C8  UNL     1     -41.365   4.762  -1.097  1.00 20.00     0.119 C 
HETATM    9  C9  UNL     1     -42.189   4.418   0.177  1.00 20.00     0.009 C 
HETATM   10  C10 UNL     1     -43.416   3.524  -0.060  1.00 20.00     0.012 C 
HETATM   11 CL11 UNL     1     -42.591   8.647  -4.508  1.00 20.00    -0.084 Cl
HETATM   12 CL12 UNL     1     -41.311   3.483  -2.312  1.00 20.00    -0.119 Cl
ENDROOT
TORSDOF 0
ENDMDL
MODEL 9
REMARK VINA RESULT:      -4.3      2.769      5.035
REMARK  0 active torsions:
REMARK  status: ('A' for Active; 'I' for Inactive)
ROOT
HETATM    1  C1  UNL     1     -36.760  18.061  -1.932  1.00 20.00     0.009 A 
HETATM    2  C2  UNL     1     -36.192  18.337  -0.689  1.00 20.00     0.024 A 
HETATM    3  C3  UNL     1     -34.529  16.590  -1.014  1.00 20.00     0.033 A 
HETATM    4  C4  UNL     1     -36.194  17.061  -2.707  1.00 20.00    -0.050 A 
HETATM    5  C5  UNL     1     -35.082  16.334  -2.260  1.00 20.00    -0.031 A 
HETATM    6  C6  UNL     1     -35.085  17.606  -0.232  1.00 20.00     0.034 A 
HETATM    7  C7  UNL     1     -36.660  16.566  -4.043  1.00 20.00     0.045 C 
HETATM    8  C8  UNL     1     -34.719  15.277  -3.263  1.00 20.00     0.119 C 
HETATM    9  C9  UNL     1     -35.408  15.810  -4.551  1.00 20.00     0.009 C 
HETATM   10  C10 UNL     1     -34.547  16.743  -5.416  1.00 20.00     0.012 C 
HETATM   11 CL11 UNL     1     -34.400  17.970   1.306  1.00 20.00    -0.084 Cl
HETATM   12 CL12 UNL     1     -32.983  14.996  -3.414  1.00 20.00    -0.119 Cl
ENDROOT
TORSDOF 0
ENDMDL
