MODEL 1
REMARK VINA RESULT:      -4.2      0.000      0.000
REMARK  3 active torsions:
REMARK  status: ('A' for Active; 'I' for Inactive)
REMARK    1  A    between atoms: C1_1  and  C6_6 
REMARK    2  A    between atoms: C2_2  and  C7_7 
REMARK    3  A    between atoms: C5_5  and  C6_6 
ROOT
HETATM    1  C3  UNL     1     -36.338  14.318  -3.910  1.00 20.00     0.124 A 
HETATM    2  C4  UNL     1     -35.362  13.459  -4.372  1.00 20.00     0.070 A 
HETATM    3  C5  UNL     1     -34.578  15.361  -3.118  1.00 20.00     0.085 A 
HETATM    4  N8  UNL     1     -35.890  15.408  -3.190  1.00 20.00    -0.257 NA
HETATM    5  S9  UNL     1     -33.818  14.033  -3.894  1.00 20.00    -0.084 SA
ENDROOT
BRANCH   3   6
HETATM    6  C6  UNL     1     -33.726  16.383  -2.412  1.00 20.00     0.161 C 
BRANCH   6   7
HETATM    7  C1  UNL     1     -34.319  16.802  -1.135  1.00 20.00    -0.099 C 
HETATM    8  C2  UNL     1     -34.806  17.141  -0.091  1.00 20.00    -0.091 C 
BRANCH   8   9
HETATM    9  C7  UNL     1     -35.399  17.553   1.178  1.00 20.00     0.208 C 
HETATM   10 CL10 UNL     1     -34.140  18.300   2.182  1.00 20.00    -0.117 Cl
ENDBRANCH   8   9
ENDBRANCH   6   7
ENDBRANCH   3   6
TORSDOF 3
ENDMDL
MODEL 2
REMARK VINA RESULT:      -4.0      1.229      1.378
REMARK  3 active torsions:
REMARK  status: ('A' for Active; 'I' for Inactive)
REMARK    1  A    between atoms: C1_1  and  C6_6 
REMARK    2  A    between atoms: C2_2  and  C7_7 
REMARK    3  A    between atoms: C5_5  and  C6_6 
ROOT
HETATM    1  C3  UNL     1     -34.307  13.454  -4.290  1.00 20.00     0.124 A 
HETATM    2  C4  UNL     1     -35.646  13.757  -4.169  1.00 20.00     0.070 A 
HETATM    3  C5  UNL     1     -34.117  15.373  -3.245  1.00 20.00     0.085 A 
HETATM    4  N8  UNL     1     -33.428  14.379  -3.762  1.00 20.00    -0.257 NA
HETATM    5  S9  UNL     1     -35.825  15.259  -3.358  1.00 20.00    -0.084 SA
ENDROOT
BRANCH   3   6
HETATM    6  C6  UNL     1     -33.505  16.575  -2.573  1.00 20.00     0.161 C 
BRANCH   6   7
HETATM    7  C1  UNL     1     -34.154  16.874  -1.290  1.00 20.00    -0.099 C 
HETATM    8  C2  UNL     1     -34.686  17.114  -0.240  1.00 20.00    -0.091 C 
BRANCH   8   9
HETATM    9  C7  UNL     1     -35.333  17.407   1.036  1.00 20.00     0.208 C 
HETATM   10 CL10 UNL     1     -34.210  18.336   2.048  1.00 20.00    -0.117 Cl
ENDBRANCH   8   9
ENDBRANCH   6   7
ENDBRANCH   3   6
TORSDOF 3
ENDMDL
MODEL 3
REMARK VINA RESULT:      -3.9     10.802     11.126
REMARK  3 active torsions:
REMARK  status: ('A' for Active; 'I' for Inactive)
REMARK    1  A    between atoms: C1_1  and  C6_6 
REMARK    2  A    between atoms: C2_2  and  C7_7 
REMARK    3  A    between atoms: C5_5  and  C6_6 
ROOT
HETATM    1  C3  UNL     1     -35.218   5.061   3.868  1.00 20.00     0.124 A 
HETATM    2  C4  UNL     1     -35.247   5.240   5.235  1.00 20.00     0.070 A 
HETATM    3  C5  UNL     1     -33.300   6.096   4.105  1.00 20.00     0.085 A 
HETATM    4  N8  UNL     1     -34.103   5.552   3.218  1.00 20.00    -0.257 NA
HETATM    5  S9  UNL     1     -33.822   6.052   5.739  1.00 20.00    -0.084 SA
ENDROOT
BRANCH   3   6
HETATM    6  C6  UNL     1     -31.977   6.740   3.776  1.00 20.00     0.161 C 
BRANCH   6   7
HETATM    7  C1  UNL     1     -32.108   7.752   2.720  1.00 20.00    -0.099 C 
HETATM    8  C2  UNL     1     -32.211   8.580   1.856  1.00 20.00    -0.091 C 
BRANCH   8   9
HETATM    9  C7  UNL     1     -32.336   9.587   0.806  1.00 20.00     0.208 C 
HETATM   10 CL10 UNL     1     -32.864   8.792  -0.690  1.00 20.00    -0.117 Cl
ENDBRANCH   8   9
ENDBRANCH   6   7
ENDBRANCH   3   6
TORSDOF 3
ENDMDL
MODEL 4
REMARK VINA RESULT:      -3.9      2.062      2.804
REMARK  3 active torsions:
REMARK  status: ('A' for Active; 'I' for Inactive)
REMARK    1  A    between atoms: C1_1  and  C6_6 
REMARK    2  A    between atoms: C2_2  and  C7_7 
REMARK    3  A    between atoms: C5_5  and  C6_6 
ROOT
HETATM    1  C3  UNL     1     -38.852  14.717  -4.258  1.00 20.00     0.124 A 
HETATM    2  C4  UNL     1     -38.600  15.318  -5.473  1.00 20.00     0.070 A 
HETATM    3  C5  UNL     1     -36.661  14.622  -4.225  1.00 20.00     0.085 A 
HETATM    4  N8  UNL     1     -37.742  14.316  -3.541  1.00 20.00    -0.257 NA
HETATM    5  S9  UNL     1     -36.907  15.393  -5.738  1.00 20.00    -0.084 SA
ENDROOT
BRANCH   3   6
HETATM    6  C6  UNL     1     -35.254  14.341  -3.765  1.00 20.00     0.161 C 
BRANCH   6   7
HETATM    7  C1  UNL     1     -34.774  15.356  -2.818  1.00 20.00    -0.099 C 
HETATM    8  C2  UNL     1     -34.386  16.190  -2.046  1.00 20.00    -0.091 C 
BRANCH   8   9
HETATM    9  C7  UNL     1     -33.912  17.202  -1.106  1.00 20.00     0.208 C 
HETATM   10 CL10 UNL     1     -34.941  17.169   0.339  1.00 20.00    -0.117 Cl
ENDBRANCH   8   9
ENDBRANCH   6   7
ENDBRANCH   3   6
TORSDOF 3
ENDMDL
MODEL 5
REMARK VINA RESULT:      -3.8      2.117      2.407
REMARK  3 active torsions:
REMARK  status: ('A' for Active; 'I' for Inactive)
REMARK    1  A    between atoms: C1_1  and  C6_6 
REMARK    2  A    between atoms: C2_2  and  C7_7 
REMARK    3  A    between atoms: C5_5  and  C6_6 
ROOT
HETATM    1  C3  UNL     1     -33.445  17.148  -5.288  1.00 20.00     0.124 A 
HETATM    2  C4  UNL     1     -33.922  16.057  -5.983  1.00 20.00     0.070 A 
HETATM    3  C5  UNL     1     -34.359  16.066  -3.614  1.00 20.00     0.085 A 
HETATM    4  N8  UNL     1     -33.694  17.155  -3.930  1.00 20.00    -0.257 NA
HETATM    5  S9  UNL     1     -34.716  14.988  -4.900  1.00 20.00    -0.084 SA
ENDROOT
BRANCH   3   6
HETATM    6  C6  UNL     1     -34.811  15.718  -2.220  1.00 20.00     0.161 C 
BRANCH   6   7
HETATM    7  C1  UNL     1     -34.370  16.715  -1.236  1.00 20.00    -0.099 C 
HETATM    8  C2  UNL     1     -34.014  17.530  -0.429  1.00 20.00    -0.091 C 
BRANCH   8   9
HETATM    9  C7  UNL     1     -33.580  18.521   0.552  1.00 20.00     0.208 C 
HETATM   10 CL10 UNL     1     -31.855  18.856   0.303  1.00 20.00    -0.117 Cl
ENDBRANCH   8   9
ENDBRANCH   6   7
ENDBRANCH   3   6
TORSDOF 3
ENDMDL
MODEL 6
REMARK VINA RESULT:      -3.8      2.441      2.863
REMARK  3 active torsions:
REMARK  status: ('A' for Active; 'I' for Inactive)
REMARK    1  A    between atoms: C1_1  and  C6_6 
REMARK    2  A    between atoms: C2_2  and  C7_7 
REMARK    3  A    between atoms: C5_5  and  C6_6 
ROOT
HETATM    1  C3  UNL     1     -35.107  14.809  -7.245  1.00 20.00     0.124 A 
HETATM    2  C4  UNL     1     -34.485  16.037  -7.163  1.00 20.00     0.070 A 
HETATM    3  C5  UNL     1     -34.410  14.688  -5.169  1.00 20.00     0.085 A 
HETATM    4  N8  UNL     1     -35.065  14.034  -6.103  1.00 20.00    -0.257 NA
HETATM    5  S9  UNL     1     -33.818  16.240  -5.596  1.00 20.00    -0.084 SA
ENDROOT
BRANCH   3   6
HETATM    6  C6  UNL     1     -34.157  14.163  -3.779  1.00 20.00     0.161 C 
BRANCH   6   7
HETATM    7  C1  UNL     1     -34.386  15.192  -2.756  1.00 20.00    -0.099 C 
HETATM    8  C2  UNL     1     -34.576  16.030  -1.917  1.00 20.00    -0.091 C 
BRANCH   8   9
HETATM    9  C7  UNL     1     -34.807  17.049  -0.897  1.00 20.00     0.208 C 
HETATM   10 CL10 UNL     1     -33.292  17.925  -0.609  1.00 20.00    -0.117 Cl
ENDBRANCH   8   9
ENDBRANCH   6   7
ENDBRANCH   3   6
TORSDOF 3
ENDMDL
MODEL 7
REMARK VINA RESULT:      -3.8     10.821     11.136
REMARK  3 active torsions:
REMARK  status: ('A' for Active; 'I' for Inactive)
REMARK    1  A    between atoms: C1_1  and  C6_6 
REMARK    2  A    between atoms: C2_2  and  C7_7 
REMARK    3  A    between atoms: C5_5  and  C6_6 
ROOT
HETATM    1  C3  UNL     1     -34.938   5.401   5.442  1.00 20.00     0.124 A 
HETATM    2  C4  UNL     1     -35.465   5.038   4.221  1.00 20.00     0.070 A 
HETATM    3  C5  UNL     1     -33.273   6.035   4.164  1.00 20.00     0.085 A 
HETATM    4  N8  UNL     1     -33.681   5.972   5.412  1.00 20.00    -0.257 NA
HETATM    5  S9  UNL     1     -34.350   5.425   2.976  1.00 20.00    -0.084 SA
ENDROOT
BRANCH   3   6
HETATM    6  C6  UNL     1     -31.945   6.599   3.729  1.00 20.00     0.161 C 
BRANCH   6   7
HETATM    7  C1  UNL     1     -32.103   7.668   2.735  1.00 20.00    -0.099 C 
HETATM    8  C2  UNL     1     -32.228   8.541   1.920  1.00 20.00    -0.091 C 
BRANCH   8   9
HETATM    9  C7  UNL     1     -32.381   9.603   0.929  1.00 20.00     0.208 C 
HETATM   10 CL10 UNL     1     -32.842   8.877  -0.623  1.00 20.00    -0.117 Cl
ENDBRANCH   8   9
ENDBRANCH   6   7
ENDBRANCH   3   6
TORSDOF 3
ENDMDL
MODEL 8
REMARK VINA RESULT:      -3.8      4.158      6.011
REMARK  3 active torsions:
REMARK  status: ('A' for Active; 'I' for Inactive)
REMARK    1  A    between atoms: C1_1  and  C6_6 
REMARK    2  A    between atoms: C2_2  and  C7_7 
REMARK    3  A    between atoms: C5_5  and  C6_6 
ROOT
HETATM    1  C3  UNL     1     -31.809  19.163   0.954  1.00 20.00     0.124 A 
HETATM    2  C4  UNL     1     -32.312  19.262   2.234  1.00 20.00     0.070 A 
HETATM    3  C5  UNL     1     -33.720  18.136   0.636  1.00 20.00     0.085 A 
HETATM    4  N8  UNL     1     -32.614  18.518   0.037  1.00 20.00    -0.257 NA
HETATM    5  S9  UNL     1     -33.859  18.522   2.302  1.00 20.00    -0.084 SA
ENDROOT
BRANCH   3   6
HETATM    6  C6  UNL     1     -34.847  17.399  -0.042  1.00 20.00     0.161 C 
BRANCH   6   7
HETATM    7  C1  UNL     1     -34.398  16.717  -1.262  1.00 20.00    -0.099 C 
HETATM    8  C2  UNL     1     -34.035  16.155  -2.260  1.00 20.00    -0.091 C 
BRANCH   8   9
HETATM    9  C7  UNL     1     -33.593  15.472  -3.472  1.00 20.00     0.208 C 
HETATM   10 CL10 UNL     1     -34.155  13.790  -3.421  1.00 20.00    -0.117 Cl
ENDBRANCH   8   9
ENDBRANCH   6   7
ENDBRANCH   3   6
TORSDOF 3
ENDMDL
MODEL 9
REMARK VINA RESULT:      -3.7      2.117      2.446
REMARK  3 active torsions:
REMARK  status: ('A' for Active; 'I' for Inactive)
REMARK    1  A    between atoms: C1_1  and  C6_6 
REMARK    2  A    between atoms: C2_2  and  C7_7 
REMARK    3  A    between atoms: C5_5  and  C6_6 
ROOT
HETATM    1  C3  UNL     1     -33.898  16.520  -6.280  1.00 20.00     0.124 A 
HETATM    2  C4  UNL     1     -34.428  15.469  -6.998  1.00 20.00     0.070 A 
HETATM    3  C5  UNL     1     -34.463  15.226  -4.602  1.00 20.00     0.085 A 
HETATM    4  N8  UNL     1     -33.918  16.383  -4.906  1.00 20.00    -0.257 NA
HETATM    5  S9  UNL     1     -34.974  14.252  -5.918  1.00 20.00    -0.084 SA
ENDROOT
BRANCH   3   6
HETATM    6  C6  UNL     1     -34.658  14.719  -3.196  1.00 20.00     0.161 C 
BRANCH   6   7
HETATM    7  C1  UNL     1     -34.473  15.781  -2.200  1.00 20.00    -0.099 C 
HETATM    8  C2  UNL     1     -34.317  16.649  -1.384  1.00 20.00    -0.091 C 
BRANCH   8   9
HETATM    9  C7  UNL     1     -34.128  17.704  -0.392  1.00 20.00     0.208 C 
HETATM   10 CL10 UNL     1     -35.201  17.392   0.986  1.00 20.00    -0.117 Cl
ENDBRANCH   8   9
ENDBRANCH   6   7
ENDBRANCH   3   6
TORSDOF 3
ENDMDL
