MODEL 1
REMARK VINA RESULT:      -4.2      0.000      0.000
REMARK  1 active torsions:
REMARK  status: ('A' for Active; 'I' for Inactive)
REMARK    1  A    between atoms: C4_4  and  C9_9 
ROOT
HETATM    1  C1  UNL     1     -34.557  13.215  -4.916  1.00 20.00     0.001 C 
HETATM    2  C2  UNL     1     -34.598  14.407  -5.873  1.00 20.00     0.007 C 
HETATM    3  C3  UNL     1     -34.211  13.779  -3.539  1.00 20.00     0.009 C 
HETATM    4  C4  UNL     1     -34.174  15.625  -5.042  1.00 20.00     0.011 C 
HETATM    5  C5  UNL     1     -34.602  15.267  -3.599  1.00 20.00    -0.043 C 
HETATM    6  C6  UNL     1     -36.110  15.437  -3.343  1.00 20.00     0.015 C 
HETATM    7  C7  UNL     1     -33.827  16.078  -2.554  1.00 20.00     0.015 C 
ENDROOT
BRANCH   4   8
HETATM    8  C9  UNL     1     -34.721  16.931  -5.602  1.00 20.00     0.083 C 
HETATM    9  C8  UNL     1     -35.162  16.776  -7.050  1.00 20.00     0.027 C 
HETATM   10 CL10 UNL     1     -33.468  18.199  -5.489  1.00 20.00    -0.125 Cl
ENDBRANCH   4   8
TORSDOF 1
ENDMDL
MODEL 2
REMARK VINA RESULT:      -4.1      1.964      2.508
REMARK  1 active torsions:
REMARK  status: ('A' for Active; 'I' for Inactive)
REMARK    1  A    between atoms: C4_4  and  C9_9 
ROOT
HETATM    1  C1  UNL     1     -33.558  13.675  -3.730  1.00 20.00     0.001 C 
HETATM    2  C2  UNL     1     -35.019  13.881  -4.130  1.00 20.00     0.007 C 
HETATM    3  C3  UNL     1     -32.933  15.066  -3.650  1.00 20.00     0.009 C 
HETATM    4  C4  UNL     1     -35.179  15.388  -4.371  1.00 20.00     0.011 C 
HETATM    5  C5  UNL     1     -34.115  16.033  -3.452  1.00 20.00    -0.043 C 
HETATM    6  C6  UNL     1     -34.528  16.080  -1.970  1.00 20.00     0.015 C 
HETATM    7  C7  UNL     1     -33.746  17.449  -3.909  1.00 20.00     0.015 C 
ENDROOT
BRANCH   4   8
HETATM    8  C9  UNL     1     -36.613  15.860  -4.175  1.00 20.00     0.083 C 
HETATM    9  C8  UNL     1     -37.551  14.695  -3.891  1.00 20.00     0.027 C 
HETATM   10 CL10 UNL     1     -37.161  16.726  -5.638  1.00 20.00    -0.125 Cl
ENDBRANCH   4   8
TORSDOF 1
ENDMDL
MODEL 3
REMARK VINA RESULT:      -4.1      2.116      3.033
REMARK  1 active torsions:
REMARK  status: ('A' for Active; 'I' for Inactive)
REMARK    1  A    between atoms: C4_4  and  C9_9 
ROOT
HETATM    1  C1  UNL     1     -33.957  13.456  -4.377  1.00 20.00     0.001 C 
HETATM    2  C2  UNL     1     -33.634  14.600  -3.415  1.00 20.00     0.007 C 
HETATM    3  C3  UNL     1     -35.477  13.425  -4.515  1.00 20.00     0.009 C 
HETATM    4  C4  UNL     1     -34.989  15.141  -2.940  1.00 20.00     0.011 C 
HETATM    5  C5  UNL     1     -35.952  14.832  -4.110  1.00 20.00    -0.043 C 
HETATM    6  C6  UNL     1     -35.817  15.806  -5.294  1.00 20.00     0.015 C 
HETATM    7  C7  UNL     1     -37.416  14.805  -3.655  1.00 20.00     0.015 C 
ENDROOT
BRANCH   4   8
HETATM    8  C9  UNL     1     -34.912  16.595  -2.497  1.00 20.00     0.083 C 
HETATM    9  C8  UNL     1     -33.727  17.311  -3.131  1.00 20.00     0.027 C 
HETATM   10 CL10 UNL     1     -34.776  16.672  -0.718  1.00 20.00    -0.125 Cl
ENDBRANCH   4   8
TORSDOF 1
ENDMDL
MODEL 4
REMARK VINA RESULT:      -4.0      1.684      3.277
REMARK  1 active torsions:
REMARK  status: ('A' for Active; 'I' for Inactive)
REMARK    1  A    between atoms: C4_4  and  C9_9 
ROOT
HETATM    1  C1  UNL     1     -36.277  14.580  -4.058  1.00 20.00     0.001 C 
HETATM    2  C2  UNL     1     -35.944  15.463  -2.855  1.00 20.00     0.007 C 
HETATM    3  C3  UNL     1     -35.244  14.909  -5.133  1.00 20.00     0.009 C 
HETATM    4  C4  UNL     1     -34.780  16.357  -3.302  1.00 20.00     0.011 C 
HETATM    5  C5  UNL     1     -34.049  15.519  -4.377  1.00 20.00    -0.043 C 
HETATM    6  C6  UNL     1     -33.160  14.407  -3.793  1.00 20.00     0.015 C 
HETATM    7  C7  UNL     1     -33.202  16.394  -5.308  1.00 20.00     0.015 C 
ENDROOT
BRANCH   4   8
HETATM    8  C9  UNL     1     -33.932  16.837  -2.132  1.00 20.00     0.083 C 
HETATM    9  C8  UNL     1     -34.647  16.635  -0.804  1.00 20.00     0.027 C 
HETATM   10 CL10 UNL     1     -33.546  18.568  -2.346  1.00 20.00    -0.125 Cl
ENDBRANCH   4   8
TORSDOF 1
ENDMDL
MODEL 5
REMARK VINA RESULT:      -4.0      1.700      3.241
REMARK  1 active torsions:
REMARK  status: ('A' for Active; 'I' for Inactive)
REMARK    1  A    between atoms: C4_4  and  C9_9 
ROOT
HETATM    1  C1  UNL     1     -34.260  13.319  -4.655  1.00 20.00     0.001 C 
HETATM    2  C2  UNL     1     -34.481  14.177  -3.409  1.00 20.00     0.007 C 
HETATM    3  C3  UNL     1     -34.953  14.044  -5.807  1.00 20.00     0.009 C 
HETATM    4  C4  UNL     1     -35.387  15.333  -3.853  1.00 20.00     0.011 C 
HETATM    5  C5  UNL     1     -35.064  15.512  -5.355  1.00 20.00    -0.043 C 
HETATM    6  C6  UNL     1     -33.742  16.256  -5.618  1.00 20.00     0.015 C 
HETATM    7  C7  UNL     1     -36.194  16.229  -6.103  1.00 20.00     0.015 C 
ENDROOT
BRANCH   4   8
HETATM    8  C9  UNL     1     -35.224  16.569  -2.979  1.00 20.00     0.083 C 
HETATM    9  C8  UNL     1     -34.576  16.228  -1.645  1.00 20.00     0.027 C 
HETATM   10 CL10 UNL     1     -36.823  17.313  -2.695  1.00 20.00    -0.125 Cl
ENDBRANCH   4   8
TORSDOF 1
ENDMDL
MODEL 6
REMARK VINA RESULT:      -3.9      1.980      3.849
REMARK  1 active torsions:
REMARK  status: ('A' for Active; 'I' for Inactive)
REMARK    1  A    between atoms: C4_4  and  C9_9 
ROOT
HETATM    1  C1  UNL     1     -33.913  18.009  -6.398  1.00 20.00     0.001 C 
HETATM    2  C2  UNL     1     -33.547  17.375  -5.056  1.00 20.00     0.007 C 
HETATM    3  C3  UNL     1     -34.513  16.894  -7.253  1.00 20.00     0.009 C 
HETATM    4  C4  UNL     1     -33.854  15.879  -5.203  1.00 20.00     0.011 C 
HETATM    5  C5  UNL     1     -34.990  15.826  -6.251  1.00 20.00    -0.043 C 
HETATM    6  C6  UNL     1     -36.371  16.201  -5.684  1.00 20.00     0.015 C 
HETATM    7  C7  UNL     1     -35.086  14.451  -6.923  1.00 20.00     0.015 C 
ENDROOT
BRANCH   4   8
HETATM    8  C9  UNL     1     -34.141  15.210  -3.866  1.00 20.00     0.083 C 
HETATM    9  C8  UNL     1     -33.751  16.104  -2.698  1.00 20.00     0.027 C 
HETATM   10 CL10 UNL     1     -33.244  13.668  -3.765  1.00 20.00    -0.125 Cl
ENDBRANCH   4   8
TORSDOF 1
ENDMDL
MODEL 7
REMARK VINA RESULT:      -3.9      1.820      2.555
REMARK  1 active torsions:
REMARK  status: ('A' for Active; 'I' for Inactive)
REMARK    1  A    between atoms: C4_4  and  C9_9 
ROOT
HETATM    1  C1  UNL     1     -33.181  15.728  -3.943  1.00 20.00     0.001 C 
HETATM    2  C2  UNL     1     -33.674  15.818  -5.387  1.00 20.00     0.007 C 
HETATM    3  C3  UNL     1     -34.400  15.379  -3.091  1.00 20.00     0.009 C 
HETATM    4  C4  UNL     1     -35.194  15.616  -5.322  1.00 20.00     0.011 C 
HETATM    5  C5  UNL     1     -35.407  14.741  -4.065  1.00 20.00    -0.043 C 
HETATM    6  C6  UNL     1     -35.074  13.255  -4.284  1.00 20.00     0.015 C 
HETATM    7  C7  UNL     1     -36.837  14.855  -3.524  1.00 20.00     0.015 C 
ENDROOT
BRANCH   4   8
HETATM    8  C9  UNL     1     -35.764  15.073  -6.625  1.00 20.00     0.083 C 
HETATM    9  C8  UNL     1     -34.698  14.980  -7.707  1.00 20.00     0.027 C 
HETATM   10 CL10 UNL     1     -37.093  16.129  -7.181  1.00 20.00    -0.125 Cl
ENDBRANCH   4   8
TORSDOF 1
ENDMDL
MODEL 8
REMARK VINA RESULT:      -3.8      1.848      2.806
REMARK  1 active torsions:
REMARK  status: ('A' for Active; 'I' for Inactive)
REMARK    1  A    between atoms: C4_4  and  C9_9 
ROOT
HETATM    1  C1  UNL     1     -35.341  16.984  -3.007  1.00 20.00     0.001 C 
HETATM    2  C2  UNL     1     -35.255  17.093  -4.530  1.00 20.00     0.007 C 
HETATM    3  C3  UNL     1     -35.156  15.506  -2.669  1.00 20.00     0.009 C 
HETATM    4  C4  UNL     1     -35.121  15.654  -5.044  1.00 20.00     0.011 C 
HETATM    5  C5  UNL     1     -34.432  14.899  -3.884  1.00 20.00    -0.043 C 
HETATM    6  C6  UNL     1     -32.918  15.159  -3.792  1.00 20.00     0.015 C 
HETATM    7  C7  UNL     1     -34.671  13.386  -3.963  1.00 20.00     0.015 C 
ENDROOT
BRANCH   4   8
HETATM    8  C9  UNL     1     -34.430  15.582  -6.399  1.00 20.00     0.083 C 
HETATM    9  C8  UNL     1     -34.417  16.937  -7.092  1.00 20.00     0.027 C 
HETATM   10 CL10 UNL     1     -35.264  14.389  -7.433  1.00 20.00    -0.125 Cl
ENDBRANCH   4   8
TORSDOF 1
ENDMDL
MODEL 9
REMARK VINA RESULT:      -3.8      1.739      3.158
REMARK  1 active torsions:
REMARK  status: ('A' for Active; 'I' for Inactive)
REMARK    1  A    between atoms: C4_4  and  C9_9 
ROOT
HETATM    1  C1  UNL     1     -34.810  16.068  -2.000  1.00 20.00     0.001 C 
HETATM    2  C2  UNL     1     -34.312  15.106  -3.079  1.00 20.00     0.007 C 
HETATM    3  C3  UNL     1     -35.809  17.001  -2.683  1.00 20.00     0.009 C 
HETATM    4  C4  UNL     1     -34.963  15.572  -4.388  1.00 20.00     0.011 C 
HETATM    5  C5  UNL     1     -36.281  16.244  -3.937  1.00 20.00    -0.043 C 
HETATM    6  C6  UNL     1     -37.392  15.242  -3.573  1.00 20.00     0.015 C 
HETATM    7  C7  UNL     1     -36.818  17.217  -4.993  1.00 20.00     0.015 C 
ENDROOT
BRANCH   4   8
HETATM    8  C9  UNL     1     -35.095  14.447  -5.405  1.00 20.00     0.083 C 
HETATM    9  C8  UNL     1     -34.479  13.154  -4.891  1.00 20.00     0.027 C 
HETATM   10 CL10 UNL     1     -34.299  14.925  -6.930  1.00 20.00    -0.125 Cl
ENDBRANCH   4   8
TORSDOF 1
ENDMDL
