MODEL 1
REMARK VINA RESULT:      -5.0      0.000      0.000
REMARK  0 active torsions:
REMARK  status: ('A' for Active; 'I' for Inactive)
ROOT
HETATM    1  C1  UNL     1     -34.284  16.783  -1.357  1.00 20.00     0.088 C 
HETATM    2  C2  UNL     1     -34.689  15.526  -3.372  1.00 20.00    -0.062 C 
HETATM    3  C3  UNL     1     -35.113  15.987  -2.183  1.00 20.00     0.097 C 
HETATM    4  C4  UNL     1     -33.290  15.867  -3.842  1.00 20.00     0.036 C 
HETATM    5  C5  UNL     1     -33.309  16.503  -5.230  1.00 20.00     0.004 C 
HETATM    6  C6  UNL     1     -34.059  15.638  -6.236  1.00 20.00     0.001 C 
HETATM    7  C7  UNL     1     -35.474  15.319  -5.750  1.00 20.00     0.013 C 
HETATM    8  C8  UNL     1     -35.529  14.678  -4.337  1.00 20.00    -0.024 C 
HETATM    9  C9  UNL     1     -37.020  14.572  -3.942  1.00 20.00     0.019 C 
HETATM   10  C10 UNL     1     -34.969  13.240  -4.377  1.00 20.00     0.019 C 
HETATM   11  N11 UNL     1     -33.612  17.436  -0.674  1.00 20.00    -0.192 NA
ENDROOT
TORSDOF 0
ENDMDL
MODEL 2
REMARK VINA RESULT:      -4.8      2.338      3.709
REMARK  0 active torsions:
REMARK  status: ('A' for Active; 'I' for Inactive)
ROOT
HETATM    1  C1  UNL     1     -34.714  13.557  -4.092  1.00 20.00     0.088 C 
HETATM    2  C2  UNL     1     -34.794  15.876  -3.447  1.00 20.00    -0.062 C 
HETATM    3  C3  UNL     1     -34.766  14.574  -3.111  1.00 20.00     0.097 C 
HETATM    4  C4  UNL     1     -34.769  16.264  -4.911  1.00 20.00     0.036 C 
HETATM    5  C5  UNL     1     -33.641  17.249  -5.205  1.00 20.00     0.004 C 
HETATM    6  C6  UNL     1     -33.701  18.466  -4.289  1.00 20.00     0.001 C 
HETATM    7  C7  UNL     1     -33.710  18.053  -2.816  1.00 20.00     0.013 C 
HETATM    8  C8  UNL     1     -34.829  17.042  -2.448  1.00 20.00    -0.024 C 
HETATM    9  C9  UNL     1     -34.595  16.615  -0.980  1.00 20.00     0.019 C 
HETATM   10  C10 UNL     1     -36.212  17.725  -2.504  1.00 20.00     0.019 C 
HETATM   11  N11 UNL     1     -34.671  12.715  -4.890  1.00 20.00    -0.192 NA
ENDROOT
TORSDOF 0
ENDMDL
MODEL 3
REMARK VINA RESULT:      -4.6     11.229     12.757
REMARK  0 active torsions:
REMARK  status: ('A' for Active; 'I' for Inactive)
ROOT
HETATM    1  C1  UNL     1     -43.201   7.656  -3.885  1.00 20.00     0.088 C 
HETATM    2  C2  UNL     1     -42.511   6.093  -2.187  1.00 20.00    -0.062 C 
HETATM    3  C3  UNL     1     -42.939   6.339  -3.437  1.00 20.00     0.097 C 
HETATM    4  C4  UNL     1     -42.302   7.251  -1.233  1.00 20.00     0.036 C 
HETATM    5  C5  UNL     1     -40.897   7.236  -0.638  1.00 20.00     0.004 C 
HETATM    6  C6  UNL     1     -40.573   5.894   0.008  1.00 20.00     0.001 C 
HETATM    7  C7  UNL     1     -40.774   4.739  -0.976  1.00 20.00     0.013 C 
HETATM    8  C8  UNL     1     -42.183   4.701  -1.627  1.00 20.00    -0.024 C 
HETATM    9  C9  UNL     1     -42.160   3.586  -2.698  1.00 20.00     0.019 C 
HETATM   10  C10 UNL     1     -43.248   4.303  -0.583  1.00 20.00     0.019 C 
HETATM   11  N11 UNL     1     -43.417   8.731  -4.261  1.00 20.00    -0.192 NA
ENDROOT
TORSDOF 0
ENDMDL
MODEL 4
REMARK VINA RESULT:      -4.6      2.253      3.514
REMARK  0 active torsions:
REMARK  status: ('A' for Active; 'I' for Inactive)
ROOT
HETATM    1  C1  UNL     1     -33.730  18.410  -6.042  1.00 20.00     0.088 C 
HETATM    2  C2  UNL     1     -33.775  16.301  -4.879  1.00 20.00    -0.062 C 
HETATM    3  C3  UNL     1     -33.712  17.644  -4.853  1.00 20.00     0.097 C 
HETATM    4  C4  UNL     1     -33.866  15.590  -6.214  1.00 20.00     0.036 C 
HETATM    5  C5  UNL     1     -35.061  14.641  -6.257  1.00 20.00     0.004 C 
HETATM    6  C6  UNL     1     -35.050  13.666  -5.085  1.00 20.00     0.001 C 
HETATM    7  C7  UNL     1     -34.974  14.405  -3.748  1.00 20.00     0.013 C 
HETATM    8  C8  UNL     1     -33.784  15.397  -3.639  1.00 20.00    -0.024 C 
HETATM    9  C9  UNL     1     -33.950  16.164  -2.306  1.00 20.00     0.019 C 
HETATM   10  C10 UNL     1     -32.449  14.627  -3.554  1.00 20.00     0.019 C 
HETATM   11  N11 UNL     1     -33.743  19.047  -7.012  1.00 20.00    -0.192 NA
ENDROOT
TORSDOF 0
ENDMDL
MODEL 5
REMARK VINA RESULT:      -4.6      1.062      2.714
REMARK  0 active torsions:
REMARK  status: ('A' for Active; 'I' for Inactive)
ROOT
HETATM    1  C1  UNL     1     -34.760  17.024  -0.658  1.00 20.00     0.088 C 
HETATM    2  C2  UNL     1     -34.561  15.982  -2.821  1.00 20.00    -0.062 C 
HETATM    3  C3  UNL     1     -34.009  16.355  -1.653  1.00 20.00     0.097 C 
HETATM    4  C4  UNL     1     -36.022  16.286  -3.080  1.00 20.00     0.036 C 
HETATM    5  C5  UNL     1     -36.791  15.026  -3.470  1.00 20.00     0.004 C 
HETATM    6  C6  UNL     1     -36.136  14.307  -4.644  1.00 20.00     0.001 C 
HETATM    7  C7  UNL     1     -34.666  13.996  -4.356  1.00 20.00     0.013 C 
HETATM    8  C8  UNL     1     -33.826  15.234  -3.942  1.00 20.00    -0.024 C 
HETATM    9  C9  UNL     1     -32.425  14.720  -3.537  1.00 20.00     0.019 C 
HETATM   10  C10 UNL     1     -33.630  16.179  -5.147  1.00 20.00     0.019 C 
HETATM   11  N11 UNL     1     -35.368  17.574   0.163  1.00 20.00    -0.192 NA
ENDROOT
TORSDOF 0
ENDMDL
MODEL 6
REMARK VINA RESULT:      -4.6      2.581      3.753
REMARK  0 active torsions:
REMARK  status: ('A' for Active; 'I' for Inactive)
ROOT
HETATM    1  C1  UNL     1     -38.028  14.919  -4.315  1.00 20.00     0.088 C 
HETATM    2  C2  UNL     1     -35.720  15.244  -4.923  1.00 20.00    -0.062 C 
HETATM    3  C3  UNL     1     -36.982  15.701  -4.860  1.00 20.00     0.097 C 
HETATM    4  C4  UNL     1     -35.406  13.858  -4.399  1.00 20.00     0.036 C 
HETATM    5  C5  UNL     1     -34.274  13.893  -3.376  1.00 20.00     0.004 C 
HETATM    6  C6  UNL     1     -33.037  14.592  -3.929  1.00 20.00     0.001 C 
HETATM    7  C7  UNL     1     -33.371  15.996  -4.438  1.00 20.00     0.013 C 
HETATM    8  C8  UNL     1     -34.525  16.034  -5.477  1.00 20.00    -0.024 C 
HETATM    9  C9  UNL     1     -34.836  17.522  -5.759  1.00 20.00     0.019 C 
HETATM   10  C10 UNL     1     -34.068  15.407  -6.811  1.00 20.00     0.019 C 
HETATM   11  N11 UNL     1     -38.891  14.284  -3.870  1.00 20.00    -0.192 NA
ENDROOT
TORSDOF 0
ENDMDL
MODEL 7
REMARK VINA RESULT:      -4.6     11.775     13.293
REMARK  0 active torsions:
REMARK  status: ('A' for Active; 'I' for Inactive)
ROOT
HETATM    1  C1  UNL     1     -41.564   2.970  -2.871  1.00 20.00     0.088 C 
HETATM    2  C2  UNL     1     -42.090   5.072  -1.819  1.00 20.00    -0.062 C 
HETATM    3  C3  UNL     1     -41.360   3.944  -1.865  1.00 20.00     0.097 C 
HETATM    4  C4  UNL     1     -43.156   5.309  -2.869  1.00 20.00     0.036 C 
HETATM    5  C5  UNL     1     -42.965   6.656  -3.562  1.00 20.00     0.004 C 
HETATM    6  C6  UNL     1     -42.884   7.799  -2.557  1.00 20.00     0.001 C 
HETATM    7  C7  UNL     1     -41.792   7.549  -1.516  1.00 20.00     0.013 C 
HETATM    8  C8  UNL     1     -41.919   6.188  -0.779  1.00 20.00    -0.024 C 
HETATM    9  C9  UNL     1     -40.662   6.030   0.108  1.00 20.00     0.019 C 
HETATM   10  C10 UNL     1     -43.140   6.201   0.166  1.00 20.00     0.019 C 
HETATM   11  N11 UNL     1     -41.724   2.166  -3.692  1.00 20.00    -0.192 NA
ENDROOT
TORSDOF 0
ENDMDL
MODEL 8
REMARK VINA RESULT:      -4.5      2.998      4.383
REMARK  0 active torsions:
REMARK  status: ('A' for Active; 'I' for Inactive)
ROOT
HETATM    1  C1  UNL     1     -37.341  15.311  -7.009  1.00 20.00     0.088 C 
HETATM    2  C2  UNL     1     -35.492  15.476  -5.473  1.00 20.00    -0.062 C 
HETATM    3  C3  UNL     1     -36.625  15.983  -5.990  1.00 20.00     0.097 C 
HETATM    4  C4  UNL     1     -34.968  14.153  -5.992  1.00 20.00     0.036 C 
HETATM    5  C5  UNL     1     -34.740  13.160  -4.854  1.00 20.00     0.004 C 
HETATM    6  C6  UNL     1     -33.848  13.746  -3.766  1.00 20.00     0.001 C 
HETATM    7  C7  UNL     1     -34.403  15.073  -3.245  1.00 20.00     0.013 C 
HETATM    8  C8  UNL     1     -34.668  16.127  -4.353  1.00 20.00    -0.024 C 
HETATM    9  C9  UNL     1     -35.368  17.331  -3.680  1.00 20.00     0.019 C 
HETATM   10  C10 UNL     1     -33.335  16.646  -4.932  1.00 20.00     0.019 C 
HETATM   11  N11 UNL     1     -37.934  14.767  -7.844  1.00 20.00    -0.192 NA
ENDROOT
TORSDOF 0
ENDMDL
MODEL 9
REMARK VINA RESULT:      -4.4      2.378      3.974
REMARK  0 active torsions:
REMARK  status: ('A' for Active; 'I' for Inactive)
ROOT
HETATM    1  C1  UNL     1     -37.584  15.091  -4.148  1.00 20.00     0.088 C 
HETATM    2  C2  UNL     1     -35.460  16.216  -3.981  1.00 20.00    -0.062 C 
HETATM    3  C3  UNL     1     -36.630  16.026  -4.615  1.00 20.00     0.097 C 
HETATM    4  C4  UNL     1     -35.153  15.410  -2.735  1.00 20.00     0.036 C 
HETATM    5  C5  UNL     1     -34.782  16.316  -1.564  1.00 20.00     0.004 C 
HETATM    6  C6  UNL     1     -33.648  17.269  -1.927  1.00 20.00     0.001 C 
HETATM    7  C7  UNL     1     -33.985  18.085  -3.177  1.00 20.00     0.013 C 
HETATM    8  C8  UNL     1     -34.382  17.223  -4.406  1.00 20.00    -0.024 C 
HETATM    9  C9  UNL     1     -34.840  18.197  -5.517  1.00 20.00     0.019 C 
HETATM   10  C10 UNL     1     -33.154  16.463  -4.950  1.00 20.00     0.019 C 
HETATM   11  N11 UNL     1     -38.371  14.326  -3.772  1.00 20.00    -0.192 NA
ENDROOT
TORSDOF 0
ENDMDL
