MODEL 1
REMARK VINA RESULT:      -4.5      0.000      0.000
REMARK  2 active torsions:
REMARK  status: ('A' for Active; 'I' for Inactive)
REMARK    1  A    between atoms: C2_2  and  C6_6 
REMARK    2  A    between atoms: C6_6  and  O10_10 
ROOT
HETATM    1  C3  UNL     1     -35.105  15.902  -2.377  1.00 20.00     0.004 C 
HETATM    2  C4  UNL     1     -33.655  16.249  -2.726  1.00 20.00     0.043 C 
HETATM    3  C5  UNL     1     -35.677  15.138  -3.574  1.00 20.00     0.012 C 
HETATM    4  C6  UNL     1     -33.491  15.910  -4.218  1.00 20.00     0.082 C 
HETATM    5  C7  UNL     1     -34.457  14.702  -4.408  1.00 20.00    -0.013 C 
HETATM    6  C8  UNL     1     -33.880  13.386  -3.839  1.00 20.00     0.018 C 
HETATM    7  C9  UNL     1     -34.843  14.438  -5.871  1.00 20.00     0.018 C 
ENDROOT
BRANCH   4   8
HETATM    8  C2  UNL     1     -33.833  17.114  -5.054  1.00 20.00     0.001 C 
HETATM    9  C1  UNL     1     -33.596  18.376  -4.680  1.00 20.00     0.010 C 
ENDBRANCH   4   8
BRANCH   4  10
HETATM   10  O10 UNL     1     -32.143  15.575  -4.517  1.00 20.00    -0.385 OA
HETATM   11  H26 UNL     1     -32.020  14.663  -4.219  1.00 20.00     0.211 HD
ENDBRANCH   4  10
TORSDOF 2
ENDMDL
MODEL 2
REMARK VINA RESULT:      -4.4      1.581      2.533
REMARK  2 active torsions:
REMARK  status: ('A' for Active; 'I' for Inactive)
REMARK    1  A    between atoms: C2_2  and  C6_6 
REMARK    2  A    between atoms: C6_6  and  O10_10 
ROOT
HETATM    1  C3  UNL     1     -33.334  13.592  -3.759  1.00 20.00     0.004 C 
HETATM    2  C4  UNL     1     -33.065  15.092  -3.604  1.00 20.00     0.043 C 
HETATM    3  C5  UNL     1     -34.746  13.454  -4.337  1.00 20.00     0.012 C 
HETATM    4  C6  UNL     1     -34.415  15.787  -3.850  1.00 20.00     0.082 C 
HETATM    5  C7  UNL     1     -35.107  14.849  -4.884  1.00 20.00    -0.013 C 
HETATM    6  C8  UNL     1     -34.534  15.014  -6.310  1.00 20.00     0.018 C 
HETATM    7  C9  UNL     1     -36.629  15.038  -4.976  1.00 20.00     0.018 C 
ENDROOT
BRANCH   4   8
HETATM    8  C2  UNL     1     -35.158  15.930  -2.549  1.00 20.00     0.001 C 
HETATM    9  C1  UNL     1     -34.603  16.369  -1.414  1.00 20.00     0.010 C 
ENDBRANCH   4   8
BRANCH   4  10
HETATM   10  O10 UNL     1     -34.225  17.102  -4.357  1.00 20.00    -0.385 OA
HETATM   11  H26 UNL     1     -34.391  17.049  -5.308  1.00 20.00     0.211 HD
ENDBRANCH   4  10
TORSDOF 2
ENDMDL
MODEL 3
REMARK VINA RESULT:      -4.4      1.280      2.354
REMARK  2 active torsions:
REMARK  status: ('A' for Active; 'I' for Inactive)
REMARK    1  A    between atoms: C2_2  and  C6_6 
REMARK    2  A    between atoms: C6_6  and  O10_10 
ROOT
HETATM    1  C3  UNL     1     -35.270  13.605  -4.293  1.00 20.00     0.004 C 
HETATM    2  C4  UNL     1     -33.853  14.141  -4.068  1.00 20.00     0.043 C 
HETATM    3  C5  UNL     1     -36.010  14.653  -5.131  1.00 20.00     0.012 C 
HETATM    4  C6  UNL     1     -33.875  15.600  -4.555  1.00 20.00     0.082 C 
HETATM    5  C7  UNL     1     -34.914  15.564  -5.715  1.00 20.00    -0.013 C 
HETATM    6  C8  UNL     1     -34.343  14.931  -7.004  1.00 20.00     0.018 C 
HETATM    7  C9  UNL     1     -35.475  16.944  -6.092  1.00 20.00     0.018 C 
ENDROOT
BRANCH   4   8
HETATM    8  C2  UNL     1     -34.247  16.511  -3.417  1.00 20.00     0.001 C 
HETATM    9  C1  UNL     1     -33.989  16.247  -2.131  1.00 20.00     0.010 C 
ENDBRANCH   4   8
BRANCH   4  10
HETATM   10  O10 UNL     1     -32.586  16.007  -4.997  1.00 20.00    -0.385 OA
HETATM   11  H26 UNL     1     -32.221  15.257  -5.487  1.00 20.00     0.211 HD
ENDBRANCH   4  10
TORSDOF 2
ENDMDL
MODEL 4
REMARK VINA RESULT:      -4.4      1.842      3.575
REMARK  2 active torsions:
REMARK  status: ('A' for Active; 'I' for Inactive)
REMARK    1  A    between atoms: C2_2  and  C6_6 
REMARK    2  A    between atoms: C6_6  and  O10_10 
ROOT
HETATM    1  C3  UNL     1     -34.144  15.304  -6.372  1.00 20.00     0.004 C 
HETATM    2  C4  UNL     1     -35.089  14.126  -6.114  1.00 20.00     0.043 C 
HETATM    3  C5  UNL     1     -33.850  15.941  -5.010  1.00 20.00     0.012 C 
HETATM    4  C6  UNL     1     -35.532  14.258  -4.647  1.00 20.00     0.082 C 
HETATM    5  C7  UNL     1     -34.286  14.897  -3.963  1.00 20.00    -0.013 C 
HETATM    6  C8  UNL     1     -33.146  13.879  -3.738  1.00 20.00     0.018 C 
HETATM    7  C9  UNL     1     -34.588  15.555  -2.608  1.00 20.00     0.018 C 
ENDROOT
BRANCH   4   8
HETATM    8  C2  UNL     1     -36.780  15.094  -4.566  1.00 20.00     0.001 C 
HETATM    9  C1  UNL     1     -37.915  14.690  -3.984  1.00 20.00     0.010 C 
ENDBRANCH   4   8
BRANCH   4  10
HETATM   10  O10 UNL     1     -35.856  12.987  -4.098  1.00 20.00    -0.385 OA
HETATM   11  H26 UNL     1     -36.558  13.146  -3.451  1.00 20.00     0.211 HD
ENDBRANCH   4  10
TORSDOF 2
ENDMDL
MODEL 5
REMARK VINA RESULT:      -4.3      1.731      2.992
REMARK  2 active torsions:
REMARK  status: ('A' for Active; 'I' for Inactive)
REMARK    1  A    between atoms: C2_2  and  C6_6 
REMARK    2  A    between atoms: C6_6  and  O10_10 
ROOT
HETATM    1  C3  UNL     1     -33.963  17.549  -4.813  1.00 20.00     0.004 C 
HETATM    2  C4  UNL     1     -35.159  17.399  -3.867  1.00 20.00     0.043 C 
HETATM    3  C5  UNL     1     -33.252  16.193  -4.843  1.00 20.00     0.012 C 
HETATM    4  C6  UNL     1     -34.970  16.043  -3.167  1.00 20.00     0.082 C 
HETATM    5  C7  UNL     1     -34.257  15.185  -4.254  1.00 20.00    -0.013 C 
HETATM    6  C8  UNL     1     -35.224  14.708  -5.361  1.00 20.00     0.018 C 
HETATM    7  C9  UNL     1     -33.545  13.942  -3.700  1.00 20.00     0.018 C 
ENDROOT
BRANCH   4   8
HETATM    8  C2  UNL     1     -34.174  16.228  -1.903  1.00 20.00     0.001 C 
HETATM    9  C1  UNL     1     -34.688  16.683  -0.755  1.00 20.00     0.010 C 
ENDBRANCH   4   8
BRANCH   4  10
HETATM   10  O10 UNL     1     -36.223  15.492  -2.781  1.00 20.00    -0.385 OA
HETATM   11  H26 UNL     1     -36.034  14.608  -2.437  1.00 20.00     0.211 HD
ENDBRANCH   4  10
TORSDOF 2
ENDMDL
MODEL 6
REMARK VINA RESULT:      -4.3      1.607      3.195
REMARK  2 active torsions:
REMARK  status: ('A' for Active; 'I' for Inactive)
REMARK    1  A    between atoms: C2_2  and  C6_6 
REMARK    2  A    between atoms: C6_6  and  O10_10 
ROOT
HETATM    1  C3  UNL     1     -33.359  13.553  -3.767  1.00 20.00     0.004 C 
HETATM    2  C4  UNL     1     -34.804  13.669  -4.262  1.00 20.00     0.043 C 
HETATM    3  C5  UNL     1     -32.827  14.981  -3.618  1.00 20.00     0.012 C 
HETATM    4  C6  UNL     1     -35.000  15.147  -4.639  1.00 20.00     0.082 C 
HETATM    5  C7  UNL     1     -34.072  15.889  -3.630  1.00 20.00    -0.013 C 
HETATM    6  C8  UNL     1     -34.677  15.962  -2.210  1.00 20.00     0.018 C 
HETATM    7  C9  UNL     1     -33.715  17.324  -4.051  1.00 20.00     0.018 C 
ENDROOT
BRANCH   4   8
HETATM    8  C2  UNL     1     -34.637  15.357  -6.084  1.00 20.00     0.001 C 
HETATM    9  C1  UNL     1     -35.021  14.547  -7.077  1.00 20.00     0.010 C 
ENDBRANCH   4   8
BRANCH   4  10
HETATM   10  O10 UNL     1     -36.362  15.531  -4.501  1.00 20.00    -0.385 OA
HETATM   11  H26 UNL     1     -36.399  16.473  -4.716  1.00 20.00     0.211 HD
ENDBRANCH   4  10
TORSDOF 2
ENDMDL
MODEL 7
REMARK VINA RESULT:      -4.2      1.096      2.467
REMARK  2 active torsions:
REMARK  status: ('A' for Active; 'I' for Inactive)
REMARK    1  A    between atoms: C2_2  and  C6_6 
REMARK    2  A    between atoms: C6_6  and  O10_10 
ROOT
HETATM    1  C3  UNL     1     -36.311  16.556  -4.466  1.00 20.00     0.004 C 
HETATM    2  C4  UNL     1     -35.051  16.916  -5.259  1.00 20.00     0.043 C 
HETATM    3  C5  UNL     1     -35.990  15.279  -3.682  1.00 20.00     0.012 C 
HETATM    4  C6  UNL     1     -34.113  15.705  -5.126  1.00 20.00     0.082 C 
HETATM    5  C7  UNL     1     -34.454  15.153  -3.709  1.00 20.00    -0.013 C 
HETATM    6  C8  UNL     1     -33.842  16.008  -2.576  1.00 20.00     0.018 C 
HETATM    7  C9  UNL     1     -34.007  13.701  -3.481  1.00 20.00     0.018 C 
ENDROOT
BRANCH   4   8
HETATM    8  C2  UNL     1     -34.370  14.735  -6.247  1.00 20.00     0.001 C 
HETATM    9  C1  UNL     1     -34.610  15.099  -7.511  1.00 20.00     0.010 C 
ENDBRANCH   4   8
BRANCH   4  10
HETATM   10  O10 UNL     1     -32.752  16.102  -5.236  1.00 20.00    -0.385 OA
HETATM   11  H26 UNL     1     -32.755  16.943  -5.715  1.00 20.00     0.211 HD
ENDBRANCH   4  10
TORSDOF 2
ENDMDL
MODEL 8
REMARK VINA RESULT:      -4.1      1.143      3.265
REMARK  2 active torsions:
REMARK  status: ('A' for Active; 'I' for Inactive)
REMARK    1  A    between atoms: C2_2  and  C6_6 
REMARK    2  A    between atoms: C6_6  and  O10_10 
ROOT
HETATM    1  C3  UNL     1     -36.028  16.340  -5.135  1.00 20.00     0.004 C 
HETATM    2  C4  UNL     1     -34.682  15.827  -5.656  1.00 20.00     0.043 C 
HETATM    3  C5  UNL     1     -35.829  16.680  -3.655  1.00 20.00     0.012 C 
HETATM    4  C6  UNL     1     -33.799  15.633  -4.411  1.00 20.00     0.082 C 
HETATM    5  C7  UNL     1     -34.303  16.749  -3.448  1.00 20.00    -0.013 C 
HETATM    6  C8  UNL     1     -33.788  18.151  -3.844  1.00 20.00     0.018 C 
HETATM    7  C9  UNL     1     -33.926  16.521  -1.977  1.00 20.00     0.018 C 
ENDROOT
BRANCH   4   8
HETATM    8  C2  UNL     1     -33.966  14.235  -3.880  1.00 20.00     0.001 C 
HETATM    9  C1  UNL     1     -34.321  13.186  -4.632  1.00 20.00     0.010 C 
ENDBRANCH   4   8
BRANCH   4  10
HETATM   10  O10 UNL     1     -32.423  15.782  -4.737  1.00 20.00    -0.385 OA
HETATM   11  H26 UNL     1     -31.939  15.205  -4.129  1.00 20.00     0.211 HD
ENDBRANCH   4  10
TORSDOF 2
ENDMDL
MODEL 9
REMARK VINA RESULT:      -4.0      1.449      1.903
REMARK  2 active torsions:
REMARK  status: ('A' for Active; 'I' for Inactive)
REMARK    1  A    between atoms: C2_2  and  C6_6 
REMARK    2  A    between atoms: C6_6  and  O10_10 
ROOT
HETATM    1  C3  UNL     1     -33.776  16.611  -2.855  1.00 20.00     0.004 C 
HETATM    2  C4  UNL     1     -33.383  16.666  -4.335  1.00 20.00     0.043 C 
HETATM    3  C5  UNL     1     -34.707  15.406  -2.690  1.00 20.00     0.012 C 
HETATM    4  C6  UNL     1     -34.295  15.653  -5.047  1.00 20.00     0.082 C 
HETATM    5  C7  UNL     1     -34.515  14.558  -3.961  1.00 20.00    -0.013 C 
HETATM    6  C8  UNL     1     -33.286  13.636  -3.791  1.00 20.00     0.018 C 
HETATM    7  C9  UNL     1     -35.731  13.656  -4.223  1.00 20.00     0.018 C 
ENDROOT
BRANCH   4   8
HETATM    8  C2  UNL     1     -35.557  16.336  -5.502  1.00 20.00     0.001 C 
HETATM    9  C1  UNL     1     -35.945  16.417  -6.780  1.00 20.00     0.010 C 
ENDBRANCH   4   8
BRANCH   4  10
HETATM   10  O10 UNL     1     -33.668  15.138  -6.214  1.00 20.00    -0.385 OA
HETATM   11  H26 UNL     1     -33.732  15.834  -6.884  1.00 20.00     0.211 HD
ENDBRANCH   4  10
TORSDOF 2
ENDMDL
