MODEL 1
REMARK VINA RESULT:      -3.9      0.000      0.000
REMARK  0 active torsions:
REMARK  status: ('A' for Active; 'I' for Inactive)
ROOT
HETATM    1  C1  UNL     1     -35.022   4.323   6.163  1.00 20.00     0.035 C 
HETATM    2  C2  UNL     1     -34.495   4.152   4.726  1.00 20.00     0.014 C 
HETATM    3  C3  UNL     1     -34.654   5.724   6.537  1.00 20.00     0.152 A 
HETATM    4  C4  UNL     1     -34.353   6.489   5.300  1.00 20.00     0.158 A 
HETATM    5  C5  UNL     1     -34.536   5.576   4.107  1.00 20.00    -0.019 C 
HETATM    6  C6  UNL     1     -35.898   5.838   3.451  1.00 20.00     0.017 C 
HETATM    7  C7  UNL     1     -33.419   5.770   3.082  1.00 20.00     0.017 C 
HETATM    8  O8  UNL     1     -33.317   6.130   6.225  1.00 20.00    -0.375 OA
ENDROOT
TORSDOF 0
ENDMDL
MODEL 2
REMARK VINA RESULT:      -3.9     11.940     13.117
REMARK  0 active torsions:
REMARK  status: ('A' for Active; 'I' for Inactive)
ROOT
HETATM    1  C1  UNL     1     -34.606  14.329  -5.827  1.00 20.00     0.035 C 
HETATM    2  C2  UNL     1     -34.260  15.607  -5.043  1.00 20.00     0.014 C 
HETATM    3  C3  UNL     1     -34.483  13.223  -4.826  1.00 20.00     0.152 A 
HETATM    4  C4  UNL     1     -34.518  13.807  -3.460  1.00 20.00     0.158 A 
HETATM    5  C5  UNL     1     -34.675  15.307  -3.576  1.00 20.00    -0.019 C 
HETATM    6  C6  UNL     1     -36.140  15.700  -3.341  1.00 20.00     0.017 C 
HETATM    7  C7  UNL     1     -33.774  16.039  -2.581  1.00 20.00     0.017 C 
HETATM    8  O8  UNL     1     -33.312  13.248  -4.001  1.00 20.00    -0.375 OA
ENDROOT
TORSDOF 0
ENDMDL
MODEL 3
REMARK VINA RESULT:      -3.8     12.248     13.478
REMARK  0 active torsions:
REMARK  status: ('A' for Active; 'I' for Inactive)
ROOT
HETATM    1  C1  UNL     1     -34.417  14.904  -3.102  1.00 20.00     0.035 C 
HETATM    2  C2  UNL     1     -35.433  15.550  -4.062  1.00 20.00     0.014 C 
HETATM    3  C3  UNL     1     -34.049  13.608  -3.754  1.00 20.00     0.152 A 
HETATM    4  C4  UNL     1     -34.436  13.665  -5.188  1.00 20.00     0.158 A 
HETATM    5  C5  UNL     1     -35.055  15.017  -5.471  1.00 20.00    -0.019 C 
HETATM    6  C6  UNL     1     -34.020  15.937  -6.134  1.00 20.00     0.017 C 
HETATM    7  C7  UNL     1     -36.286  14.888  -6.368  1.00 20.00     0.017 C 
HETATM    8  O8  UNL     1     -35.137  12.825  -4.259  1.00 20.00    -0.375 OA
ENDROOT
TORSDOF 0
ENDMDL
MODEL 4
REMARK VINA RESULT:      -3.8      1.338      2.869
REMARK  0 active torsions:
REMARK  status: ('A' for Active; 'I' for Inactive)
ROOT
HETATM    1  C1  UNL     1     -34.838   5.475   2.840  1.00 20.00     0.035 C 
HETATM    2  C2  UNL     1     -35.417   5.846   4.217  1.00 20.00     0.014 C 
HETATM    3  C3  UNL     1     -33.363   5.688   2.977  1.00 20.00     0.152 A 
HETATM    4  C4  UNL     1     -33.017   5.731   4.422  1.00 20.00     0.158 A 
HETATM    5  C5  UNL     1     -34.281   5.535   5.230  1.00 20.00    -0.019 C 
HETATM    6  C6  UNL     1     -34.373   4.081   5.713  1.00 20.00     0.017 C 
HETATM    7  C7  UNL     1     -34.327   6.484   6.428  1.00 20.00     0.017 C 
HETATM    8  O8  UNL     1     -32.959   6.910   3.606  1.00 20.00    -0.375 OA
ENDROOT
TORSDOF 0
ENDMDL
MODEL 5
REMARK VINA RESULT:      -3.8     12.078     13.040
REMARK  0 active torsions:
REMARK  status: ('A' for Active; 'I' for Inactive)
ROOT
HETATM    1  C1  UNL     1     -34.866  13.360  -4.515  1.00 20.00     0.035 C 
HETATM    2  C2  UNL     1     -34.084  13.959  -3.332  1.00 20.00     0.014 C 
HETATM    3  C3  UNL     1     -36.072  14.234  -4.655  1.00 20.00     0.152 A 
HETATM    4  C4  UNL     1     -35.824  15.513  -3.941  1.00 20.00     0.158 A 
HETATM    5  C5  UNL     1     -34.436  15.472  -3.338  1.00 20.00    -0.019 C 
HETATM    6  C6  UNL     1     -33.456  16.249  -4.228  1.00 20.00     0.017 C 
HETATM    7  C7  UNL     1     -34.426  16.052  -1.924  1.00 20.00     0.017 C 
HETATM    8  O8  UNL     1     -36.764  14.552  -3.441  1.00 20.00    -0.375 OA
ENDROOT
TORSDOF 0
ENDMDL
MODEL 6
REMARK VINA RESULT:      -3.7      8.582      9.839
REMARK  0 active torsions:
REMARK  status: ('A' for Active; 'I' for Inactive)
ROOT
HETATM    1  C1  UNL     1     -40.676   6.188  -0.155  1.00 20.00     0.035 C 
HETATM    2  C2  UNL     1     -40.645   4.760  -0.729  1.00 20.00     0.014 C 
HETATM    3  C3  UNL     1     -41.593   6.944  -1.066  1.00 20.00     0.152 A 
HETATM    4  C4  UNL     1     -42.410   5.972  -1.838  1.00 20.00     0.158 A 
HETATM    5  C5  UNL     1     -42.024   4.570  -1.418  1.00 20.00    -0.019 C 
HETATM    6  C6  UNL     1     -43.053   4.021  -0.420  1.00 20.00     0.017 C 
HETATM    7  C7  UNL     1     -41.921   3.637  -2.624  1.00 20.00     0.017 C 
HETATM    8  O8  UNL     1     -41.385   6.753  -2.470  1.00 20.00    -0.375 OA
ENDROOT
TORSDOF 0
ENDMDL
MODEL 7
REMARK VINA RESULT:      -3.7     12.443     13.494
REMARK  0 active torsions:
REMARK  status: ('A' for Active; 'I' for Inactive)
ROOT
HETATM    1  C1  UNL     1     -34.792  13.370  -5.315  1.00 20.00     0.035 C 
HETATM    2  C2  UNL     1     -34.735  13.647  -3.801  1.00 20.00     0.014 C 
HETATM    3  C3  UNL     1     -34.766  14.725  -5.950  1.00 20.00     0.152 A 
HETATM    4  C4  UNL     1     -34.269  15.712  -4.956  1.00 20.00     0.158 A 
HETATM    5  C5  UNL     1     -33.962  14.988  -3.663  1.00 20.00    -0.019 C 
HETATM    6  C6  UNL     1     -32.453  14.729  -3.554  1.00 20.00     0.017 C 
HETATM    7  C7  UNL     1     -34.442  15.786  -2.451  1.00 20.00     0.017 C 
HETATM    8  O8  UNL     1     -35.640  15.706  -5.379  1.00 20.00    -0.375 OA
ENDROOT
TORSDOF 0
ENDMDL
MODEL 8
REMARK VINA RESULT:      -3.6     12.532     13.652
REMARK  0 active torsions:
REMARK  status: ('A' for Active; 'I' for Inactive)
ROOT
HETATM    1  C1  UNL     1     -34.327  13.810  -3.524  1.00 20.00     0.035 C 
HETATM    2  C2  UNL     1     -34.465  13.538  -5.032  1.00 20.00     0.014 C 
HETATM    3  C3  UNL     1     -33.952  15.256  -3.431  1.00 20.00     0.152 A 
HETATM    4  C4  UNL     1     -34.284  15.922  -4.718  1.00 20.00     0.158 A 
HETATM    5  C5  UNL     1     -34.890  14.898  -5.652  1.00 20.00    -0.019 C 
HETATM    6  C6  UNL     1     -36.419  15.033  -5.656  1.00 20.00     0.017 C 
HETATM    7  C7  UNL     1     -34.352  15.055  -7.074  1.00 20.00     0.017 C 
HETATM    8  O8  UNL     1     -32.922  15.698  -4.324  1.00 20.00    -0.375 OA
ENDROOT
TORSDOF 0
ENDMDL
MODEL 9
REMARK VINA RESULT:      -3.6     12.474     13.661
REMARK  0 active torsions:
REMARK  status: ('A' for Active; 'I' for Inactive)
ROOT
HETATM    1  C1  UNL     1     -34.710  17.043  -3.239  1.00 20.00     0.035 C 
HETATM    2  C2  UNL     1     -34.389  15.642  -2.686  1.00 20.00     0.014 C 
HETATM    3  C3  UNL     1     -34.186  17.027  -4.641  1.00 20.00     0.152 A 
HETATM    4  C4  UNL     1     -33.987  15.616  -5.064  1.00 20.00     0.158 A 
HETATM    5  C5  UNL     1     -34.396  14.706  -3.926  1.00 20.00    -0.019 C 
HETATM    6  C6  UNL     1     -35.807  14.156  -4.176  1.00 20.00     0.017 C 
HETATM    7  C7  UNL     1     -33.410  13.550  -3.757  1.00 20.00     0.017 C 
HETATM    8  O8  UNL     1     -32.872  16.484  -4.816  1.00 20.00    -0.375 OA
ENDROOT
TORSDOF 0
ENDMDL
