MODEL 1
REMARK VINA RESULT:      -4.4      0.000      0.000
REMARK  0 active torsions:
REMARK  status: ('A' for Active; 'I' for Inactive)
ROOT
HETATM    1  C1  UNL     1     -33.771  17.355  -3.999  1.00 20.00     0.021 C 
HETATM    2  C2  UNL     1     -34.139  16.968  -5.230  1.00 20.00     0.001 C 
HETATM    3  C3  UNL     1     -34.105  15.148  -3.047  1.00 20.00     0.003 C 
HETATM    4  C4  UNL     1     -33.893  16.461  -2.872  1.00 20.00     0.030 C 
HETATM    5  C5  UNL     1     -34.234  14.543  -4.432  1.00 20.00     0.033 C 
HETATM    6  C6  UNL     1     -34.697  15.586  -5.511  1.00 20.00     0.058 C 
HETATM    7  C7  UNL     1     -35.077  13.263  -4.380  1.00 20.00     0.016 C 
HETATM    8  C8  UNL     1     -34.278  15.128  -6.915  1.00 20.00     0.037 C 
HETATM    9 CL9  UNL     1     -33.691  17.119  -1.291  1.00 20.00    -0.085 Cl
HETATM   10 CL10 UNL     1     -36.498  15.781  -5.513  1.00 20.00    -0.115 Cl
ENDROOT
TORSDOF 0
ENDMDL
MODEL 2
REMARK VINA RESULT:      -4.2      1.715      3.410
REMARK  0 active torsions:
REMARK  status: ('A' for Active; 'I' for Inactive)
ROOT
HETATM    1  C1  UNL     1     -34.419  15.405  -6.793  1.00 20.00     0.021 C 
HETATM    2  C2  UNL     1     -34.492  14.391  -5.918  1.00 20.00     0.001 C 
HETATM    3  C3  UNL     1     -33.755  17.012  -5.100  1.00 20.00     0.003 C 
HETATM    4  C4  UNL     1     -34.183  16.757  -6.346  1.00 20.00     0.030 C 
HETATM    5  C5  UNL     1     -33.506  15.896  -4.104  1.00 20.00     0.033 C 
HETATM    6  C6  UNL     1     -34.331  14.598  -4.423  1.00 20.00     0.058 C 
HETATM    7  C7  UNL     1     -33.665  16.415  -2.669  1.00 20.00     0.016 C 
HETATM    8  C8  UNL     1     -33.664  13.368  -3.794  1.00 20.00     0.037 C 
HETATM    9 CL9  UNL     1     -34.404  18.036  -7.481  1.00 20.00    -0.085 Cl
HETATM   10 CL10 UNL     1     -36.016  14.706  -3.765  1.00 20.00    -0.115 Cl
ENDROOT
TORSDOF 0
ENDMDL
MODEL 3
REMARK VINA RESULT:      -4.2      1.479      1.613
REMARK  0 active torsions:
REMARK  status: ('A' for Active; 'I' for Inactive)
ROOT
HETATM    1  C1  UNL     1     -33.455  16.107  -3.247  1.00 20.00     0.021 C 
HETATM    2  C2  UNL     1     -33.452  16.002  -4.585  1.00 20.00     0.001 C 
HETATM    3  C3  UNL     1     -35.803  15.520  -3.060  1.00 20.00     0.003 C 
HETATM    4  C4  UNL     1     -34.683  16.000  -2.496  1.00 20.00     0.030 C 
HETATM    5  C5  UNL     1     -35.832  15.076  -4.510  1.00 20.00     0.033 C 
HETATM    6  C6  UNL     1     -34.722  15.765  -5.381  1.00 20.00     0.058 C 
HETATM    7  C7  UNL     1     -37.253  15.196  -5.077  1.00 20.00     0.016 C 
HETATM    8  C8  UNL     1     -34.409  14.918  -6.622  1.00 20.00     0.037 C 
HETATM    9 CL9  UNL     1     -34.656  16.445  -0.830  1.00 20.00    -0.085 Cl
HETATM   10 CL10 UNL     1     -35.249  17.402  -5.952  1.00 20.00    -0.115 Cl
ENDROOT
TORSDOF 0
ENDMDL
MODEL 4
REMARK VINA RESULT:      -4.1     11.511     13.291
REMARK  0 active torsions:
REMARK  status: ('A' for Active; 'I' for Inactive)
ROOT
HETATM    1  C1  UNL     1     -41.840   7.499  -1.612  1.00 20.00     0.021 C 
HETATM    2  C2  UNL     1     -41.686   6.606  -0.623  1.00 20.00     0.001 C 
HETATM    3  C3  UNL     1     -42.953   5.911  -3.071  1.00 20.00     0.003 C 
HETATM    4  C4  UNL     1     -42.355   7.101  -2.900  1.00 20.00     0.030 C 
HETATM    5  C5  UNL     1     -43.109   4.930  -1.925  1.00 20.00     0.033 C 
HETATM    6  C6  UNL     1     -42.040   5.140  -0.794  1.00 20.00     0.058 C 
HETATM    7  C7  UNL     1     -43.198   3.495  -2.459  1.00 20.00     0.016 C 
HETATM    8  C8  UNL     1     -42.546   4.567   0.537  1.00 20.00     0.037 C 
HETATM    9 CL9  UNL     1     -42.240   8.225  -4.202  1.00 20.00    -0.085 Cl
HETATM   10 CL10 UNL     1     -40.481   4.308  -1.193  1.00 20.00    -0.115 Cl
ENDROOT
TORSDOF 0
ENDMDL
MODEL 5
REMARK VINA RESULT:      -4.1      1.795      2.833
REMARK  0 active torsions:
REMARK  status: ('A' for Active; 'I' for Inactive)
ROOT
HETATM    1  C1  UNL     1     -34.437  16.873  -1.729  1.00 20.00     0.021 C 
HETATM    2  C2  UNL     1     -34.807  15.666  -2.183  1.00 20.00     0.001 C 
HETATM    3  C3  UNL     1     -33.865  17.693  -3.940  1.00 20.00     0.003 C 
HETATM    4  C4  UNL     1     -33.828  17.843  -2.607  1.00 20.00     0.030 C 
HETATM    5  C5  UNL     1     -34.540  16.497  -4.584  1.00 20.00     0.033 C 
HETATM    6  C6  UNL     1     -34.614  15.252  -3.630  1.00 20.00     0.058 C 
HETATM    7  C7  UNL     1     -33.920  16.210  -5.959  1.00 20.00     0.016 C 
HETATM    8  C8  UNL     1     -35.748  14.311  -4.060  1.00 20.00     0.037 C 
HETATM    9 CL9  UNL     1     -33.107  19.240  -1.897  1.00 20.00    -0.085 Cl
HETATM   10 CL10 UNL     1     -33.071  14.302  -3.661  1.00 20.00    -0.115 Cl
ENDROOT
TORSDOF 0
ENDMDL
MODEL 6
REMARK VINA RESULT:      -4.1     12.059     13.650
REMARK  0 active torsions:
REMARK  status: ('A' for Active; 'I' for Inactive)
ROOT
HETATM    1  C1  UNL     1     -43.039   4.296  -2.900  1.00 20.00     0.021 C 
HETATM    2  C2  UNL     1     -43.416   5.491  -2.422  1.00 20.00     0.001 C 
HETATM    3  C3  UNL     1     -41.048   4.206  -1.515  1.00 20.00     0.003 C 
HETATM    4  C4  UNL     1     -41.766   3.719  -2.539  1.00 20.00     0.030 C 
HETATM    5  C5  UNL     1     -41.535   5.386  -0.696  1.00 20.00     0.033 C 
HETATM    6  C6  UNL     1     -42.540   6.301  -1.483  1.00 20.00     0.058 C 
HETATM    7  C7  UNL     1     -40.347   6.133  -0.076  1.00 20.00     0.016 C 
HETATM    8  C8  UNL     1     -43.417   7.098  -0.509  1.00 20.00     0.037 C 
HETATM    9 CL9  UNL     1     -41.221   2.340  -3.420  1.00 20.00    -0.085 Cl
HETATM   10 CL10 UNL     1     -41.669   7.489  -2.537  1.00 20.00    -0.115 Cl
ENDROOT
TORSDOF 0
ENDMDL
MODEL 7
REMARK VINA RESULT:      -4.1     12.269     13.891
REMARK  0 active torsions:
REMARK  status: ('A' for Active; 'I' for Inactive)
ROOT
HETATM    1  C1  UNL     1     -41.513   3.661  -2.309  1.00 20.00     0.021 C 
HETATM    2  C2  UNL     1     -41.023   4.418  -1.316  1.00 20.00     0.001 C 
HETATM    3  C3  UNL     1     -43.104   5.354  -3.012  1.00 20.00     0.003 C 
HETATM    4  C4  UNL     1     -42.663   4.088  -3.071  1.00 20.00     0.030 C 
HETATM    5  C5  UNL     1     -42.423   6.391  -2.139  1.00 20.00     0.033 C 
HETATM    6  C6  UNL     1     -41.635   5.754  -0.938  1.00 20.00     0.058 C 
HETATM    7  C7  UNL     1     -43.417   7.488  -1.738  1.00 20.00     0.016 C 
HETATM    8  C8  UNL     1     -40.541   6.710  -0.446  1.00 20.00     0.037 C 
HETATM    9 CL9  UNL     1     -43.416   2.940  -4.114  1.00 20.00    -0.085 Cl
HETATM   10 CL10 UNL     1     -42.731   5.407   0.462  1.00 20.00    -0.115 Cl
ENDROOT
TORSDOF 0
ENDMDL
MODEL 8
REMARK VINA RESULT:      -4.0      1.689      3.452
REMARK  0 active torsions:
REMARK  status: ('A' for Active; 'I' for Inactive)
ROOT
HETATM    1  C1  UNL     1     -33.881  17.564  -5.245  1.00 20.00     0.021 C 
HETATM    2  C2  UNL     1     -33.667  17.197  -3.972  1.00 20.00     0.001 C 
HETATM    3  C3  UNL     1     -35.045  15.508  -5.797  1.00 20.00     0.003 C 
HETATM    4  C4  UNL     1     -34.453  16.644  -6.198  1.00 20.00     0.030 C 
HETATM    5  C5  UNL     1     -35.133  15.135  -4.329  1.00 20.00     0.033 C 
HETATM    6  C6  UNL     1     -34.013  15.811  -3.461  1.00 20.00     0.058 C 
HETATM    7  C7  UNL     1     -35.232  13.613  -4.169  1.00 20.00     0.016 C 
HETATM    8  C8  UNL     1     -34.446  15.890  -1.991  1.00 20.00     0.037 C 
HETATM    9 CL9  UNL     1     -34.415  17.076  -7.867  1.00 20.00    -0.085 Cl
HETATM   10 CL10 UNL     1     -32.466  14.870  -3.527  1.00 20.00    -0.115 Cl
ENDROOT
TORSDOF 0
ENDMDL
MODEL 9
REMARK VINA RESULT:      -4.0      1.306      3.861
REMARK  0 active torsions:
REMARK  status: ('A' for Active; 'I' for Inactive)
ROOT
HETATM    1  C1  UNL     1     -35.982  14.041  -4.325  1.00 20.00     0.021 C 
HETATM    2  C2  UNL     1     -34.812  14.034  -3.669  1.00 20.00     0.001 C 
HETATM    3  C3  UNL     1     -35.529  16.166  -5.408  1.00 20.00     0.003 C 
HETATM    4  C4  UNL     1     -36.397  15.192  -5.092  1.00 20.00     0.030 C 
HETATM    5  C5  UNL     1     -34.079  16.108  -4.969  1.00 20.00     0.033 C 
HETATM    6  C6  UNL     1     -33.863  15.218  -3.693  1.00 20.00     0.058 C 
HETATM    7  C7  UNL     1     -33.495  17.523  -4.866  1.00 20.00     0.016 C 
HETATM    8  C8  UNL     1     -32.411  14.726  -3.620  1.00 20.00     0.037 C 
HETATM    9 CL9  UNL     1     -38.028  15.248  -5.650  1.00 20.00    -0.085 Cl
HETATM   10 CL10 UNL     1     -34.205  16.145  -2.174  1.00 20.00    -0.115 Cl
ENDROOT
TORSDOF 0
ENDMDL
