MODEL 1
REMARK VINA RESULT:      -3.9      0.000      0.000
REMARK  0 active torsions:
REMARK  status: ('A' for Active; 'I' for Inactive)
ROOT
HETATM    1  C1  UNL     1     -32.908   6.755   3.479  1.00 20.00     0.098 C 
HETATM    2  C2  UNL     1     -34.712   5.184   4.001  1.00 20.00     0.160 A 
HETATM    3  C3  UNL     1     -33.791   6.080   4.341  1.00 20.00     0.063 A 
HETATM    4  C4  UNL     1     -33.897   6.210   5.812  1.00 20.00     0.225 A 
HETATM    5  N5  UNL     1     -32.180   7.313   2.767  1.00 20.00    -0.192 NA
HETATM    6  N6  UNL     1     -35.412   4.710   5.077  1.00 20.00    -0.166 NA
HETATM    7  N7  UNL     1     -34.993   5.257   6.138  1.00 20.00    -0.188 NA
ENDROOT
TORSDOF 0
ENDMDL
MODEL 2
REMARK VINA RESULT:      -3.8     11.535     11.989
REMARK  0 active torsions:
REMARK  status: ('A' for Active; 'I' for Inactive)
ROOT
HETATM    1  C1  UNL     1     -34.058  15.899  -2.658  1.00 20.00     0.098 C 
HETATM    2  C2  UNL     1     -33.701  13.776  -3.826  1.00 20.00     0.160 A 
HETATM    3  C3  UNL     1     -34.472  14.759  -3.372  1.00 20.00     0.063 A 
HETATM    4  C4  UNL     1     -35.848  14.395  -3.777  1.00 20.00     0.225 A 
HETATM    5  N5  UNL     1     -33.715  16.839  -2.071  1.00 20.00    -0.192 NA
HETATM    6  N6  UNL     1     -34.411  12.808  -4.483  1.00 20.00    -0.166 NA
HETATM    7  N7  UNL     1     -35.641  13.104  -4.489  1.00 20.00    -0.188 NA
ENDROOT
TORSDOF 0
ENDMDL
MODEL 3
REMARK VINA RESULT:      -3.7     11.505     12.852
REMARK  0 active torsions:
REMARK  status: ('A' for Active; 'I' for Inactive)
ROOT
HETATM    1  C1  UNL     1     -33.740  16.268  -5.241  1.00 20.00     0.098 C 
HETATM    2  C2  UNL     1     -33.680  14.363  -3.703  1.00 20.00     0.160 A 
HETATM    3  C3  UNL     1     -34.061  14.961  -4.827  1.00 20.00     0.063 A 
HETATM    4  C4  UNL     1     -34.889  13.964  -5.540  1.00 20.00     0.225 A 
HETATM    5  N5  UNL     1     -33.475  17.344  -5.582  1.00 20.00    -0.192 NA
HETATM    6  N6  UNL     1     -34.162  13.087  -3.594  1.00 20.00    -0.166 NA
HETATM    7  N7  UNL     1     -34.858  12.801  -4.611  1.00 20.00    -0.188 NA
ENDROOT
TORSDOF 0
ENDMDL
MODEL 4
REMARK VINA RESULT:      -3.5     11.579     11.935
REMARK  0 active torsions:
REMARK  status: ('A' for Active; 'I' for Inactive)
ROOT
HETATM    1  C1  UNL     1     -34.812  15.830  -2.508  1.00 20.00     0.098 C 
HETATM    2  C2  UNL     1     -35.543  13.951  -3.897  1.00 20.00     0.160 A 
HETATM    3  C3  UNL     1     -34.610  14.681  -3.295  1.00 20.00     0.063 A 
HETATM    4  C4  UNL     1     -33.325  14.028  -3.631  1.00 20.00     0.225 A 
HETATM    5  N5  UNL     1     -34.979  16.777  -1.859  1.00 20.00    -0.192 NA
HETATM    6  N6  UNL     1     -35.020  12.892  -4.590  1.00 20.00    -0.166 NA
HETATM    7  N7  UNL     1     -33.760  12.882  -4.477  1.00 20.00    -0.188 NA
ENDROOT
TORSDOF 0
ENDMDL
MODEL 5
REMARK VINA RESULT:      -3.5      1.910      2.462
REMARK  0 active torsions:
REMARK  status: ('A' for Active; 'I' for Inactive)
ROOT
HETATM    1  C1  UNL     1     -33.733   6.822   6.497  1.00 20.00     0.098 C 
HETATM    2  C2  UNL     1     -34.408   5.841   4.358  1.00 20.00     0.160 A 
HETATM    3  C3  UNL     1     -34.282   5.816   5.681  1.00 20.00     0.063 A 
HETATM    4  C4  UNL     1     -34.840   4.512   6.102  1.00 20.00     0.225 A 
HETATM    5  N5  UNL     1     -33.281   7.652   7.170  1.00 20.00    -0.192 NA
HETATM    6  N6  UNL     1     -34.984   4.703   3.861  1.00 20.00    -0.166 NA
HETATM    7  N7  UNL     1     -35.254   3.907   4.806  1.00 20.00    -0.188 NA
ENDROOT
TORSDOF 0
ENDMDL
MODEL 6
REMARK VINA RESULT:      -3.3     11.976     13.808
REMARK  0 active torsions:
REMARK  status: ('A' for Active; 'I' for Inactive)
ROOT
HETATM    1  C1  UNL     1     -34.557  13.732  -4.762  1.00 20.00     0.098 C 
HETATM    2  C2  UNL     1     -34.462  15.784  -6.095  1.00 20.00     0.160 A 
HETATM    3  C3  UNL     1     -34.128  15.042  -5.044  1.00 20.00     0.063 A 
HETATM    4  C4  UNL     1     -33.214  15.888  -4.244  1.00 20.00     0.225 A 
HETATM    5  N5  UNL     1     -34.911  12.652  -4.530  1.00 20.00    -0.192 NA
HETATM    6  N6  UNL     1     -33.874  17.019  -6.079  1.00 20.00    -0.166 NA
HETATM    7  N7  UNL     1     -33.150  17.139  -5.048  1.00 20.00    -0.188 NA
ENDROOT
TORSDOF 0
ENDMDL
MODEL 7
REMARK VINA RESULT:      -3.3     11.707     12.362
REMARK  0 active torsions:
REMARK  status: ('A' for Active; 'I' for Inactive)
ROOT
HETATM    1  C1  UNL     1     -34.720  13.633  -4.181  1.00 20.00     0.098 C 
HETATM    2  C2  UNL     1     -35.527  15.530  -2.860  1.00 20.00     0.160 A 
HETATM    3  C3  UNL     1     -34.570  14.840  -3.472  1.00 20.00     0.063 A 
HETATM    4  C4  UNL     1     -33.327  15.609  -3.247  1.00 20.00     0.225 A 
HETATM    5  N5  UNL     1     -34.843  12.639  -4.766  1.00 20.00    -0.192 NA
HETATM    6  N6  UNL     1     -35.056  16.666  -2.258  1.00 20.00    -0.166 NA
HETATM    7  N7  UNL     1     -33.808  16.767  -2.443  1.00 20.00    -0.188 NA
ENDROOT
TORSDOF 0
ENDMDL
MODEL 8
REMARK VINA RESULT:      -3.3     11.637     13.026
REMARK  0 active torsions:
REMARK  status: ('A' for Active; 'I' for Inactive)
ROOT
HETATM    1  C1  UNL     1     -35.308  14.350  -6.856  1.00 20.00     0.098 C 
HETATM    2  C2  UNL     1     -34.630  13.141  -4.837  1.00 20.00     0.160 A 
HETATM    3  C3  UNL     1     -34.688  14.229  -5.598  1.00 20.00     0.063 A 
HETATM    4  C4  UNL     1     -33.965  15.274  -4.841  1.00 20.00     0.225 A 
HETATM    5  N5  UNL     1     -35.819  14.449  -7.893  1.00 20.00    -0.192 NA
HETATM    6  N6  UNL     1     -33.953  13.350  -3.667  1.00 20.00    -0.166 NA
HETATM    7  N7  UNL     1     -33.549  14.547  -3.610  1.00 20.00    -0.188 NA
ENDROOT
TORSDOF 0
ENDMDL
MODEL 9
REMARK VINA RESULT:      -3.3     11.761     12.412
REMARK  0 active torsions:
REMARK  status: ('A' for Active; 'I' for Inactive)
ROOT
HETATM    1  C1  UNL     1     -36.959  14.460  -3.820  1.00 20.00     0.098 C 
HETATM    2  C2  UNL     1     -34.812  15.509  -3.284  1.00 20.00     0.160 A 
HETATM    3  C3  UNL     1     -35.554  14.510  -3.752  1.00 20.00     0.063 A 
HETATM    4  C4  UNL     1     -34.590  13.473  -4.181  1.00 20.00     0.225 A 
HETATM    5  N5  UNL     1     -38.117  14.420  -3.877  1.00 20.00    -0.192 NA
HETATM    6  N6  UNL     1     -33.470  15.248  -3.356  1.00 20.00    -0.166 NA
HETATM    7  N7  UNL     1     -33.279  14.103  -3.858  1.00 20.00    -0.188 NA
ENDROOT
TORSDOF 0
ENDMDL
