MODEL 1
REMARK VINA RESULT:      -4.7      0.000      0.000
REMARK  2 active torsions:
REMARK  status: ('A' for Active; 'I' for Inactive)
REMARK    1  A    between atoms: C1_1  and  C5_5 
REMARK    2  A    between atoms: C1_1  and  C10_10 
ROOT
HETATM    1  C2  UNL     1     -35.190  16.673  -2.427  1.00 20.00     0.002 C 
HETATM    2  C3  UNL     1     -35.888  15.473  -3.066  1.00 20.00     0.013 C 
HETATM    3  C4  UNL     1     -33.707  16.316  -2.382  1.00 20.00     0.010 C 
HETATM    4  C5  UNL     1     -34.777  14.515  -3.510  1.00 20.00     0.063 C 
HETATM    5  C6  UNL     1     -33.498  15.378  -3.583  1.00 20.00    -0.037 C 
HETATM    6  C7  UNL     1     -33.380  16.193  -4.885  1.00 20.00     0.015 C 
HETATM    7  C8  UNL     1     -32.232  14.535  -3.407  1.00 20.00     0.015 C 
ENDROOT
BRANCH   4   8
HETATM    8  C1  UNL     1     -35.113  13.819  -4.793  1.00 20.00     0.131 C 
HETATM    9  O11 UNL     1     -34.724  12.673  -5.014  1.00 20.00    -0.298 OA
BRANCH   8  10
HETATM   10  C10 UNL     1     -35.951  14.609  -5.781  1.00 20.00     0.074 C 
HETATM   11  C9  UNL     1     -35.514  14.398  -7.219  1.00 20.00     0.013 C 
ENDBRANCH   8  10
ENDBRANCH   4   8
TORSDOF 2
ENDMDL
MODEL 2
REMARK VINA RESULT:      -4.4      1.966      4.131
REMARK  2 active torsions:
REMARK  status: ('A' for Active; 'I' for Inactive)
REMARK    1  A    between atoms: C1_1  and  C5_5 
REMARK    2  A    between atoms: C1_1  and  C10_10 
ROOT
HETATM    1  C2  UNL     1     -34.820  15.353  -7.446  1.00 20.00     0.002 C 
HETATM    2  C3  UNL     1     -34.071  16.293  -6.502  1.00 20.00     0.013 C 
HETATM    3  C4  UNL     1     -35.085  14.083  -6.643  1.00 20.00     0.010 C 
HETATM    4  C5  UNL     1     -34.053  15.604  -5.133  1.00 20.00     0.063 C 
HETATM    5  C6  UNL     1     -35.192  14.561  -5.185  1.00 20.00    -0.037 C 
HETATM    6  C7  UNL     1     -36.586  15.160  -4.918  1.00 20.00     0.015 C 
HETATM    7  C8  UNL     1     -34.950  13.406  -4.209  1.00 20.00     0.015 C 
ENDROOT
BRANCH   4   8
HETATM    8  C1  UNL     1     -34.179  16.585  -4.007  1.00 20.00     0.131 C 
HETATM    9  O11 UNL     1     -34.662  17.701  -4.190  1.00 20.00    -0.298 OA
BRANCH   8  10
HETATM   10  C10 UNL     1     -33.682  16.114  -2.654  1.00 20.00     0.074 C 
HETATM   11  C9  UNL     1     -34.708  16.309  -1.552  1.00 20.00     0.013 C 
ENDBRANCH   8  10
ENDBRANCH   4   8
TORSDOF 2
ENDMDL
MODEL 3
REMARK VINA RESULT:      -4.4      2.077      4.071
REMARK  2 active torsions:
REMARK  status: ('A' for Active; 'I' for Inactive)
REMARK    1  A    between atoms: C1_1  and  C5_5 
REMARK    2  A    between atoms: C1_1  and  C10_10 
ROOT
HETATM    1  C2  UNL     1     -34.126  13.544  -4.638  1.00 20.00     0.002 C 
HETATM    2  C3  UNL     1     -34.754  14.162  -3.388  1.00 20.00     0.013 C 
HETATM    3  C4  UNL     1     -34.572  14.422  -5.803  1.00 20.00     0.010 C 
HETATM    4  C5  UNL     1     -35.424  15.464  -3.841  1.00 20.00     0.063 C 
HETATM    5  C6  UNL     1     -34.756  15.819  -5.188  1.00 20.00    -0.037 C 
HETATM    6  C7  UNL     1     -33.393  16.520  -5.032  1.00 20.00     0.015 C 
HETATM    7  C8  UNL     1     -35.666  16.688  -6.061  1.00 20.00     0.015 C 
ENDROOT
BRANCH   4   8
HETATM    8  C1  UNL     1     -35.316  16.542  -2.807  1.00 20.00     0.131 C 
HETATM    9  O11 UNL     1     -35.949  17.591  -2.916  1.00 20.00    -0.298 OA
BRANCH   8  10
HETATM   10  C10 UNL     1     -34.391  16.255  -1.639  1.00 20.00     0.074 C 
HETATM   11  C9  UNL     1     -34.751  17.053  -0.398  1.00 20.00     0.013 C 
ENDBRANCH   8  10
ENDBRANCH   4   8
TORSDOF 2
ENDMDL
MODEL 4
REMARK VINA RESULT:      -4.4      1.864      4.046
REMARK  2 active torsions:
REMARK  status: ('A' for Active; 'I' for Inactive)
REMARK    1  A    between atoms: C1_1  and  C5_5 
REMARK    2  A    between atoms: C1_1  and  C10_10 
ROOT
HETATM    1  C2  UNL     1     -34.238  13.117  -4.594  1.00 20.00     0.002 C 
HETATM    2  C3  UNL     1     -33.386  14.145  -3.851  1.00 20.00     0.013 C 
HETATM    3  C4  UNL     1     -35.689  13.515  -4.336  1.00 20.00     0.010 C 
HETATM    4  C5  UNL     1     -34.358  15.198  -3.307  1.00 20.00     0.063 C 
HETATM    5  C6  UNL     1     -35.643  15.041  -4.150  1.00 20.00    -0.037 C 
HETATM    6  C7  UNL     1     -35.572  15.746  -5.518  1.00 20.00     0.015 C 
HETATM    7  C8  UNL     1     -36.881  15.539  -3.397  1.00 20.00     0.015 C 
ENDROOT
BRANCH   4   8
HETATM    8  C1  UNL     1     -33.773  16.576  -3.343  1.00 20.00     0.131 C 
HETATM    9  O11 UNL     1     -33.057  16.937  -4.276  1.00 20.00    -0.298 OA
BRANCH   8  10
HETATM   10  C10 UNL     1     -34.120  17.478  -2.174  1.00 20.00     0.074 C 
HETATM   11  C9  UNL     1     -34.452  16.701  -0.913  1.00 20.00     0.013 C 
ENDBRANCH   8  10
ENDBRANCH   4   8
TORSDOF 2
ENDMDL
MODEL 5
REMARK VINA RESULT:      -4.4      1.605      2.575
REMARK  2 active torsions:
REMARK  status: ('A' for Active; 'I' for Inactive)
REMARK    1  A    between atoms: C1_1  and  C5_5 
REMARK    2  A    between atoms: C1_1  and  C10_10 
ROOT
HETATM    1  C2  UNL     1     -33.320  13.644  -3.693  1.00 20.00     0.002 C 
HETATM    2  C3  UNL     1     -34.674  13.397  -4.358  1.00 20.00     0.013 C 
HETATM    3  C4  UNL     1     -33.078  15.148  -3.792  1.00 20.00     0.010 C 
HETATM    4  C5  UNL     1     -35.249  14.778  -4.692  1.00 20.00     0.063 C 
HETATM    5  C6  UNL     1     -34.485  15.768  -3.786  1.00 20.00    -0.037 C 
HETATM    6  C7  UNL     1     -35.035  15.835  -2.348  1.00 20.00     0.015 C 
HETATM    7  C8  UNL     1     -34.464  17.181  -4.378  1.00 20.00     0.015 C 
ENDROOT
BRANCH   4   8
HETATM    8  C1  UNL     1     -36.736  14.824  -4.524  1.00 20.00     0.131 C 
HETATM    9  O11 UNL     1     -37.307  14.086  -3.722  1.00 20.00    -0.298 OA
BRANCH   8  10
HETATM   10  C10 UNL     1     -37.475  15.824  -5.393  1.00 20.00     0.074 C 
HETATM   11  C9  UNL     1     -37.007  15.803  -6.837  1.00 20.00     0.013 C 
ENDBRANCH   8  10
ENDBRANCH   4   8
TORSDOF 2
ENDMDL
MODEL 6
REMARK VINA RESULT:      -4.4     11.609     12.786
REMARK  2 active torsions:
REMARK  status: ('A' for Active; 'I' for Inactive)
REMARK    1  A    between atoms: C1_1  and  C5_5 
REMARK    2  A    between atoms: C1_1  and  C10_10 
ROOT
HETATM    1  C2  UNL     1     -40.529   5.755  -0.129  1.00 20.00     0.002 C 
HETATM    2  C3  UNL     1     -40.906   4.637  -1.101  1.00 20.00     0.013 C 
HETATM    3  C4  UNL     1     -40.937   7.056  -0.814  1.00 20.00     0.010 C 
HETATM    4  C5  UNL     1     -41.657   5.307  -2.256  1.00 20.00     0.063 C 
HETATM    5  C6  UNL     1     -42.131   6.668  -1.701  1.00 20.00    -0.037 C 
HETATM    6  C7  UNL     1     -43.417   6.574  -0.858  1.00 20.00     0.015 C 
HETATM    7  C8  UNL     1     -42.342   7.695  -2.818  1.00 20.00     0.015 C 
ENDROOT
BRANCH   4   8
HETATM    8  C1  UNL     1     -42.765   4.446  -2.781  1.00 20.00     0.131 C 
HETATM    9  O11 UNL     1     -43.417   4.784  -3.768  1.00 20.00    -0.298 OA
BRANCH   8  10
HETATM   10  C10 UNL     1     -43.021   3.155  -2.027  1.00 20.00     0.074 C 
HETATM   11  C9  UNL     1     -42.737   1.922  -2.865  1.00 20.00     0.013 C 
ENDBRANCH   8  10
ENDBRANCH   4   8
TORSDOF 2
ENDMDL
MODEL 7
REMARK VINA RESULT:      -4.4      1.726      2.584
REMARK  2 active torsions:
REMARK  status: ('A' for Active; 'I' for Inactive)
REMARK    1  A    between atoms: C1_1  and  C5_5 
REMARK    2  A    between atoms: C1_1  and  C10_10 
ROOT
HETATM    1  C2  UNL     1     -33.534  16.235  -2.738  1.00 20.00     0.002 C 
HETATM    2  C3  UNL     1     -35.001  16.098  -2.330  1.00 20.00     0.013 C 
HETATM    3  C4  UNL     1     -33.233  15.026  -3.619  1.00 20.00     0.010 C 
HETATM    4  C5  UNL     1     -35.552  14.895  -3.105  1.00 20.00     0.063 C 
HETATM    5  C6  UNL     1     -34.577  14.688  -4.285  1.00 20.00    -0.037 C 
HETATM    6  C7  UNL     1     -34.839  15.633  -5.473  1.00 20.00     0.015 C 
HETATM    7  C8  UNL     1     -34.592  13.240  -4.787  1.00 20.00     0.015 C 
ENDROOT
BRANCH   4   8
HETATM    8  C1  UNL     1     -36.976  15.100  -3.523  1.00 20.00     0.131 C 
HETATM    9  O11 UNL     1     -37.673  14.152  -3.883  1.00 20.00    -0.298 OA
BRANCH   8  10
HETATM   10  C10 UNL     1     -37.487  16.527  -3.472  1.00 20.00     0.074 C 
HETATM   11  C9  UNL     1     -38.248  16.921  -4.726  1.00 20.00     0.013 C 
ENDBRANCH   8  10
ENDBRANCH   4   8
TORSDOF 2
ENDMDL
MODEL 8
REMARK VINA RESULT:      -4.3      1.479      3.797
REMARK  2 active torsions:
REMARK  status: ('A' for Active; 'I' for Inactive)
REMARK    1  A    between atoms: C1_1  and  C5_5 
REMARK    2  A    between atoms: C1_1  and  C10_10 
ROOT
HETATM    1  C2  UNL     1     -34.120  17.825  -6.315  1.00 20.00     0.002 C 
HETATM    2  C3  UNL     1     -33.373  17.263  -5.105  1.00 20.00     0.013 C 
HETATM    3  C4  UNL     1     -34.765  16.623  -6.999  1.00 20.00     0.010 C 
HETATM    4  C5  UNL     1     -33.726  15.773  -5.034  1.00 20.00     0.063 C 
HETATM    5  C6  UNL     1     -35.022  15.621  -5.861  1.00 20.00    -0.037 C 
HETATM    6  C7  UNL     1     -36.295  16.008  -5.084  1.00 20.00     0.015 C 
HETATM    7  C8  UNL     1     -35.184  14.199  -6.407  1.00 20.00     0.015 C 
ENDROOT
BRANCH   4   8
HETATM    8  C1  UNL     1     -33.846  15.290  -3.622  1.00 20.00     0.131 C 
HETATM    9  O11 UNL     1     -34.072  14.106  -3.374  1.00 20.00    -0.298 OA
BRANCH   8  10
HETATM   10  C10 UNL     1     -33.672  16.339  -2.541  1.00 20.00     0.074 C 
HETATM   11  C9  UNL     1     -34.779  16.299  -1.502  1.00 20.00     0.013 C 
ENDBRANCH   8  10
ENDBRANCH   4   8
TORSDOF 2
ENDMDL
MODEL 9
REMARK VINA RESULT:      -4.3      1.561      3.659
REMARK  2 active torsions:
REMARK  status: ('A' for Active; 'I' for Inactive)
REMARK    1  A    between atoms: C1_1  and  C5_5 
REMARK    2  A    between atoms: C1_1  and  C10_10 
ROOT
HETATM    1  C2  UNL     1     -35.829  14.610  -7.180  1.00 20.00     0.002 C 
HETATM    2  C3  UNL     1     -36.694  15.185  -6.059  1.00 20.00     0.013 C 
HETATM    3  C4  UNL     1     -34.405  15.069  -6.883  1.00 20.00     0.010 C 
HETATM    4  C5  UNL     1     -35.730  15.837  -5.062  1.00 20.00     0.063 C 
HETATM    5  C6  UNL     1     -34.352  15.201  -5.352  1.00 20.00    -0.037 C 
HETATM    6  C7  UNL     1     -34.164  13.818  -4.701  1.00 20.00     0.015 C 
HETATM    7  C8  UNL     1     -33.202  16.116  -4.919  1.00 20.00     0.015 C 
ENDROOT
BRANCH   4   8
HETATM    8  C1  UNL     1     -36.188  15.672  -3.646  1.00 20.00     0.131 C 
HETATM    9  O11 UNL     1     -36.894  14.721  -3.314  1.00 20.00    -0.298 OA
BRANCH   8  10
HETATM   10  C10 UNL     1     -35.730  16.738  -2.669  1.00 20.00     0.074 C 
HETATM   11  C9  UNL     1     -34.767  16.201  -1.625  1.00 20.00     0.013 C 
ENDBRANCH   8  10
ENDBRANCH   4   8
TORSDOF 2
ENDMDL
