MODEL 1
REMARK VINA RESULT:      -4.2      0.000      0.000
REMARK  3 active torsions:
REMARK  status: ('A' for Active; 'I' for Inactive)
REMARK    1  A    between atoms: C1_1  and  C2_2 
REMARK    2  A    between atoms: C1_1  and  C3_3 
REMARK    3  A    between atoms: C3_3  and  O4_4 
ROOT
HETATM    1  C3  UNL     1     -35.275   4.934   4.988  1.00 20.00     0.216 C 
HETATM    2 CL6  UNL     1     -34.426   5.526   3.545  1.00 20.00    -0.096 Cl
ENDROOT
BRANCH   1   3
HETATM    3  C1  UNL     1     -34.598   5.384   6.277  1.00 20.00     0.079 C 
BRANCH   3   4
HETATM    4  C2  UNL     1     -33.713   6.608   6.113  1.00 20.00     0.226 C 
HETATM    5  F5  UNL     1     -33.959   7.459   7.146  1.00 20.00    -0.255 F 
ENDBRANCH   3   4
ENDBRANCH   1   3
BRANCH   1   6
HETATM    6  O4  UNL     1     -35.286   3.513   4.952  1.00 20.00    -0.380 OA
HETATM    7  H12 UNL     1     -35.555   3.214   5.836  1.00 20.00     0.211 HD
ENDBRANCH   1   6
TORSDOF 3
ENDMDL
MODEL 2
REMARK VINA RESULT:      -4.1      2.560      2.682
REMARK  3 active torsions:
REMARK  status: ('A' for Active; 'I' for Inactive)
REMARK    1  A    between atoms: C1_1  and  C2_2 
REMARK    2  A    between atoms: C1_1  and  C3_3 
REMARK    3  A    between atoms: C3_3  and  O4_4 
ROOT
HETATM    1  C3  UNL     1     -34.434   4.733   5.099  1.00 20.00     0.216 C 
HETATM    2 CL6  UNL     1     -34.587   5.788   6.521  1.00 20.00    -0.096 Cl
ENDROOT
BRANCH   1   3
HETATM    3  C1  UNL     1     -34.512   5.517   3.794  1.00 20.00     0.079 C 
BRANCH   3   4
HETATM    4  C2  UNL     1     -33.364   6.490   3.590  1.00 20.00     0.226 C 
HETATM    5  F5  UNL     1     -32.243   5.778   3.292  1.00 20.00    -0.255 F 
ENDBRANCH   3   4
ENDBRANCH   1   3
BRANCH   1   6
HETATM    6  O4  UNL     1     -35.494   3.787   5.127  1.00 20.00    -0.380 OA
HETATM    7  H12 UNL     1     -35.154   3.002   5.588  1.00 20.00     0.211 HD
ENDBRANCH   1   6
TORSDOF 3
ENDMDL
MODEL 3
REMARK VINA RESULT:      -3.7      2.216      2.379
REMARK  3 active torsions:
REMARK  status: ('A' for Active; 'I' for Inactive)
REMARK    1  A    between atoms: C1_1  and  C2_2 
REMARK    2  A    between atoms: C1_1  and  C3_3 
REMARK    3  A    between atoms: C3_3  and  O4_4 
ROOT
HETATM    1  C3  UNL     1     -34.029   6.339   3.995  1.00 20.00     0.216 C 
HETATM    2 CL6  UNL     1     -32.393   6.165   3.325  1.00 20.00    -0.096 Cl
ENDROOT
BRANCH   1   3
HETATM    3  C1  UNL     1     -34.047   6.183   5.511  1.00 20.00     0.079 C 
BRANCH   3   4
HETATM    4  C2  UNL     1     -34.882   5.014   6.001  1.00 20.00     0.226 C 
HETATM    5  F5  UNL     1     -34.074   3.925   6.114  1.00 20.00    -0.255 F 
ENDBRANCH   3   4
ENDBRANCH   1   3
BRANCH   1   6
HETATM    6  O4  UNL     1     -34.857   5.335   3.424  1.00 20.00    -0.380 OA
HETATM    7  H12 UNL     1     -34.697   5.355   2.465  1.00 20.00     0.211 HD
ENDBRANCH   1   6
TORSDOF 3
ENDMDL
MODEL 4
REMARK VINA RESULT:      -3.7      2.957      3.052
REMARK  3 active torsions:
REMARK  status: ('A' for Active; 'I' for Inactive)
REMARK    1  A    between atoms: C1_1  and  C2_2 
REMARK    2  A    between atoms: C1_1  and  C3_3 
REMARK    3  A    between atoms: C3_3  and  O4_4 
ROOT
HETATM    1  C3  UNL     1     -34.810   5.582   5.123  1.00 20.00     0.216 C 
HETATM    2 CL6  UNL     1     -34.835   3.901   5.699  1.00 20.00    -0.096 Cl
ENDROOT
BRANCH   1   3
HETATM    3  C1  UNL     1     -34.209   5.699   3.727  1.00 20.00     0.079 C 
BRANCH   3   4
HETATM    4  C2  UNL     1     -32.923   6.505   3.675  1.00 20.00     0.226 C 
HETATM    5  F5  UNL     1     -31.975   5.763   3.042  1.00 20.00    -0.255 F 
ENDBRANCH   3   4
ENDBRANCH   1   3
BRANCH   1   6
HETATM    6  O4  UNL     1     -34.026   6.352   6.023  1.00 20.00    -0.380 OA
HETATM    7  H12 UNL     1     -34.162   5.972   6.907  1.00 20.00     0.211 HD
ENDBRANCH   1   6
TORSDOF 3
ENDMDL
MODEL 5
REMARK VINA RESULT:      -3.6      2.638      2.927
REMARK  3 active torsions:
REMARK  status: ('A' for Active; 'I' for Inactive)
REMARK    1  A    between atoms: C1_1  and  C2_2 
REMARK    2  A    between atoms: C1_1  and  C3_3 
REMARK    3  A    between atoms: C3_3  and  O4_4 
ROOT
HETATM    1  C3  UNL     1     -34.192   6.270   4.588  1.00 20.00     0.216 C 
HETATM    2 CL6  UNL     1     -33.825   6.656   6.283  1.00 20.00    -0.096 Cl
ENDROOT
BRANCH   1   3
HETATM    3  C1  UNL     1     -35.089   5.044   4.461  1.00 20.00     0.079 C 
BRANCH   3   4
HETATM    4  C2  UNL     1     -34.794   3.957   5.478  1.00 20.00     0.226 C 
HETATM    5  F5  UNL     1     -35.621   4.129   6.545  1.00 20.00    -0.255 F 
ENDBRANCH   3   4
ENDBRANCH   1   3
BRANCH   1   6
HETATM    6  O4  UNL     1     -32.970   6.012   3.911  1.00 20.00    -0.380 OA
HETATM    7  H12 UNL     1     -32.896   5.046   3.828  1.00 20.00     0.211 HD
ENDBRANCH   1   6
TORSDOF 3
ENDMDL
MODEL 6
REMARK VINA RESULT:      -3.5      2.992      3.261
REMARK  3 active torsions:
REMARK  status: ('A' for Active; 'I' for Inactive)
REMARK    1  A    between atoms: C1_1  and  C2_2 
REMARK    2  A    between atoms: C1_1  and  C3_3 
REMARK    3  A    between atoms: C3_3  and  O4_4 
ROOT
HETATM    1  C3  UNL     1     -34.404   6.076   5.724  1.00 20.00     0.216 C 
HETATM    2 CL6  UNL     1     -34.461   4.389   6.280  1.00 20.00    -0.096 Cl
ENDROOT
BRANCH   1   3
HETATM    3  C1  UNL     1     -33.825   6.197   4.319  1.00 20.00     0.079 C 
BRANCH   3   4
HETATM    4  C2  UNL     1     -34.611   5.443   3.261  1.00 20.00     0.226 C 
HETATM    5  F5  UNL     1     -35.934   5.519   3.572  1.00 20.00    -0.255 F 
ENDBRANCH   3   4
ENDBRANCH   1   3
BRANCH   1   6
HETATM    6  O4  UNL     1     -33.587   6.817   6.619  1.00 20.00    -0.380 OA
HETATM    7  H12 UNL     1     -32.709   6.880   6.207  1.00 20.00     0.211 HD
ENDBRANCH   1   6
TORSDOF 3
ENDMDL
MODEL 7
REMARK VINA RESULT:      -3.4      2.452      2.581
REMARK  3 active torsions:
REMARK  status: ('A' for Active; 'I' for Inactive)
REMARK    1  A    between atoms: C1_1  and  C2_2 
REMARK    2  A    between atoms: C1_1  and  C3_3 
REMARK    3  A    between atoms: C3_3  and  O4_4 
ROOT
HETATM    1  C3  UNL     1     -33.626   5.918   4.085  1.00 20.00     0.216 C 
HETATM    2 CL6  UNL     1     -35.178   5.443   3.362  1.00 20.00    -0.096 Cl
ENDROOT
BRANCH   1   3
HETATM    3  C1  UNL     1     -33.798   6.474   5.494  1.00 20.00     0.079 C 
BRANCH   3   4
HETATM    4  C2  UNL     1     -34.541   5.545   6.437  1.00 20.00     0.226 C 
HETATM    5  F5  UNL     1     -34.104   4.274   6.225  1.00 20.00    -0.255 F 
ENDBRANCH   3   4
ENDBRANCH   1   3
BRANCH   1   6
HETATM    6  O4  UNL     1     -33.038   6.920   3.268  1.00 20.00    -0.380 OA
HETATM    7  H12 UNL     1     -32.102   6.973   3.523  1.00 20.00     0.211 HD
ENDBRANCH   1   6
TORSDOF 3
ENDMDL
MODEL 8
REMARK VINA RESULT:      -3.4      2.940      3.303
REMARK  3 active torsions:
REMARK  status: ('A' for Active; 'I' for Inactive)
REMARK    1  A    between atoms: C1_1  and  C2_2 
REMARK    2  A    between atoms: C1_1  and  C3_3 
REMARK    3  A    between atoms: C3_3  and  O4_4 
ROOT
HETATM    1  C3  UNL     1     -33.185   6.023   3.881  1.00 20.00     0.216 C 
HETATM    2 CL6  UNL     1     -32.508   7.237   2.774  1.00 20.00    -0.096 Cl
ENDROOT
BRANCH   1   3
HETATM    3  C1  UNL     1     -34.506   5.457   3.372  1.00 20.00     0.079 C 
BRANCH   3   4
HETATM    4  C2  UNL     1     -35.421   4.945   4.470  1.00 20.00     0.226 C 
HETATM    5  F5  UNL     1     -35.066   3.664   4.764  1.00 20.00    -0.255 F 
ENDBRANCH   3   4
ENDBRANCH   1   3
BRANCH   1   6
HETATM    6  O4  UNL     1     -33.410   6.642   5.141  1.00 20.00    -0.380 OA
HETATM    7  H12 UNL     1     -33.543   7.589   4.966  1.00 20.00     0.211 HD
ENDBRANCH   1   6
TORSDOF 3
ENDMDL
MODEL 9
REMARK VINA RESULT:      -3.3     12.860     12.998
REMARK  3 active torsions:
REMARK  status: ('A' for Active; 'I' for Inactive)
REMARK    1  A    between atoms: C1_1  and  C2_2 
REMARK    2  A    between atoms: C1_1  and  C3_3 
REMARK    3  A    between atoms: C3_3  and  O4_4 
ROOT
HETATM    1  C3  UNL     1     -35.234  13.997  -4.344  1.00 20.00     0.216 C 
HETATM    2 CL6  UNL     1     -34.623  14.353  -5.974  1.00 20.00    -0.096 Cl
ENDROOT
BRANCH   1   3
HETATM    3  C1  UNL     1     -34.436  14.716  -3.263  1.00 20.00     0.079 C 
BRANCH   3   4
HETATM    4  C2  UNL     1     -33.068  15.190  -3.720  1.00 20.00     0.226 C 
HETATM    5  F5  UNL     1     -32.172  14.188  -3.511  1.00 20.00    -0.255 F 
ENDBRANCH   3   4
ENDBRANCH   1   3
BRANCH   1   6
HETATM    6  O4  UNL     1     -35.139  12.596  -4.125  1.00 20.00    -0.380 OA
HETATM    7  H12 UNL     1     -35.835  12.183  -4.664  1.00 20.00     0.211 HD
ENDBRANCH   1   6
TORSDOF 3
ENDMDL
