MODEL 1
REMARK VINA RESULT:      -4.7      0.000      0.000
REMARK  0 active torsions:
REMARK  status: ('A' for Active; 'I' for Inactive)
ROOT
HETATM    1  C1  UNL     1     -34.091   6.178   5.736  1.00 20.00    -0.081 C 
HETATM    2  C2  UNL     1     -33.510   7.057   6.562  1.00 20.00     0.015 C 
HETATM    3  C3  UNL     1     -34.860   4.978   6.220  1.00 20.00     0.034 C 
HETATM    4  C4  UNL     1     -34.969   4.104   4.979  1.00 20.00     0.005 C 
HETATM    5  C5  UNL     1     -35.060   5.110   3.838  1.00 20.00     0.013 C 
HETATM    6  C6  UNL     1     -34.059   6.222   4.215  1.00 20.00    -0.025 C 
HETATM    7  C7  UNL     1     -32.653   5.883   3.693  1.00 20.00     0.019 C 
HETATM    8  C8  UNL     1     -34.515   7.565   3.636  1.00 20.00     0.019 C 
ENDROOT
TORSDOF 0
ENDMDL
MODEL 2
REMARK VINA RESULT:      -4.6      1.152      2.665
REMARK  0 active torsions:
REMARK  status: ('A' for Active; 'I' for Inactive)
ROOT
HETATM    1  C1  UNL     1     -33.843   6.213   5.054  1.00 20.00    -0.081 C 
HETATM    2  C2  UNL     1     -34.108   6.560   6.320  1.00 20.00     0.015 C 
HETATM    3  C3  UNL     1     -32.678   6.765   4.277  1.00 20.00     0.034 C 
HETATM    4  C4  UNL     1     -33.017   6.414   2.836  1.00 20.00     0.005 C 
HETATM    5  C5  UNL     1     -33.760   5.089   2.954  1.00 20.00     0.013 C 
HETATM    6  C6  UNL     1     -34.657   5.253   4.199  1.00 20.00    -0.025 C 
HETATM    7  C7  UNL     1     -36.007   5.880   3.815  1.00 20.00     0.019 C 
HETATM    8  C8  UNL     1     -34.891   3.893   4.867  1.00 20.00     0.019 C 
ENDROOT
TORSDOF 0
ENDMDL
MODEL 3
REMARK VINA RESULT:      -4.1     11.756     12.739
REMARK  0 active torsions:
REMARK  status: ('A' for Active; 'I' for Inactive)
ROOT
HETATM    1  C1  UNL     1     -35.521  14.728  -3.756  1.00 20.00    -0.081 C 
HETATM    2  C2  UNL     1     -36.857  14.800  -3.724  1.00 20.00     0.015 C 
HETATM    3  C3  UNL     1     -34.774  13.487  -4.168  1.00 20.00     0.034 C 
HETATM    4  C4  UNL     1     -33.359  13.745  -3.671  1.00 20.00     0.005 C 
HETATM    5  C5  UNL     1     -33.197  15.253  -3.817  1.00 20.00     0.013 C 
HETATM    6  C6  UNL     1     -34.553  15.838  -3.372  1.00 20.00    -0.025 C 
HETATM    7  C7  UNL     1     -34.571  16.071  -1.852  1.00 20.00     0.019 C 
HETATM    8  C8  UNL     1     -34.825  17.159  -4.100  1.00 20.00     0.019 C 
ENDROOT
TORSDOF 0
ENDMDL
MODEL 4
REMARK VINA RESULT:      -3.9     12.157     12.905
REMARK  0 active torsions:
REMARK  status: ('A' for Active; 'I' for Inactive)
ROOT
HETATM    1  C1  UNL     1     -35.540  15.105  -3.486  1.00 20.00    -0.081 C 
HETATM    2  C2  UNL     1     -36.845  14.874  -3.676  1.00 20.00     0.015 C 
HETATM    3  C3  UNL     1     -35.002  15.858  -2.298  1.00 20.00     0.034 C 
HETATM    4  C4  UNL     1     -33.582  16.207  -2.716  1.00 20.00     0.005 C 
HETATM    5  C5  UNL     1     -33.160  15.026  -3.580  1.00 20.00     0.013 C 
HETATM    6  C6  UNL     1     -34.412  14.686  -4.416  1.00 20.00    -0.025 C 
HETATM    7  C7  UNL     1     -34.439  15.516  -5.711  1.00 20.00     0.019 C 
HETATM    8  C8  UNL     1     -34.431  13.192  -4.760  1.00 20.00     0.019 C 
ENDROOT
TORSDOF 0
ENDMDL
MODEL 5
REMARK VINA RESULT:      -3.9      8.816     10.251
REMARK  0 active torsions:
REMARK  status: ('A' for Active; 'I' for Inactive)
ROOT
HETATM    1  C1  UNL     1     -41.952   5.254  -1.811  1.00 20.00    -0.081 C 
HETATM    2  C2  UNL     1     -42.696   4.448  -2.579  1.00 20.00     0.015 C 
HETATM    3  C3  UNL     1     -40.805   4.761  -0.970  1.00 20.00     0.034 C 
HETATM    4  C4  UNL     1     -40.550   5.913  -0.009  1.00 20.00     0.005 C 
HETATM    5  C5  UNL     1     -40.886   7.149  -0.834  1.00 20.00     0.013 C 
HETATM    6  C6  UNL     1     -42.143   6.754  -1.638  1.00 20.00    -0.025 C 
HETATM    7  C7  UNL     1     -43.417   7.049  -0.830  1.00 20.00     0.019 C 
HETATM    8  C8  UNL     1     -42.185   7.518  -2.966  1.00 20.00     0.019 C 
ENDROOT
TORSDOF 0
ENDMDL
MODEL 6
REMARK VINA RESULT:      -3.9     11.811     12.687
REMARK  0 active torsions:
REMARK  status: ('A' for Active; 'I' for Inactive)
ROOT
HETATM    1  C1  UNL     1     -34.938  15.565  -2.924  1.00 20.00    -0.081 C 
HETATM    2  C2  UNL     1     -34.505  16.158  -1.805  1.00 20.00     0.015 C 
HETATM    3  C3  UNL     1     -36.391  15.275  -3.191  1.00 20.00     0.034 C 
HETATM    4  C4  UNL     1     -36.347  14.276  -4.337  1.00 20.00     0.005 C 
HETATM    5  C5  UNL     1     -35.122  14.700  -5.137  1.00 20.00     0.013 C 
HETATM    6  C6  UNL     1     -34.070  15.075  -4.073  1.00 20.00    -0.025 C 
HETATM    7  C7  UNL     1     -33.261  13.837  -3.652  1.00 20.00     0.019 C 
HETATM    8  C8  UNL     1     -33.122  16.149  -4.619  1.00 20.00     0.019 C 
ENDROOT
TORSDOF 0
ENDMDL
MODEL 7
REMARK VINA RESULT:      -3.9     11.811     12.574
REMARK  0 active torsions:
REMARK  status: ('A' for Active; 'I' for Inactive)
ROOT
HETATM    1  C1  UNL     1     -34.197  14.341  -3.611  1.00 20.00    -0.081 C 
HETATM    2  C2  UNL     1     -32.893  14.045  -3.547  1.00 20.00     0.015 C 
HETATM    3  C3  UNL     1     -35.234  13.382  -4.132  1.00 20.00     0.034 C 
HETATM    4  C4  UNL     1     -36.443  14.270  -4.384  1.00 20.00     0.005 C 
HETATM    5  C5  UNL     1     -36.342  15.331  -3.294  1.00 20.00     0.013 C 
HETATM    6  C6  UNL     1     -34.838  15.661  -3.207  1.00 20.00    -0.025 C 
HETATM    7  C7  UNL     1     -34.468  16.771  -4.205  1.00 20.00     0.019 C 
HETATM    8  C8  UNL     1     -34.473  16.103  -1.786  1.00 20.00     0.019 C 
ENDROOT
TORSDOF 0
ENDMDL
MODEL 8
REMARK VINA RESULT:      -3.9     12.274     13.571
REMARK  0 active torsions:
REMARK  status: ('A' for Active; 'I' for Inactive)
ROOT
HETATM    1  C1  UNL     1     -33.858  15.804  -5.299  1.00 20.00    -0.081 C 
HETATM    2  C2  UNL     1     -33.371  17.049  -5.240  1.00 20.00     0.015 C 
HETATM    3  C3  UNL     1     -34.488  15.225  -6.537  1.00 20.00     0.034 C 
HETATM    4  C4  UNL     1     -35.224  13.998  -6.018  1.00 20.00     0.005 C 
HETATM    5  C5  UNL     1     -34.346  13.510  -4.872  1.00 20.00     0.013 C 
HETATM    6  C6  UNL     1     -33.884  14.797  -4.158  1.00 20.00    -0.025 C 
HETATM    7  C7  UNL     1     -34.903  15.218  -3.086  1.00 20.00     0.019 C 
HETATM    8  C8  UNL     1     -32.513  14.580  -3.509  1.00 20.00     0.019 C 
ENDROOT
TORSDOF 0
ENDMDL
MODEL 9
REMARK VINA RESULT:      -3.8     11.766     13.452
REMARK  0 active torsions:
REMARK  status: ('A' for Active; 'I' for Inactive)
ROOT
HETATM    1  C1  UNL     1     -33.749  15.808  -4.712  1.00 20.00    -0.081 C 
HETATM    2  C2  UNL     1     -33.401  17.019  -5.165  1.00 20.00     0.015 C 
HETATM    3  C3  UNL     1     -32.944  15.049  -3.692  1.00 20.00     0.034 C 
HETATM    4  C4  UNL     1     -33.483  13.630  -3.800  1.00 20.00     0.005 C 
HETATM    5  C5  UNL     1     -34.953  13.830  -4.147  1.00 20.00     0.013 C 
HETATM    6  C6  UNL     1     -34.963  15.002  -5.150  1.00 20.00    -0.025 C 
HETATM    7  C7  UNL     1     -34.781  14.485  -6.588  1.00 20.00     0.019 C 
HETATM    8  C8  UNL     1     -36.279  15.780  -5.045  1.00 20.00     0.019 C 
ENDROOT
TORSDOF 0
ENDMDL
