MODEL 1
REMARK VINA RESULT:      -5.2      0.000      0.000
REMARK  2 active torsions:
REMARK  status: ('A' for Active; 'I' for Inactive)
REMARK    1  A    between atoms: C6_6  and  N11_11 
REMARK    2  A    between atoms: C10_10  and  N11_11 
ROOT
HETATM    1  C1  UNL     1     -32.160   9.142   1.133  1.00 20.00     0.013 C 
HETATM    2  C2  UNL     1     -32.137   8.309   1.997  1.00 20.00    -0.087 C 
HETATM    3  C10 UNL     1     -32.103   7.291   3.050  1.00 20.00     0.362 C 
ENDROOT
BRANCH   3   4
HETATM    4  N11 UNL     1     -33.304   7.361   3.872  1.00 20.00     0.099 N 
HETATM    5  H28 UNL     1     -33.167   8.055   4.607  1.00 20.00     0.317 HD
BRANCH   4   6
HETATM    6  C6  UNL     1     -33.597   6.071   4.477  1.00 20.00     0.229 C 
HETATM    7  C4  UNL     1     -34.066   6.199   5.928  1.00 20.00     0.036 C 
HETATM    8  C3  UNL     1     -34.838   4.907   6.211  1.00 20.00     0.003 C 
HETATM    9  C5  UNL     1     -34.989   4.187   4.868  1.00 20.00     0.011 C 
HETATM   10  C7  UNL     1     -34.714   5.254   3.792  1.00 20.00    -0.017 C 
HETATM   11  C8  UNL     1     -35.991   6.071   3.515  1.00 20.00     0.017 C 
HETATM   12  C9  UNL     1     -34.241   4.615   2.481  1.00 20.00     0.017 C 
ENDBRANCH   4   6
ENDBRANCH   3   4
TORSDOF 2
ENDMDL
MODEL 2
REMARK VINA RESULT:      -4.7     10.919     12.336
REMARK  2 active torsions:
REMARK  status: ('A' for Active; 'I' for Inactive)
REMARK    1  A    between atoms: C6_6  and  N11_11 
REMARK    2  A    between atoms: C10_10  and  N11_11 
ROOT
HETATM    1  C1  UNL     1     -35.254  17.572   0.987  1.00 20.00     0.013 C 
HETATM    2  C2  UNL     1     -34.739  17.221  -0.038  1.00 20.00    -0.087 C 
HETATM    3  C10 UNL     1     -34.105  16.795  -1.288  1.00 20.00     0.362 C 
ENDROOT
BRANCH   3   4
HETATM    4  N11 UNL     1     -34.935  15.816  -1.978  1.00 20.00     0.099 N 
HETATM    5  H28 UNL     1     -34.626  14.878  -1.725  1.00 20.00     0.317 HD
BRANCH   4   6
HETATM    6  C6  UNL     1     -34.844  15.980  -3.421  1.00 20.00     0.229 C 
HETATM    7  C4  UNL     1     -33.728  16.942  -3.830  1.00 20.00     0.036 C 
HETATM    8  C3  UNL     1     -33.402  16.578  -5.281  1.00 20.00     0.003 C 
HETATM    9  C5  UNL     1     -34.163  15.285  -5.588  1.00 20.00     0.011 C 
HETATM   10  C7  UNL     1     -34.540  14.692  -4.217  1.00 20.00    -0.017 C 
HETATM   11  C8  UNL     1     -33.360  13.880  -3.646  1.00 20.00     0.017 C 
HETATM   12  C9  UNL     1     -35.765  13.776  -4.323  1.00 20.00     0.017 C 
ENDBRANCH   4   6
ENDBRANCH   3   4
TORSDOF 2
ENDMDL
MODEL 3
REMARK VINA RESULT:      -4.6     11.305     12.814
REMARK  2 active torsions:
REMARK  status: ('A' for Active; 'I' for Inactive)
REMARK    1  A    between atoms: C6_6  and  N11_11 
REMARK    2  A    between atoms: C10_10  and  N11_11 
ROOT
HETATM    1  C1  UNL     1     -34.707  16.775  -0.542  1.00 20.00     0.013 C 
HETATM    2  C2  UNL     1     -34.275  16.984  -1.642  1.00 20.00    -0.087 C 
HETATM    3  C10 UNL     1     -33.746  17.245  -2.983  1.00 20.00     0.362 C 
ENDROOT
BRANCH   3   4
HETATM    4  N11 UNL     1     -33.546  15.998  -3.709  1.00 20.00     0.099 N 
HETATM    5  H28 UNL     1     -32.590  15.967  -4.063  1.00 20.00     0.317 HD
BRANCH   4   6
HETATM    6  C6  UNL     1     -34.475  15.889  -4.823  1.00 20.00     0.229 C 
HETATM    7  C4  UNL     1     -33.770  15.941  -6.179  1.00 20.00     0.036 C 
HETATM    8  C3  UNL     1     -34.740  15.272  -7.157  1.00 20.00     0.003 C 
HETATM    9  C5  UNL     1     -35.857  14.655  -6.310  1.00 20.00     0.011 C 
HETATM   10  C7  UNL     1     -35.297  14.582  -4.877  1.00 20.00    -0.017 C 
HETATM   11  C8  UNL     1     -34.441  13.311  -4.704  1.00 20.00     0.017 C 
HETATM   12  C9  UNL     1     -36.423  14.565  -3.838  1.00 20.00     0.017 C 
ENDBRANCH   4   6
ENDBRANCH   3   4
TORSDOF 2
ENDMDL
MODEL 4
REMARK VINA RESULT:      -4.6     10.724     12.065
REMARK  2 active torsions:
REMARK  status: ('A' for Active; 'I' for Inactive)
REMARK    1  A    between atoms: C6_6  and  N11_11 
REMARK    2  A    between atoms: C10_10  and  N11_11 
ROOT
HETATM    1  C1  UNL     1     -35.104  17.477   0.807  1.00 20.00     0.013 C 
HETATM    2  C2  UNL     1     -34.749  17.097  -0.274  1.00 20.00    -0.087 C 
HETATM    3  C10 UNL     1     -34.311  16.637  -1.594  1.00 20.00     0.362 C 
ENDROOT
BRANCH   3   4
HETATM    4  N11 UNL     1     -35.197  15.595  -2.096  1.00 20.00     0.099 N 
HETATM    5  H28 UNL     1     -35.152  14.788  -1.473  1.00 20.00     0.317 HD
BRANCH   4   6
HETATM    6  C6  UNL     1     -34.815  15.188  -3.439  1.00 20.00     0.229 C 
HETATM    7  C4  UNL     1     -34.358  13.729  -3.499  1.00 20.00     0.036 C 
HETATM    8  C3  UNL     1     -34.540  13.316  -4.963  1.00 20.00     0.003 C 
HETATM    9  C5  UNL     1     -35.303  14.456  -5.645  1.00 20.00     0.011 C 
HETATM   10  C7  UNL     1     -35.931  15.276  -4.503  1.00 20.00    -0.017 C 
HETATM   11  C8  UNL     1     -37.259  14.635  -4.055  1.00 20.00     0.017 C 
HETATM   12  C9  UNL     1     -36.201  16.721  -4.937  1.00 20.00     0.017 C 
ENDBRANCH   4   6
ENDBRANCH   3   4
TORSDOF 2
ENDMDL
MODEL 5
REMARK VINA RESULT:      -4.6     11.064     12.478
REMARK  2 active torsions:
REMARK  status: ('A' for Active; 'I' for Inactive)
REMARK    1  A    between atoms: C6_6  and  N11_11 
REMARK    2  A    between atoms: C10_10  and  N11_11 
ROOT
HETATM    1  C1  UNL     1     -34.419  17.716   0.048  1.00 20.00     0.013 C 
HETATM    2  C2  UNL     1     -34.473  16.902  -0.833  1.00 20.00    -0.087 C 
HETATM    3  C10 UNL     1     -34.542  15.905  -1.904  1.00 20.00     0.362 C 
ENDROOT
BRANCH   3   4
HETATM    4  N11 UNL     1     -33.867  16.389  -3.101  1.00 20.00     0.099 N 
HETATM    5  H28 UNL     1     -34.364  17.204  -3.459  1.00 20.00     0.317 HD
BRANCH   4   6
HETATM    6  C6  UNL     1     -33.828  15.360  -4.129  1.00 20.00     0.229 C 
HETATM    7  C4  UNL     1     -34.307  14.001  -3.614  1.00 20.00     0.036 C 
HETATM    8  C3  UNL     1     -34.733  13.231  -4.867  1.00 20.00     0.003 C 
HETATM    9  C5  UNL     1     -34.707  14.233  -6.025  1.00 20.00     0.011 C 
HETATM   10  C7  UNL     1     -34.710  15.625  -5.368  1.00 20.00    -0.017 C 
HETATM   11  C8  UNL     1     -36.151  16.045  -5.017  1.00 20.00     0.017 C 
HETATM   12  C9  UNL     1     -34.100  16.682  -6.296  1.00 20.00     0.017 C 
ENDBRANCH   4   6
ENDBRANCH   3   4
TORSDOF 2
ENDMDL
MODEL 6
REMARK VINA RESULT:      -4.5     11.222     11.985
REMARK  2 active torsions:
REMARK  status: ('A' for Active; 'I' for Inactive)
REMARK    1  A    between atoms: C6_6  and  N11_11 
REMARK    2  A    between atoms: C10_10  and  N11_11 
ROOT
HETATM    1  C1  UNL     1     -35.178  17.412   0.736  1.00 20.00     0.013 C 
HETATM    2  C2  UNL     1     -34.488  17.305  -0.240  1.00 20.00    -0.087 C 
HETATM    3  C10 UNL     1     -33.640  17.175  -1.428  1.00 20.00     0.362 C 
ENDROOT
BRANCH   3   4
HETATM    4  N11 UNL     1     -34.455  17.010  -2.625  1.00 20.00     0.099 N 
HETATM    5  H28 UNL     1     -35.333  17.514  -2.504  1.00 20.00     0.317 HD
BRANCH   4   6
HETATM    6  C6  UNL     1     -34.737  15.604  -2.873  1.00 20.00     0.229 C 
HETATM    7  C4  UNL     1     -36.192  15.364  -3.281  1.00 20.00     0.036 C 
HETATM    8  C3  UNL     1     -36.180  14.024  -4.021  1.00 20.00     0.003 C 
HETATM    9  C5  UNL     1     -34.709  13.648  -4.219  1.00 20.00     0.011 C 
HETATM   10  C7  UNL     1     -33.916  14.951  -4.006  1.00 20.00    -0.017 C 
HETATM   11  C8  UNL     1     -33.896  15.780  -5.305  1.00 20.00     0.017 C 
HETATM   12  C9  UNL     1     -32.472  14.663  -3.580  1.00 20.00     0.017 C 
ENDBRANCH   4   6
ENDBRANCH   3   4
TORSDOF 2
ENDMDL
MODEL 7
REMARK VINA RESULT:      -4.4      8.785     10.861
REMARK  2 active torsions:
REMARK  status: ('A' for Active; 'I' for Inactive)
REMARK    1  A    between atoms: C6_6  and  N11_11 
REMARK    2  A    between atoms: C10_10  and  N11_11 
ROOT
HETATM    1  C1  UNL     1     -41.350   1.416  -4.048  1.00 20.00     0.013 C 
HETATM    2  C2  UNL     1     -41.951   2.165  -3.327  1.00 20.00    -0.087 C 
HETATM    3  C10 UNL     1     -42.690   3.075  -2.449  1.00 20.00     0.362 C 
ENDROOT
BRANCH   3   4
HETATM    4  N11 UNL     1     -41.780   3.775  -1.552  1.00 20.00     0.099 N 
HETATM    5  H28 UNL     1     -42.131   3.703  -0.597  1.00 20.00     0.317 HD
BRANCH   4   6
HETATM    6  C6  UNL     1     -41.665   5.179  -1.917  1.00 20.00     0.229 C 
HETATM    7  C4  UNL     1     -42.752   5.618  -2.900  1.00 20.00     0.036 C 
HETATM    8  C3  UNL     1     -42.843   7.138  -2.739  1.00 20.00     0.003 C 
HETATM    9  C5  UNL     1     -41.986   7.499  -1.522  1.00 20.00     0.011 C 
HETATM   10  C7  UNL     1     -41.789   6.182  -0.749  1.00 20.00    -0.017 C 
HETATM   11  C8  UNL     1     -43.001   5.914   0.165  1.00 20.00     0.017 C 
HETATM   12  C9  UNL     1     -40.521   6.224   0.111  1.00 20.00     0.017 C 
ENDBRANCH   4   6
ENDBRANCH   3   4
TORSDOF 2
ENDMDL
MODEL 8
REMARK VINA RESULT:      -4.4      8.989     10.413
REMARK  2 active torsions:
REMARK  status: ('A' for Active; 'I' for Inactive)
REMARK    1  A    between atoms: C6_6  and  N11_11 
REMARK    2  A    between atoms: C10_10  and  N11_11 
ROOT
HETATM    1  C1  UNL     1     -42.040   8.927  -5.264  1.00 20.00     0.013 C 
HETATM    2  C2  UNL     1     -42.538   8.492  -4.263  1.00 20.00    -0.087 C 
HETATM    3  C10 UNL     1     -43.148   7.967  -3.039  1.00 20.00     0.362 C 
ENDROOT
BRANCH   3   4
HETATM    4  N11 UNL     1     -43.068   6.513  -3.007  1.00 20.00     0.099 N 
HETATM    5  H28 UNL     1     -43.896   6.142  -2.541  1.00 20.00     0.317 HD
BRANCH   4   6
HETATM    6  C6  UNL     1     -41.878   6.072  -2.296  1.00 20.00     0.229 C 
HETATM    7  C4  UNL     1     -41.506   7.007  -1.144  1.00 20.00     0.036 C 
HETATM    8  C3  UNL     1     -40.650   6.156  -0.202  1.00 20.00     0.003 C 
HETATM    9  C5  UNL     1     -40.745   4.714  -0.710  1.00 20.00     0.011 C 
HETATM   10  C7  UNL     1     -41.978   4.681  -1.633  1.00 20.00    -0.017 C 
HETATM   11  C8  UNL     1     -43.260   4.488  -0.800  1.00 20.00     0.017 C 
HETATM   12  C9  UNL     1     -41.878   3.545  -2.657  1.00 20.00     0.017 C 
ENDBRANCH   4   6
ENDBRANCH   3   4
TORSDOF 2
ENDMDL
MODEL 9
REMARK VINA RESULT:      -4.3     11.016     12.636
REMARK  2 active torsions:
REMARK  status: ('A' for Active; 'I' for Inactive)
REMARK    1  A    between atoms: C6_6  and  N11_11 
REMARK    2  A    between atoms: C10_10  and  N11_11 
ROOT
HETATM    1  C1  UNL     1     -38.159  15.742  -6.559  1.00 20.00     0.013 C 
HETATM    2  C2  UNL     1     -38.049  15.374  -5.422  1.00 20.00    -0.087 C 
HETATM    3  C10 UNL     1     -37.921  14.925  -4.033  1.00 20.00     0.362 C 
ENDROOT
BRANCH   3   4
HETATM    4  N11 UNL     1     -36.610  14.334  -3.803  1.00 20.00     0.099 N 
HETATM    5  H28 UNL     1     -36.605  13.876  -2.891  1.00 20.00     0.317 HD
BRANCH   4   6
HETATM    6  C6  UNL     1     -35.568  15.349  -3.837  1.00 20.00     0.229 C 
HETATM    7  C4  UNL     1     -35.125  15.779  -2.437  1.00 20.00     0.036 C 
HETATM    8  C3  UNL     1     -33.725  16.368  -2.627  1.00 20.00     0.003 C 
HETATM    9  C5  UNL     1     -33.312  16.055  -4.068  1.00 20.00     0.011 C 
HETATM   10  C7  UNL     1     -34.254  14.930  -4.534  1.00 20.00    -0.017 C 
HETATM   11  C8  UNL     1     -33.721  13.561  -4.066  1.00 20.00     0.017 C 
HETATM   12  C9  UNL     1     -34.392  14.912  -6.060  1.00 20.00     0.017 C 
ENDBRANCH   4   6
ENDBRANCH   3   4
TORSDOF 2
ENDMDL
