MODEL 1
REMARK VINA RESULT:      -4.5      0.000      0.000
REMARK  2 active torsions:
REMARK  status: ('A' for Active; 'I' for Inactive)
REMARK    1  A    between atoms: C5_5  and  C9_9 
REMARK    2  A    between atoms: C5_5  and  O10_10 
ROOT
HETATM    1  C1  UNL     1     -34.419  13.386  -4.872  1.00 20.00     0.004 C 
HETATM    2  C2  UNL     1     -34.225  13.933  -3.457  1.00 20.00     0.012 C 
HETATM    3  C3  UNL     1     -34.391  14.592  -5.818  1.00 20.00     0.038 C 
HETATM    4  C4  UNL     1     -34.536  15.441  -3.549  1.00 20.00    -0.017 C 
HETATM    5  C5  UNL     1     -33.964  15.784  -4.953  1.00 20.00     0.064 C 
HETATM    6  C6  UNL     1     -33.850  16.202  -2.406  1.00 20.00     0.018 C 
HETATM    7  C7  UNL     1     -36.057  15.667  -3.440  1.00 20.00     0.018 C 
ENDROOT
BRANCH   5   8
HETATM    8  C9  UNL     1     -34.407  17.120  -5.539  1.00 20.00     0.034 C 
HETATM    9  C8  UNL     1     -34.584  17.042  -7.020  1.00 20.00     0.008 C 
ENDBRANCH   5   8
BRANCH   5  10
HETATM   10  O10 UNL     1     -32.532  15.790  -4.892  1.00 20.00    -0.389 OA
HETATM   11  H28 UNL     1     -32.303  15.727  -3.954  1.00 20.00     0.210 HD
ENDBRANCH   5  10
TORSDOF 2
ENDMDL
MODEL 2
REMARK VINA RESULT:      -4.4      1.664      3.227
REMARK  2 active torsions:
REMARK  status: ('A' for Active; 'I' for Inactive)
REMARK    1  A    between atoms: C5_5  and  C9_9 
REMARK    2  A    between atoms: C5_5  and  O10_10 
ROOT
HETATM    1  C1  UNL     1     -34.794  13.518  -4.818  1.00 20.00     0.004 C 
HETATM    2  C2  UNL     1     -35.417  14.742  -5.490  1.00 20.00     0.012 C 
HETATM    3  C3  UNL     1     -34.261  13.984  -3.458  1.00 20.00     0.038 C 
HETATM    4  C4  UNL     1     -34.849  15.962  -4.737  1.00 20.00    -0.017 C 
HETATM    5  C5  UNL     1     -34.781  15.417  -3.283  1.00 20.00     0.064 C 
HETATM    6  C6  UNL     1     -35.782  17.172  -4.893  1.00 20.00     0.018 C 
HETATM    7  C7  UNL     1     -33.469  16.335  -5.312  1.00 20.00     0.018 C 
ENDROOT
BRANCH   5   8
HETATM    8  C9  UNL     1     -33.935  16.230  -2.310  1.00 20.00     0.034 C 
HETATM    9  C8  UNL     1     -34.680  16.542  -1.054  1.00 20.00     0.008 C 
ENDBRANCH   5   8
BRANCH   5  10
HETATM   10  O10 UNL     1     -36.107  15.339  -2.744  1.00 20.00    -0.389 OA
HETATM   11  H28 UNL     1     -36.003  15.113  -1.809  1.00 20.00     0.210 HD
ENDBRANCH   5  10
TORSDOF 2
ENDMDL
MODEL 3
REMARK VINA RESULT:      -4.4      1.056      3.008
REMARK  2 active torsions:
REMARK  status: ('A' for Active; 'I' for Inactive)
REMARK    1  A    between atoms: C5_5  and  C9_9 
REMARK    2  A    between atoms: C5_5  and  O10_10 
ROOT
HETATM    1  C1  UNL     1     -33.923  16.667  -6.140  1.00 20.00     0.004 C 
HETATM    2  C2  UNL     1     -34.285  15.190  -6.309  1.00 20.00     0.012 C 
HETATM    3  C3  UNL     1     -33.780  16.915  -4.634  1.00 20.00     0.038 C 
HETATM    4  C4  UNL     1     -34.781  14.724  -4.926  1.00 20.00    -0.017 C 
HETATM    5  C5  UNL     1     -33.848  15.529  -3.980  1.00 20.00     0.064 C 
HETATM    6  C6  UNL     1     -34.630  13.202  -4.785  1.00 20.00     0.018 C 
HETATM    7  C7  UNL     1     -36.272  15.081  -4.759  1.00 20.00     0.018 C 
ENDROOT
BRANCH   5   8
HETATM    8  C9  UNL     1     -34.281  15.593  -2.520  1.00 20.00     0.034 C 
HETATM    9  C8  UNL     1     -33.837  16.861  -1.866  1.00 20.00     0.008 C 
ENDBRANCH   5   8
BRANCH   5  10
HETATM   10  O10 UNL     1     -32.532  14.962  -4.018  1.00 20.00    -0.389 OA
HETATM   11  H28 UNL     1     -32.408  14.514  -3.170  1.00 20.00     0.210 HD
ENDBRANCH   5  10
TORSDOF 2
ENDMDL
MODEL 4
REMARK VINA RESULT:      -4.3      1.808      2.732
REMARK  2 active torsions:
REMARK  status: ('A' for Active; 'I' for Inactive)
REMARK    1  A    between atoms: C5_5  and  C9_9 
REMARK    2  A    between atoms: C5_5  and  O10_10 
ROOT
HETATM    1  C1  UNL     1     -36.187  15.566  -3.130  1.00 20.00     0.004 C 
HETATM    2  C2  UNL     1     -34.759  15.287  -2.659  1.00 20.00     0.012 C 
HETATM    3  C3  UNL     1     -36.325  14.930  -4.518  1.00 20.00     0.038 C 
HETATM    4  C4  UNL     1     -33.970  14.905  -3.927  1.00 20.00    -0.017 C 
HETATM    5  C5  UNL     1     -35.043  14.112  -4.724  1.00 20.00     0.064 C 
HETATM    6  C6  UNL     1     -32.737  14.067  -3.561  1.00 20.00     0.018 C 
HETATM    7  C7  UNL     1     -33.494  16.180  -4.650  1.00 20.00     0.018 C 
ENDROOT
BRANCH   5   8
HETATM    8  C9  UNL     1     -34.733  13.876  -6.198  1.00 20.00     0.034 C 
HETATM    9  C8  UNL     1     -35.720  14.556  -7.088  1.00 20.00     0.008 C 
ENDBRANCH   5   8
BRANCH   5  10
HETATM   10  O10 UNL     1     -35.238  12.831  -4.111  1.00 20.00    -0.389 OA
HETATM   11  H28 UNL     1     -36.187  12.651  -4.161  1.00 20.00     0.210 HD
ENDBRANCH   5  10
TORSDOF 2
ENDMDL
MODEL 5
REMARK VINA RESULT:      -4.3      1.072      2.888
REMARK  2 active torsions:
REMARK  status: ('A' for Active; 'I' for Inactive)
REMARK    1  A    between atoms: C5_5  and  C9_9 
REMARK    2  A    between atoms: C5_5  and  O10_10 
ROOT
HETATM    1  C1  UNL     1     -34.127  16.388  -2.161  1.00 20.00     0.004 C 
HETATM    2  C2  UNL     1     -33.913  17.562  -3.117  1.00 20.00     0.012 C 
HETATM    3  C3  UNL     1     -34.204  15.124  -3.025  1.00 20.00     0.038 C 
HETATM    4  C4  UNL     1     -34.314  17.039  -4.511  1.00 20.00    -0.017 C 
HETATM    5  C5  UNL     1     -33.815  15.570  -4.440  1.00 20.00     0.064 C 
HETATM    6  C6  UNL     1     -33.632  17.865  -5.612  1.00 20.00     0.018 C 
HETATM    7  C7  UNL     1     -35.841  17.156  -4.693  1.00 20.00     0.018 C 
ENDROOT
BRANCH   5   8
HETATM    8  C9  UNL     1     -34.356  14.634  -5.516  1.00 20.00     0.034 C 
HETATM    9  C8  UNL     1     -34.752  13.310  -4.950  1.00 20.00     0.008 C 
ENDBRANCH   5   8
BRANCH   5  10
HETATM   10  O10 UNL     1     -32.384  15.550  -4.528  1.00 20.00    -0.389 OA
HETATM   11  H28 UNL     1     -32.078  15.004  -3.791  1.00 20.00     0.210 HD
ENDBRANCH   5  10
TORSDOF 2
ENDMDL
MODEL 6
REMARK VINA RESULT:      -4.2      1.376      1.940
REMARK  2 active torsions:
REMARK  status: ('A' for Active; 'I' for Inactive)
REMARK    1  A    between atoms: C5_5  and  C9_9 
REMARK    2  A    between atoms: C5_5  and  O10_10 
ROOT
HETATM    1  C1  UNL     1     -36.695  15.067  -4.864  1.00 20.00     0.004 C 
HETATM    2  C2  UNL     1     -35.827  14.031  -4.148  1.00 20.00     0.012 C 
HETATM    3  C3  UNL     1     -35.744  16.135  -5.413  1.00 20.00     0.038 C 
HETATM    4  C4  UNL     1     -34.472  14.725  -3.902  1.00 20.00    -0.017 C 
HETATM    5  C5  UNL     1     -34.331  15.581  -5.191  1.00 20.00     0.064 C 
HETATM    6  C6  UNL     1     -33.357  13.682  -3.734  1.00 20.00     0.018 C 
HETATM    7  C7  UNL     1     -34.544  15.570  -2.615  1.00 20.00     0.018 C 
ENDROOT
BRANCH   5   8
HETATM    8  C9  UNL     1     -33.274  16.679  -5.144  1.00 20.00     0.034 C 
HETATM    9  C8  UNL     1     -33.759  17.942  -5.777  1.00 20.00     0.008 C 
ENDBRANCH   5   8
BRANCH   5  10
HETATM   10  O10 UNL     1     -34.017  14.724  -6.297  1.00 20.00    -0.389 OA
HETATM   11  H28 UNL     1     -33.052  14.696  -6.349  1.00 20.00     0.210 HD
ENDBRANCH   5  10
TORSDOF 2
ENDMDL
MODEL 7
REMARK VINA RESULT:      -4.1      1.396      1.896
REMARK  2 active torsions:
REMARK  status: ('A' for Active; 'I' for Inactive)
REMARK    1  A    between atoms: C5_5  and  C9_9 
REMARK    2  A    between atoms: C5_5  and  O10_10 
ROOT
HETATM    1  C1  UNL     1     -33.326  13.597  -3.781  1.00 20.00     0.004 C 
HETATM    2  C2  UNL     1     -32.998  15.087  -3.661  1.00 20.00     0.012 C 
HETATM    3  C3  UNL     1     -34.487  13.480  -4.774  1.00 20.00     0.038 C 
HETATM    4  C4  UNL     1     -34.232  15.828  -4.214  1.00 20.00    -0.017 C 
HETATM    5  C5  UNL     1     -34.661  14.883  -5.370  1.00 20.00     0.064 C 
HETATM    6  C6  UNL     1     -33.845  17.237  -4.687  1.00 20.00     0.018 C 
HETATM    7  C7  UNL     1     -35.299  15.963  -3.110  1.00 20.00     0.018 C 
ENDROOT
BRANCH   5   8
HETATM    8  C9  UNL     1     -36.063  15.111  -5.926  1.00 20.00     0.034 C 
HETATM    9  C8  UNL     1     -36.141  14.784  -7.382  1.00 20.00     0.008 C 
ENDBRANCH   5   8
BRANCH   5  10
HETATM   10  O10 UNL     1     -33.736  15.014  -6.458  1.00 20.00    -0.389 OA
HETATM   11  H28 UNL     1     -32.980  14.453  -6.236  1.00 20.00     0.210 HD
ENDBRANCH   5  10
TORSDOF 2
ENDMDL
MODEL 8
REMARK VINA RESULT:      -4.0      2.003      3.130
REMARK  2 active torsions:
REMARK  status: ('A' for Active; 'I' for Inactive)
REMARK    1  A    between atoms: C5_5  and  C9_9 
REMARK    2  A    between atoms: C5_5  and  O10_10 
ROOT
HETATM    1  C1  UNL     1     -35.540  14.619  -6.823  1.00 20.00     0.004 C 
HETATM    2  C2  UNL     1     -36.851  14.885  -6.082  1.00 20.00     0.012 C 
HETATM    3  C3  UNL     1     -34.468  14.389  -5.751  1.00 20.00     0.038 C 
HETATM    4  C4  UNL     1     -36.446  15.251  -4.640  1.00 20.00    -0.017 C 
HETATM    5  C5  UNL     1     -35.227  14.313  -4.420  1.00 20.00     0.064 C 
HETATM    6  C6  UNL     1     -37.607  14.982  -3.671  1.00 20.00     0.018 C 
HETATM    7  C7  UNL     1     -36.085  16.747  -4.562  1.00 20.00     0.018 C 
ENDROOT
BRANCH   5   8
HETATM    8  C9  UNL     1     -34.342  14.647  -3.224  1.00 20.00     0.034 C 
HETATM    9  C8  UNL     1     -32.951  14.994  -3.644  1.00 20.00     0.008 C 
ENDBRANCH   5   8
BRANCH   5  10
HETATM   10  O10 UNL     1     -35.689  12.966  -4.256  1.00 20.00    -0.389 OA
HETATM   11  H28 UNL     1     -34.939  12.466  -3.904  1.00 20.00     0.210 HD
ENDBRANCH   5  10
TORSDOF 2
ENDMDL
MODEL 9
REMARK VINA RESULT:      -4.0      1.361      2.478
REMARK  2 active torsions:
REMARK  status: ('A' for Active; 'I' for Inactive)
REMARK    1  A    between atoms: C5_5  and  C9_9 
REMARK    2  A    between atoms: C5_5  and  O10_10 
ROOT
HETATM    1  C1  UNL     1     -33.574  16.249  -2.778  1.00 20.00     0.004 C 
HETATM    2  C2  UNL     1     -34.929  15.567  -2.576  1.00 20.00     0.012 C 
HETATM    3  C3  UNL     1     -33.303  16.252  -4.286  1.00 20.00     0.038 C 
HETATM    4  C4  UNL     1     -35.205  14.798  -3.884  1.00 20.00    -0.017 C 
HETATM    5  C5  UNL     1     -34.604  15.768  -4.939  1.00 20.00     0.064 C 
HETATM    6  C6  UNL     1     -36.711  14.560  -4.059  1.00 20.00     0.018 C 
HETATM    7  C7  UNL     1     -34.497  13.429  -3.844  1.00 20.00     0.018 C 
ENDROOT
BRANCH   5   8
HETATM    8  C9  UNL     1     -34.377  15.179  -6.327  1.00 20.00     0.034 C 
HETATM    9  C8  UNL     1     -34.744  16.144  -7.406  1.00 20.00     0.008 C 
ENDBRANCH   5   8
BRANCH   5  10
HETATM   10  O10 UNL     1     -35.469  16.903  -5.086  1.00 20.00    -0.389 OA
HETATM   11  H28 UNL     1     -35.462  17.125  -6.027  1.00 20.00     0.210 HD
ENDBRANCH   5  10
TORSDOF 2
ENDMDL
