MODEL 1
REMARK VINA RESULT:      -4.2      0.000      0.000
REMARK  1 active torsions:
REMARK  status: ('A' for Active; 'I' for Inactive)
REMARK    1  A    between atoms: C4_4  and  C9_9 
ROOT
HETATM    1  C1  UNL     1     -33.981  13.505  -4.397  1.00 20.00     0.001 C 
HETATM    2  C2  UNL     1     -33.663  14.634  -3.415  1.00 20.00     0.007 C 
HETATM    3  C3  UNL     1     -35.503  13.465  -4.528  1.00 20.00     0.009 C 
HETATM    4  C4  UNL     1     -35.019  15.153  -2.922  1.00 20.00     0.011 C 
HETATM    5  C5  UNL     1     -35.986  14.860  -4.092  1.00 20.00    -0.043 C 
HETATM    6  C6  UNL     1     -35.865  15.858  -5.258  1.00 20.00     0.015 C 
HETATM    7  C7  UNL     1     -37.447  14.813  -3.630  1.00 20.00     0.015 C 
ENDROOT
BRANCH   4   8
HETATM    8  C9  UNL     1     -34.951  16.600  -2.452  1.00 20.00     0.083 C 
HETATM    9  C8  UNL     1     -34.722  16.691  -0.951  1.00 20.00     0.027 C 
HETATM   10 CL10 UNL     1     -33.632  17.447  -3.309  1.00 20.00    -0.125 Cl
ENDBRANCH   4   8
TORSDOF 1
ENDMDL
MODEL 2
REMARK VINA RESULT:      -4.2      2.036      3.010
REMARK  1 active torsions:
REMARK  status: ('A' for Active; 'I' for Inactive)
REMARK    1  A    between atoms: C4_4  and  C9_9 
ROOT
HETATM    1  C1  UNL     1     -34.556  13.222  -4.913  1.00 20.00     0.001 C 
HETATM    2  C2  UNL     1     -34.591  14.432  -5.847  1.00 20.00     0.007 C 
HETATM    3  C3  UNL     1     -34.247  13.764  -3.518  1.00 20.00     0.009 C 
HETATM    4  C4  UNL     1     -34.200  15.638  -4.985  1.00 20.00     0.011 C 
HETATM    5  C5  UNL     1     -34.654  15.248  -3.559  1.00 20.00    -0.043 C 
HETATM    6  C6  UNL     1     -36.170  15.396  -3.333  1.00 20.00     0.015 C 
HETATM    7  C7  UNL     1     -33.912  16.049  -2.482  1.00 20.00     0.015 C 
ENDROOT
BRANCH   4   8
HETATM    8  C9  UNL     1     -34.750  16.948  -5.532  1.00 20.00     0.083 C 
HETATM    9  C8  UNL     1     -33.655  17.991  -5.697  1.00 20.00     0.027 C 
HETATM   10 CL10 UNL     1     -35.537  16.654  -7.109  1.00 20.00    -0.125 Cl
ENDBRANCH   4   8
TORSDOF 1
ENDMDL
MODEL 3
REMARK VINA RESULT:      -4.2      1.926      3.392
REMARK  1 active torsions:
REMARK  status: ('A' for Active; 'I' for Inactive)
REMARK    1  A    between atoms: C4_4  and  C9_9 
ROOT
HETATM    1  C1  UNL     1     -33.553  13.612  -3.787  1.00 20.00     0.001 C 
HETATM    2  C2  UNL     1     -34.967  13.842  -4.323  1.00 20.00     0.007 C 
HETATM    3  C3  UNL     1     -32.917  14.993  -3.643  1.00 20.00     0.009 C 
HETATM    4  C4  UNL     1     -35.078  15.351  -4.573  1.00 20.00     0.011 C 
HETATM    5  C5  UNL     1     -34.097  15.977  -3.555  1.00 20.00    -0.043 C 
HETATM    6  C6  UNL     1     -34.647  16.028  -2.119  1.00 20.00     0.015 C 
HETATM    7  C7  UNL     1     -33.664  17.389  -3.971  1.00 20.00     0.015 C 
ENDROOT
BRANCH   4   8
HETATM    8  C9  UNL     1     -36.517  15.846  -4.512  1.00 20.00     0.083 C 
HETATM    9  C8  UNL     1     -37.027  16.256  -5.885  1.00 20.00     0.027 C 
HETATM   10 CL10 UNL     1     -37.564  14.561  -3.846  1.00 20.00    -0.125 Cl
ENDBRANCH   4   8
TORSDOF 1
ENDMDL
MODEL 4
REMARK VINA RESULT:      -4.1     11.404     12.750
REMARK  1 active torsions:
REMARK  status: ('A' for Active; 'I' for Inactive)
REMARK    1  A    between atoms: C4_4  and  C9_9 
ROOT
HETATM    1  C1  UNL     1     -40.436   6.139  -0.042  1.00 20.00     0.001 C 
HETATM    2  C2  UNL     1     -40.875   4.774  -0.572  1.00 20.00     0.007 C 
HETATM    3  C3  UNL     1     -40.970   7.176  -1.028  1.00 20.00     0.009 C 
HETATM    4  C4  UNL     1     -41.569   5.048  -1.911  1.00 20.00     0.011 C 
HETATM    5  C5  UNL     1     -42.133   6.480  -1.759  1.00 20.00    -0.043 C 
HETATM    6  C6  UNL     1     -43.417   6.551  -0.914  1.00 20.00     0.015 C 
HETATM    7  C7  UNL     1     -42.396   7.140  -3.118  1.00 20.00     0.015 C 
ENDROOT
BRANCH   4   8
HETATM    8  C9  UNL     1     -42.574   3.965  -2.279  1.00 20.00     0.083 C 
HETATM    9  C8  UNL     1     -41.916   2.827  -3.043  1.00 20.00     0.027 C 
HETATM   10 CL10 UNL     1     -43.334   3.325  -0.794  1.00 20.00    -0.125 Cl
ENDBRANCH   4   8
TORSDOF 1
ENDMDL
MODEL 5
REMARK VINA RESULT:      -4.1      1.608      2.174
REMARK  1 active torsions:
REMARK  status: ('A' for Active; 'I' for Inactive)
REMARK    1  A    between atoms: C4_4  and  C9_9 
ROOT
HETATM    1  C1  UNL     1     -34.334  13.520  -4.675  1.00 20.00     0.001 C 
HETATM    2  C2  UNL     1     -34.793  14.319  -3.455  1.00 20.00     0.007 C 
HETATM    3  C3  UNL     1     -34.593  14.406  -5.893  1.00 20.00     0.009 C 
HETATM    4  C4  UNL     1     -35.404  15.612  -4.007  1.00 20.00     0.011 C 
HETATM    5  C5  UNL     1     -34.660  15.843  -5.343  1.00 20.00    -0.043 C 
HETATM    6  C6  UNL     1     -33.242  16.417  -5.168  1.00 20.00     0.015 C 
HETATM    7  C7  UNL     1     -35.451  16.754  -6.290  1.00 20.00     0.015 C 
ENDROOT
BRANCH   4   8
HETATM    8  C9  UNL     1     -35.353  16.755  -3.003  1.00 20.00     0.083 C 
HETATM    9  C8  UNL     1     -36.735  17.336  -2.744  1.00 20.00     0.027 C 
HETATM   10 CL10 UNL     1     -34.656  16.170  -1.466  1.00 20.00    -0.125 Cl
ENDBRANCH   4   8
TORSDOF 1
ENDMDL
MODEL 6
REMARK VINA RESULT:      -4.1      1.677      2.704
REMARK  1 active torsions:
REMARK  status: ('A' for Active; 'I' for Inactive)
REMARK    1  A    between atoms: C4_4  and  C9_9 
ROOT
HETATM    1  C1  UNL     1     -36.296  14.664  -3.970  1.00 20.00     0.001 C 
HETATM    2  C2  UNL     1     -35.932  15.593  -2.811  1.00 20.00     0.007 C 
HETATM    3  C3  UNL     1     -35.278  14.937  -5.076  1.00 20.00     0.009 C 
HETATM    4  C4  UNL     1     -34.771  16.456  -3.315  1.00 20.00     0.011 C 
HETATM    5  C5  UNL     1     -34.066  15.568  -4.367  1.00 20.00    -0.043 C 
HETATM    6  C6  UNL     1     -33.175  14.474  -3.752  1.00 20.00     0.015 C 
HETATM    7  C7  UNL     1     -33.228  16.396  -5.348  1.00 20.00     0.015 C 
ENDROOT
BRANCH   4   8
HETATM    8  C9  UNL     1     -33.898  16.978  -2.182  1.00 20.00     0.083 C 
HETATM    9  C8  UNL     1     -33.688  18.481  -2.282  1.00 20.00     0.027 C 
HETATM   10 CL10 UNL     1     -34.658  16.586  -0.613  1.00 20.00    -0.125 Cl
ENDBRANCH   4   8
TORSDOF 1
ENDMDL
MODEL 7
REMARK VINA RESULT:      -4.0      1.979      3.308
REMARK  1 active torsions:
REMARK  status: ('A' for Active; 'I' for Inactive)
REMARK    1  A    between atoms: C4_4  and  C9_9 
ROOT
HETATM    1  C1  UNL     1     -33.883  17.961  -6.217  1.00 20.00     0.001 C 
HETATM    2  C2  UNL     1     -33.549  17.218  -4.923  1.00 20.00     0.007 C 
HETATM    3  C3  UNL     1     -34.498  16.928  -7.159  1.00 20.00     0.009 C 
HETATM    4  C4  UNL     1     -33.887  15.746  -5.186  1.00 20.00     0.011 C 
HETATM    5  C5  UNL     1     -35.011  15.800  -6.247  1.00 20.00    -0.043 C 
HETATM    6  C6  UNL     1     -36.390  16.162  -5.667  1.00 20.00     0.015 C 
HETATM    7  C7  UNL     1     -35.129  14.481  -7.022  1.00 20.00     0.015 C 
ENDROOT
BRANCH   4   8
HETATM    8  C9  UNL     1     -34.205  14.984  -3.906  1.00 20.00     0.083 C 
HETATM    9  C8  UNL     1     -33.349  13.735  -3.771  1.00 20.00     0.027 C 
HETATM   10 CL10 UNL     1     -33.937  16.047  -2.495  1.00 20.00    -0.125 Cl
ENDBRANCH   4   8
TORSDOF 1
ENDMDL
MODEL 8
REMARK VINA RESULT:      -4.0      1.986      3.413
REMARK  1 active torsions:
REMARK  status: ('A' for Active; 'I' for Inactive)
REMARK    1  A    between atoms: C4_4  and  C9_9 
ROOT
HETATM    1  C1  UNL     1     -33.202  15.631  -3.743  1.00 20.00     0.001 C 
HETATM    2  C2  UNL     1     -33.659  15.886  -5.180  1.00 20.00     0.007 C 
HETATM    3  C3  UNL     1     -34.462  15.307  -2.942  1.00 20.00     0.009 C 
HETATM    4  C4  UNL     1     -35.189  15.802  -5.154  1.00 20.00     0.011 C 
HETATM    5  C5  UNL     1     -35.496  14.840  -3.983  1.00 20.00    -0.043 C 
HETATM    6  C6  UNL     1     -35.277  13.357  -4.330  1.00 20.00     0.015 C 
HETATM    7  C7  UNL     1     -36.924  15.020  -3.453  1.00 20.00     0.015 C 
ENDROOT
BRANCH   4   8
HETATM    8  C9  UNL     1     -35.775  15.423  -6.507  1.00 20.00     0.083 C 
HETATM    9  C8  UNL     1     -36.507  16.592  -7.149  1.00 20.00     0.027 C 
HETATM   10 CL10 UNL     1     -34.466  14.871  -7.591  1.00 20.00    -0.125 Cl
ENDBRANCH   4   8
TORSDOF 1
ENDMDL
MODEL 9
REMARK VINA RESULT:      -3.9      1.477      2.501
REMARK  1 active torsions:
REMARK  status: ('A' for Active; 'I' for Inactive)
REMARK    1  A    between atoms: C4_4  and  C9_9 
ROOT
HETATM    1  C1  UNL     1     -35.024  16.235  -6.142  1.00 20.00     0.001 C 
HETATM    2  C2  UNL     1     -35.265  16.924  -4.798  1.00 20.00     0.007 C 
HETATM    3  C3  UNL     1     -34.265  14.946  -5.836  1.00 20.00     0.009 C 
HETATM    4  C4  UNL     1     -34.546  16.063  -3.753  1.00 20.00     0.011 C 
HETATM    5  C5  UNL     1     -34.564  14.640  -4.357  1.00 20.00    -0.043 C 
HETATM    6  C6  UNL     1     -35.922  13.928  -4.220  1.00 20.00     0.015 C 
HETATM    7  C7  UNL     1     -33.473  13.747  -3.752  1.00 20.00     0.015 C 
ENDROOT
BRANCH   4   8
HETATM    8  C9  UNL     1     -35.150  16.211  -2.362  1.00 20.00     0.083 C 
HETATM    9  C8  UNL     1     -34.143  16.776  -1.372  1.00 20.00     0.027 C 
HETATM   10 CL10 UNL     1     -36.575  17.285  -2.441  1.00 20.00    -0.125 Cl
ENDBRANCH   4   8
TORSDOF 1
ENDMDL
