MODEL 1
REMARK VINA RESULT:      -4.7      0.000      0.000
REMARK  2 active torsions:
REMARK  status: ('A' for Active; 'I' for Inactive)
REMARK    1  A    between atoms: C3_3  and  C9_9 
REMARK    2  A    between atoms: C7_7  and  C9_9 
ROOT
HETATM    1  C4  UNL     1     -33.730  13.841  -3.683  1.00 20.00     0.006 C 
HETATM    2  C5  UNL     1     -34.629  13.151  -4.699  1.00 20.00     0.020 C 
HETATM    3  C6  UNL     1     -35.611  15.298  -4.294  1.00 20.00     0.025 C 
HETATM    4  C7  UNL     1     -34.539  15.058  -3.215  1.00 20.00    -0.007 C 
HETATM    5  C8  UNL     1     -35.320  14.304  -5.416  1.00 20.00     0.082 C 
HETATM    6 CL12 UNL     1     -34.236  15.035  -6.636  1.00 20.00    -0.125 Cl
ENDROOT
BRANCH   4   7
HETATM    7  C9  UNL     1     -33.660  16.277  -2.971  1.00 20.00     0.071 C 
BRANCH   7   8
HETATM    8  C3  UNL     1     -34.024  16.983  -1.692  1.00 20.00     0.074 A 
HETATM    9  N10 UNL     1     -34.739  16.449  -0.726  1.00 20.00    -0.258 NA
HETATM   10  C1  UNL     1     -34.877  17.374   0.290  1.00 20.00     0.124 A 
HETATM   11  C2  UNL     1     -34.267  18.593   0.083  1.00 20.00     0.070 A 
HETATM   12  S11 UNL     1     -33.484  18.592  -1.443  1.00 20.00    -0.085 SA
ENDBRANCH   7   8
ENDBRANCH   4   7
TORSDOF 2
ENDMDL
MODEL 2
REMARK VINA RESULT:      -4.4      3.006      5.332
REMARK  2 active torsions:
REMARK  status: ('A' for Active; 'I' for Inactive)
REMARK    1  A    between atoms: C3_3  and  C9_9 
REMARK    2  A    between atoms: C7_7  and  C9_9 
ROOT
HETATM    1  C4  UNL     1     -34.695  18.256  -2.488  1.00 20.00     0.006 C 
HETATM    2  C5  UNL     1     -35.089  18.996  -1.217  1.00 20.00     0.020 C 
HETATM    3  C6  UNL     1     -34.615  16.743  -0.553  1.00 20.00     0.025 C 
HETATM    4  C7  UNL     1     -34.705  16.774  -2.090  1.00 20.00    -0.007 C 
HETATM    5  C8  UNL     1     -34.425  18.192  -0.107  1.00 20.00     0.082 C 
HETATM    6 CL12 UNL     1     -32.686  18.589   0.013  1.00 20.00    -0.125 Cl
ENDROOT
BRANCH   4   7
HETATM    7  C9  UNL     1     -33.590  15.987  -2.765  1.00 20.00     0.071 C 
BRANCH   7   8
HETATM    8  C3  UNL     1     -34.125  15.038  -3.805  1.00 20.00     0.074 A 
HETATM    9  N10 UNL     1     -34.438  13.782  -3.575  1.00 20.00    -0.258 NA
HETATM   10  C1  UNL     1     -34.894  13.214  -4.748  1.00 20.00     0.124 A 
HETATM   11  C2  UNL     1     -34.922  14.044  -5.849  1.00 20.00     0.070 A 
HETATM   12  S11 UNL     1     -34.355  15.602  -5.409  1.00 20.00    -0.085 SA
ENDBRANCH   7   8
ENDBRANCH   4   7
TORSDOF 2
ENDMDL
MODEL 3
REMARK VINA RESULT:      -4.4      1.406      1.587
REMARK  2 active torsions:
REMARK  status: ('A' for Active; 'I' for Inactive)
REMARK    1  A    between atoms: C3_3  and  C9_9 
REMARK    2  A    between atoms: C7_7  and  C9_9 
ROOT
HETATM    1  C4  UNL     1     -33.540  14.816  -3.402  1.00 20.00     0.006 C 
HETATM    2  C5  UNL     1     -33.663  13.466  -4.097  1.00 20.00     0.020 C 
HETATM    3  C6  UNL     1     -35.891  14.334  -3.933  1.00 20.00     0.025 C 
HETATM    4  C7  UNL     1     -34.981  15.193  -3.035  1.00 20.00    -0.007 C 
HETATM    5  C8  UNL     1     -34.963  13.579  -4.883  1.00 20.00     0.082 C 
HETATM    6 CL12 UNL     1     -34.716  14.509  -6.390  1.00 20.00    -0.125 Cl
ENDROOT
BRANCH   4   7
HETATM    7  C9  UNL     1     -35.243  16.686  -3.182  1.00 20.00     0.071 C 
BRANCH   7   8
HETATM    8  C3  UNL     1     -34.478  17.491  -2.166  1.00 20.00     0.074 A 
HETATM    9  N10 UNL     1     -33.688  18.501  -2.458  1.00 20.00    -0.258 NA
HETATM   10  C1  UNL     1     -33.155  19.003  -1.287  1.00 20.00     0.124 A 
HETATM   11  C2  UNL     1     -33.545  18.370  -0.126  1.00 20.00     0.070 A 
HETATM   12  S11 UNL     1     -34.626  17.093  -0.503  1.00 20.00    -0.085 SA
ENDBRANCH   7   8
ENDBRANCH   4   7
TORSDOF 2
ENDMDL
MODEL 4
REMARK VINA RESULT:      -4.3      1.779      2.298
REMARK  2 active torsions:
REMARK  status: ('A' for Active; 'I' for Inactive)
REMARK    1  A    between atoms: C3_3  and  C9_9 
REMARK    2  A    between atoms: C7_7  and  C9_9 
ROOT
HETATM    1  C4  UNL     1     -35.408  16.510  -3.967  1.00 20.00     0.006 C 
HETATM    2  C5  UNL     1     -34.857  15.821  -5.208  1.00 20.00     0.020 C 
HETATM    3  C6  UNL     1     -33.318  15.332  -3.438  1.00 20.00     0.025 C 
HETATM    4  C7  UNL     1     -34.263  16.445  -2.949  1.00 20.00    -0.007 C 
HETATM    5  C8  UNL     1     -33.999  14.694  -4.648  1.00 20.00     0.082 C 
HETATM    6 CL12 UNL     1     -35.015  13.313  -4.141  1.00 20.00    -0.125 Cl
ENDROOT
BRANCH   4   7
HETATM    7  C9  UNL     1     -34.764  16.215  -1.529  1.00 20.00     0.071 C 
BRANCH   7   8
HETATM    8  C3  UNL     1     -34.258  17.269  -0.580  1.00 20.00     0.074 A 
HETATM    9  N10 UNL     1     -33.150  17.956  -0.753  1.00 20.00    -0.258 NA
HETATM   10  C1  UNL     1     -32.999  18.831   0.305  1.00 20.00     0.124 A 
HETATM   11  C2  UNL     1     -33.990  18.796   1.264  1.00 20.00     0.070 A 
HETATM   12  S11 UNL     1     -35.166  17.625   0.832  1.00 20.00    -0.085 SA
ENDBRANCH   7   8
ENDBRANCH   4   7
TORSDOF 2
ENDMDL
MODEL 5
REMARK VINA RESULT:      -4.3      2.858      4.342
REMARK  2 active torsions:
REMARK  status: ('A' for Active; 'I' for Inactive)
REMARK    1  A    between atoms: C3_3  and  C9_9 
REMARK    2  A    between atoms: C7_7  and  C9_9 
ROOT
HETATM    1  C4  UNL     1     -35.052  15.541  -2.788  1.00 20.00     0.006 C 
HETATM    2  C5  UNL     1     -33.693  16.194  -2.577  1.00 20.00     0.020 C 
HETATM    3  C6  UNL     1     -33.285  14.210  -3.856  1.00 20.00     0.025 C 
HETATM    4  C7  UNL     1     -34.728  14.140  -3.323  1.00 20.00    -0.007 C 
HETATM    5  C8  UNL     1     -32.855  15.671  -3.736  1.00 20.00     0.082 C 
HETATM    6 CL12 UNL     1     -33.225  16.560  -5.241  1.00 20.00    -0.125 Cl
ENDROOT
BRANCH   4   7
HETATM    7  C9  UNL     1     -35.727  13.679  -4.377  1.00 20.00     0.071 C 
BRANCH   7   8
HETATM    8  C3  UNL     1     -36.969  14.531  -4.381  1.00 20.00     0.074 A 
HETATM    9  N10 UNL     1     -37.994  14.354  -3.577  1.00 20.00    -0.258 NA
HETATM   10  C1  UNL     1     -38.949  15.312  -3.856  1.00 20.00     0.124 A 
HETATM   11  C2  UNL     1     -38.638  16.199  -4.865  1.00 20.00     0.070 A 
HETATM   12  S11 UNL     1     -37.086  15.829  -5.497  1.00 20.00    -0.085 SA
ENDBRANCH   7   8
ENDBRANCH   4   7
TORSDOF 2
ENDMDL
MODEL 6
REMARK VINA RESULT:      -4.3      2.890      5.129
REMARK  2 active torsions:
REMARK  status: ('A' for Active; 'I' for Inactive)
REMARK    1  A    between atoms: C3_3  and  C9_9 
REMARK    2  A    between atoms: C7_7  and  C9_9 
ROOT
HETATM    1  C4  UNL     1     -34.706  16.420  -1.133  1.00 20.00     0.006 C 
HETATM    2  C5  UNL     1     -34.821  17.357   0.062  1.00 20.00     0.020 C 
HETATM    3  C6  UNL     1     -33.601  18.561  -1.612  1.00 20.00     0.025 C 
HETATM    4  C7  UNL     1     -33.670  17.086  -2.047  1.00 20.00    -0.007 C 
HETATM    5  C8  UNL     1     -34.684  18.745  -0.550  1.00 20.00     0.082 C 
HETATM    6 CL12 UNL     1     -36.220  19.262  -1.303  1.00 20.00    -0.125 Cl
ENDROOT
BRANCH   4   7
HETATM    7  C9  UNL     1     -34.009  16.919  -3.523  1.00 20.00     0.071 C 
BRANCH   7   8
HETATM    8  C3  UNL     1     -34.187  15.471  -3.895  1.00 20.00     0.074 A 
HETATM    9  N10 UNL     1     -33.240  14.562  -3.821  1.00 20.00    -0.258 NA
HETATM   10  C1  UNL     1     -33.752  13.349  -4.238  1.00 20.00     0.124 A 
HETATM   11  C2  UNL     1     -35.077  13.354  -4.622  1.00 20.00     0.070 A 
HETATM   12  S11 UNL     1     -35.718  14.936  -4.458  1.00 20.00    -0.085 SA
ENDBRANCH   7   8
ENDBRANCH   4   7
TORSDOF 2
ENDMDL
MODEL 7
REMARK VINA RESULT:      -4.2      3.156      5.180
REMARK  2 active torsions:
REMARK  status: ('A' for Active; 'I' for Inactive)
REMARK    1  A    between atoms: C3_3  and  C9_9 
REMARK    2  A    between atoms: C7_7  and  C9_9 
ROOT
HETATM    1  C4  UNL     1     -34.624  16.447  -1.036  1.00 20.00     0.006 C 
HETATM    2  C5  UNL     1     -33.631  17.600  -0.964  1.00 20.00     0.020 C 
HETATM    3  C6  UNL     1     -33.792  17.005  -3.279  1.00 20.00     0.025 C 
HETATM    4  C7  UNL     1     -34.468  15.892  -2.457  1.00 20.00    -0.007 C 
HETATM    5  C8  UNL     1     -33.690  18.217  -2.355  1.00 20.00     0.082 C 
HETATM    6 CL12 UNL     1     -35.131  19.261  -2.527  1.00 20.00    -0.125 Cl
ENDROOT
BRANCH   4   7
HETATM    7  C9  UNL     1     -35.796  15.441  -3.051  1.00 20.00     0.071 C 
BRANCH   7   8
HETATM    8  C3  UNL     1     -35.688  15.182  -4.530  1.00 20.00     0.074 A 
HETATM    9  N10 UNL     1     -36.235  15.935  -5.459  1.00 20.00    -0.258 NA
HETATM   10  C1  UNL     1     -35.934  15.404  -6.698  1.00 20.00     0.124 A 
HETATM   11  C2  UNL     1     -35.165  14.259  -6.693  1.00 20.00     0.070 A 
HETATM   12  S11 UNL     1     -34.797  13.821  -5.076  1.00 20.00    -0.085 SA
ENDBRANCH   7   8
ENDBRANCH   4   7
TORSDOF 2
ENDMDL
MODEL 8
REMARK VINA RESULT:      -4.2      1.525      1.613
REMARK  2 active torsions:
REMARK  status: ('A' for Active; 'I' for Inactive)
REMARK    1  A    between atoms: C3_3  and  C9_9 
REMARK    2  A    between atoms: C7_7  and  C9_9 
ROOT
HETATM    1  C4  UNL     1     -33.473  14.864  -3.451  1.00 20.00     0.006 C 
HETATM    2  C5  UNL     1     -33.598  13.492  -4.100  1.00 20.00     0.020 C 
HETATM    3  C6  UNL     1     -35.834  14.317  -3.854  1.00 20.00     0.025 C 
HETATM    4  C7  UNL     1     -34.903  15.222  -3.025  1.00 20.00    -0.007 C 
HETATM    5  C8  UNL     1     -34.936  13.554  -4.825  1.00 20.00     0.082 C 
HETATM    6 CL12 UNL     1     -34.781  14.444  -6.368  1.00 20.00    -0.125 Cl
ENDROOT
BRANCH   4   7
HETATM    7  C9  UNL     1     -35.205  16.704  -3.203  1.00 20.00     0.071 C 
BRANCH   7   8
HETATM    8  C3  UNL     1     -35.606  17.352  -1.904  1.00 20.00     0.074 A 
HETATM    9  N10 UNL     1     -36.644  18.147  -1.759  1.00 20.00    -0.258 NA
HETATM   10  C1  UNL     1     -36.711  18.556  -0.442  1.00 20.00     0.124 A 
HETATM   11  C2  UNL     1     -35.726  18.069   0.392  1.00 20.00     0.070 A 
HETATM   12  S11 UNL     1     -34.669  17.054  -0.498  1.00 20.00    -0.085 SA
ENDBRANCH   7   8
ENDBRANCH   4   7
TORSDOF 2
ENDMDL
MODEL 9
REMARK VINA RESULT:      -3.9      1.744      2.189
REMARK  2 active torsions:
REMARK  status: ('A' for Active; 'I' for Inactive)
REMARK    1  A    between atoms: C3_3  and  C9_9 
REMARK    2  A    between atoms: C7_7  and  C9_9 
ROOT
HETATM    1  C4  UNL     1     -34.430  16.275  -5.321  1.00 20.00     0.006 C 
HETATM    2  C5  UNL     1     -34.071  15.731  -6.697  1.00 20.00     0.020 C 
HETATM    3  C6  UNL     1     -34.902  13.867  -5.442  1.00 20.00     0.025 C 
HETATM    4  C7  UNL     1     -34.654  15.027  -4.459  1.00 20.00    -0.007 C 
HETATM    5  C8  UNL     1     -34.944  14.490  -6.836  1.00 20.00     0.082 C 
HETATM    6 CL12 UNL     1     -36.618  14.936  -7.275  1.00 20.00    -0.125 Cl
ENDROOT
BRANCH   4   7
HETATM    7  C9  UNL     1     -35.790  15.210  -3.461  1.00 20.00     0.071 C 
BRANCH   7   8
HETATM    8  C3  UNL     1     -35.452  16.235  -2.411  1.00 20.00     0.074 A 
HETATM    9  N10 UNL     1     -34.484  16.107  -1.531  1.00 20.00    -0.258 NA
HETATM   10  C1  UNL     1     -34.460  17.231  -0.728  1.00 20.00     0.124 A 
HETATM   11  C2  UNL     1     -35.407  18.194  -1.009  1.00 20.00     0.070 A 
HETATM   12  S11 UNL     1     -36.372  17.682  -2.331  1.00 20.00    -0.085 SA
ENDBRANCH   7   8
ENDBRANCH   4   7
TORSDOF 2
ENDMDL
