MODEL 1
REMARK VINA RESULT:      -4.5      0.000      0.000
REMARK  2 active torsions:
REMARK  status: ('A' for Active; 'I' for Inactive)
REMARK    1  A    between atoms: C3_3  and  C9_9 
REMARK    2  A    between atoms: C7_7  and  C9_9 
ROOT
HETATM    1  C4  UNL     1     -34.471  16.720  -0.799  1.00 20.00     0.006 C 
HETATM    2  C5  UNL     1     -34.644  17.807   0.263  1.00 20.00     0.020 C 
HETATM    3  C6  UNL     1     -33.835  18.904  -1.683  1.00 20.00     0.025 C 
HETATM    4  C7  UNL     1     -33.845  17.409  -2.023  1.00 20.00    -0.007 C 
HETATM    5  C8  UNL     1     -33.725  18.945  -0.164  1.00 20.00     0.082 C 
HETATM    6 CL12 UNL     1     -32.047  18.639   0.367  1.00 20.00    -0.125 Cl
ENDROOT
BRANCH   4   7
HETATM    7  C9  UNL     1     -34.582  17.107  -3.318  1.00 20.00     0.071 C 
BRANCH   7   8
HETATM    8  C3  UNL     1     -34.539  15.640  -3.659  1.00 20.00     0.074 A 
HETATM    9  N10 UNL     1     -33.434  14.945  -3.816  1.00 20.00    -0.258 NA
HETATM   10  C1  UNL     1     -33.767  13.640  -4.121  1.00 20.00     0.124 A 
HETATM   11  C2  UNL     1     -35.117  13.362  -4.191  1.00 20.00     0.070 A 
HETATM   12  S11 UNL     1     -36.014  14.787  -3.862  1.00 20.00    -0.085 SA
ENDBRANCH   7   8
ENDBRANCH   4   7
TORSDOF 2
ENDMDL
MODEL 2
REMARK VINA RESULT:      -4.4      1.737      1.848
REMARK  2 active torsions:
REMARK  status: ('A' for Active; 'I' for Inactive)
REMARK    1  A    between atoms: C3_3  and  C9_9 
REMARK    2  A    between atoms: C7_7  and  C9_9 
ROOT
HETATM    1  C4  UNL     1     -35.604  16.933  -2.134  1.00 20.00     0.006 C 
HETATM    2  C5  UNL     1     -35.841  18.249  -1.391  1.00 20.00     0.020 C 
HETATM    3  C6  UNL     1     -33.592  17.629  -0.941  1.00 20.00     0.025 C 
HETATM    4  C7  UNL     1     -34.185  16.475  -1.756  1.00 20.00    -0.007 C 
HETATM    5  C8  UNL     1     -34.799  18.285  -0.281  1.00 20.00     0.082 C 
HETATM    6 CL12 UNL     1     -35.347  17.344   1.135  1.00 20.00    -0.125 Cl
ENDROOT
BRANCH   4   7
HETATM    7  C9  UNL     1     -33.335  16.112  -2.963  1.00 20.00     0.071 C 
BRANCH   7   8
HETATM    8  C3  UNL     1     -34.013  15.092  -3.840  1.00 20.00     0.074 A 
HETATM    9  N10 UNL     1     -34.358  13.885  -3.449  1.00 20.00    -0.258 NA
HETATM   10  C1  UNL     1     -34.954  13.226  -4.506  1.00 20.00     0.124 A 
HETATM   11  C2  UNL     1     -35.054  13.939  -5.682  1.00 20.00     0.070 A 
HETATM   12  S11 UNL     1     -34.379  15.501  -5.466  1.00 20.00    -0.085 SA
ENDBRANCH   7   8
ENDBRANCH   4   7
TORSDOF 2
ENDMDL
MODEL 3
REMARK VINA RESULT:      -4.3      3.249      5.416
REMARK  2 active torsions:
REMARK  status: ('A' for Active; 'I' for Inactive)
REMARK    1  A    between atoms: C3_3  and  C9_9 
REMARK    2  A    between atoms: C7_7  and  C9_9 
ROOT
HETATM    1  C4  UNL     1     -34.869  13.899  -3.742  1.00 20.00     0.006 C 
HETATM    2  C5  UNL     1     -34.767  13.289  -5.141  1.00 20.00     0.020 C 
HETATM    3  C6  UNL     1     -34.039  15.542  -5.345  1.00 20.00     0.025 C 
HETATM    4  C7  UNL     1     -34.503  15.385  -3.892  1.00 20.00    -0.007 C 
HETATM    5  C8  UNL     1     -34.808  14.468  -6.105  1.00 20.00     0.082 C 
HETATM    6 CL12 UNL     1     -36.492  14.979  -6.410  1.00 20.00    -0.125 Cl
ENDROOT
BRANCH   4   7
HETATM    7  C9  UNL     1     -33.457  15.845  -2.890  1.00 20.00     0.071 C 
BRANCH   7   8
HETATM    8  C3  UNL     1     -34.026  16.821  -1.893  1.00 20.00     0.074 A 
HETATM    9  N10 UNL     1     -34.620  16.477  -0.772  1.00 20.00    -0.258 NA
HETATM   10  C1  UNL     1     -35.015  17.621  -0.107  1.00 20.00     0.124 A 
HETATM   11  C2  UNL     1     -34.717  18.815  -0.730  1.00 20.00     0.070 A 
HETATM   12  S11 UNL     1     -33.907  18.503  -2.210  1.00 20.00    -0.085 SA
ENDBRANCH   7   8
ENDBRANCH   4   7
TORSDOF 2
ENDMDL
MODEL 4
REMARK VINA RESULT:      -4.3      1.780      2.157
REMARK  2 active torsions:
REMARK  status: ('A' for Active; 'I' for Inactive)
REMARK    1  A    between atoms: C3_3  and  C9_9 
REMARK    2  A    between atoms: C7_7  and  C9_9 
ROOT
HETATM    1  C4  UNL     1     -33.349  18.104  -1.764  1.00 20.00     0.006 C 
HETATM    2  C5  UNL     1     -33.806  18.224  -0.308  1.00 20.00     0.020 C 
HETATM    3  C6  UNL     1     -34.769  16.219  -1.143  1.00 20.00     0.025 C 
HETATM    4  C7  UNL     1     -34.058  16.867  -2.337  1.00 20.00    -0.007 C 
HETATM    5  C8  UNL     1     -35.072  17.383  -0.208  1.00 20.00     0.082 C 
HETATM    6 CL12 UNL     1     -36.494  18.307  -0.770  1.00 20.00    -0.125 Cl
ENDROOT
BRANCH   4   7
HETATM    7  C9  UNL     1     -33.110  15.910  -3.044  1.00 20.00     0.071 C 
BRANCH   7   8
HETATM    8  C3  UNL     1     -33.847  14.955  -3.945  1.00 20.00     0.074 A 
HETATM    9  N10 UNL     1     -34.029  13.679  -3.686  1.00 20.00    -0.258 NA
HETATM   10  C1  UNL     1     -34.743  13.110  -4.723  1.00 20.00     0.124 A 
HETATM   11  C2  UNL     1     -35.092  13.959  -5.752  1.00 20.00     0.070 A 
HETATM   12  S11 UNL     1     -34.510  15.537  -5.417  1.00 20.00    -0.085 SA
ENDBRANCH   7   8
ENDBRANCH   4   7
TORSDOF 2
ENDMDL
MODEL 5
REMARK VINA RESULT:      -4.1      1.948      2.299
REMARK  2 active torsions:
REMARK  status: ('A' for Active; 'I' for Inactive)
REMARK    1  A    between atoms: C3_3  and  C9_9 
REMARK    2  A    between atoms: C7_7  and  C9_9 
ROOT
HETATM    1  C4  UNL     1     -33.435  18.109  -1.961  1.00 20.00     0.006 C 
HETATM    2  C5  UNL     1     -33.765  18.331  -0.483  1.00 20.00     0.020 C 
HETATM    3  C6  UNL     1     -34.766  16.261  -1.085  1.00 20.00     0.025 C 
HETATM    4  C7  UNL     1     -34.172  16.827  -2.380  1.00 20.00    -0.007 C 
HETATM    5  C8  UNL     1     -35.004  17.487  -0.212  1.00 20.00     0.082 C 
HETATM    6 CL12 UNL     1     -36.484  18.354  -0.711  1.00 20.00    -0.125 Cl
ENDROOT
BRANCH   4   7
HETATM    7  C9  UNL     1     -33.275  15.831  -3.098  1.00 20.00     0.071 C 
BRANCH   7   8
HETATM    8  C3  UNL     1     -33.888  15.352  -4.387  1.00 20.00     0.074 A 
HETATM    9  N10 UNL     1     -33.784  15.978  -5.538  1.00 20.00    -0.258 NA
HETATM   10  C1  UNL     1     -34.464  15.259  -6.501  1.00 20.00     0.124 A 
HETATM   11  C2  UNL     1     -35.074  14.099  -6.070  1.00 20.00     0.070 A 
HETATM   12  S11 UNL     1     -34.788  13.891  -4.391  1.00 20.00    -0.085 SA
ENDBRANCH   7   8
ENDBRANCH   4   7
TORSDOF 2
ENDMDL
MODEL 6
REMARK VINA RESULT:      -4.1      2.431      3.227
REMARK  2 active torsions:
REMARK  status: ('A' for Active; 'I' for Inactive)
REMARK    1  A    between atoms: C3_3  and  C9_9 
REMARK    2  A    between atoms: C7_7  and  C9_9 
ROOT
HETATM    1  C4  UNL     1     -35.850  15.347  -3.179  1.00 20.00     0.006 C 
HETATM    2  C5  UNL     1     -35.907  16.846  -2.873  1.00 20.00     0.020 C 
HETATM    3  C6  UNL     1     -33.613  16.235  -2.776  1.00 20.00     0.025 C 
HETATM    4  C7  UNL     1     -34.381  14.928  -3.009  1.00 20.00    -0.007 C 
HETATM    5  C8  UNL     1     -34.628  17.155  -2.107  1.00 20.00     0.082 C 
HETATM    6 CL12 UNL     1     -34.812  16.757  -0.376  1.00 20.00    -0.125 Cl
ENDROOT
BRANCH   4   7
HETATM    7  C9  UNL     1     -33.846  14.137  -4.192  1.00 20.00     0.071 C 
BRANCH   7   8
HETATM    8  C3  UNL     1     -34.447  14.601  -5.494  1.00 20.00     0.074 A 
HETATM    9  N10 UNL     1     -35.334  13.922  -6.187  1.00 20.00    -0.258 NA
HETATM   10  C1  UNL     1     -35.663  14.642  -7.318  1.00 20.00     0.124 A 
HETATM   11  C2  UNL     1     -35.023  15.855  -7.469  1.00 20.00     0.070 A 
HETATM   12  S11 UNL     1     -33.965  16.114  -6.143  1.00 20.00    -0.085 SA
ENDBRANCH   7   8
ENDBRANCH   4   7
TORSDOF 2
ENDMDL
MODEL 7
REMARK VINA RESULT:      -4.0      3.019      5.179
REMARK  2 active torsions:
REMARK  status: ('A' for Active; 'I' for Inactive)
REMARK    1  A    between atoms: C3_3  and  C9_9 
REMARK    2  A    between atoms: C7_7  and  C9_9 
ROOT
HETATM    1  C4  UNL     1     -33.342  16.668  -4.732  1.00 20.00     0.006 C 
HETATM    2  C5  UNL     1     -34.097  15.438  -5.241  1.00 20.00     0.020 C 
HETATM    3  C6  UNL     1     -34.639  15.644  -2.937  1.00 20.00     0.025 C 
HETATM    4  C7  UNL     1     -33.604  16.739  -3.219  1.00 20.00    -0.007 C 
HETATM    5  C8  UNL     1     -34.375  14.591  -4.007  1.00 20.00     0.082 C 
HETATM    6 CL12 UNL     1     -32.955  13.592  -3.588  1.00 20.00    -0.125 Cl
ENDROOT
BRANCH   4   7
HETATM    7  C9  UNL     1     -34.064  18.113  -2.758  1.00 20.00     0.071 C 
BRANCH   7   8
HETATM    8  C3  UNL     1     -33.586  18.426  -1.365  1.00 20.00     0.074 A 
HETATM    9  N10 UNL     1     -32.558  19.198  -1.087  1.00 20.00    -0.258 NA
HETATM   10  C1  UNL     1     -32.407  19.263   0.285  1.00 20.00     0.124 A 
HETATM   11  C2  UNL     1     -33.319  18.543   1.027  1.00 20.00     0.070 A 
HETATM   12  S11 UNL     1     -34.417  17.749  -0.025  1.00 20.00    -0.085 SA
ENDBRANCH   7   8
ENDBRANCH   4   7
TORSDOF 2
ENDMDL
MODEL 8
REMARK VINA RESULT:      -4.0      2.949      3.695
REMARK  2 active torsions:
REMARK  status: ('A' for Active; 'I' for Inactive)
REMARK    1  A    between atoms: C3_3  and  C9_9 
REMARK    2  A    between atoms: C7_7  and  C9_9 
ROOT
HETATM    1  C4  UNL     1     -35.856  17.122  -3.261  1.00 20.00     0.006 C 
HETATM    2  C5  UNL     1     -34.591  17.843  -2.790  1.00 20.00     0.020 C 
HETATM    3  C6  UNL     1     -34.176  15.521  -2.506  1.00 20.00     0.025 C 
HETATM    4  C7  UNL     1     -35.631  15.628  -2.977  1.00 20.00    -0.007 C 
HETATM    5  C8  UNL     1     -33.890  16.868  -1.853  1.00 20.00     0.082 C 
HETATM    6 CL12 UNL     1     -34.592  16.947  -0.213  1.00 20.00    -0.125 Cl
ENDROOT
BRANCH   4   7
HETATM    7  C9  UNL     1     -35.925  14.742  -4.177  1.00 20.00     0.071 C 
BRANCH   7   8
HETATM    8  C3  UNL     1     -37.380  14.790  -4.566  1.00 20.00     0.074 A 
HETATM    9  N10 UNL     1     -38.364  14.341  -3.820  1.00 20.00    -0.258 NA
HETATM   10  C1  UNL     1     -39.558  14.546  -4.484  1.00 20.00     0.124 A 
HETATM   11  C2  UNL     1     -39.463  15.146  -5.722  1.00 20.00     0.070 A 
HETATM   12  S11 UNL     1     -37.818  15.473  -6.078  1.00 20.00    -0.085 SA
ENDBRANCH   7   8
ENDBRANCH   4   7
TORSDOF 2
ENDMDL
MODEL 9
REMARK VINA RESULT:      -4.0     14.044     15.821
REMARK  2 active torsions:
REMARK  status: ('A' for Active; 'I' for Inactive)
REMARK    1  A    between atoms: C3_3  and  C9_9 
REMARK    2  A    between atoms: C7_7  and  C9_9 
ROOT
HETATM    1  C4  UNL     1     -42.569   5.080  -2.730  1.00 20.00     0.006 C 
HETATM    2  C5  UNL     1     -41.888   6.177  -1.909  1.00 20.00     0.020 C 
HETATM    3  C6  UNL     1     -40.795   4.146  -1.338  1.00 20.00     0.025 C 
HETATM    4  C7  UNL     1     -41.938   3.752  -2.281  1.00 20.00    -0.007 C 
HETATM    5  C8  UNL     1     -41.251   5.464  -0.723  1.00 20.00     0.082 C 
HETATM    6 CL12 UNL     1     -42.451   5.188   0.571  1.00 20.00    -0.125 Cl
ENDROOT
BRANCH   4   7
HETATM    7  C9  UNL     1     -41.467   2.893  -3.445  1.00 20.00     0.071 C 
BRANCH   7   8
HETATM    8  C3  UNL     1     -42.030   1.498  -3.375  1.00 20.00     0.074 A 
HETATM    9  N10 UNL     1     -41.529   0.461  -4.009  1.00 20.00    -0.258 NA
HETATM   10  C1  UNL     1     -42.292  -0.653  -3.717  1.00 20.00     0.124 A 
HETATM   11  C2  UNL     1     -43.360  -0.447  -2.868  1.00 20.00     0.070 A 
HETATM   12  S11 UNL     1     -43.417   1.205  -2.409  1.00 20.00    -0.085 SA
ENDBRANCH   7   8
ENDBRANCH   4   7
TORSDOF 2
ENDMDL
