MODEL 1
REMARK VINA RESULT:      -4.9      0.000      0.000
REMARK  0 active torsions:
REMARK  status: ('A' for Active; 'I' for Inactive)
ROOT
HETATM    1  C1  UNL     1     -34.438  15.863  -2.333  1.00 20.00     0.086 C 
HETATM    2  C2  UNL     1     -34.776  13.277  -5.157  1.00 20.00     0.003 C 
HETATM    3  C3  UNL     1     -35.058  14.230  -6.311  1.00 20.00     0.001 C 
HETATM    4  C4  UNL     1     -34.955  13.949  -3.796  1.00 20.00     0.042 C 
HETATM    5  C5  UNL     1     -34.259  15.529  -6.195  1.00 20.00     0.012 C 
HETATM    6  C6  UNL     1     -34.154  15.261  -3.651  1.00 20.00     0.132 C 
HETATM    7  C7  UNL     1     -34.450  16.255  -4.834  1.00 20.00    -0.013 C 
HETATM    8  C8  UNL     1     -35.902  16.800  -4.763  1.00 20.00     0.018 C 
HETATM    9  C9  UNL     1     -33.519  17.493  -4.821  1.00 20.00     0.018 C 
HETATM   10  N10 UNL     1     -34.662  16.337  -1.297  1.00 20.00    -0.195 NA
HETATM   11 CL11 UNL     1     -32.394  14.826  -3.578  1.00 20.00    -0.102 Cl
ENDROOT
TORSDOF 0
ENDMDL
MODEL 2
REMARK VINA RESULT:      -4.9      2.348      3.368
REMARK  0 active torsions:
REMARK  status: ('A' for Active; 'I' for Inactive)
ROOT
HETATM    1  C1  UNL     1     -37.259  14.832  -3.843  1.00 20.00     0.086 C 
HETATM    2  C2  UNL     1     -33.865  16.188  -2.649  1.00 20.00     0.003 C 
HETATM    3  C3  UNL     1     -32.967  15.487  -3.660  1.00 20.00     0.001 C 
HETATM    4  C4  UNL     1     -35.266  15.579  -2.600  1.00 20.00     0.042 C 
HETATM    5  C5  UNL     1     -33.612  15.403  -5.043  1.00 20.00     0.012 C 
HETATM    6  C6  UNL     1     -35.942  15.487  -3.985  1.00 20.00     0.132 C 
HETATM    7  C7  UNL     1     -35.024  14.753  -5.031  1.00 20.00    -0.013 C 
HETATM    8  C8  UNL     1     -34.872  13.246  -4.689  1.00 20.00     0.018 C 
HETATM    9  C9  UNL     1     -35.590  14.817  -6.472  1.00 20.00     0.018 C 
HETATM   10  N10 UNL     1     -38.293  14.318  -3.732  1.00 20.00    -0.195 NA
HETATM   11 CL11 UNL     1     -36.333  17.176  -4.520  1.00 20.00    -0.102 Cl
ENDROOT
TORSDOF 0
ENDMDL
MODEL 3
REMARK VINA RESULT:      -4.9      2.167      3.385
REMARK  0 active torsions:
REMARK  status: ('A' for Active; 'I' for Inactive)
ROOT
HETATM    1  C1  UNL     1     -36.901  14.743  -4.190  1.00 20.00     0.086 C 
HETATM    2  C2  UNL     1     -34.708  17.508  -5.717  1.00 20.00     0.003 C 
HETATM    3  C3  UNL     1     -33.498  17.373  -4.803  1.00 20.00     0.001 C 
HETATM    4  C4  UNL     1     -35.940  16.798  -5.153  1.00 20.00     0.042 C 
HETATM    5  C5  UNL     1     -33.210  15.917  -4.436  1.00 20.00     0.012 C 
HETATM    6  C6  UNL     1     -35.677  15.323  -4.780  1.00 20.00     0.132 C 
HETATM    7  C7  UNL     1     -34.434  15.178  -3.826  1.00 20.00    -0.013 C 
HETATM    8  C8  UNL     1     -34.725  15.779  -2.424  1.00 20.00     0.018 C 
HETATM    9  C9  UNL     1     -34.029  13.701  -3.591  1.00 20.00     0.018 C 
HETATM   10  N10 UNL     1     -37.863  14.288  -3.727  1.00 20.00    -0.195 NA
HETATM   11 CL11 UNL     1     -35.437  14.398  -6.322  1.00 20.00    -0.102 Cl
ENDROOT
TORSDOF 0
ENDMDL
MODEL 4
REMARK VINA RESULT:      -4.9      1.971      2.720
REMARK  0 active torsions:
REMARK  status: ('A' for Active; 'I' for Inactive)
ROOT
HETATM    1  C1  UNL     1     -37.095  14.568  -4.023  1.00 20.00     0.086 C 
HETATM    2  C2  UNL     1     -34.408  15.194  -6.701  1.00 20.00     0.003 C 
HETATM    3  C3  UNL     1     -33.712  16.385  -6.056  1.00 20.00     0.001 C 
HETATM    4  C4  UNL     1     -35.775  14.915  -6.075  1.00 20.00     0.042 C 
HETATM    5  C5  UNL     1     -33.637  16.256  -4.535  1.00 20.00     0.012 C 
HETATM    6  C6  UNL     1     -35.725  14.774  -4.538  1.00 20.00     0.132 C 
HETATM    7  C7  UNL     1     -35.018  16.008  -3.864  1.00 20.00    -0.013 C 
HETATM    8  C8  UNL     1     -35.875  17.295  -4.005  1.00 20.00     0.018 C 
HETATM    9  C9  UNL     1     -34.781  15.805  -2.347  1.00 20.00     0.018 C 
HETATM   10  N10 UNL     1     -38.170  14.406  -3.619  1.00 20.00    -0.195 NA
HETATM   11 CL11 UNL     1     -34.861  13.226  -4.154  1.00 20.00    -0.102 Cl
ENDROOT
TORSDOF 0
ENDMDL
MODEL 5
REMARK VINA RESULT:      -4.8      1.969      3.035
REMARK  0 active torsions:
REMARK  status: ('A' for Active; 'I' for Inactive)
ROOT
HETATM    1  C1  UNL     1     -33.922  17.507  -4.870  1.00 20.00     0.086 C 
HETATM    2  C2  UNL     1     -35.087  14.110  -6.243  1.00 20.00     0.003 C 
HETATM    3  C3  UNL     1     -34.670  13.232  -5.071  1.00 20.00     0.001 C 
HETATM    4  C4  UNL     1     -34.432  15.491  -6.192  1.00 20.00     0.042 C 
HETATM    5  C5  UNL     1     -34.884  13.925  -3.725  1.00 20.00     0.012 C 
HETATM    6  C6  UNL     1     -34.639  16.215  -4.844  1.00 20.00     0.132 C 
HETATM    7  C7  UNL     1     -34.199  15.317  -3.629  1.00 20.00    -0.013 C 
HETATM    8  C8  UNL     1     -32.660  15.111  -3.608  1.00 20.00     0.018 C 
HETATM    9  C9  UNL     1     -34.573  15.939  -2.261  1.00 20.00     0.018 C 
HETATM   10  N10 UNL     1     -33.360  18.522  -4.890  1.00 20.00    -0.195 NA
HETATM   11 CL11 UNL     1     -36.390  16.673  -4.727  1.00 20.00    -0.102 Cl
ENDROOT
TORSDOF 0
ENDMDL
MODEL 6
REMARK VINA RESULT:      -4.5      1.701      3.045
REMARK  0 active torsions:
REMARK  status: ('A' for Active; 'I' for Inactive)
ROOT
HETATM    1  C1  UNL     1     -34.633  13.898  -4.284  1.00 20.00     0.086 C 
HETATM    2  C2  UNL     1     -33.529  17.221  -5.871  1.00 20.00     0.003 C 
HETATM    3  C3  UNL     1     -34.312  18.174  -4.979  1.00 20.00     0.001 C 
HETATM    4  C4  UNL     1     -34.027  15.780  -5.755  1.00 20.00     0.042 C 
HETATM    5  C5  UNL     1     -34.365  17.695  -3.528  1.00 20.00     0.012 C 
HETATM    6  C6  UNL     1     -34.085  15.269  -4.299  1.00 20.00     0.132 C 
HETATM    7  C7  UNL     1     -34.903  16.245  -3.373  1.00 20.00    -0.013 C 
HETATM    8  C8  UNL     1     -36.412  16.235  -3.738  1.00 20.00     0.018 C 
HETATM    9  C9  UNL     1     -34.815  15.861  -1.875  1.00 20.00     0.018 C 
HETATM   10  N10 UNL     1     -35.064  12.820  -4.273  1.00 20.00    -0.195 NA
HETATM   11 CL11 UNL     1     -32.378  15.079  -3.713  1.00 20.00    -0.102 Cl
ENDROOT
TORSDOF 0
ENDMDL
MODEL 7
REMARK VINA RESULT:      -4.5      2.317      3.503
REMARK  0 active torsions:
REMARK  status: ('A' for Active; 'I' for Inactive)
ROOT
HETATM    1  C1  UNL     1     -35.040  13.863  -4.178  1.00 20.00     0.086 C 
HETATM    2  C2  UNL     1     -34.838  16.859  -1.777  1.00 20.00     0.003 C 
HETATM    3  C3  UNL     1     -34.422  17.930  -2.778  1.00 20.00     0.001 C 
HETATM    4  C4  UNL     1     -34.650  15.447  -2.331  1.00 20.00     0.042 C 
HETATM    5  C5  UNL     1     -35.098  17.744  -4.137  1.00 20.00     0.012 C 
HETATM    6  C6  UNL     1     -35.329  15.232  -3.701  1.00 20.00     0.132 C 
HETATM    7  C7  UNL     1     -34.894  16.327  -4.743  1.00 20.00    -0.013 C 
HETATM    8  C8  UNL     1     -33.400  16.169  -5.137  1.00 20.00     0.018 C 
HETATM    9  C9  UNL     1     -35.703  16.252  -6.062  1.00 20.00     0.018 C 
HETATM   10  N10 UNL     1     -34.814  12.789  -4.554  1.00 20.00    -0.195 NA
HETATM   11 CL11 UNL     1     -37.123  15.248  -3.435  1.00 20.00    -0.102 Cl
ENDROOT
TORSDOF 0
ENDMDL
MODEL 8
REMARK VINA RESULT:      -4.4      2.072      2.806
REMARK  0 active torsions:
REMARK  status: ('A' for Active; 'I' for Inactive)
ROOT
HETATM    1  C1  UNL     1     -33.830  13.741  -4.112  1.00 20.00     0.086 C 
HETATM    2  C2  UNL     1     -37.394  15.150  -4.421  1.00 20.00     0.003 C 
HETATM    3  C3  UNL     1     -37.100  16.603  -4.072  1.00 20.00     0.001 C 
HETATM    4  C4  UNL     1     -36.247  14.218  -4.032  1.00 20.00     0.042 C 
HETATM    5  C5  UNL     1     -35.756  17.071  -4.632  1.00 20.00     0.012 C 
HETATM    6  C6  UNL     1     -34.879  14.666  -4.591  1.00 20.00     0.132 C 
HETATM    7  C7  UNL     1     -34.563  16.162  -4.223  1.00 20.00    -0.013 C 
HETATM    8  C8  UNL     1     -34.316  16.329  -2.699  1.00 20.00     0.018 C 
HETATM    9  C9  UNL     1     -33.293  16.697  -4.931  1.00 20.00     0.018 C 
HETATM   10  N10 UNL     1     -33.006  13.016  -3.736  1.00 20.00    -0.195 NA
HETATM   11 CL11 UNL     1     -34.911  14.420  -6.388  1.00 20.00    -0.102 Cl
ENDROOT
TORSDOF 0
ENDMDL
MODEL 9
REMARK VINA RESULT:      -4.4      1.902      2.733
REMARK  0 active torsions:
REMARK  status: ('A' for Active; 'I' for Inactive)
ROOT
HETATM    1  C1  UNL     1     -34.075  17.770  -3.483  1.00 20.00     0.086 C 
HETATM    2  C2  UNL     1     -37.014  15.292  -3.424  1.00 20.00     0.003 C 
HETATM    3  C3  UNL     1     -36.369  14.150  -4.198  1.00 20.00     0.001 C 
HETATM    4  C4  UNL     1     -36.244  16.604  -3.580  1.00 20.00     0.042 C 
HETATM    5  C5  UNL     1     -34.885  13.994  -3.866  1.00 20.00     0.012 C 
HETATM    6  C6  UNL     1     -34.742  16.473  -3.245  1.00 20.00     0.132 C 
HETATM    7  C7  UNL     1     -34.067  15.303  -4.050  1.00 20.00    -0.013 C 
HETATM    8  C8  UNL     1     -33.992  15.631  -5.566  1.00 20.00     0.018 C 
HETATM    9  C9  UNL     1     -32.613  15.024  -3.593  1.00 20.00     0.018 C 
HETATM   10  N10 UNL     1     -33.551  18.789  -3.669  1.00 20.00    -0.195 NA
HETATM   11 CL11 UNL     1     -34.598  16.214  -1.455  1.00 20.00    -0.102 Cl
ENDROOT
TORSDOF 0
ENDMDL
