MODEL 1
REMARK VINA RESULT:      -4.6      0.000      0.000
REMARK  2 active torsions:
REMARK  status: ('A' for Active; 'I' for Inactive)
REMARK    1  A    between atoms: C5_5  and  C10_10 
REMARK    2  A    between atoms: C5_5  and  O11_11 
ROOT
HETATM    1  C1  UNL     1     -34.208  13.765  -3.523  1.00 20.00     0.004 C 
HETATM    2  C2  UNL     1     -34.378  13.598  -5.033  1.00 20.00     0.012 C 
HETATM    3  C3  UNL     1     -34.053  15.265  -3.254  1.00 20.00     0.039 C 
HETATM    4  C4  UNL     1     -34.763  14.993  -5.566  1.00 20.00    -0.016 C 
HETATM    5  C5  UNL     1     -33.936  15.926  -4.636  1.00 20.00     0.068 C 
HETATM    6  C6  UNL     1     -36.286  15.195  -5.424  1.00 20.00     0.018 C 
HETATM    7  C7  UNL     1     -34.391  15.126  -7.049  1.00 20.00     0.018 C 
ENDROOT
BRANCH   5   8
HETATM    8  C10 UNL     1     -34.372  17.387  -4.610  1.00 20.00     0.012 C 
HETATM    9  C8  UNL     1     -34.289  17.949  -3.192  1.00 20.00     0.012 C 
HETATM   10  C9  UNL     1     -33.521  18.220  -5.568  1.00 20.00     0.012 C 
ENDBRANCH   5   8
BRANCH   5  11
HETATM   11  O11 UNL     1     -32.554  15.929  -5.018  1.00 20.00    -0.389 OA
HETATM   12  H31 UNL     1     -32.510  15.464  -5.865  1.00 20.00     0.210 HD
ENDBRANCH   5  11
TORSDOF 2
ENDMDL
MODEL 2
REMARK VINA RESULT:      -4.5      1.160      3.732
REMARK  2 active torsions:
REMARK  status: ('A' for Active; 'I' for Inactive)
REMARK    1  A    between atoms: C5_5  and  C10_10 
REMARK    2  A    between atoms: C5_5  and  O11_11 
ROOT
HETATM    1  C1  UNL     1     -33.675  17.891  -5.725  1.00 20.00     0.004 C 
HETATM    2  C2  UNL     1     -33.648  18.126  -4.215  1.00 20.00     0.012 C 
HETATM    3  C3  UNL     1     -33.860  16.384  -5.939  1.00 20.00     0.039 C 
HETATM    4  C4  UNL     1     -34.253  16.855  -3.584  1.00 20.00    -0.016 C 
HETATM    5  C5  UNL     1     -33.737  15.748  -4.547  1.00 20.00     0.068 C 
HETATM    6  C6  UNL     1     -35.791  16.972  -3.567  1.00 20.00     0.018 C 
HETATM    7  C7  UNL     1     -33.762  16.684  -2.140  1.00 20.00     0.018 C 
ENDROOT
BRANCH   5   8
HETATM    8  C10 UNL     1     -34.463  14.410  -4.463  1.00 20.00     0.012 C 
HETATM    9  C8  UNL     1     -35.007  14.005  -5.832  1.00 20.00     0.012 C 
HETATM   10  C9  UNL     1     -33.535  13.327  -3.913  1.00 20.00     0.012 C 
ENDBRANCH   5   8
BRANCH   5  11
HETATM   11  O11 UNL     1     -32.352  15.466  -4.302  1.00 20.00    -0.389 OA
HETATM   12  H31 UNL     1     -32.334  14.839  -3.566  1.00 20.00     0.210 HD
ENDBRANCH   5  11
TORSDOF 2
ENDMDL
MODEL 3
REMARK VINA RESULT:      -4.4      1.075      2.756
REMARK  2 active torsions:
REMARK  status: ('A' for Active; 'I' for Inactive)
REMARK    1  A    between atoms: C5_5  and  C10_10 
REMARK    2  A    between atoms: C5_5  and  O11_11 
ROOT
HETATM    1  C1  UNL     1     -33.940  17.465  -2.531  1.00 20.00     0.004 C 
HETATM    2  C2  UNL     1     -33.909  15.957  -2.278  1.00 20.00     0.012 C 
HETATM    3  C3  UNL     1     -34.171  17.661  -4.033  1.00 20.00     0.039 C 
HETATM    4  C4  UNL     1     -34.554  15.313  -3.522  1.00 20.00    -0.016 C 
HETATM    5  C5  UNL     1     -34.070  16.260  -4.656  1.00 20.00     0.068 C 
HETATM    6  C6  UNL     1     -36.088  15.301  -3.358  1.00 20.00     0.018 C 
HETATM    7  C7  UNL     1     -34.072  13.865  -3.690  1.00 20.00     0.018 C 
ENDROOT
BRANCH   5   8
HETATM    8  C10 UNL     1     -34.838  16.162  -5.970  1.00 20.00     0.012 C 
HETATM    9  C8  UNL     1     -34.988  17.540  -6.611  1.00 20.00     0.012 C 
HETATM   10  C9  UNL     1     -34.141  15.198  -6.929  1.00 20.00     0.012 C 
ENDBRANCH   5   8
BRANCH   5  11
HETATM   11  O11 UNL     1     -32.696  16.008  -4.977  1.00 20.00    -0.389 OA
HETATM   12  H31 UNL     1     -32.699  15.585  -5.847  1.00 20.00     0.210 HD
ENDBRANCH   5  11
TORSDOF 2
ENDMDL
MODEL 4
REMARK VINA RESULT:      -4.4      1.036      3.506
REMARK  2 active torsions:
REMARK  status: ('A' for Active; 'I' for Inactive)
REMARK    1  A    between atoms: C5_5  and  C10_10 
REMARK    2  A    between atoms: C5_5  and  O11_11 
ROOT
HETATM    1  C1  UNL     1     -34.684  16.724  -7.044  1.00 20.00     0.004 C 
HETATM    2  C2  UNL     1     -34.588  17.729  -5.896  1.00 20.00     0.012 C 
HETATM    3  C3  UNL     1     -34.380  15.343  -6.453  1.00 20.00     0.039 C 
HETATM    4  C4  UNL     1     -34.672  16.895  -4.602  1.00 20.00    -0.016 C 
HETATM    5  C5  UNL     1     -33.917  15.599  -5.012  1.00 20.00     0.068 C 
HETATM    6  C6  UNL     1     -36.153  16.645  -4.248  1.00 20.00     0.018 C 
HETATM    7  C7  UNL     1     -34.013  17.642  -3.435  1.00 20.00     0.018 C 
ENDROOT
BRANCH   5   8
HETATM    8  C10 UNL     1     -34.147  14.389  -4.113  1.00 20.00     0.012 C 
HETATM    9  C8  UNL     1     -34.766  13.239  -4.905  1.00 20.00     0.012 C 
HETATM   10  C9  UNL     1     -32.838  13.946  -3.460  1.00 20.00     0.012 C 
ENDBRANCH   5   8
BRANCH   5  11
HETATM   11  O11 UNL     1     -32.500  15.820  -5.027  1.00 20.00    -0.389 OA
HETATM   12  H31 UNL     1     -32.154  15.283  -5.753  1.00 20.00     0.210 HD
ENDBRANCH   5  11
TORSDOF 2
ENDMDL
MODEL 5
REMARK VINA RESULT:      -4.3      2.042      3.364
REMARK  2 active torsions:
REMARK  status: ('A' for Active; 'I' for Inactive)
REMARK    1  A    between atoms: C5_5  and  C10_10 
REMARK    2  A    between atoms: C5_5  and  O11_11 
ROOT
HETATM    1  C1  UNL     1     -34.579  13.324  -4.609  1.00 20.00     0.004 C 
HETATM    2  C2  UNL     1     -34.030  13.950  -3.328  1.00 20.00     0.012 C 
HETATM    3  C3  UNL     1     -35.659  14.271  -5.142  1.00 20.00     0.039 C 
HETATM    4  C4  UNL     1     -34.462  15.430  -3.369  1.00 20.00    -0.016 C 
HETATM    5  C5  UNL     1     -35.856  15.333  -4.051  1.00 20.00     0.068 C 
HETATM    6  C6  UNL     1     -33.441  16.241  -4.194  1.00 20.00     0.018 C 
HETATM    7  C7  UNL     1     -34.516  16.015  -1.951  1.00 20.00     0.018 C 
ENDROOT
BRANCH   5   8
HETATM    8  C10 UNL     1     -36.406  16.639  -4.615  1.00 20.00     0.012 C 
HETATM    9  C8  UNL     1     -36.762  16.480  -6.092  1.00 20.00     0.012 C 
HETATM   10  C9  UNL     1     -37.625  17.099  -3.817  1.00 20.00     0.012 C 
ENDBRANCH   5   8
BRANCH   5  11
HETATM   11  O11 UNL     1     -36.841  14.852  -3.127  1.00 20.00    -0.389 OA
HETATM   12  H31 UNL     1     -37.700  15.084  -3.508  1.00 20.00     0.210 HD
ENDBRANCH   5  11
TORSDOF 2
ENDMDL
MODEL 6
REMARK VINA RESULT:      -4.2      1.625      2.933
REMARK  2 active torsions:
REMARK  status: ('A' for Active; 'I' for Inactive)
REMARK    1  A    between atoms: C5_5  and  C10_10 
REMARK    2  A    between atoms: C5_5  and  O11_11 
ROOT
HETATM    1  C1  UNL     1     -34.781  15.546  -6.847  1.00 20.00     0.004 C 
HETATM    2  C2  UNL     1     -36.077  14.972  -6.274  1.00 20.00     0.012 C 
HETATM    3  C3  UNL     1     -33.876  15.882  -5.657  1.00 20.00     0.039 C 
HETATM    4  C4  UNL     1     -35.748  14.569  -4.822  1.00 20.00    -0.016 C 
HETATM    5  C5  UNL     1     -34.744  15.681  -4.405  1.00 20.00     0.068 C 
HETATM    6  C6  UNL     1     -35.125  13.157  -4.809  1.00 20.00     0.018 C 
HETATM    7  C7  UNL     1     -37.022  14.547  -3.967  1.00 20.00     0.018 C 
ENDROOT
BRANCH   5   8
HETATM    8  C10 UNL     1     -33.903  15.381  -3.169  1.00 20.00     0.012 C 
HETATM    9  C8  UNL     1     -32.456  15.089  -3.559  1.00 20.00     0.012 C 
HETATM   10  C9  UNL     1     -33.968  16.544  -2.179  1.00 20.00     0.012 C 
ENDBRANCH   5   8
BRANCH   5  11
HETATM   11  O11 UNL     1     -35.431  16.910  -4.132  1.00 20.00    -0.389 OA
HETATM   12  H31 UNL     1     -34.765  17.514  -3.775  1.00 20.00     0.210 HD
ENDBRANCH   5  11
TORSDOF 2
ENDMDL
MODEL 7
REMARK VINA RESULT:      -4.2      1.900      3.224
REMARK  2 active torsions:
REMARK  status: ('A' for Active; 'I' for Inactive)
REMARK    1  A    between atoms: C5_5  and  C10_10 
REMARK    2  A    between atoms: C5_5  and  O11_11 
ROOT
HETATM    1  C1  UNL     1     -35.714  16.775  -5.413  1.00 20.00     0.004 C 
HETATM    2  C2  UNL     1     -35.244  15.325  -5.290  1.00 20.00     0.012 C 
HETATM    3  C3  UNL     1     -35.399  17.461  -4.080  1.00 20.00     0.039 C 
HETATM    4  C4  UNL     1     -34.279  15.301  -4.087  1.00 20.00    -0.016 C 
HETATM    5  C5  UNL     1     -34.933  16.343  -3.136  1.00 20.00     0.068 C 
HETATM    6  C6  UNL     1     -32.866  15.712  -4.553  1.00 20.00     0.018 C 
HETATM    7  C7  UNL     1     -34.201  13.891  -3.486  1.00 20.00     0.018 C 
ENDROOT
BRANCH   5   8
HETATM    8  C10 UNL     1     -34.038  16.872  -2.021  1.00 20.00     0.012 C 
HETATM    9  C8  UNL     1     -33.748  18.358  -2.222  1.00 20.00     0.012 C 
HETATM   10  C9  UNL     1     -34.680  16.631  -0.655  1.00 20.00     0.012 C 
ENDBRANCH   5   8
BRANCH   5  11
HETATM   11  O11 UNL     1     -36.087  15.788  -2.491  1.00 20.00    -0.389 OA
HETATM   12  H31 UNL     1     -35.803  15.544  -1.599  1.00 20.00     0.210 HD
ENDBRANCH   5  11
TORSDOF 2
ENDMDL
MODEL 8
REMARK VINA RESULT:      -4.2      1.858      2.918
REMARK  2 active torsions:
REMARK  status: ('A' for Active; 'I' for Inactive)
REMARK    1  A    between atoms: C5_5  and  C10_10 
REMARK    2  A    between atoms: C5_5  and  O11_11 
ROOT
HETATM    1  C1  UNL     1     -37.633  15.322  -4.256  1.00 20.00     0.004 C 
HETATM    2  C2  UNL     1     -37.231  15.093  -5.713  1.00 20.00     0.012 C 
HETATM    3  C3  UNL     1     -36.371  15.125  -3.409  1.00 20.00     0.039 C 
HETATM    4  C4  UNL     1     -35.693  15.208  -5.744  1.00 20.00    -0.016 C 
HETATM    5  C5  UNL     1     -35.302  14.589  -4.372  1.00 20.00     0.068 C 
HETATM    6  C6  UNL     1     -35.291  16.691  -5.874  1.00 20.00     0.018 C 
HETATM    7  C7  UNL     1     -35.120  14.442  -6.944  1.00 20.00     0.018 C 
ENDROOT
BRANCH   5   8
HETATM    8  C10 UNL     1     -33.889  14.897  -3.888  1.00 20.00     0.012 C 
HETATM    9  C8  UNL     1     -33.927  15.769  -2.634  1.00 20.00     0.012 C 
HETATM   10  C9  UNL     1     -33.118  13.605  -3.620  1.00 20.00     0.012 C 
ENDBRANCH   5   8
BRANCH   5  11
HETATM   11  O11 UNL     1     -35.407  13.159  -4.411  1.00 20.00    -0.389 OA
HETATM   12  H31 UNL     1     -34.560  12.838  -4.750  1.00 20.00     0.210 HD
ENDBRANCH   5  11
TORSDOF 2
ENDMDL
MODEL 9
REMARK VINA RESULT:      -4.2      1.628      3.393
REMARK  2 active torsions:
REMARK  status: ('A' for Active; 'I' for Inactive)
REMARK    1  A    between atoms: C5_5  and  C10_10 
REMARK    2  A    between atoms: C5_5  and  O11_11 
ROOT
HETATM    1  C1  UNL     1     -33.484  13.647  -3.791  1.00 20.00     0.004 C 
HETATM    2  C2  UNL     1     -33.674  14.996  -3.097  1.00 20.00     0.012 C 
HETATM    3  C3  UNL     1     -34.420  13.634  -5.004  1.00 20.00     0.039 C 
HETATM    4  C4  UNL     1     -34.361  15.906  -4.135  1.00 20.00    -0.016 C 
HETATM    5  C5  UNL     1     -35.283  14.898  -4.877  1.00 20.00     0.068 C 
HETATM    6  C6  UNL     1     -33.293  16.537  -5.052  1.00 20.00     0.018 C 
HETATM    7  C7  UNL     1     -35.130  17.035  -3.436  1.00 20.00     0.018 C 
ENDROOT
BRANCH   5   8
HETATM    8  C10 UNL     1     -35.817  15.364  -6.228  1.00 20.00     0.012 C 
HETATM    9  C8  UNL     1     -35.403  14.395  -7.334  1.00 20.00     0.012 C 
HETATM   10  C9  UNL     1     -37.337  15.510  -6.185  1.00 20.00     0.012 C 
ENDBRANCH   5   8
BRANCH   5  11
HETATM   11  O11 UNL     1     -36.433  14.580  -4.082  1.00 20.00    -0.389 OA
HETATM   12  H31 UNL     1     -36.092  14.234  -3.246  1.00 20.00     0.210 HD
ENDBRANCH   5  11
TORSDOF 2
ENDMDL
