MODEL 1
REMARK VINA RESULT:      -4.7      0.000      0.000
REMARK  1 active torsions:
REMARK  status: ('A' for Active; 'I' for Inactive)
REMARK    1  A    between atoms: C2_2  and  C5_5 
ROOT
HETATM    1  C1  UNL     1     -33.399   6.577   5.148  1.00 20.00     0.075 A 
HETATM    2  C2  UNL     1     -33.249   6.462   3.823  1.00 20.00     0.039 A 
HETATM    3  C3  UNL     1     -34.482   5.733   5.670  1.00 20.00     0.209 A 
HETATM    4  C4  UNL     1     -34.168   5.531   3.099  1.00 20.00     0.126 A 
HETATM    5  O6  UNL     1     -34.805   5.668   6.845  1.00 20.00    -0.281 OA
HETATM    6  S10 UNL     1     -35.249   4.831   4.379  1.00 20.00    -0.084 SA
ENDROOT
BRANCH   2   7
HETATM    7  C5  UNL     1     -32.225   7.208   3.033  1.00 20.00     0.414 C 
HETATM    8  F7  UNL     1     -31.662   6.416   2.095  1.00 20.00    -0.166 F 
HETATM    9  F8  UNL     1     -32.773   8.267   2.398  1.00 20.00    -0.166 F 
HETATM   10  F9  UNL     1     -31.235   7.672   3.825  1.00 20.00    -0.166 F 
ENDBRANCH   2   7
TORSDOF 1
ENDMDL
MODEL 2
REMARK VINA RESULT:      -4.6     11.230     11.798
REMARK  1 active torsions:
REMARK  status: ('A' for Active; 'I' for Inactive)
REMARK    1  A    between atoms: C2_2  and  C5_5 
ROOT
HETATM    1  C1  UNL     1     -34.412  14.469  -3.172  1.00 20.00     0.075 A 
HETATM    2  C2  UNL     1     -35.045  15.573  -2.757  1.00 20.00     0.039 A 
HETATM    3  C3  UNL     1     -35.198  13.696  -4.142  1.00 20.00     0.209 A 
HETATM    4  C4  UNL     1     -36.405  15.844  -3.318  1.00 20.00     0.126 A 
HETATM    5  O6  UNL     1     -34.829  12.655  -4.661  1.00 20.00    -0.281 OA
HETATM    6  S10 UNL     1     -36.739  14.467  -4.454  1.00 20.00    -0.084 SA
ENDROOT
BRANCH   2   7
HETATM    7  C5  UNL     1     -34.476  16.539  -1.771  1.00 20.00     0.414 C 
HETATM    8  F7  UNL     1     -34.972  17.781  -1.966  1.00 20.00    -0.166 F 
HETATM    9  F8  UNL     1     -34.770  16.175  -0.504  1.00 20.00    -0.166 F 
HETATM   10  F9  UNL     1     -33.132  16.614  -1.875  1.00 20.00    -0.166 F 
ENDBRANCH   2   7
TORSDOF 1
ENDMDL
MODEL 3
REMARK VINA RESULT:      -4.6     11.230     11.807
REMARK  1 active torsions:
REMARK  status: ('A' for Active; 'I' for Inactive)
REMARK    1  A    between atoms: C2_2  and  C5_5 
ROOT
HETATM    1  C1  UNL     1     -34.420  14.491  -3.147  1.00 20.00     0.075 A 
HETATM    2  C2  UNL     1     -35.055  15.594  -2.731  1.00 20.00     0.039 A 
HETATM    3  C3  UNL     1     -35.206  13.717  -4.116  1.00 20.00     0.209 A 
HETATM    4  C4  UNL     1     -36.415  15.864  -3.292  1.00 20.00     0.126 A 
HETATM    5  O6  UNL     1     -34.836  12.677  -4.635  1.00 20.00    -0.281 OA
HETATM    6  S10 UNL     1     -36.749  14.487  -4.428  1.00 20.00    -0.084 SA
ENDROOT
BRANCH   2   7
HETATM    7  C5  UNL     1     -34.487  16.561  -1.746  1.00 20.00     0.414 C 
HETATM    8  F7  UNL     1     -34.773  16.190  -0.479  1.00 20.00    -0.166 F 
HETATM    9  F8  UNL     1     -33.143  16.638  -1.856  1.00 20.00    -0.166 F 
HETATM   10  F9  UNL     1     -34.985  17.802  -1.932  1.00 20.00    -0.166 F 
ENDBRANCH   2   7
TORSDOF 1
ENDMDL
MODEL 4
REMARK VINA RESULT:      -4.6      1.277      2.058
REMARK  1 active torsions:
REMARK  status: ('A' for Active; 'I' for Inactive)
REMARK    1  A    between atoms: C2_2  and  C5_5 
ROOT
HETATM    1  C1  UNL     1     -34.003   5.285   3.761  1.00 20.00     0.075 A 
HETATM    2  C2  UNL     1     -33.267   6.340   4.131  1.00 20.00     0.039 A 
HETATM    3  C3  UNL     1     -34.809   4.742   4.862  1.00 20.00     0.209 A 
HETATM    4  C4  UNL     1     -33.369   6.791   5.553  1.00 20.00     0.126 A 
HETATM    5  O6  UNL     1     -35.558   3.784   4.766  1.00 20.00    -0.281 OA
HETATM    6  S10 UNL     1     -34.550   5.655   6.335  1.00 20.00    -0.084 SA
ENDROOT
BRANCH   2   7
HETATM    7  C5  UNL     1     -32.355   7.084   3.212  1.00 20.00     0.414 C 
HETATM    8  F7  UNL     1     -31.342   7.661   3.894  1.00 20.00    -0.166 F 
HETATM    9  F8  UNL     1     -31.811   6.260   2.291  1.00 20.00    -0.166 F 
HETATM   10  F9  UNL     1     -33.013   8.060   2.552  1.00 20.00    -0.166 F 
ENDBRANCH   2   7
TORSDOF 1
ENDMDL
MODEL 5
REMARK VINA RESULT:      -4.5      3.481      4.043
REMARK  1 active torsions:
REMARK  status: ('A' for Active; 'I' for Inactive)
REMARK    1  A    between atoms: C2_2  and  C5_5 
ROOT
HETATM    1  C1  UNL     1     -33.158   6.488   4.598  1.00 20.00     0.075 A 
HETATM    2  C2  UNL     1     -34.142   5.658   4.966  1.00 20.00     0.039 A 
HETATM    3  C3  UNL     1     -32.994   6.560   3.141  1.00 20.00     0.209 A 
HETATM    4  C4  UNL     1     -34.896   4.954   3.883  1.00 20.00     0.126 A 
HETATM    5  O6  UNL     1     -32.164   7.249   2.570  1.00 20.00    -0.281 OA
HETATM    6  S10 UNL     1     -34.148   5.522   2.329  1.00 20.00    -0.084 SA
ENDROOT
BRANCH   2   7
HETATM    7  C5  UNL     1     -34.523   5.394   6.385  1.00 20.00     0.414 C 
HETATM    8  F7  UNL     1     -34.553   6.539   7.101  1.00 20.00    -0.166 F 
HETATM    9  F8  UNL     1     -35.747   4.829   6.466  1.00 20.00    -0.166 F 
HETATM   10  F9  UNL     1     -33.646   4.560   6.983  1.00 20.00    -0.166 F 
ENDBRANCH   2   7
TORSDOF 1
ENDMDL
MODEL 6
REMARK VINA RESULT:      -4.3     11.601     12.232
REMARK  1 active torsions:
REMARK  status: ('A' for Active; 'I' for Inactive)
REMARK    1  A    between atoms: C2_2  and  C5_5 
ROOT
HETATM    1  C1  UNL     1     -35.658  14.655  -3.478  1.00 20.00     0.075 A 
HETATM    2  C2  UNL     1     -34.665  15.151  -4.226  1.00 20.00     0.039 A 
HETATM    3  C3  UNL     1     -36.941  14.621  -4.190  1.00 20.00     0.209 A 
HETATM    4  C4  UNL     1     -34.995  15.581  -5.620  1.00 20.00     0.126 A 
HETATM    5  O6  UNL     1     -37.987  14.210  -3.716  1.00 20.00    -0.281 OA
HETATM    6  S10 UNL     1     -36.770  15.250  -5.816  1.00 20.00    -0.084 SA
ENDROOT
BRANCH   2   7
HETATM    7  C5  UNL     1     -33.257  15.301  -3.750  1.00 20.00     0.414 C 
HETATM    8  F7  UNL     1     -33.214  15.897  -2.539  1.00 20.00    -0.166 F 
HETATM    9  F8  UNL     1     -32.649  14.100  -3.637  1.00 20.00    -0.166 F 
HETATM   10  F9  UNL     1     -32.528  16.051  -4.602  1.00 20.00    -0.166 F 
ENDBRANCH   2   7
TORSDOF 1
ENDMDL
MODEL 7
REMARK VINA RESULT:      -4.3     11.621     12.229
REMARK  1 active torsions:
REMARK  status: ('A' for Active; 'I' for Inactive)
REMARK    1  A    between atoms: C2_2  and  C5_5 
ROOT
HETATM    1  C1  UNL     1     -35.687  14.648  -3.497  1.00 20.00     0.075 A 
HETATM    2  C2  UNL     1     -34.699  15.171  -4.234  1.00 20.00     0.039 A 
HETATM    3  C3  UNL     1     -36.974  14.637  -4.203  1.00 20.00     0.209 A 
HETATM    4  C4  UNL     1     -35.039  15.647  -5.611  1.00 20.00     0.126 A 
HETATM    5  O6  UNL     1     -38.017  14.208  -3.735  1.00 20.00    -0.281 OA
HETATM    6  S10 UNL     1     -36.814  15.321  -5.807  1.00 20.00    -0.084 SA
ENDROOT
BRANCH   2   7
HETATM    7  C5  UNL     1     -33.289  15.307  -3.762  1.00 20.00     0.414 C 
HETATM    8  F7  UNL     1     -32.561  16.059  -4.616  1.00 20.00    -0.166 F 
HETATM    9  F8  UNL     1     -33.234  15.897  -2.549  1.00 20.00    -0.166 F 
HETATM   10  F9  UNL     1     -32.687  14.103  -3.660  1.00 20.00    -0.166 F 
ENDBRANCH   2   7
TORSDOF 1
ENDMDL
MODEL 8
REMARK VINA RESULT:      -4.2     12.142     13.056
REMARK  1 active torsions:
REMARK  status: ('A' for Active; 'I' for Inactive)
REMARK    1  A    between atoms: C2_2  and  C5_5 
ROOT
HETATM    1  C1  UNL     1     -33.410  16.268  -4.390  1.00 20.00     0.075 A 
HETATM    2  C2  UNL     1     -33.871  15.099  -4.853  1.00 20.00     0.039 A 
HETATM    3  C3  UNL     1     -33.629  17.375  -5.330  1.00 20.00     0.209 A 
HETATM    4  C4  UNL     1     -34.514  15.094  -6.203  1.00 20.00     0.126 A 
HETATM    5  O6  UNL     1     -33.296  18.531  -5.128  1.00 20.00    -0.281 OA
HETATM    6  S10 UNL     1     -34.433  16.814  -6.781  1.00 20.00    -0.084 SA
ENDROOT
BRANCH   2   7
HETATM    7  C5  UNL     1     -33.778  13.811  -4.104  1.00 20.00     0.414 C 
HETATM    8  F7  UNL     1     -34.630  13.794  -3.057  1.00 20.00    -0.166 F 
HETATM    9  F8  UNL     1     -34.083  12.762  -4.897  1.00 20.00    -0.166 F 
HETATM   10  F9  UNL     1     -32.533  13.612  -3.622  1.00 20.00    -0.166 F 
ENDBRANCH   2   7
TORSDOF 1
ENDMDL
MODEL 9
REMARK VINA RESULT:      -4.2     12.021     12.947
REMARK  1 active torsions:
REMARK  status: ('A' for Active; 'I' for Inactive)
REMARK    1  A    between atoms: C2_2  and  C5_5 
ROOT
HETATM    1  C1  UNL     1     -34.693  14.116  -5.736  1.00 20.00     0.075 A 
HETATM    2  C2  UNL     1     -34.034  14.937  -4.909  1.00 20.00     0.039 A 
HETATM    3  C3  UNL     1     -35.048  14.759  -7.008  1.00 20.00     0.209 A 
HETATM    4  C4  UNL     1     -33.768  16.330  -5.382  1.00 20.00     0.126 A 
HETATM    5  O6  UNL     1     -35.649  14.212  -7.918  1.00 20.00    -0.281 OA
HETATM    6  S10 UNL     1     -34.494  16.421  -7.045  1.00 20.00    -0.084 SA
ENDROOT
BRANCH   2   7
HETATM    7  C5  UNL     1     -33.556  14.543  -3.551  1.00 20.00     0.414 C 
HETATM    8  F7  UNL     1     -32.228  14.297  -3.555  1.00 20.00    -0.166 F 
HETATM    9  F8  UNL     1     -33.788  15.520  -2.649  1.00 20.00    -0.166 F 
HETATM   10  F9  UNL     1     -34.177  13.427  -3.115  1.00 20.00    -0.166 F 
ENDBRANCH   2   7
TORSDOF 1
ENDMDL
