MODEL 1
REMARK VINA RESULT:      -4.5      0.000      0.000
REMARK  2 active torsions:
REMARK  status: ('A' for Active; 'I' for Inactive)
REMARK    1  A    between atoms: C6_6  and  N11_11 
REMARK    2  A    between atoms: C10_10  and  N11_11 
ROOT
HETATM    1  C1  UNL     1     -34.811  17.091  -0.063  1.00 20.00     0.013 C 
HETATM    2  C2  UNL     1     -34.326  16.978  -1.154  1.00 20.00    -0.087 C 
HETATM    3  C10 UNL     1     -33.730  16.844  -2.486  1.00 20.00     0.362 C 
ENDROOT
BRANCH   3   4
HETATM    4  N11 UNL     1     -33.747  15.454  -2.920  1.00 20.00     0.099 N 
HETATM    5  H28 UNL     1     -32.966  14.959  -2.486  1.00 20.00     0.317 HD
BRANCH   4   6
HETATM    6  C6  UNL     1     -33.633  15.356  -4.367  1.00 20.00     0.229 C 
HETATM    7  C4  UNL     1     -33.609  16.727  -5.045  1.00 20.00     0.036 C 
HETATM    8  C3  UNL     1     -34.047  16.464  -6.487  1.00 20.00     0.003 C 
HETATM    9  C5  UNL     1     -34.530  15.011  -6.539  1.00 20.00     0.011 C 
HETATM   10  C7  UNL     1     -34.784  14.607  -5.075  1.00 20.00    -0.017 C 
HETATM   11  C8  UNL     1     -34.684  13.089  -4.889  1.00 20.00     0.017 C 
HETATM   12  C9  UNL     1     -36.185  15.072  -4.630  1.00 20.00     0.017 C 
ENDBRANCH   4   6
ENDBRANCH   3   4
TORSDOF 2
ENDMDL
MODEL 2
REMARK VINA RESULT:      -4.5      1.153      2.252
REMARK  2 active torsions:
REMARK  status: ('A' for Active; 'I' for Inactive)
REMARK    1  A    between atoms: C6_6  and  N11_11 
REMARK    2  A    between atoms: C10_10  and  N11_11 
ROOT
HETATM    1  C1  UNL     1     -34.901  17.271   0.241  1.00 20.00     0.013 C 
HETATM    2  C2  UNL     1     -34.573  16.795  -0.811  1.00 20.00    -0.087 C 
HETATM    3  C10 UNL     1     -34.169  16.211  -2.092  1.00 20.00     0.362 C 
ENDROOT
BRANCH   3   4
HETATM    4  N11 UNL     1     -35.179  16.458  -3.112  1.00 20.00     0.099 N 
HETATM    5  H28 UNL     1     -36.056  16.716  -2.658  1.00 20.00     0.317 HD
BRANCH   4   6
HETATM    6  C6  UNL     1     -35.393  15.278  -3.934  1.00 20.00     0.229 C 
HETATM    7  C4  UNL     1     -34.478  14.117  -3.538  1.00 20.00     0.036 C 
HETATM    8  C3  UNL     1     -34.414  13.221  -4.777  1.00 20.00     0.003 C 
HETATM    9  C5  UNL     1     -35.093  13.995  -5.911  1.00 20.00     0.011 C 
HETATM   10  C7  UNL     1     -35.131  15.463  -5.445  1.00 20.00    -0.017 C 
HETATM   11  C8  UNL     1     -36.259  16.239  -6.135  1.00 20.00     0.017 C 
HETATM   12  C9  UNL     1     -33.789  16.155  -5.755  1.00 20.00     0.017 C 
ENDBRANCH   4   6
ENDBRANCH   3   4
TORSDOF 2
ENDMDL
MODEL 3
REMARK VINA RESULT:      -4.5      1.298      2.106
REMARK  2 active torsions:
REMARK  status: ('A' for Active; 'I' for Inactive)
REMARK    1  A    between atoms: C6_6  and  N11_11 
REMARK    2  A    between atoms: C10_10  and  N11_11 
ROOT
HETATM    1  C1  UNL     1     -34.791  17.028  -0.095  1.00 20.00     0.013 C 
HETATM    2  C2  UNL     1     -34.316  17.230  -1.178  1.00 20.00    -0.087 C 
HETATM    3  C10 UNL     1     -33.730  17.478  -2.498  1.00 20.00     0.362 C 
ENDROOT
BRANCH   3   4
HETATM    4  N11 UNL     1     -34.552  16.885  -3.545  1.00 20.00     0.099 N 
HETATM    5  H28 UNL     1     -35.497  17.264  -3.482  1.00 20.00     0.317 HD
BRANCH   4   6
HETATM    6  C6  UNL     1     -34.604  15.438  -3.412  1.00 20.00     0.229 C 
HETATM    7  C4  UNL     1     -33.275  14.770  -3.772  1.00 20.00     0.036 C 
HETATM    8  C3  UNL     1     -33.640  13.326  -4.124  1.00 20.00     0.003 C 
HETATM    9  C5  UNL     1     -35.170  13.264  -4.183  1.00 20.00     0.011 C 
HETATM   10  C7  UNL     1     -35.638  14.725  -4.311  1.00 20.00    -0.017 C 
HETATM   11  C8  UNL     1     -37.070  14.899  -3.793  1.00 20.00     0.017 C 
HETATM   12  C9  UNL     1     -35.585  15.175  -5.785  1.00 20.00     0.017 C 
ENDBRANCH   4   6
ENDBRANCH   3   4
TORSDOF 2
ENDMDL
MODEL 4
REMARK VINA RESULT:      -4.4      1.770      4.131
REMARK  2 active torsions:
REMARK  status: ('A' for Active; 'I' for Inactive)
REMARK    1  A    between atoms: C6_6  and  N11_11 
REMARK    2  A    between atoms: C10_10  and  N11_11 
ROOT
HETATM    1  C1  UNL     1     -37.170  15.137  -7.323  1.00 20.00     0.013 C 
HETATM    2  C2  UNL     1     -36.005  15.425  -7.355  1.00 20.00    -0.087 C 
HETATM    3  C10 UNL     1     -34.584  15.780  -7.397  1.00 20.00     0.362 C 
ENDROOT
BRANCH   3   4
HETATM    4  N11 UNL     1     -33.870  15.177  -6.280  1.00 20.00     0.099 N 
HETATM    5  H28 UNL     1     -33.993  14.164  -6.312  1.00 20.00     0.317 HD
BRANCH   4   6
HETATM    6  C6  UNL     1     -34.366  15.681  -5.009  1.00 20.00     0.229 C 
HETATM    7  C4  UNL     1     -33.447  16.744  -4.403  1.00 20.00     0.036 C 
HETATM    8  C3  UNL     1     -33.773  16.745  -2.908  1.00 20.00     0.003 C 
HETATM    9  C5  UNL     1     -34.687  15.541  -2.659  1.00 20.00     0.011 C 
HETATM   10  C7  UNL     1     -34.513  14.629  -3.888  1.00 20.00    -0.017 C 
HETATM   11  C8  UNL     1     -35.738  13.731  -4.096  1.00 20.00     0.017 C 
HETATM   12  C9  UNL     1     -33.267  13.737  -3.716  1.00 20.00     0.017 C 
ENDBRANCH   4   6
ENDBRANCH   3   4
TORSDOF 2
ENDMDL
MODEL 5
REMARK VINA RESULT:      -4.3      0.948      2.251
REMARK  2 active torsions:
REMARK  status: ('A' for Active; 'I' for Inactive)
REMARK    1  A    between atoms: C6_6  and  N11_11 
REMARK    2  A    between atoms: C10_10  and  N11_11 
ROOT
HETATM    1  C1  UNL     1     -34.802  17.125  -0.025  1.00 20.00     0.013 C 
HETATM    2  C2  UNL     1     -34.349  16.796  -1.086  1.00 20.00    -0.087 C 
HETATM    3  C10 UNL     1     -33.791  16.398  -2.381  1.00 20.00     0.362 C 
ENDROOT
BRANCH   3   4
HETATM    4  N11 UNL     1     -34.457  15.204  -2.884  1.00 20.00     0.099 N 
HETATM    5  H28 UNL     1     -33.761  14.580  -3.293  1.00 20.00     0.317 HD
BRANCH   4   6
HETATM    6  C6  UNL     1     -35.449  15.544  -3.891  1.00 20.00     0.229 C 
HETATM    7  C4  UNL     1     -36.847  15.039  -3.527  1.00 20.00     0.036 C 
HETATM    8  C3  UNL     1     -37.601  14.965  -4.858  1.00 20.00     0.003 C 
HETATM    9  C5  UNL     1     -36.564  15.200  -5.961  1.00 20.00     0.011 C 
HETATM   10  C7  UNL     1     -35.194  14.961  -5.298  1.00 20.00    -0.017 C 
HETATM   11  C8  UNL     1     -34.079  15.707  -6.039  1.00 20.00     0.017 C 
HETATM   12  C9  UNL     1     -34.864  13.455  -5.289  1.00 20.00     0.017 C 
ENDBRANCH   4   6
ENDBRANCH   3   4
TORSDOF 2
ENDMDL
MODEL 6
REMARK VINA RESULT:      -4.3     12.264     14.255
REMARK  2 active torsions:
REMARK  status: ('A' for Active; 'I' for Inactive)
REMARK    1  A    between atoms: C6_6  and  N11_11 
REMARK    2  A    between atoms: C10_10  and  N11_11 
ROOT
HETATM    1  C1  UNL     1     -41.219   1.660  -4.076  1.00 20.00     0.013 C 
HETATM    2  C2  UNL     1     -41.956   2.199  -3.297  1.00 20.00    -0.087 C 
HETATM    3  C10 UNL     1     -42.859   2.853  -2.347  1.00 20.00     0.362 C 
ENDROOT
BRANCH   3   4
HETATM    4  N11 UNL     1     -42.120   3.746  -1.465  1.00 20.00     0.099 N 
HETATM    5  H28 UNL     1     -42.133   3.365  -0.518  1.00 20.00     0.317 HD
BRANCH   4   6
HETATM    6  C6  UNL     1     -42.706   5.076  -1.456  1.00 20.00     0.229 C 
HETATM    7  C4  UNL     1     -42.288   5.907  -2.672  1.00 20.00     0.036 C 
HETATM    8  C3  UNL     1     -42.495   7.363  -2.247  1.00 20.00     0.003 C 
HETATM    9  C5  UNL     1     -42.798   7.342  -0.746  1.00 20.00     0.011 C 
HETATM   10  C7  UNL     1     -42.327   5.962  -0.249  1.00 20.00    -0.017 C 
HETATM   11  C8  UNL     1     -43.068   5.546   1.027  1.00 20.00     0.017 C 
HETATM   12  C9  UNL     1     -40.813   5.989   0.042  1.00 20.00     0.017 C 
ENDBRANCH   4   6
ENDBRANCH   3   4
TORSDOF 2
ENDMDL
MODEL 7
REMARK VINA RESULT:      -4.3      1.758      4.246
REMARK  2 active torsions:
REMARK  status: ('A' for Active; 'I' for Inactive)
REMARK    1  A    between atoms: C6_6  and  N11_11 
REMARK    2  A    between atoms: C10_10  and  N11_11 
ROOT
HETATM    1  C1  UNL     1     -33.434  13.658  -3.773  1.00 20.00     0.013 C 
HETATM    2  C2  UNL     1     -34.562  14.066  -3.787  1.00 20.00    -0.087 C 
HETATM    3  C10 UNL     1     -35.942  14.560  -3.807  1.00 20.00     0.362 C 
ENDROOT
BRANCH   3   4
HETATM    4  N11 UNL     1     -36.146  15.558  -2.766  1.00 20.00     0.099 N 
HETATM    5  H28 UNL     1     -36.875  16.207  -3.064  1.00 20.00     0.317 HD
BRANCH   4   6
HETATM    6  C6  UNL     1     -34.922  16.297  -2.502  1.00 20.00     0.229 C 
HETATM    7  C4  UNL     1     -34.648  16.460  -1.006  1.00 20.00     0.036 C 
HETATM    8  C3  UNL     1     -33.716  17.670  -0.902  1.00 20.00     0.003 C 
HETATM    9  C5  UNL     1     -33.667  18.304  -2.296  1.00 20.00     0.011 C 
HETATM   10  C7  UNL     1     -34.887  17.741  -3.050  1.00 20.00    -0.017 C 
HETATM   11  C8  UNL     1     -34.671  17.778  -4.567  1.00 20.00     0.017 C 
HETATM   12  C9  UNL     1     -36.148  18.559  -2.706  1.00 20.00     0.017 C 
ENDBRANCH   4   6
ENDBRANCH   3   4
TORSDOF 2
ENDMDL
MODEL 8
REMARK VINA RESULT:      -4.2      1.352      2.093
REMARK  2 active torsions:
REMARK  status: ('A' for Active; 'I' for Inactive)
REMARK    1  A    between atoms: C6_6  and  N11_11 
REMARK    2  A    between atoms: C10_10  and  N11_11 
ROOT
HETATM    1  C1  UNL     1     -34.047  17.187  -0.815  1.00 20.00     0.013 C 
HETATM    2  C2  UNL     1     -35.027  17.086  -1.501  1.00 20.00    -0.087 C 
HETATM    3  C10 UNL     1     -36.223  16.968  -2.338  1.00 20.00     0.362 C 
ENDROOT
BRANCH   3   4
HETATM    4  N11 UNL     1     -36.268  15.666  -2.991  1.00 20.00     0.099 N 
HETATM    5  H28 UNL     1     -35.761  14.989  -2.420  1.00 20.00     0.317 HD
BRANCH   4   6
HETATM    6  C6  UNL     1     -35.669  15.724  -4.315  1.00 20.00     0.229 C 
HETATM    7  C4  UNL     1     -36.684  15.453  -5.427  1.00 20.00     0.036 C 
HETATM    8  C3  UNL     1     -35.847  15.001  -6.626  1.00 20.00     0.003 C 
HETATM    9  C5  UNL     1     -34.418  14.801  -6.111  1.00 20.00     0.011 C 
HETATM   10  C7  UNL     1     -34.541  14.702  -4.579  1.00 20.00    -0.017 C 
HETATM   11  C8  UNL     1     -33.231  15.097  -3.888  1.00 20.00     0.017 C 
HETATM   12  C9  UNL     1     -34.907  13.263  -4.167  1.00 20.00     0.017 C 
ENDBRANCH   4   6
ENDBRANCH   3   4
TORSDOF 2
ENDMDL
MODEL 9
REMARK VINA RESULT:      -4.2      1.548      2.800
REMARK  2 active torsions:
REMARK  status: ('A' for Active; 'I' for Inactive)
REMARK    1  A    between atoms: C6_6  and  N11_11 
REMARK    2  A    between atoms: C10_10  and  N11_11 
ROOT
HETATM    1  C1  UNL     1     -34.417  16.297  -1.852  1.00 20.00     0.013 C 
HETATM    2  C2  UNL     1     -33.742  15.820  -2.721  1.00 20.00    -0.087 C 
HETATM    3  C10 UNL     1     -32.917  15.232  -3.779  1.00 20.00     0.362 C 
ENDROOT
BRANCH   3   4
HETATM    4  N11 UNL     1     -33.174  15.885  -5.056  1.00 20.00     0.099 N 
HETATM    5  H28 UNL     1     -33.050  16.893  -4.947  1.00 20.00     0.317 HD
BRANCH   4   6
HETATM    6  C6  UNL     1     -34.527  15.616  -5.517  1.00 20.00     0.229 C 
HETATM    7  C4  UNL     1     -34.570  14.530  -6.595  1.00 20.00     0.036 C 
HETATM    8  C3  UNL     1     -35.887  14.762  -7.339  1.00 20.00     0.003 C 
HETATM    9  C5  UNL     1     -36.447  16.095  -6.831  1.00 20.00     0.011 C 
HETATM   10  C7  UNL     1     -35.261  16.813  -6.161  1.00 20.00    -0.017 C 
HETATM   11  C8  UNL     1     -35.740  17.825  -5.115  1.00 20.00     0.017 C 
HETATM   12  C9  UNL     1     -34.419  17.552  -7.220  1.00 20.00     0.017 C 
ENDBRANCH   4   6
ENDBRANCH   3   4
TORSDOF 2
ENDMDL
