MODEL 1
REMARK VINA RESULT:      -4.8      0.000      0.000
REMARK  1 active torsions:
REMARK  status: ('A' for Active; 'I' for Inactive)
REMARK    1  A    between atoms: C1_1  and  C4_4 
ROOT
HETATM    1  C1  UNL     1     -32.462   7.303   3.140  1.00 20.00    -0.079 C 
HETATM    2  C2  UNL     1     -32.194   7.942   2.159  1.00 20.00    -0.106 C 
HETATM    3  C7  UNL     1     -31.866   8.719   0.964  1.00 20.00     0.112 C 
ENDROOT
BRANCH   1   4
HETATM    4  C4  UNL     1     -32.781   6.549   4.304  1.00 20.00     0.070 C 
HETATM    5  C3  UNL     1     -33.858   5.770   4.367  1.00 20.00    -0.017 C 
HETATM    6  C5  UNL     1     -34.456   4.874   5.417  1.00 20.00     0.306 C 
HETATM    7  C6  UNL     1     -34.970   5.422   3.417  1.00 20.00     0.306 C 
HETATM    8  N8  UNL     1     -35.669   4.863   4.584  1.00 20.00     0.091 N 
HETATM    9  H17 UNL     1     -36.081   3.942   4.439  1.00 20.00     0.316 HD
ENDBRANCH   1   4
TORSDOF 1
ENDMDL
MODEL 2
REMARK VINA RESULT:      -4.1     11.076     11.709
REMARK  1 active torsions:
REMARK  status: ('A' for Active; 'I' for Inactive)
REMARK    1  A    between atoms: C1_1  and  C4_4 
ROOT
HETATM    1  C1  UNL     1     -34.067  16.929  -1.333  1.00 20.00    -0.079 C 
HETATM    2  C2  UNL     1     -33.420  17.781  -0.788  1.00 20.00    -0.106 C 
HETATM    3  C7  UNL     1     -32.632  18.819  -0.124  1.00 20.00     0.112 C 
ENDROOT
BRANCH   1   4
HETATM    4  C4  UNL     1     -34.836  15.920  -1.976  1.00 20.00     0.070 C 
HETATM    5  C3  UNL     1     -34.340  15.179  -2.966  1.00 20.00    -0.017 C 
HETATM    6  C5  UNL     1     -34.877  14.068  -3.826  1.00 20.00     0.306 C 
HETATM    7  C6  UNL     1     -33.017  15.107  -3.674  1.00 20.00     0.306 C 
HETATM    8  N8  UNL     1     -33.707  14.296  -4.688  1.00 20.00     0.091 N 
HETATM    9  H17 UNL     1     -33.213  13.451  -4.973  1.00 20.00     0.316 HD
ENDBRANCH   1   4
TORSDOF 1
ENDMDL
MODEL 3
REMARK VINA RESULT:      -4.0     11.589     12.284
REMARK  1 active torsions:
REMARK  status: ('A' for Active; 'I' for Inactive)
REMARK    1  A    between atoms: C1_1  and  C4_4 
ROOT
HETATM    1  C1  UNL     1     -34.730  16.040  -1.876  1.00 20.00    -0.079 C 
HETATM    2  C2  UNL     1     -34.526  16.795  -0.965  1.00 20.00    -0.106 C 
HETATM    3  C7  UNL     1     -34.279  17.714   0.145  1.00 20.00     0.112 C 
ENDROOT
BRANCH   1   4
HETATM    4  C4  UNL     1     -34.968  15.147  -2.958  1.00 20.00     0.070 C 
HETATM    5  C3  UNL     1     -34.325  15.257  -4.118  1.00 20.00    -0.017 C 
HETATM    6  C5  UNL     1     -34.348  14.497  -5.416  1.00 20.00     0.306 C 
HETATM    7  C6  UNL     1     -33.276  16.185  -4.664  1.00 20.00     0.306 C 
HETATM    8  N8  UNL     1     -33.606  15.633  -5.986  1.00 20.00     0.091 N 
HETATM    9  H17 UNL     1     -32.802  15.376  -6.558  1.00 20.00     0.316 HD
ENDBRANCH   1   4
TORSDOF 1
ENDMDL
MODEL 4
REMARK VINA RESULT:      -3.9     11.388     11.659
REMARK  1 active torsions:
REMARK  status: ('A' for Active; 'I' for Inactive)
REMARK    1  A    between atoms: C1_1  and  C4_4 
ROOT
HETATM    1  C1  UNL     1     -34.269  16.503  -1.493  1.00 20.00    -0.079 C 
HETATM    2  C2  UNL     1     -34.681  16.955  -0.460  1.00 20.00    -0.106 C 
HETATM    3  C7  UNL     1     -35.185  17.506   0.798  1.00 20.00     0.112 C 
ENDROOT
BRANCH   1   4
HETATM    4  C4  UNL     1     -33.777  15.967  -2.715  1.00 20.00     0.070 C 
HETATM    5  C3  UNL     1     -34.549  15.259  -3.537  1.00 20.00    -0.017 C 
HETATM    6  C5  UNL     1     -34.339  14.577  -4.861  1.00 20.00     0.306 C 
HETATM    7  C6  UNL     1     -35.987  14.822  -3.524  1.00 20.00     0.306 C 
HETATM    8  N8  UNL     1     -35.622  13.901  -4.611  1.00 20.00     0.091 N 
HETATM    9  H17 UNL     1     -36.264  13.893  -5.403  1.00 20.00     0.316 HD
ENDBRANCH   1   4
TORSDOF 1
ENDMDL
MODEL 5
REMARK VINA RESULT:      -3.9     11.991     13.006
REMARK  1 active torsions:
REMARK  status: ('A' for Active; 'I' for Inactive)
REMARK    1  A    between atoms: C1_1  and  C4_4 
ROOT
HETATM    1  C1  UNL     1     -34.403  16.510  -1.387  1.00 20.00    -0.079 C 
HETATM    2  C2  UNL     1     -34.756  16.974  -0.337  1.00 20.00    -0.106 C 
HETATM    3  C7  UNL     1     -35.187  17.539   0.941  1.00 20.00     0.112 C 
ENDROOT
BRANCH   1   4
HETATM    4  C4  UNL     1     -33.986  15.961  -2.631  1.00 20.00     0.070 C 
HETATM    5  C3  UNL     1     -33.697  16.730  -3.680  1.00 20.00    -0.017 C 
HETATM    6  C5  UNL     1     -33.243  16.468  -5.089  1.00 20.00     0.306 C 
HETATM    7  C6  UNL     1     -33.684  18.211  -3.935  1.00 20.00     0.306 C 
HETATM    8  N8  UNL     1     -33.592  17.871  -5.363  1.00 20.00     0.091 N 
HETATM    9  H17 UNL     1     -32.890  18.394  -5.885  1.00 20.00     0.316 HD
ENDBRANCH   1   4
TORSDOF 1
ENDMDL
MODEL 6
REMARK VINA RESULT:      -3.9      2.624      4.738
REMARK  1 active torsions:
REMARK  status: ('A' for Active; 'I' for Inactive)
REMARK    1  A    between atoms: C1_1  and  C4_4 
ROOT
HETATM    1  C1  UNL     1     -33.003   6.533   3.858  1.00 20.00    -0.079 C 
HETATM    2  C2  UNL     1     -33.601   6.319   4.877  1.00 20.00    -0.106 C 
HETATM    3  C7  UNL     1     -34.327   6.059   6.120  1.00 20.00     0.112 C 
ENDROOT
BRANCH   1   4
HETATM    4  C4  UNL     1     -32.296   6.784   2.649  1.00 20.00     0.070 C 
HETATM    5  C3  UNL     1     -32.218   8.002   2.117  1.00 20.00    -0.017 C 
HETATM    6  C5  UNL     1     -31.568   8.580   0.890  1.00 20.00     0.306 C 
HETATM    7  C6  UNL     1     -32.735   9.360   2.500  1.00 20.00     0.306 C 
HETATM    8  N8  UNL     1     -32.389   9.776   1.133  1.00 20.00     0.091 N 
HETATM    9  H17 UNL     1     -31.887  10.662   1.067  1.00 20.00     0.316 HD
ENDBRANCH   1   4
TORSDOF 1
ENDMDL
MODEL 7
REMARK VINA RESULT:      -3.8      9.303     10.642
REMARK  1 active torsions:
REMARK  status: ('A' for Active; 'I' for Inactive)
REMARK    1  A    between atoms: C1_1  and  C4_4 
ROOT
HETATM    1  C1  UNL     1     -41.331   3.511  -2.298  1.00 20.00    -0.079 C 
HETATM    2  C2  UNL     1     -41.600   2.643  -3.083  1.00 20.00    -0.106 C 
HETATM    3  C7  UNL     1     -41.928   1.585  -4.038  1.00 20.00     0.112 C 
ENDROOT
BRANCH   1   4
HETATM    4  C4  UNL     1     -41.012   4.541  -1.371  1.00 20.00     0.070 C 
HETATM    5  C3  UNL     1     -41.384   5.805  -1.565  1.00 20.00    -0.017 C 
HETATM    6  C5  UNL     1     -41.210   7.088  -0.799  1.00 20.00     0.306 C 
HETATM    7  C6  UNL     1     -42.152   6.530  -2.634  1.00 20.00     0.306 C 
HETATM    8  N8  UNL     1     -41.647   7.770  -2.028  1.00 20.00     0.091 N 
HETATM    9  H17 UNL     1     -42.347   8.498  -1.888  1.00 20.00     0.316 HD
ENDBRANCH   1   4
TORSDOF 1
ENDMDL
MODEL 8
REMARK VINA RESULT:      -3.6     11.747     12.176
REMARK  1 active torsions:
REMARK  status: ('A' for Active; 'I' for Inactive)
REMARK    1  A    between atoms: C1_1  and  C4_4 
ROOT
HETATM    1  C1  UNL     1     -34.197  16.493  -1.637  1.00 20.00    -0.079 C 
HETATM    2  C2  UNL     1     -33.772  16.074  -2.679  1.00 20.00    -0.106 C 
HETATM    3  C7  UNL     1     -33.254  15.566  -3.949  1.00 20.00     0.112 C 
ENDROOT
BRANCH   1   4
HETATM    4  C4  UNL     1     -34.704  16.988  -0.403  1.00 20.00     0.070 C 
HETATM    5  C3  UNL     1     -34.055  17.907   0.308  1.00 20.00    -0.017 C 
HETATM    6  C5  UNL     1     -34.314  18.614   1.610  1.00 20.00     0.306 C 
HETATM    7  C6  UNL     1     -32.769  18.665   0.136  1.00 20.00     0.306 C 
HETATM    8  N8  UNL     1     -32.908  19.041   1.551  1.00 20.00     0.091 N 
HETATM    9  H17 UNL     1     -32.750  20.028   1.752  1.00 20.00     0.316 HD
ENDBRANCH   1   4
TORSDOF 1
ENDMDL
MODEL 9
REMARK VINA RESULT:      -3.5     11.661     12.794
REMARK  1 active torsions:
REMARK  status: ('A' for Active; 'I' for Inactive)
REMARK    1  A    between atoms: C1_1  and  C4_4 
ROOT
HETATM    1  C1  UNL     1     -33.877  16.242  -3.377  1.00 20.00    -0.079 C 
HETATM    2  C2  UNL     1     -34.184  16.418  -2.230  1.00 20.00    -0.106 C 
HETATM    3  C7  UNL     1     -34.559  16.633  -0.832  1.00 20.00     0.112 C 
ENDROOT
BRANCH   1   4
HETATM    4  C4  UNL     1     -33.511  16.033  -4.736  1.00 20.00     0.070 C 
HETATM    5  C3  UNL     1     -34.336  15.461  -5.610  1.00 20.00    -0.017 C 
HETATM    6  C5  UNL     1     -34.253  15.109  -7.070  1.00 20.00     0.306 C 
HETATM    7  C6  UNL     1     -35.733  14.911  -5.542  1.00 20.00     0.306 C 
HETATM    8  N8  UNL     1     -35.452  14.287  -6.844  1.00 20.00     0.091 N 
HETATM    9  H17 UNL     1     -36.186  14.399  -7.543  1.00 20.00     0.316 HD
ENDBRANCH   1   4
TORSDOF 1
ENDMDL
