MODEL 1
REMARK VINA RESULT:      -4.7      0.000      0.000
REMARK  2 active torsions:
REMARK  status: ('A' for Active; 'I' for Inactive)
REMARK    1  A    between atoms: C2_2  and  C6_6 
REMARK    2  A    between atoms: C6_6  and  O9_9 
ROOT
HETATM    1  C3  UNL     1     -34.233  15.334  -3.090  1.00 20.00     0.058 C 
HETATM    2  C4  UNL     1     -34.340  17.052  -4.833  1.00 20.00     0.116 C 
HETATM    3  C5  UNL     1     -33.821  16.532  -2.235  1.00 20.00     0.046 C 
HETATM    4  C6  UNL     1     -33.817  15.646  -4.530  1.00 20.00     0.089 C 
HETATM    5  C8  UNL     1     -34.567  16.595  -0.913  1.00 20.00     0.021 C 
HETATM    6  S10 UNL     1     -34.185  17.982  -3.275  1.00 20.00    -0.161 SA
ENDROOT
BRANCH   4   7
HETATM    7  C2  UNL     1     -34.352  14.624  -5.485  1.00 20.00    -0.058 C 
HETATM    8  C1  UNL     1     -34.471  14.874  -6.797  1.00 20.00     0.017 C 
HETATM    9  C7  UNL     1     -34.747  13.306  -4.889  1.00 20.00     0.046 C 
ENDBRANCH   4   7
BRANCH   4  10
HETATM   10  O9  UNL     1     -32.391  15.634  -4.615  1.00 20.00    -0.385 OA
HETATM   11  H24 UNL     1     -32.170  15.231  -5.468  1.00 20.00     0.211 HD
ENDBRANCH   4  10
TORSDOF 2
ENDMDL
MODEL 2
REMARK VINA RESULT:      -4.3      1.847      3.959
REMARK  2 active torsions:
REMARK  status: ('A' for Active; 'I' for Inactive)
REMARK    1  A    between atoms: C2_2  and  C6_6 
REMARK    2  A    between atoms: C6_6  and  O9_9 
ROOT
HETATM    1  C3  UNL     1     -34.561  15.920  -5.349  1.00 20.00     0.058 C 
HETATM    2  C4  UNL     1     -34.241  14.364  -3.485  1.00 20.00     0.116 C 
HETATM    3  C5  UNL     1     -34.509  14.624  -6.159  1.00 20.00     0.046 C 
HETATM    4  C6  UNL     1     -33.746  15.685  -4.074  1.00 20.00     0.089 C 
HETATM    5  C8  UNL     1     -35.627  14.528  -7.183  1.00 20.00     0.021 C 
HETATM    6  S10 UNL     1     -34.632  13.302  -4.912  1.00 20.00    -0.161 SA
ENDROOT
BRANCH   4   7
HETATM    7  C2  UNL     1     -33.895  16.826  -3.115  1.00 20.00    -0.058 C 
HETATM    8  C1  UNL     1     -33.720  18.100  -3.497  1.00 20.00     0.017 C 
HETATM    9  C7  UNL     1     -34.253  16.461  -1.705  1.00 20.00     0.046 C 
ENDBRANCH   4   7
BRANCH   4  10
HETATM   10  O9  UNL     1     -32.365  15.570  -4.421  1.00 20.00    -0.385 OA
HETATM   11  H24 UNL     1     -32.272  15.949  -5.308  1.00 20.00     0.211 HD
ENDBRANCH   4  10
TORSDOF 2
ENDMDL
MODEL 3
REMARK VINA RESULT:      -3.9      2.248      4.202
REMARK  2 active torsions:
REMARK  status: ('A' for Active; 'I' for Inactive)
REMARK    1  A    between atoms: C2_2  and  C6_6 
REMARK    2  A    between atoms: C6_6  and  O9_9 
ROOT
HETATM    1  C3  UNL     1     -34.680  14.943  -3.004  1.00 20.00     0.058 C 
HETATM    2  C4  UNL     1     -35.217  17.029  -4.169  1.00 20.00     0.116 C 
HETATM    3  C5  UNL     1     -35.357  14.334  -4.231  1.00 20.00     0.046 C 
HETATM    4  C6  UNL     1     -35.280  16.338  -2.806  1.00 20.00     0.089 C 
HETATM    5  C8  UNL     1     -34.561  13.188  -4.833  1.00 20.00     0.021 C 
HETATM    6  S10 UNL     1     -35.515  15.721  -5.401  1.00 20.00    -0.161 SA
ENDROOT
BRANCH   4   7
HETATM    7  C2  UNL     1     -34.546  17.101  -1.747  1.00 20.00    -0.058 C 
HETATM    8  C1  UNL     1     -34.681  16.813  -0.444  1.00 20.00     0.017 C 
HETATM    9  C7  UNL     1     -33.651  18.204  -2.229  1.00 20.00     0.046 C 
ENDBRANCH   4   7
BRANCH   4  10
HETATM   10  O9  UNL     1     -36.643  16.204  -2.397  1.00 20.00    -0.385 OA
HETATM   11  H24 UNL     1     -36.653  16.316  -1.434  1.00 20.00     0.211 HD
ENDBRANCH   4  10
TORSDOF 2
ENDMDL
MODEL 4
REMARK VINA RESULT:      -3.9      2.398      4.142
REMARK  2 active torsions:
REMARK  status: ('A' for Active; 'I' for Inactive)
REMARK    1  A    between atoms: C2_2  and  C6_6 
REMARK    2  A    between atoms: C6_6  and  O9_9 
ROOT
HETATM    1  C3  UNL     1     -34.680  14.631  -5.806  1.00 20.00     0.058 C 
HETATM    2  C4  UNL     1     -36.265  15.031  -3.982  1.00 20.00     0.116 C 
HETATM    3  C5  UNL     1     -35.972  14.492  -6.611  1.00 20.00     0.046 C 
HETATM    4  C6  UNL     1     -35.008  14.246  -4.360  1.00 20.00     0.089 C 
HETATM    5  C8  UNL     1     -35.939  15.273  -7.914  1.00 20.00     0.021 C 
HETATM    6  S10 UNL     1     -37.273  15.111  -5.497  1.00 20.00    -0.161 SA
ENDROOT
BRANCH   4   7
HETATM    7  C2  UNL     1     -33.859  14.538  -3.445  1.00 20.00    -0.058 C 
HETATM    8  C1  UNL     1     -32.779  13.744  -3.390  1.00 20.00     0.017 C 
HETATM    9  C7  UNL     1     -33.986  15.767  -2.597  1.00 20.00     0.046 C 
ENDBRANCH   4   7
BRANCH   4  10
HETATM   10  O9  UNL     1     -35.281  12.845  -4.304  1.00 20.00    -0.385 OA
HETATM   11  H24 UNL     1     -34.427  12.395  -4.387  1.00 20.00     0.211 HD
ENDBRANCH   4  10
TORSDOF 2
ENDMDL
MODEL 5
REMARK VINA RESULT:      -3.8     12.925     14.599
REMARK  2 active torsions:
REMARK  status: ('A' for Active; 'I' for Inactive)
REMARK    1  A    between atoms: C2_2  and  C6_6 
REMARK    2  A    between atoms: C6_6  and  O9_9 
ROOT
HETATM    1  C3  UNL     1     -41.169   3.561  -2.398  1.00 20.00     0.058 C 
HETATM    2  C4  UNL     1     -43.222   4.789  -2.923  1.00 20.00     0.116 C 
HETATM    3  C5  UNL     1     -41.972   2.396  -2.976  1.00 20.00     0.046 C 
HETATM    4  C6  UNL     1     -42.177   4.563  -1.829  1.00 20.00     0.089 C 
HETATM    5  C8  UNL     1     -41.177   1.574  -3.976  1.00 20.00     0.021 C 
HETATM    6  S10 UNL     1     -43.417   3.182  -3.759  1.00 20.00    -0.161 SA
ENDROOT
BRANCH   4   7
HETATM    7  C2  UNL     1     -41.505   5.836  -1.415  1.00 20.00    -0.058 C 
HETATM    8  C1  UNL     1     -40.714   5.899  -0.333  1.00 20.00     0.017 C 
HETATM    9  C7  UNL     1     -41.767   7.033  -2.279  1.00 20.00     0.046 C 
ENDBRANCH   4   7
BRANCH   4  10
HETATM   10  O9  UNL     1     -42.802   3.991  -0.678  1.00 20.00    -0.385 OA
HETATM   11  H24 UNL     1     -42.935   3.052  -0.877  1.00 20.00     0.211 HD
ENDBRANCH   4  10
TORSDOF 2
ENDMDL
MODEL 6
REMARK VINA RESULT:      -3.8      1.814      3.369
REMARK  2 active torsions:
REMARK  status: ('A' for Active; 'I' for Inactive)
REMARK    1  A    between atoms: C2_2  and  C6_6 
REMARK    2  A    between atoms: C6_6  and  O9_9 
ROOT
HETATM    1  C3  UNL     1     -34.534  17.221  -4.786  1.00 20.00     0.058 C 
HETATM    2  C4  UNL     1     -34.486  15.152  -6.096  1.00 20.00     0.116 C 
HETATM    3  C5  UNL     1     -34.349  17.848  -6.168  1.00 20.00     0.046 C 
HETATM    4  C6  UNL     1     -33.918  15.820  -4.842  1.00 20.00     0.089 C 
HETATM    5  C8  UNL     1     -35.298  19.007  -6.418  1.00 20.00     0.021 C 
HETATM    6  S10 UNL     1     -34.647  16.480  -7.333  1.00 20.00    -0.161 SA
ENDROOT
BRANCH   4   7
HETATM    7  C2  UNL     1     -34.220  15.042  -3.599  1.00 20.00    -0.058 C 
HETATM    8  C1  UNL     1     -34.249  13.701  -3.592  1.00 20.00     0.017 C 
HETATM    9  C7  UNL     1     -34.488  15.848  -2.364  1.00 20.00     0.046 C 
ENDBRANCH   4   7
BRANCH   4  10
HETATM   10  O9  UNL     1     -32.500  15.940  -4.962  1.00 20.00    -0.385 OA
HETATM   11  H24 UNL     1     -32.156  16.043  -4.061  1.00 20.00     0.211 HD
ENDBRANCH   4  10
TORSDOF 2
ENDMDL
MODEL 7
REMARK VINA RESULT:      -3.8      1.445      1.812
REMARK  2 active torsions:
REMARK  status: ('A' for Active; 'I' for Inactive)
REMARK    1  A    between atoms: C2_2  and  C6_6 
REMARK    2  A    between atoms: C6_6  and  O9_9 
ROOT
HETATM    1  C3  UNL     1     -34.080  16.056  -2.451  1.00 20.00     0.058 C 
HETATM    2  C4  UNL     1     -36.014  16.406  -3.913  1.00 20.00     0.116 C 
HETATM    3  C5  UNL     1     -34.663  17.280  -1.745  1.00 20.00     0.046 C 
HETATM    4  C6  UNL     1     -34.508  16.139  -3.919  1.00 20.00     0.089 C 
HETATM    5  C8  UNL     1     -34.740  17.107  -0.237  1.00 20.00     0.021 C 
HETATM    6  S10 UNL     1     -36.319  17.484  -2.477  1.00 20.00    -0.161 SA
ENDROOT
BRANCH   4   7
HETATM    7  C2  UNL     1     -34.156  14.886  -4.660  1.00 20.00    -0.058 C 
HETATM    8  C1  UNL     1     -33.629  13.821  -4.038  1.00 20.00     0.017 C 
HETATM    9  C7  UNL     1     -34.429  14.891  -6.134  1.00 20.00     0.046 C 
ENDBRANCH   4   7
BRANCH   4  10
HETATM   10  O9  UNL     1     -33.828  17.232  -4.540  1.00 20.00    -0.385 OA
HETATM   11  H24 UNL     1     -33.176  16.843  -5.143  1.00 20.00     0.211 HD
ENDBRANCH   4  10
TORSDOF 2
ENDMDL
MODEL 8
REMARK VINA RESULT:      -3.7      2.197      3.104
REMARK  2 active torsions:
REMARK  status: ('A' for Active; 'I' for Inactive)
REMARK    1  A    between atoms: C2_2  and  C6_6 
REMARK    2  A    between atoms: C6_6  and  O9_9 
ROOT
HETATM    1  C3  UNL     1     -33.492  16.713  -5.245  1.00 20.00     0.058 C 
HETATM    2  C4  UNL     1     -35.762  15.877  -5.629  1.00 20.00     0.116 C 
HETATM    3  C5  UNL     1     -33.959  17.799  -6.214  1.00 20.00     0.046 C 
HETATM    4  C6  UNL     1     -34.294  15.449  -5.567  1.00 20.00     0.089 C 
HETATM    5  C8  UNL     1     -33.624  19.200  -5.730  1.00 20.00     0.021 C 
HETATM    6  S10 UNL     1     -35.758  17.552  -6.344  1.00 20.00    -0.161 SA
ENDROOT
BRANCH   4   7
HETATM    7  C2  UNL     1     -34.057  14.379  -4.546  1.00 20.00    -0.058 C 
HETATM    8  C1  UNL     1     -34.844  13.296  -4.460  1.00 20.00     0.017 C 
HETATM    9  C7  UNL     1     -32.891  14.588  -3.628  1.00 20.00     0.046 C 
ENDBRANCH   4   7
BRANCH   4  10
HETATM   10  O9  UNL     1     -33.885  14.951  -6.842  1.00 20.00    -0.385 OA
HETATM   11  H24 UNL     1     -33.471  15.694  -7.307  1.00 20.00     0.211 HD
ENDBRANCH   4  10
TORSDOF 2
ENDMDL
MODEL 9
REMARK VINA RESULT:      -3.7      2.222      4.477
REMARK  2 active torsions:
REMARK  status: ('A' for Active; 'I' for Inactive)
REMARK    1  A    between atoms: C2_2  and  C6_6 
REMARK    2  A    between atoms: C6_6  and  O9_9 
ROOT
HETATM    1  C3  UNL     1     -34.478  15.800  -2.024  1.00 20.00     0.058 C 
HETATM    2  C4  UNL     1     -33.748  17.931  -2.985  1.00 20.00     0.116 C 
HETATM    3  C5  UNL     1     -34.752  15.477  -3.493  1.00 20.00     0.046 C 
HETATM    4  C6  UNL     1     -34.596  17.319  -1.869  1.00 20.00     0.089 C 
HETATM    5  C8  UNL     1     -34.218  14.116  -3.904  1.00 20.00     0.021 C 
HETATM    6  S10 UNL     1     -33.936  16.819  -4.415  1.00 20.00    -0.161 SA
ENDROOT
BRANCH   4   7
HETATM    7  C2  UNL     1     -34.152  17.763  -0.510  1.00 20.00    -0.058 C 
HETATM    8  C1  UNL     1     -32.996  18.418  -0.322  1.00 20.00     0.017 C 
HETATM    9  C7  UNL     1     -35.072  17.435   0.626  1.00 20.00     0.046 C 
ENDBRANCH   4   7
BRANCH   4  10
HETATM   10  O9  UNL     1     -35.963  17.699  -2.040  1.00 20.00    -0.385 OA
HETATM   11  H24 UNL     1     -36.296  17.191  -2.796  1.00 20.00     0.211 HD
ENDBRANCH   4  10
TORSDOF 2
ENDMDL
