MODEL 1
REMARK VINA RESULT:      -4.7      0.000      0.000
REMARK  1 active torsions:
REMARK  status: ('A' for Active; 'I' for Inactive)
REMARK    1  A    between atoms: C7_7  and  C11_11 
ROOT
HETATM    1  C1  UNL     1     -35.452  17.617  -1.247  1.00 20.00     0.030 C 
HETATM    2  C2  UNL     1     -34.432  16.498  -1.345  1.00 20.00     0.036 C 
HETATM    3  C3  UNL     1     -33.672  15.132  -3.367  1.00 20.00     0.305 C 
HETATM    4  C4  UNL     1     -35.611  18.052  -2.688  1.00 20.00     0.235 C 
HETATM    5  C5  UNL     1     -35.099  16.859  -4.864  1.00 20.00     0.271 C 
HETATM    6  C6  UNL     1     -34.847  15.727  -2.596  1.00 20.00     0.216 C 
HETATM    7  C7  UNL     1     -34.974  15.443  -5.438  1.00 20.00     0.251 C 
HETATM    8  C10 UNL     1     -34.513  13.214  -4.591  1.00 20.00     0.310 C 
HETATM    9  N12 UNL     1     -34.032  14.592  -4.684  1.00 20.00     0.092 N 
HETATM   10  N13 UNL     1     -35.590  16.747  -3.448  1.00 20.00    -0.063 N 
HETATM   11  H36 UNL     1     -36.598  16.396  -3.523  1.00 20.00     0.280 HD
ENDROOT
BRANCH   7  12
HETATM   12  C11 UNL     1     -34.507  15.519  -6.893  1.00 20.00     0.012 C 
HETATM   13  C8  UNL     1     -35.351  14.598  -7.767  1.00 20.00     0.012 C 
HETATM   14  C9  UNL     1     -34.571  16.955  -7.395  1.00 20.00     0.012 C 
ENDBRANCH   7  12
TORSDOF 1
ENDMDL
MODEL 2
REMARK VINA RESULT:      -4.5      1.824      3.033
REMARK  1 active torsions:
REMARK  status: ('A' for Active; 'I' for Inactive)
REMARK    1  A    between atoms: C7_7  and  C11_11 
ROOT
HETATM    1  C1  UNL     1     -33.795  18.517  -0.003  1.00 20.00     0.030 C 
HETATM    2  C2  UNL     1     -33.947  19.151  -1.374  1.00 20.00     0.036 C 
HETATM    3  C3  UNL     1     -34.537  18.094  -3.624  1.00 20.00     0.305 C 
HETATM    4  C4  UNL     1     -34.499  17.187  -0.170  1.00 20.00     0.235 C 
HETATM    5  C5  UNL     1     -35.068  15.843  -2.241  1.00 20.00     0.271 C 
HETATM    6  C6  UNL     1     -33.711  17.996  -2.344  1.00 20.00     0.216 C 
HETATM    7  C7  UNL     1     -34.593  15.629  -3.683  1.00 20.00     0.251 C 
HETATM    8  C10 UNL     1     -33.339  16.877  -5.346  1.00 20.00     0.310 C 
HETATM    9  N12 UNL     1     -34.498  16.884  -4.454  1.00 20.00     0.092 N 
HETATM   10  N13 UNL     1     -34.085  16.749  -1.555  1.00 20.00    -0.063 N 
HETATM   11  H36 UNL     1     -33.186  16.175  -1.461  1.00 20.00     0.280 HD
ENDROOT
BRANCH   7  12
HETATM   12  C11 UNL     1     -35.554  14.683  -4.405  1.00 20.00     0.012 C 
HETATM   13  C8  UNL     1     -35.045  13.249  -4.323  1.00 20.00     0.012 C 
HETATM   14  C9  UNL     1     -36.953  14.798  -3.813  1.00 20.00     0.012 C 
ENDBRANCH   7  12
TORSDOF 1
ENDMDL
MODEL 3
REMARK VINA RESULT:      -4.4      1.306      5.058
REMARK  1 active torsions:
REMARK  status: ('A' for Active; 'I' for Inactive)
REMARK    1  A    between atoms: C7_7  and  C11_11 
ROOT
HETATM    1  C1  UNL     1     -34.775  14.392  -6.225  1.00 20.00     0.030 C 
HETATM    2  C2  UNL     1     -34.165  15.781  -6.274  1.00 20.00     0.036 C 
HETATM    3  C3  UNL     1     -33.731  17.459  -4.397  1.00 20.00     0.305 C 
HETATM    4  C4  UNL     1     -34.673  14.034  -4.758  1.00 20.00     0.235 C 
HETATM    5  C5  UNL     1     -34.405  15.481  -2.696  1.00 20.00     0.271 C 
HETATM    6  C6  UNL     1     -34.708  16.468  -5.024  1.00 20.00     0.216 C 
HETATM    7  C7  UNL     1     -34.699  16.901  -2.198  1.00 20.00     0.251 C 
HETATM    8  C10 UNL     1     -35.048  19.094  -3.181  1.00 20.00     0.310 C 
HETATM    9  N12 UNL     1     -34.143  17.950  -3.076  1.00 20.00     0.092 N 
HETATM   10  N13 UNL     1     -35.014  15.330  -4.061  1.00 20.00    -0.063 N 
HETATM   11  H36 UNL     1     -36.072  15.347  -3.904  1.00 20.00     0.280 HD
ENDROOT
BRANCH   7  12
HETATM   12  C11 UNL     1     -34.121  17.082  -0.793  1.00 20.00     0.012 C 
HETATM   13  C8  UNL     1     -33.046  18.163  -0.799  1.00 20.00     0.012 C 
HETATM   14  C9  UNL     1     -35.229  17.422   0.195  1.00 20.00     0.012 C 
ENDBRANCH   7  12
TORSDOF 1
ENDMDL
MODEL 4
REMARK VINA RESULT:      -4.4      1.385      4.837
REMARK  1 active torsions:
REMARK  status: ('A' for Active; 'I' for Inactive)
REMARK    1  A    between atoms: C7_7  and  C11_11 
ROOT
HETATM    1  C1  UNL     1     -34.789  13.437  -5.273  1.00 20.00     0.030 C 
HETATM    2  C2  UNL     1     -34.486  14.804  -5.858  1.00 20.00     0.036 C 
HETATM    3  C3  UNL     1     -34.449  17.103  -4.743  1.00 20.00     0.305 C 
HETATM    4  C4  UNL     1     -34.639  13.669  -3.784  1.00 20.00     0.235 C 
HETATM    5  C5  UNL     1     -34.719  15.792  -2.405  1.00 20.00     0.271 C 
HETATM    6  C6  UNL     1     -35.184  15.776  -4.909  1.00 20.00     0.216 C 
HETATM    7  C7  UNL     1     -35.316  17.204  -2.436  1.00 20.00     0.251 C 
HETATM    8  C10 UNL     1     -36.103  18.765  -4.121  1.00 20.00     0.310 C 
HETATM    9  N12 UNL     1     -34.979  17.949  -3.666  1.00 20.00     0.092 N 
HETATM   10  N13 UNL     1     -35.258  15.031  -3.583  1.00 20.00    -0.063 N 
HETATM   11  H36 UNL     1     -36.299  14.890  -3.378  1.00 20.00     0.280 HD
ENDROOT
BRANCH   7  12
HETATM   12  C11 UNL     1     -34.813  18.000  -1.230  1.00 20.00     0.012 C 
HETATM   13  C8  UNL     1     -34.812  17.125   0.017  1.00 20.00     0.012 C 
HETATM   14  C9  UNL     1     -33.422  18.557  -1.506  1.00 20.00     0.012 C 
ENDBRANCH   7  12
TORSDOF 1
ENDMDL
MODEL 5
REMARK VINA RESULT:      -4.3      1.638      4.275
REMARK  1 active torsions:
REMARK  status: ('A' for Active; 'I' for Inactive)
REMARK    1  A    between atoms: C7_7  and  C11_11 
ROOT
HETATM    1  C1  UNL     1     -37.266  16.420  -6.415  1.00 20.00     0.030 C 
HETATM    2  C2  UNL     1     -36.742  15.133  -5.805  1.00 20.00     0.036 C 
HETATM    3  C3  UNL     1     -35.119  14.768  -3.866  1.00 20.00     0.305 C 
HETATM    4  C4  UNL     1     -36.961  17.446  -5.344  1.00 20.00     0.235 C 
HETATM    5  C5  UNL     1     -35.312  17.418  -3.422  1.00 20.00     0.271 C 
HETATM    6  C6  UNL     1     -35.430  15.545  -5.142  1.00 20.00     0.216 C 
HETATM    7  C7  UNL     1     -33.979  16.781  -3.012  1.00 20.00     0.251 C 
HETATM    8  C10 UNL     1     -32.710  14.790  -3.581  1.00 20.00     0.310 C 
HETATM    9  N12 UNL     1     -33.990  15.307  -3.098  1.00 20.00     0.092 N 
HETATM   10  N13 UNL     1     -35.599  17.028  -4.844  1.00 20.00    -0.063 N 
HETATM   11  H36 UNL     1     -34.864  17.536  -5.432  1.00 20.00     0.280 HD
ENDROOT
BRANCH   7  12
HETATM   12  C11 UNL     1     -33.636  17.184  -1.577  1.00 20.00     0.012 C 
HETATM   13  C8  UNL     1     -33.420  18.691  -1.488  1.00 20.00     0.012 C 
HETATM   14  C9  UNL     1     -34.737  16.736  -0.624  1.00 20.00     0.012 C 
ENDBRANCH   7  12
TORSDOF 1
ENDMDL
MODEL 6
REMARK VINA RESULT:      -4.2      1.570      4.481
REMARK  1 active torsions:
REMARK  status: ('A' for Active; 'I' for Inactive)
REMARK    1  A    between atoms: C7_7  and  C11_11 
ROOT
HETATM    1  C1  UNL     1     -34.124  18.383  -7.516  1.00 20.00     0.030 C 
HETATM    2  C2  UNL     1     -34.694  17.005  -7.235  1.00 20.00     0.036 C 
HETATM    3  C3  UNL     1     -34.844  15.699  -5.043  1.00 20.00     0.305 C 
HETATM    4  C4  UNL     1     -34.056  19.005  -6.138  1.00 20.00     0.235 C 
HETATM    5  C5  UNL     1     -34.025  17.962  -3.830  1.00 20.00     0.271 C 
HETATM    6  C6  UNL     1     -33.981  16.564  -5.958  1.00 20.00     0.216 C 
HETATM    7  C7  UNL     1     -33.631  16.660  -3.123  1.00 20.00     0.251 C 
HETATM    8  C10 UNL     1     -33.340  14.326  -3.726  1.00 20.00     0.310 C 
HETATM    9  N12 UNL     1     -34.259  15.463  -3.718  1.00 20.00     0.092 N 
HETATM   10  N13 UNL     1     -33.593  17.863  -5.266  1.00 20.00    -0.063 N 
HETATM   11  H36 UNL     1     -32.524  17.881  -5.243  1.00 20.00     0.280 HD
ENDROOT
BRANCH   7  12
HETATM   12  C11 UNL     1     -34.027  16.737  -1.647  1.00 20.00     0.012 C 
HETATM   13  C8  UNL     1     -33.262  17.858  -0.953  1.00 20.00     0.012 C 
HETATM   14  C9  UNL     1     -35.530  16.940  -1.513  1.00 20.00     0.012 C 
ENDBRANCH   7  12
TORSDOF 1
ENDMDL
MODEL 7
REMARK VINA RESULT:      -4.1      1.494      2.892
REMARK  1 active torsions:
REMARK  status: ('A' for Active; 'I' for Inactive)
REMARK    1  A    between atoms: C7_7  and  C11_11 
ROOT
HETATM    1  C1  UNL     1     -35.083  17.964  -0.200  1.00 20.00     0.030 C 
HETATM    2  C2  UNL     1     -36.321  18.214  -1.043  1.00 20.00     0.036 C 
HETATM    3  C3  UNL     1     -37.020  17.207  -3.285  1.00 20.00     0.305 C 
HETATM    4  C4  UNL     1     -34.555  16.660  -0.760  1.00 20.00     0.235 C 
HETATM    5  C5  UNL     1     -34.947  15.512  -2.983  1.00 20.00     0.271 C 
HETATM    6  C6  UNL     1     -35.894  17.816  -2.454  1.00 20.00     0.216 C 
HETATM    7  C7  UNL     1     -35.323  15.835  -4.434  1.00 20.00     0.251 C 
HETATM    8  C10 UNL     1     -36.488  17.607  -5.617  1.00 20.00     0.310 C 
HETATM    9  N12 UNL     1     -36.574  16.611  -4.550  1.00 20.00     0.092 N 
HETATM   10  N13 UNL     1     -34.771  16.809  -2.247  1.00 20.00    -0.063 N 
HETATM   11  H36 UNL     1     -33.890  17.255  -2.661  1.00 20.00     0.280 HD
ENDROOT
BRANCH   7  12
HETATM   12  C11 UNL     1     -35.479  14.535  -5.226  1.00 20.00     0.012 C 
HETATM   13  C8  UNL     1     -34.630  14.581  -6.491  1.00 20.00     0.012 C 
HETATM   14  C9  UNL     1     -35.100  13.340  -4.360  1.00 20.00     0.012 C 
ENDBRANCH   7  12
TORSDOF 1
ENDMDL
MODEL 8
REMARK VINA RESULT:      -4.1      2.417      3.949
REMARK  1 active torsions:
REMARK  status: ('A' for Active; 'I' for Inactive)
REMARK    1  A    between atoms: C7_7  and  C11_11 
ROOT
HETATM    1  C1  UNL     1     -39.715  15.728  -3.805  1.00 20.00     0.030 C 
HETATM    2  C2  UNL     1     -38.967  17.046  -3.892  1.00 20.00     0.036 C 
HETATM    3  C3  UNL     1     -36.471  17.544  -3.670  1.00 20.00     0.305 C 
HETATM    4  C4  UNL     1     -38.614  14.706  -3.994  1.00 20.00     0.235 C 
HETATM    5  C5  UNL     1     -36.104  14.874  -3.693  1.00 20.00     0.271 C 
HETATM    6  C6  UNL     1     -37.678  16.792  -3.115  1.00 20.00     0.216 C 
HETATM    7  C7  UNL     1     -35.055  15.672  -2.910  1.00 20.00     0.251 C 
HETATM    8  C10 UNL     1     -34.910  17.846  -1.838  1.00 20.00     0.310 C 
HETATM    9  N12 UNL     1     -35.189  17.132  -3.083  1.00 20.00     0.092 N 
HETATM   10  N13 UNL     1     -37.464  15.287  -3.206  1.00 20.00    -0.063 N 
HETATM   11  H36 UNL     1     -37.533  14.915  -2.205  1.00 20.00     0.280 HD
ENDROOT
BRANCH   7  12
HETATM   12  C11 UNL     1     -33.653  15.254  -3.358  1.00 20.00     0.012 C 
HETATM   13  C8  UNL     1     -33.641  13.780  -3.747  1.00 20.00     0.012 C 
HETATM   14  C9  UNL     1     -33.185  16.127  -4.514  1.00 20.00     0.012 C 
ENDBRANCH   7  12
TORSDOF 1
ENDMDL
MODEL 9
REMARK VINA RESULT:      -4.1      2.352      3.664
REMARK  1 active torsions:
REMARK  status: ('A' for Active; 'I' for Inactive)
REMARK    1  A    between atoms: C7_7  and  C11_11 
ROOT
HETATM    1  C1  UNL     1     -39.606  16.499  -2.996  1.00 20.00     0.030 C 
HETATM    2  C2  UNL     1     -38.619  17.556  -3.456  1.00 20.00     0.036 C 
HETATM    3  C3  UNL     1     -36.153  17.346  -4.090  1.00 20.00     0.305 C 
HETATM    4  C4  UNL     1     -38.931  15.209  -3.410  1.00 20.00     0.235 C 
HETATM    5  C5  UNL     1     -36.510  14.680  -3.937  1.00 20.00     0.271 C 
HETATM    6  C6  UNL     1     -37.255  16.968  -3.104  1.00 20.00     0.216 C 
HETATM    7  C7  UNL     1     -35.093  15.170  -3.617  1.00 20.00     0.251 C 
HETATM    8  C10 UNL     1     -34.048  17.237  -2.888  1.00 20.00     0.310 C 
HETATM    9  N12 UNL     1     -34.899  16.606  -3.896  1.00 20.00     0.092 N 
HETATM   10  N13 UNL     1     -37.476  15.462  -3.093  1.00 20.00    -0.063 N 
HETATM   11  H36 UNL     1     -37.300  15.142  -2.088  1.00 20.00     0.280 HD
ENDROOT
BRANCH   7  12
HETATM   12  C11 UNL     1     -34.077  14.371  -4.436  1.00 20.00     0.012 C 
HETATM   13  C8  UNL     1     -33.008  13.783  -3.523  1.00 20.00     0.012 C 
HETATM   14  C9  UNL     1     -34.780  13.275  -5.227  1.00 20.00     0.012 C 
ENDBRANCH   7  12
TORSDOF 1
ENDMDL
