MODEL 1
REMARK VINA RESULT:      -4.8      0.000      0.000
REMARK  3 active torsions:
REMARK  status: ('A' for Active; 'I' for Inactive)
REMARK    1  A    between atoms: C6_6  and  C9_9 
REMARK    2  A    between atoms: C6_6  and  O10_10 
REMARK    3  A    between atoms: C8_8  and  C9_9 
ROOT
HETATM    1  C1  UNL     1     -34.517  17.200  -0.189  1.00 20.00     0.012 C 
HETATM    2  C2  UNL     1     -34.778  16.619  -1.206  1.00 20.00    -0.117 C 
HETATM    3  C8  UNL     1     -35.102  15.908  -2.451  1.00 20.00     0.096 C 
ENDROOT
BRANCH   3   4
HETATM    4  C9  UNL     1     -33.847  15.303  -3.053  1.00 20.00     0.050 C 
BRANCH   4   5
HETATM    5  C6  UNL     1     -33.727  15.662  -4.530  1.00 20.00     0.068 C 
HETATM    6  C3  UNL     1     -34.380  14.602  -5.420  1.00 20.00     0.053 C 
HETATM    7  C5  UNL     1     -34.421  15.161  -6.842  1.00 20.00     0.046 C 
HETATM    8  C7  UNL     1     -35.470  14.483  -7.708  1.00 20.00     0.021 C 
HETATM    9  S11 UNL     1     -34.783  16.935  -6.630  1.00 20.00    -0.162 SA
HETATM   10  C4  UNL     1     -34.424  16.985  -4.845  1.00 20.00     0.112 C 
BRANCH   5  11
HETATM   11  O10 UNL     1     -32.332  15.761  -4.821  1.00 20.00    -0.389 OA
HETATM   12  H25 UNL     1     -31.939  14.915  -4.557  1.00 20.00     0.210 HD
ENDBRANCH   5  11
ENDBRANCH   4   5
ENDBRANCH   3   4
TORSDOF 3
ENDMDL
MODEL 2
REMARK VINA RESULT:      -4.7      2.205      2.530
REMARK  3 active torsions:
REMARK  status: ('A' for Active; 'I' for Inactive)
REMARK    1  A    between atoms: C6_6  and  C9_9 
REMARK    2  A    between atoms: C6_6  and  O10_10 
REMARK    3  A    between atoms: C8_8  and  C9_9 
ROOT
HETATM    1  C1  UNL     1     -35.087  17.603   0.751  1.00 20.00     0.012 C 
HETATM    2  C2  UNL     1     -34.795  17.019  -0.255  1.00 20.00    -0.117 C 
HETATM    3  C8  UNL     1     -34.433  16.301  -1.485  1.00 20.00     0.096 C 
ENDROOT
BRANCH   3   4
HETATM    4  C9  UNL     1     -35.424  16.618  -2.590  1.00 20.00     0.050 C 
BRANCH   4   5
HETATM    5  C6  UNL     1     -35.656  15.399  -3.476  1.00 20.00     0.068 C 
HETATM    6  C3  UNL     1     -35.663  15.777  -4.960  1.00 20.00     0.053 C 
HETATM    7  C5  UNL     1     -35.660  14.476  -5.762  1.00 20.00     0.046 C 
HETATM    8  C7  UNL     1     -35.152  14.666  -7.183  1.00 20.00     0.021 C 
HETATM    9  S11 UNL     1     -34.579  13.353  -4.817  1.00 20.00    -0.162 SA
HETATM   10  C4  UNL     1     -34.555  14.356  -3.297  1.00 20.00     0.112 C 
BRANCH   5  11
HETATM   11  O10 UNL     1     -36.920  14.848  -3.102  1.00 20.00    -0.389 OA
HETATM   12  H25 UNL     1     -36.948  13.953  -3.473  1.00 20.00     0.210 HD
ENDBRANCH   5  11
ENDBRANCH   4   5
ENDBRANCH   3   4
TORSDOF 3
ENDMDL
MODEL 3
REMARK VINA RESULT:      -4.5      2.222      2.460
REMARK  3 active torsions:
REMARK  status: ('A' for Active; 'I' for Inactive)
REMARK    1  A    between atoms: C6_6  and  C9_9 
REMARK    2  A    between atoms: C6_6  and  O10_10 
REMARK    3  A    between atoms: C8_8  and  C9_9 
ROOT
HETATM    1  C1  UNL     1     -34.614  16.863  -0.517  1.00 20.00     0.012 C 
HETATM    2  C2  UNL     1     -34.271  16.465  -1.596  1.00 20.00    -0.117 C 
HETATM    3  C8  UNL     1     -33.850  15.982  -2.918  1.00 20.00     0.096 C 
ENDROOT
BRANCH   3   4
HETATM    4  C9  UNL     1     -34.096  14.489  -3.035  1.00 20.00     0.050 C 
BRANCH   4   5
HETATM    5  C6  UNL     1     -35.041  14.184  -4.192  1.00 20.00     0.068 C 
HETATM    6  C3  UNL     1     -36.379  14.910  -4.031  1.00 20.00     0.053 C 
HETATM    7  C5  UNL     1     -37.152  14.738  -5.338  1.00 20.00     0.046 C 
HETATM    8  C7  UNL     1     -38.226  15.797  -5.527  1.00 20.00     0.021 C 
HETATM    9  S11 UNL     1     -35.884  14.840  -6.642  1.00 20.00    -0.162 SA
HETATM   10  C4  UNL     1     -34.457  14.638  -5.529  1.00 20.00     0.112 C 
BRANCH   5  11
HETATM   11  O10 UNL     1     -35.244  12.770  -4.201  1.00 20.00    -0.389 OA
HETATM   12  H25 UNL     1     -36.065  12.616  -4.693  1.00 20.00     0.210 HD
ENDBRANCH   5  11
ENDBRANCH   4   5
ENDBRANCH   3   4
TORSDOF 3
ENDMDL
MODEL 4
REMARK VINA RESULT:      -4.4      1.514      1.853
REMARK  3 active torsions:
REMARK  status: ('A' for Active; 'I' for Inactive)
REMARK    1  A    between atoms: C6_6  and  C9_9 
REMARK    2  A    between atoms: C6_6  and  O10_10 
REMARK    3  A    between atoms: C8_8  and  C9_9 
ROOT
HETATM    1  C1  UNL     1     -34.916  17.916   0.953  1.00 20.00     0.012 C 
HETATM    2  C2  UNL     1     -34.755  17.229  -0.018  1.00 20.00    -0.117 C 
HETATM    3  C8  UNL     1     -34.561  16.384  -1.205  1.00 20.00     0.096 C 
ENDROOT
BRANCH   3   4
HETATM    4  C9  UNL     1     -33.759  17.130  -2.255  1.00 20.00     0.050 C 
BRANCH   4   5
HETATM    5  C6  UNL     1     -34.004  16.543  -3.642  1.00 20.00     0.068 C 
HETATM    6  C3  UNL     1     -33.818  15.024  -3.650  1.00 20.00     0.053 C 
HETATM    7  C5  UNL     1     -34.314  14.510  -5.001  1.00 20.00     0.046 C 
HETATM    8  C7  UNL     1     -34.675  13.034  -4.970  1.00 20.00     0.021 C 
HETATM    9  S11 UNL     1     -35.768  15.540  -5.382  1.00 20.00    -0.162 SA
HETATM   10  C4  UNL     1     -35.430  16.810  -4.120  1.00 20.00     0.112 C 
BRANCH   5  11
HETATM   11  O10 UNL     1     -33.067  17.161  -4.525  1.00 20.00    -0.389 OA
HETATM   12  H25 UNL     1     -32.886  16.515  -5.225  1.00 20.00     0.210 HD
ENDBRANCH   5  11
ENDBRANCH   4   5
ENDBRANCH   3   4
TORSDOF 3
ENDMDL
MODEL 5
REMARK VINA RESULT:      -4.1      2.184      4.978
REMARK  3 active torsions:
REMARK  status: ('A' for Active; 'I' for Inactive)
REMARK    1  A    between atoms: C6_6  and  C9_9 
REMARK    2  A    between atoms: C6_6  and  O10_10 
REMARK    3  A    between atoms: C8_8  and  C9_9 
ROOT
HETATM    1  C1  UNL     1     -35.007  14.385  -6.753  1.00 20.00     0.012 C 
HETATM    2  C2  UNL     1     -35.128  14.152  -5.582  1.00 20.00    -0.117 C 
HETATM    3  C8  UNL     1     -35.280  13.863  -4.149  1.00 20.00     0.096 C 
ENDROOT
BRANCH   3   4
HETATM    4  C9  UNL     1     -34.356  14.749  -3.335  1.00 20.00     0.050 C 
BRANCH   4   5
HETATM    5  C6  UNL     1     -35.120  15.926  -2.736  1.00 20.00     0.068 C 
HETATM    6  C3  UNL     1     -34.609  16.273  -1.336  1.00 20.00     0.053 C 
HETATM    7  C5  UNL     1     -35.260  17.594  -0.927  1.00 20.00     0.046 C 
HETATM    8  C7  UNL     1     -34.487  18.315   0.165  1.00 20.00     0.021 C 
HETATM    9  S11 UNL     1     -35.313  18.577  -2.460  1.00 20.00    -0.162 SA
HETATM   10  C4  UNL     1     -34.961  17.187  -3.584  1.00 20.00     0.112 C 
BRANCH   5  11
HETATM   11  O10 UNL     1     -36.494  15.542  -2.680  1.00 20.00    -0.389 OA
HETATM   12  H25 UNL     1     -36.550  14.824  -2.032  1.00 20.00     0.210 HD
ENDBRANCH   5  11
ENDBRANCH   4   5
ENDBRANCH   3   4
TORSDOF 3
ENDMDL
MODEL 6
REMARK VINA RESULT:      -4.1      3.577      6.013
REMARK  3 active torsions:
REMARK  status: ('A' for Active; 'I' for Inactive)
REMARK    1  A    between atoms: C6_6  and  C9_9 
REMARK    2  A    between atoms: C6_6  and  O10_10 
REMARK    3  A    between atoms: C8_8  and  C9_9 
ROOT
HETATM    1  C1  UNL     1     -33.914  13.775  -3.807  1.00 20.00     0.012 C 
HETATM    2  C2  UNL     1     -34.310  14.704  -3.158  1.00 20.00    -0.117 C 
HETATM    3  C8  UNL     1     -34.800  15.839  -2.364  1.00 20.00     0.096 C 
ENDROOT
BRANCH   3   4
HETATM    4  C9  UNL     1     -33.674  16.824  -2.106  1.00 20.00     0.050 C 
BRANCH   4   5
HETATM    5  C6  UNL     1     -34.074  17.836  -1.038  1.00 20.00     0.068 C 
HETATM    6  C3  UNL     1     -34.914  17.187   0.065  1.00 20.00     0.053 C 
HETATM    7  C5  UNL     1     -35.057  18.209   1.192  1.00 20.00     0.046 C 
HETATM    8  C7  UNL     1     -35.398  17.565   2.526  1.00 20.00     0.021 C 
HETATM    9  S11 UNL     1     -33.444  19.054   1.257  1.00 20.00    -0.162 SA
HETATM   10  C4  UNL     1     -32.850  18.442  -0.353  1.00 20.00     0.112 C 
BRANCH   5  11
HETATM   11  O10 UNL     1     -34.825  18.858  -1.694  1.00 20.00    -0.389 OA
HETATM   12  H25 UNL     1     -35.714  18.833  -1.308  1.00 20.00     0.210 HD
ENDBRANCH   5  11
ENDBRANCH   4   5
ENDBRANCH   3   4
TORSDOF 3
ENDMDL
MODEL 7
REMARK VINA RESULT:      -4.0     14.502     15.576
REMARK  3 active torsions:
REMARK  status: ('A' for Active; 'I' for Inactive)
REMARK    1  A    between atoms: C6_6  and  C9_9 
REMARK    2  A    between atoms: C6_6  and  O10_10 
REMARK    3  A    between atoms: C8_8  and  C9_9 
ROOT
HETATM    1  C1  UNL     1     -41.208  -0.896  -4.174  1.00 20.00     0.012 C 
HETATM    2  C2  UNL     1     -41.815   0.077  -3.820  1.00 20.00    -0.117 C 
HETATM    3  C8  UNL     1     -42.563   1.265  -3.387  1.00 20.00     0.096 C 
ENDROOT
BRANCH   3   4
HETATM    4  C9  UNL     1     -41.630   2.454  -3.254  1.00 20.00     0.050 C 
BRANCH   4   5
HETATM    5  C6  UNL     1     -42.217   3.503  -2.316  1.00 20.00     0.068 C 
HETATM    6  C3  UNL     1     -41.119   4.300  -1.607  1.00 20.00     0.053 C 
HETATM    7  C5  UNL     1     -41.794   5.467  -0.887  1.00 20.00     0.046 C 
HETATM    8  C7  UNL     1     -40.833   6.606  -0.588  1.00 20.00     0.021 C 
HETATM    9  S11 UNL     1     -43.122   6.000  -2.016  1.00 20.00    -0.162 SA
HETATM   10  C4  UNL     1     -43.073   4.518  -3.073  1.00 20.00     0.112 C 
BRANCH   5  11
HETATM   11  O10 UNL     1     -43.016   2.804  -1.360  1.00 20.00    -0.389 OA
HETATM   12  H25 UNL     1     -43.453   2.087  -1.843  1.00 20.00     0.210 HD
ENDBRANCH   5  11
ENDBRANCH   4   5
ENDBRANCH   3   4
TORSDOF 3
ENDMDL
MODEL 8
REMARK VINA RESULT:      -4.0      1.738      2.135
REMARK  3 active torsions:
REMARK  status: ('A' for Active; 'I' for Inactive)
REMARK    1  A    between atoms: C6_6  and  C9_9 
REMARK    2  A    between atoms: C6_6  and  O10_10 
REMARK    3  A    between atoms: C8_8  and  C9_9 
ROOT
HETATM    1  C1  UNL     1     -35.147  17.466   0.976  1.00 20.00     0.012 C 
HETATM    2  C2  UNL     1     -34.668  17.280  -0.108  1.00 20.00    -0.117 C 
HETATM    3  C8  UNL     1     -34.078  17.055  -1.435  1.00 20.00     0.096 C 
ENDROOT
BRANCH   3   4
HETATM    4  C9  UNL     1     -34.659  15.801  -2.063  1.00 20.00     0.050 C 
BRANCH   4   5
HETATM    5  C6  UNL     1     -35.254  16.107  -3.434  1.00 20.00     0.068 C 
HETATM    6  C3  UNL     1     -34.280  15.754  -4.560  1.00 20.00     0.053 C 
HETATM    7  C5  UNL     1     -35.045  15.865  -5.878  1.00 20.00     0.046 C 
HETATM    8  C7  UNL     1     -34.399  15.070  -7.000  1.00 20.00     0.021 C 
HETATM    9  S11 UNL     1     -36.714  15.239  -5.498  1.00 20.00    -0.162 SA
HETATM   10  C4  UNL     1     -36.525  15.298  -3.687  1.00 20.00     0.112 C 
BRANCH   5  11
HETATM   11  O10 UNL     1     -35.549  17.504  -3.456  1.00 20.00    -0.389 OA
HETATM   12  H25 UNL     1     -36.510  17.581  -3.355  1.00 20.00     0.210 HD
ENDBRANCH   5  11
ENDBRANCH   4   5
ENDBRANCH   3   4
TORSDOF 3
ENDMDL
MODEL 9
REMARK VINA RESULT:      -4.0      2.627      4.705
REMARK  3 active torsions:
REMARK  status: ('A' for Active; 'I' for Inactive)
REMARK    1  A    between atoms: C6_6  and  C9_9 
REMARK    2  A    between atoms: C6_6  and  O10_10 
REMARK    3  A    between atoms: C8_8  and  C9_9 
ROOT
HETATM    1  C1  UNL     1     -34.719  13.179  -4.340  1.00 20.00     0.012 C 
HETATM    2  C2  UNL     1     -33.952  14.037  -4.002  1.00 20.00    -0.117 C 
HETATM    3  C8  UNL     1     -33.009  15.084  -3.586  1.00 20.00     0.096 C 
ENDROOT
BRANCH   3   4
HETATM    4  C9  UNL     1     -33.394  16.415  -4.206  1.00 20.00     0.050 C 
BRANCH   4   5
HETATM    5  C6  UNL     1     -34.361  17.174  -3.303  1.00 20.00     0.068 C 
HETATM    6  C3  UNL     1     -34.421  16.559  -1.902  1.00 20.00     0.053 C 
HETATM    7  C5  UNL     1     -35.217  17.517  -1.017  1.00 20.00     0.046 C 
HETATM    8  C7  UNL     1     -34.929  17.323   0.463  1.00 20.00     0.021 C 
HETATM    9  S11 UNL     1     -34.722  19.180  -1.574  1.00 20.00    -0.162 SA
HETATM   10  C4  UNL     1     -33.935  18.630  -3.122  1.00 20.00     0.112 C 
BRANCH   5  11
HETATM   11  O10 UNL     1     -35.645  17.112  -3.925  1.00 20.00    -0.389 OA
HETATM   12  H25 UNL     1     -35.484  17.088  -4.880  1.00 20.00     0.210 HD
ENDBRANCH   5  11
ENDBRANCH   4   5
ENDBRANCH   3   4
TORSDOF 3
ENDMDL
