MODEL 1
REMARK VINA RESULT:      -4.2      0.000      0.000
REMARK  0 active torsions:
REMARK  status: ('A' for Active; 'I' for Inactive)
ROOT
HETATM    1  C1  UNL     1     -34.266  14.538  -3.546  1.00 20.00    -0.053 C 
HETATM    2  C2  UNL     1     -33.048  13.993  -3.645  1.00 20.00     0.017 C 
HETATM    3  C3  UNL     1     -35.539  13.837  -3.876  1.00 20.00     0.073 C 
HETATM    4  C4  UNL     1     -34.610  15.961  -3.196  1.00 20.00     0.077 C 
HETATM    5  C5  UNL     1     -36.380  14.992  -4.416  1.00 20.00     0.059 C 
HETATM    6  C6  UNL     1     -34.662  16.161  -1.679  1.00 20.00     0.051 C 
HETATM    7  C7  UNL     1     -33.703  17.013  -3.838  1.00 20.00     0.051 C 
HETATM    8  C8  UNL     1     -36.154  15.226  -5.916  1.00 20.00     0.046 C 
HETATM    9  C9  UNL     1     -37.867  14.782  -4.145  1.00 20.00     0.046 C 
HETATM   10  O10 UNL     1     -35.953  16.166  -3.696  1.00 20.00    -0.366 OA
ENDROOT
TORSDOF 0
ENDMDL
MODEL 2
REMARK VINA RESULT:      -4.2      0.945      3.307
REMARK  0 active torsions:
REMARK  status: ('A' for Active; 'I' for Inactive)
ROOT
HETATM    1  C1  UNL     1     -34.018  14.616  -3.973  1.00 20.00    -0.053 C 
HETATM    2  C2  UNL     1     -33.669  13.324  -3.969  1.00 20.00     0.017 C 
HETATM    3  C3  UNL     1     -33.179  15.723  -3.431  1.00 20.00     0.073 C 
HETATM    4  C4  UNL     1     -35.328  15.213  -4.412  1.00 20.00     0.077 C 
HETATM    5  C5  UNL     1     -34.253  16.674  -2.904  1.00 20.00     0.059 C 
HETATM    6  C6  UNL     1     -35.349  15.453  -5.924  1.00 20.00     0.051 C 
HETATM    7  C7  UNL     1     -36.565  14.421  -3.983  1.00 20.00     0.051 C 
HETATM    8  C8  UNL     1     -34.682  16.334  -1.471  1.00 20.00     0.046 C 
HETATM    9  C9  UNL     1     -33.801  18.130  -2.976  1.00 20.00     0.046 C 
HETATM   10  O10 UNL     1     -35.390  16.512  -3.777  1.00 20.00    -0.366 OA
ENDROOT
TORSDOF 0
ENDMDL
MODEL 3
REMARK VINA RESULT:      -4.1      1.403      2.301
REMARK  0 active torsions:
REMARK  status: ('A' for Active; 'I' for Inactive)
ROOT
HETATM    1  C1  UNL     1     -34.126  14.763  -3.866  1.00 20.00    -0.053 C 
HETATM    2  C2  UNL     1     -33.353  13.678  -3.738  1.00 20.00     0.017 C 
HETATM    3  C3  UNL     1     -34.968  15.339  -2.780  1.00 20.00     0.073 C 
HETATM    4  C4  UNL     1     -34.392  15.559  -5.116  1.00 20.00     0.077 C 
HETATM    5  C5  UNL     1     -36.153  15.875  -3.580  1.00 20.00     0.059 C 
HETATM    6  C6  UNL     1     -33.299  16.605  -5.350  1.00 20.00     0.051 C 
HETATM    7  C7  UNL     1     -34.597  14.716  -6.377  1.00 20.00     0.051 C 
HETATM    8  C8  UNL     1     -37.232  14.809  -3.813  1.00 20.00     0.046 C 
HETATM    9  C9  UNL     1     -36.775  17.101  -2.915  1.00 20.00     0.046 C 
HETATM   10  O10 UNL     1     -35.620  16.280  -4.858  1.00 20.00    -0.366 OA
ENDROOT
TORSDOF 0
ENDMDL
MODEL 4
REMARK VINA RESULT:      -4.1      1.448      2.744
REMARK  0 active torsions:
REMARK  status: ('A' for Active; 'I' for Inactive)
ROOT
HETATM    1  C1  UNL     1     -33.979  17.103  -3.495  1.00 20.00    -0.053 C 
HETATM    2  C2  UNL     1     -33.815  18.389  -3.824  1.00 20.00     0.017 C 
HETATM    3  C3  UNL     1     -33.193  15.973  -4.069  1.00 20.00     0.073 C 
HETATM    4  C4  UNL     1     -35.023  16.513  -2.585  1.00 20.00     0.077 C 
HETATM    5  C5  UNL     1     -34.240  14.861  -4.075  1.00 20.00     0.059 C 
HETATM    6  C6  UNL     1     -34.584  16.581  -1.120  1.00 20.00     0.051 C 
HETATM    7  C7  UNL     1     -36.422  17.111  -2.748  1.00 20.00     0.051 C 
HETATM    8  C8  UNL     1     -35.097  14.873  -5.348  1.00 20.00     0.046 C 
HETATM    9  C9  UNL     1     -33.602  13.485  -3.897  1.00 20.00     0.046 C 
HETATM   10  O10 UNL     1     -35.094  15.111  -2.941  1.00 20.00    -0.366 OA
ENDROOT
TORSDOF 0
ENDMDL
MODEL 5
REMARK VINA RESULT:      -4.0      1.636      2.954
REMARK  0 active torsions:
REMARK  status: ('A' for Active; 'I' for Inactive)
ROOT
HETATM    1  C1  UNL     1     -35.801  15.349  -4.249  1.00 20.00    -0.053 C 
HETATM    2  C2  UNL     1     -36.832  14.532  -4.006  1.00 20.00     0.017 C 
HETATM    3  C3  UNL     1     -35.832  16.498  -5.199  1.00 20.00     0.073 C 
HETATM    4  C4  UNL     1     -34.396  15.237  -3.721  1.00 20.00     0.077 C 
HETATM    5  C5  UNL     1     -34.397  16.488  -5.720  1.00 20.00     0.059 C 
HETATM    6  C6  UNL     1     -34.269  15.883  -2.339  1.00 20.00     0.051 C 
HETATM    7  C7  UNL     1     -33.837  13.812  -3.692  1.00 20.00     0.051 C 
HETATM    8  C8  UNL     1     -34.215  15.543  -6.914  1.00 20.00     0.046 C 
HETATM    9  C9  UNL     1     -33.924  17.891  -6.095  1.00 20.00     0.046 C 
HETATM   10  O10 UNL     1     -33.580  16.016  -4.629  1.00 20.00    -0.366 OA
ENDROOT
TORSDOF 0
ENDMDL
MODEL 6
REMARK VINA RESULT:      -4.0      1.645      3.296
REMARK  0 active torsions:
REMARK  status: ('A' for Active; 'I' for Inactive)
ROOT
HETATM    1  C1  UNL     1     -34.177  16.404  -2.712  1.00 20.00    -0.053 C 
HETATM    2  C2  UNL     1     -34.585  16.268  -1.445  1.00 20.00     0.017 C 
HETATM    3  C3  UNL     1     -33.992  17.709  -3.409  1.00 20.00     0.073 C 
HETATM    4  C4  UNL     1     -33.923  15.313  -3.718  1.00 20.00     0.077 C 
HETATM    5  C5  UNL     1     -34.383  17.337  -4.838  1.00 20.00     0.059 C 
HETATM    6  C6  UNL     1     -32.508  14.748  -3.577  1.00 20.00     0.051 C 
HETATM    7  C7  UNL     1     -34.951  14.179  -3.701  1.00 20.00     0.051 C 
HETATM    8  C8  UNL     1     -35.894  17.455  -5.079  1.00 20.00     0.046 C 
HETATM    9  C9  UNL     1     -33.629  18.177  -5.866  1.00 20.00     0.046 C 
HETATM   10  O10 UNL     1     -33.994  15.959  -5.011  1.00 20.00    -0.366 OA
ENDROOT
TORSDOF 0
ENDMDL
MODEL 7
REMARK VINA RESULT:      -4.0      1.444      3.289
REMARK  0 active torsions:
REMARK  status: ('A' for Active; 'I' for Inactive)
ROOT
HETATM    1  C1  UNL     1     -35.539  15.082  -3.531  1.00 20.00    -0.053 C 
HETATM    2  C2  UNL     1     -36.666  14.542  -4.010  1.00 20.00     0.017 C 
HETATM    3  C3  UNL     1     -35.456  15.924  -2.304  1.00 20.00     0.073 C 
HETATM    4  C4  UNL     1     -34.170  15.054  -4.155  1.00 20.00     0.077 C 
HETATM    5  C5  UNL     1     -34.337  16.891  -2.686  1.00 20.00     0.059 C 
HETATM    6  C6  UNL     1     -33.421  13.769  -3.792  1.00 20.00     0.051 C 
HETATM    7  C7  UNL     1     -34.155  15.265  -5.671  1.00 20.00     0.051 C 
HETATM    8  C8  UNL     1     -34.859  18.113  -3.454  1.00 20.00     0.046 C 
HETATM    9  C9  UNL     1     -33.546  17.350  -1.464  1.00 20.00     0.046 C 
HETATM   10  O10 UNL     1     -33.447  16.151  -3.546  1.00 20.00    -0.366 OA
ENDROOT
TORSDOF 0
ENDMDL
MODEL 8
REMARK VINA RESULT:      -4.0      1.405      3.560
REMARK  0 active torsions:
REMARK  status: ('A' for Active; 'I' for Inactive)
ROOT
HETATM    1  C1  UNL     1     -34.502  15.422  -5.602  1.00 20.00    -0.053 C 
HETATM    2  C2  UNL     1     -34.351  15.317  -6.928  1.00 20.00     0.017 C 
HETATM    3  C3  UNL     1     -33.874  16.477  -4.757  1.00 20.00     0.073 C 
HETATM    4  C4  UNL     1     -35.225  14.475  -4.682  1.00 20.00     0.077 C 
HETATM    5  C5  UNL     1     -33.627  15.707  -3.461  1.00 20.00     0.059 C 
HETATM    6  C6  UNL     1     -36.724  14.786  -4.634  1.00 20.00     0.051 C 
HETATM    7  C7  UNL     1     -35.001  12.993  -4.988  1.00 20.00     0.051 C 
HETATM    8  C8  UNL     1     -32.288  14.958  -3.472  1.00 20.00     0.046 C 
HETATM    9  C9  UNL     1     -33.697  16.621  -2.240  1.00 20.00     0.046 C 
HETATM   10  O10 UNL     1     -34.695  14.742  -3.362  1.00 20.00    -0.366 OA
ENDROOT
TORSDOF 0
ENDMDL
MODEL 9
REMARK VINA RESULT:      -4.0      1.486      3.555
REMARK  0 active torsions:
REMARK  status: ('A' for Active; 'I' for Inactive)
ROOT
HETATM    1  C1  UNL     1     -35.998  14.981  -5.241  1.00 20.00    -0.053 C 
HETATM    2  C2  UNL     1     -37.304  15.219  -5.412  1.00 20.00     0.017 C 
HETATM    3  C3  UNL     1     -35.434  13.993  -4.278  1.00 20.00     0.073 C 
HETATM    4  C4  UNL     1     -34.842  15.702  -5.880  1.00 20.00     0.077 C 
HETATM    5  C5  UNL     1     -34.135  14.687  -3.872  1.00 20.00     0.059 C 
HETATM    6  C6  UNL     1     -34.520  15.121  -7.260  1.00 20.00     0.051 C 
HETATM    7  C7  UNL     1     -35.009  17.221  -5.971  1.00 20.00     0.051 C 
HETATM    8  C8  UNL     1     -34.335  15.665  -2.708  1.00 20.00     0.046 C 
HETATM    9  C9  UNL     1     -33.044  13.680  -3.518  1.00 20.00     0.046 C 
HETATM   10  O10 UNL     1     -33.702  15.430  -5.030  1.00 20.00    -0.366 OA
ENDROOT
TORSDOF 0
ENDMDL
