MODEL 1
REMARK VINA RESULT:      -3.9      0.000      0.000
REMARK  2 active torsions:
REMARK  status: ('A' for Active; 'I' for Inactive)
REMARK    1  A    between atoms: C2_2  and  C3_3 
REMARK    2  A    between atoms: C3_3  and  C7_7 
ROOT
HETATM    1  C4  UNL     1     -35.000  15.492  -6.250  1.00 20.00     0.084 C 
HETATM    2  C5  UNL     1     -34.681  14.041  -5.935  1.00 20.00     0.085 C 
HETATM    3  C6  UNL     1     -33.283  15.749  -4.039  1.00 20.00     0.097 C 
HETATM    4  C7  UNL     1     -34.345  14.950  -3.295  1.00 20.00     0.131 C 
HETATM    5  S10 UNL     1     -33.855  16.686  -5.494  1.00 20.00    -0.167 SA
HETATM    6  S11 UNL     1     -35.100  13.581  -4.226  1.00 20.00    -0.155 SA
ENDROOT
BRANCH   4   7
HETATM    7  C3  UNL     1     -35.438  15.821  -2.758  1.00 20.00     0.169 C 
HETATM    8  O9  UNL     1     -36.611  15.612  -3.071  1.00 20.00    -0.291 OA
BRANCH   7   9
HETATM    9  C2  UNL     1     -35.100  16.954  -1.834  1.00 20.00    -0.024 C 
HETATM   10  C1  UNL     1     -34.573  16.734  -0.622  1.00 20.00     0.022 C 
HETATM   11  C8  UNL     1     -35.384  18.338  -2.338  1.00 20.00     0.051 C 
ENDBRANCH   7   9
ENDBRANCH   4   7
TORSDOF 2
ENDMDL
MODEL 2
REMARK VINA RESULT:      -3.8      1.620      2.403
REMARK  2 active torsions:
REMARK  status: ('A' for Active; 'I' for Inactive)
REMARK    1  A    between atoms: C2_2  and  C3_3 
REMARK    2  A    between atoms: C3_3  and  C7_7 
ROOT
HETATM    1  C4  UNL     1     -34.889  13.941  -5.343  1.00 20.00     0.084 C 
HETATM    2  C5  UNL     1     -34.640  14.986  -6.416  1.00 20.00     0.085 C 
HETATM    3  C6  UNL     1     -36.063  16.226  -4.201  1.00 20.00     0.097 C 
HETATM    4  C7  UNL     1     -34.662  16.818  -4.282  1.00 20.00     0.131 C 
HETATM    5  S10 UNL     1     -36.164  14.407  -4.131  1.00 20.00    -0.167 SA
HETATM    6  S11 UNL     1     -33.728  16.432  -5.796  1.00 20.00    -0.155 SA
ENDROOT
BRANCH   4   7
HETATM    7  C3  UNL     1     -33.823  16.455  -3.097  1.00 20.00     0.169 C 
HETATM    8  O9  UNL     1     -32.968  15.571  -3.188  1.00 20.00    -0.291 OA
BRANCH   7   9
HETATM    9  C2  UNL     1     -34.024  17.170  -1.794  1.00 20.00    -0.024 C 
HETATM   10  C1  UNL     1     -34.660  16.586  -0.769  1.00 20.00     0.022 C 
HETATM   11  C8  UNL     1     -33.480  18.564  -1.703  1.00 20.00     0.051 C 
ENDBRANCH   7   9
ENDBRANCH   4   7
TORSDOF 2
ENDMDL
MODEL 3
REMARK VINA RESULT:      -3.8      1.937      2.861
REMARK  2 active torsions:
REMARK  status: ('A' for Active; 'I' for Inactive)
REMARK    1  A    between atoms: C2_2  and  C3_3 
REMARK    2  A    between atoms: C3_3  and  C7_7 
ROOT
HETATM    1  C4  UNL     1     -35.047  13.668  -5.394  1.00 20.00     0.084 C 
HETATM    2  C5  UNL     1     -35.206  14.347  -6.742  1.00 20.00     0.085 C 
HETATM    3  C6  UNL     1     -36.133  16.154  -4.659  1.00 20.00     0.097 C 
HETATM    4  C7  UNL     1     -34.878  16.737  -5.295  1.00 20.00     0.131 C 
HETATM    5  S10 UNL     1     -36.006  14.439  -4.054  1.00 20.00    -0.167 SA
HETATM    6  S11 UNL     1     -34.334  15.940  -6.838  1.00 20.00    -0.155 SA
ENDROOT
BRANCH   4   7
HETATM    7  C3  UNL     1     -33.723  16.773  -4.344  1.00 20.00     0.169 C 
HETATM    8  O9  UNL     1     -32.682  16.168  -4.605  1.00 20.00    -0.291 OA
BRANCH   7   9
HETATM    9  C2  UNL     1     -33.835  17.551  -3.066  1.00 20.00    -0.024 C 
HETATM   10  C1  UNL     1     -33.901  18.889  -3.066  1.00 20.00     0.022 C 
HETATM   11  C8  UNL     1     -33.869  16.753  -1.796  1.00 20.00     0.051 C 
ENDBRANCH   7   9
ENDBRANCH   4   7
TORSDOF 2
ENDMDL
MODEL 4
REMARK VINA RESULT:      -3.7      1.928      2.219
REMARK  2 active torsions:
REMARK  status: ('A' for Active; 'I' for Inactive)
REMARK    1  A    between atoms: C2_2  and  C3_3 
REMARK    2  A    between atoms: C3_3  and  C7_7 
ROOT
HETATM    1  C4  UNL     1     -35.901  15.997  -6.126  1.00 20.00     0.084 C 
HETATM    2  C5  UNL     1     -37.048  15.442  -5.300  1.00 20.00     0.085 C 
HETATM    3  C6  UNL     1     -34.801  13.599  -5.157  1.00 20.00     0.097 C 
HETATM    4  C7  UNL     1     -35.025  14.212  -3.781  1.00 20.00     0.131 C 
HETATM    5  S10 UNL     1     -34.621  14.773  -6.540  1.00 20.00    -0.167 SA
HETATM    6  S11 UNL     1     -36.584  15.127  -3.570  1.00 20.00    -0.155 SA
ENDROOT
BRANCH   4   7
HETATM    7  C3  UNL     1     -33.892  15.095  -3.361  1.00 20.00     0.169 C 
HETATM    8  O9  UNL     1     -32.728  14.776  -3.612  1.00 20.00    -0.291 OA
BRANCH   7   9
HETATM    9  C2  UNL     1     -34.176  16.374  -2.631  1.00 20.00    -0.024 C 
HETATM   10  C1  UNL     1     -34.549  16.376  -1.344  1.00 20.00     0.022 C 
HETATM   11  C8  UNL     1     -34.022  17.643  -3.415  1.00 20.00     0.051 C 
ENDBRANCH   7   9
ENDBRANCH   4   7
TORSDOF 2
ENDMDL
MODEL 5
REMARK VINA RESULT:      -3.7      2.217      3.386
REMARK  2 active torsions:
REMARK  status: ('A' for Active; 'I' for Inactive)
REMARK    1  A    between atoms: C2_2  and  C3_3 
REMARK    2  A    between atoms: C3_3  and  C7_7 
ROOT
HETATM    1  C4  UNL     1     -34.855  16.380  -7.655  1.00 20.00     0.084 C 
HETATM    2  C5  UNL     1     -34.733  17.890  -7.566  1.00 20.00     0.085 C 
HETATM    3  C6  UNL     1     -36.100  16.911  -5.191  1.00 20.00     0.097 C 
HETATM    4  C7  UNL     1     -34.745  17.476  -4.784  1.00 20.00     0.131 C 
HETATM    5  S10 UNL     1     -36.085  15.664  -6.521  1.00 20.00    -0.167 SA
HETATM    6  S11 UNL     1     -33.878  18.442  -6.059  1.00 20.00    -0.155 SA
ENDROOT
BRANCH   4   7
HETATM    7  C3  UNL     1     -33.818  16.416  -4.275  1.00 20.00     0.169 C 
HETATM    8  O9  UNL     1     -32.709  16.261  -4.789  1.00 20.00    -0.291 OA
BRANCH   7   9
HETATM    9  C2  UNL     1     -34.244  15.539  -3.135  1.00 20.00    -0.024 C 
HETATM   10  C1  UNL     1     -34.520  16.049  -1.927  1.00 20.00     0.022 C 
HETATM   11  C8  UNL     1     -34.343  14.070  -3.420  1.00 20.00     0.051 C 
ENDBRANCH   7   9
ENDBRANCH   4   7
TORSDOF 2
ENDMDL
MODEL 6
REMARK VINA RESULT:      -3.6      2.089      4.115
REMARK  2 active torsions:
REMARK  status: ('A' for Active; 'I' for Inactive)
REMARK    1  A    between atoms: C2_2  and  C3_3 
REMARK    2  A    between atoms: C3_3  and  C7_7 
ROOT
HETATM    1  C4  UNL     1     -35.272  18.671  -3.190  1.00 20.00     0.084 C 
HETATM    2  C5  UNL     1     -35.271  18.175  -1.755  1.00 20.00     0.085 C 
HETATM    3  C6  UNL     1     -36.496  16.154  -3.454  1.00 20.00     0.097 C 
HETATM    4  C7  UNL     1     -35.182  15.611  -2.908  1.00 20.00     0.131 C 
HETATM    5  S10 UNL     1     -36.411  17.773  -4.288  1.00 20.00    -0.167 SA
HETATM    6  S11 UNL     1     -34.427  16.575  -1.562  1.00 20.00    -0.155 SA
ENDROOT
BRANCH   4   7
HETATM    7  C3  UNL     1     -34.160  15.411  -3.984  1.00 20.00     0.169 C 
HETATM    8  O9  UNL     1     -33.093  16.027  -3.950  1.00 20.00    -0.291 OA
BRANCH   7   9
HETATM    9  C2  UNL     1     -34.438  14.456  -5.107  1.00 20.00    -0.024 C 
HETATM   10  C1  UNL     1     -34.675  13.158  -4.877  1.00 20.00     0.022 C 
HETATM   11  C8  UNL     1     -34.435  15.031  -6.492  1.00 20.00     0.051 C 
ENDBRANCH   7   9
ENDBRANCH   4   7
TORSDOF 2
ENDMDL
MODEL 7
REMARK VINA RESULT:      -3.5      2.057      2.757
REMARK  2 active torsions:
REMARK  status: ('A' for Active; 'I' for Inactive)
REMARK    1  A    between atoms: C2_2  and  C3_3 
REMARK    2  A    between atoms: C3_3  and  C7_7 
ROOT
HETATM    1  C4  UNL     1     -33.400  16.364  -5.162  1.00 20.00     0.084 C 
HETATM    2  C5  UNL     1     -34.874  16.544  -5.480  1.00 20.00     0.085 C 
HETATM    3  C6  UNL     1     -34.610  15.507  -2.774  1.00 20.00     0.097 C 
HETATM    4  C7  UNL     1     -35.167  16.923  -2.708  1.00 20.00     0.131 C 
HETATM    5  S10 UNL     1     -33.072  15.291  -3.730  1.00 20.00    -0.167 SA
HETATM    6  S11 UNL     1     -35.726  17.625  -4.291  1.00 20.00    -0.155 SA
ENDROOT
BRANCH   4   7
HETATM    7  C3  UNL     1     -34.208  17.881  -2.073  1.00 20.00     0.169 C 
HETATM    8  O9  UNL     1     -33.599  18.701  -2.763  1.00 20.00    -0.291 OA
BRANCH   7   9
HETATM    9  C2  UNL     1     -33.988  17.841  -0.590  1.00 20.00    -0.024 C 
HETATM   10  C1  UNL     1     -34.887  17.286   0.235  1.00 20.00     0.022 C 
HETATM   11  C8  UNL     1     -32.717  18.454  -0.083  1.00 20.00     0.051 C 
ENDBRANCH   7   9
ENDBRANCH   4   7
TORSDOF 2
ENDMDL
MODEL 8
REMARK VINA RESULT:      -3.5      1.963      2.620
REMARK  2 active torsions:
REMARK  status: ('A' for Active; 'I' for Inactive)
REMARK    1  A    between atoms: C2_2  and  C3_3 
REMARK    2  A    between atoms: C3_3  and  C7_7 
ROOT
HETATM    1  C4  UNL     1     -36.146  16.450  -4.970  1.00 20.00     0.084 C 
HETATM    2  C5  UNL     1     -34.857  16.542  -5.767  1.00 20.00     0.085 C 
HETATM    3  C6  UNL     1     -34.853  18.613  -3.724  1.00 20.00     0.097 C 
HETATM    4  C7  UNL     1     -33.763  17.599  -3.402  1.00 20.00     0.131 C 
HETATM    5  S10 UNL     1     -36.525  17.938  -3.994  1.00 20.00    -0.167 SA
HETATM    6  S11 UNL     1     -33.371  16.414  -4.726  1.00 20.00    -0.155 SA
ENDROOT
BRANCH   4   7
HETATM    7  C3  UNL     1     -34.052  16.834  -2.147  1.00 20.00     0.169 C 
HETATM    8  O9  UNL     1     -34.391  15.650  -2.204  1.00 20.00    -0.291 OA
BRANCH   7   9
HETATM    9  C2  UNL     1     -33.929  17.514  -0.816  1.00 20.00    -0.024 C 
HETATM   10  C1  UNL     1     -32.919  18.354  -0.552  1.00 20.00     0.022 C 
HETATM   11  C8  UNL     1     -34.990  17.202   0.197  1.00 20.00     0.051 C 
ENDBRANCH   7   9
ENDBRANCH   4   7
TORSDOF 2
ENDMDL
MODEL 9
REMARK VINA RESULT:      -3.5      1.948      4.063
REMARK  2 active torsions:
REMARK  status: ('A' for Active; 'I' for Inactive)
REMARK    1  A    between atoms: C2_2  and  C3_3 
REMARK    2  A    between atoms: C3_3  and  C7_7 
ROOT
HETATM    1  C4  UNL     1     -34.977  16.596  -1.463  1.00 20.00     0.084 C 
HETATM    2  C5  UNL     1     -35.977  17.677  -1.836  1.00 20.00     0.085 C 
HETATM    3  C6  UNL     1     -34.524  16.868  -4.224  1.00 20.00     0.097 C 
HETATM    4  C7  UNL     1     -35.981  16.447  -4.366  1.00 20.00     0.131 C 
HETATM    5  S10 UNL     1     -33.675  16.326  -2.704  1.00 20.00    -0.167 SA
HETATM    6  S11 UNL     1     -37.128  17.152  -3.143  1.00 20.00    -0.155 SA
ENDROOT
BRANCH   4   7
HETATM    7  C3  UNL     1     -36.144  14.958  -4.370  1.00 20.00     0.169 C 
HETATM    8  O9  UNL     1     -36.969  14.420  -3.630  1.00 20.00    -0.291 OA
BRANCH   7   9
HETATM    9  C2  UNL     1     -35.297  14.119  -5.281  1.00 20.00    -0.024 C 
HETATM   10  C1  UNL     1     -34.471  13.181  -4.799  1.00 20.00     0.022 C 
HETATM   11  C8  UNL     1     -35.425  14.387  -6.751  1.00 20.00     0.051 C 
ENDBRANCH   7   9
ENDBRANCH   4   7
TORSDOF 2
ENDMDL
