MODEL 1
REMARK VINA RESULT:      -5.2      0.000      0.000
REMARK  0 active torsions:
REMARK  status: ('A' for Active; 'I' for Inactive)
ROOT
HETATM    1  C1  UNL     1     -34.398  13.655  -4.428  1.00 20.00     0.064 C 
HETATM    2  C2  UNL     1     -35.874  18.970  -0.491  1.00 20.00     0.000 C 
HETATM    3  C3  UNL     1     -36.120  18.899  -1.994  1.00 20.00     0.003 C 
HETATM    4  C4  UNL     1     -34.592  18.246  -0.097  1.00 20.00     0.003 C 
HETATM    5  C5  UNL     1     -36.105  17.455  -2.496  1.00 20.00     0.038 C 
HETATM    6  C6  UNL     1     -34.574  16.807  -0.616  1.00 20.00     0.038 C 
HETATM    7  C7  UNL     1     -34.072  16.071  -4.807  1.00 20.00     0.045 C 
HETATM    8  C8  UNL     1     -34.833  15.232  -2.572  1.00 20.00     0.057 C 
HETATM    9  C9  UNL     1     -33.628  17.384  -4.171  1.00 20.00     0.170 C 
HETATM   10  C10 UNL     1     -33.981  14.923  -3.810  1.00 20.00     0.097 C 
HETATM   11  C11 UNL     1     -34.787  16.722  -2.146  1.00 20.00     0.062 C 
HETATM   12  N12 UNL     1     -34.726  12.654  -4.916  1.00 20.00    -0.197 NA
HETATM   13  O13 UNL     1     -33.655  17.368  -2.745  1.00 20.00    -0.380 OA
ENDROOT
TORSDOF 0
ENDMDL
MODEL 2
REMARK VINA RESULT:      -5.1      2.556      4.835
REMARK  0 active torsions:
REMARK  status: ('A' for Active; 'I' for Inactive)
ROOT
HETATM    1  C1  UNL     1     -33.594  17.777  -0.694  1.00 20.00     0.064 C 
HETATM    2  C2  UNL     1     -34.792  14.045  -6.224  1.00 20.00     0.000 C 
HETATM    3  C3  UNL     1     -35.219  15.497  -6.039  1.00 20.00     0.003 C 
HETATM    4  C4  UNL     1     -34.881  13.263  -4.919  1.00 20.00     0.003 C 
HETATM    5  C5  UNL     1     -34.431  16.173  -4.915  1.00 20.00     0.038 C 
HETATM    6  C6  UNL     1     -34.107  13.951  -3.793  1.00 20.00     0.038 C 
HETATM    7  C7  UNL     1     -35.621  17.578  -2.087  1.00 20.00     0.045 C 
HETATM    8  C8  UNL     1     -33.668  16.058  -2.472  1.00 20.00     0.057 C 
HETATM    9  C9  UNL     1     -36.533  16.607  -2.831  1.00 20.00     0.170 C 
HETATM   10  C10 UNL     1     -34.466  16.842  -1.422  1.00 20.00     0.097 C 
HETATM   11  C11 UNL     1     -34.554  15.416  -3.570  1.00 20.00     0.062 C 
HETATM   12  N12 UNL     1     -32.907  18.514  -0.120  1.00 20.00    -0.197 NA
HETATM   13  O13 UNL     1     -35.917  15.356  -3.126  1.00 20.00    -0.380 OA
ENDROOT
TORSDOF 0
ENDMDL
MODEL 3
REMARK VINA RESULT:      -4.8      2.881      4.749
REMARK  0 active torsions:
REMARK  status: ('A' for Active; 'I' for Inactive)
ROOT
HETATM    1  C1  UNL     1     -32.748  18.835  -0.785  1.00 20.00     0.064 C 
HETATM    2  C2  UNL     1     -34.609  14.228  -5.395  1.00 20.00     0.000 C 
HETATM    3  C3  UNL     1     -33.945  15.563  -5.711  1.00 20.00     0.003 C 
HETATM    4  C4  UNL     1     -35.565  14.342  -4.213  1.00 20.00     0.003 C 
HETATM    5  C5  UNL     1     -33.259  16.153  -4.478  1.00 20.00     0.038 C 
HETATM    6  C6  UNL     1     -34.879  14.948  -2.987  1.00 20.00     0.038 C 
HETATM    7  C7  UNL     1     -33.864  19.110  -2.968  1.00 20.00     0.045 C 
HETATM    8  C8  UNL     1     -33.495  16.823  -2.016  1.00 20.00     0.057 C 
HETATM    9  C9  UNL     1     -34.940  18.558  -3.897  1.00 20.00     0.170 C 
HETATM   10  C10 UNL     1     -33.778  18.294  -1.686  1.00 20.00     0.097 C 
HETATM   11  C11 UNL     1     -34.231  16.321  -3.285  1.00 20.00     0.062 C 
HETATM   12  N12 UNL     1     -31.937  19.262  -0.074  1.00 20.00    -0.197 NA
HETATM   13  O13 UNL     1     -35.309  17.211  -3.610  1.00 20.00    -0.380 OA
ENDROOT
TORSDOF 0
ENDMDL
MODEL 4
REMARK VINA RESULT:      -4.7      1.558      1.846
REMARK  0 active torsions:
REMARK  status: ('A' for Active; 'I' for Inactive)
ROOT
HETATM    1  C1  UNL     1     -34.953  14.909  -6.956  1.00 20.00     0.064 C 
HETATM    2  C2  UNL     1     -35.519  17.828  -0.865  1.00 20.00     0.000 C 
HETATM    3  C3  UNL     1     -35.709  18.542  -2.199  1.00 20.00     0.003 C 
HETATM    4  C4  UNL     1     -34.424  16.771  -0.945  1.00 20.00     0.003 C 
HETATM    5  C5  UNL     1     -35.958  17.549  -3.335  1.00 20.00     0.038 C 
HETATM    6  C6  UNL     1     -34.668  15.790  -2.093  1.00 20.00     0.038 C 
HETATM    7  C7  UNL     1     -34.140  17.091  -6.141  1.00 20.00     0.045 C 
HETATM    8  C8  UNL     1     -35.148  15.442  -4.547  1.00 20.00     0.057 C 
HETATM    9  C9  UNL     1     -33.473  17.818  -4.979  1.00 20.00     0.170 C 
HETATM   10  C10 UNL     1     -34.322  15.612  -5.829  1.00 20.00     0.097 C 
HETATM   11  C11 UNL     1     -34.827  16.499  -3.460  1.00 20.00     0.062 C 
HETATM   12  N12 UNL     1     -35.452  14.354  -7.845  1.00 20.00    -0.197 NA
HETATM   13  O13 UNL     1     -33.564  17.120  -3.738  1.00 20.00    -0.380 OA
ENDROOT
TORSDOF 0
ENDMDL
MODEL 5
REMARK VINA RESULT:      -4.6      3.380      4.792
REMARK  0 active torsions:
REMARK  status: ('A' for Active; 'I' for Inactive)
ROOT
HETATM    1  C1  UNL     1     -38.790  14.909  -7.103  1.00 20.00     0.064 C 
HETATM    2  C2  UNL     1     -32.874  14.625  -3.809  1.00 20.00     0.000 C 
HETATM    3  C3  UNL     1     -34.138  13.876  -3.403  1.00 20.00     0.003 C 
HETATM    4  C4  UNL     1     -33.195  15.999  -4.385  1.00 20.00     0.003 C 
HETATM    5  C5  UNL     1     -35.133  13.789  -4.561  1.00 20.00     0.038 C 
HETATM    6  C6  UNL     1     -34.204  15.909  -5.532  1.00 20.00     0.038 C 
HETATM    7  C7  UNL     1     -38.296  14.959  -4.686  1.00 20.00     0.045 C 
HETATM    8  C8  UNL     1     -36.435  15.066  -6.361  1.00 20.00     0.057 C 
HETATM    9  C9  UNL     1     -37.373  15.530  -3.614  1.00 20.00     0.170 C 
HETATM   10  C10 UNL     1     -37.892  15.449  -6.071  1.00 20.00     0.097 C 
HETATM   11  C11 UNL     1     -35.507  15.182  -5.124  1.00 20.00     0.062 C 
HETATM   12  N12 UNL     1     -39.498  14.483  -7.917  1.00 20.00    -0.197 NA
HETATM   13  O13 UNL     1     -36.127  16.001  -4.122  1.00 20.00    -0.380 OA
ENDROOT
TORSDOF 0
ENDMDL
MODEL 6
REMARK VINA RESULT:      -4.6      2.778      4.757
REMARK  0 active torsions:
REMARK  status: ('A' for Active; 'I' for Inactive)
ROOT
HETATM    1  C1  UNL     1     -34.750  17.935   1.149  1.00 20.00     0.064 C 
HETATM    2  C2  UNL     1     -33.364  16.675  -5.365  1.00 20.00     0.000 C 
HETATM    3  C3  UNL     1     -34.033  17.941  -4.842  1.00 20.00     0.003 C 
HETATM    4  C4  UNL     1     -33.795  15.445  -4.575  1.00 20.00     0.003 C 
HETATM    5  C5  UNL     1     -33.800  18.118  -3.341  1.00 20.00     0.038 C 
HETATM    6  C6  UNL     1     -33.577  15.632  -3.073  1.00 20.00     0.038 C 
HETATM    7  C7  UNL     1     -36.102  18.311  -0.881  1.00 20.00     0.045 C 
HETATM    8  C8  UNL     1     -33.941  17.050  -1.016  1.00 20.00     0.057 C 
HETATM    9  C9  UNL     1     -36.542  17.715  -2.214  1.00 20.00     0.170 C 
HETATM   10  C10 UNL     1     -35.163  17.365  -0.143  1.00 20.00     0.097 C 
HETATM   11  C11 UNL     1     -34.280  16.895  -2.521  1.00 20.00     0.062 C 
HETATM   12  N12 UNL     1     -34.425  18.384   2.168  1.00 20.00    -0.197 NA
HETATM   13  O13 UNL     1     -35.688  16.675  -2.686  1.00 20.00    -0.380 OA
ENDROOT
TORSDOF 0
ENDMDL
MODEL 7
REMARK VINA RESULT:      -4.6      3.734      4.828
REMARK  0 active torsions:
REMARK  status: ('A' for Active; 'I' for Inactive)
ROOT
HETATM    1  C1  UNL     1     -38.559  15.773  -7.246  1.00 20.00     0.064 C 
HETATM    2  C2  UNL     1     -32.935  15.031  -3.538  1.00 20.00     0.000 C 
HETATM    3  C3  UNL     1     -33.114  16.044  -4.663  1.00 20.00     0.003 C 
HETATM    4  C4  UNL     1     -33.652  13.721  -3.842  1.00 20.00     0.003 C 
HETATM    5  C5  UNL     1     -34.592  16.266  -4.986  1.00 20.00     0.038 C 
HETATM    6  C6  UNL     1     -35.126  13.949  -4.181  1.00 20.00     0.038 C 
HETATM    7  C7  UNL     1     -36.185  15.760  -7.917  1.00 20.00     0.045 C 
HETATM    8  C8  UNL     1     -36.839  15.181  -5.569  1.00 20.00     0.057 C 
HETATM    9  C9  UNL     1     -34.837  15.075  -7.719  1.00 20.00     0.170 C 
HETATM   10  C10 UNL     1     -37.257  15.120  -7.044  1.00 20.00     0.097 C 
HETATM   11  C11 UNL     1     -35.322  14.949  -5.346  1.00 20.00     0.062 C 
HETATM   12  N12 UNL     1     -39.587  16.287  -7.405  1.00 20.00    -0.197 NA
HETATM   13  O13 UNL     1     -34.745  14.331  -6.506  1.00 20.00    -0.380 OA
ENDROOT
TORSDOF 0
ENDMDL
MODEL 8
REMARK VINA RESULT:      -4.6      2.873      5.043
REMARK  0 active torsions:
REMARK  status: ('A' for Active; 'I' for Inactive)
ROOT
HETATM    1  C1  UNL     1     -33.686  18.123  -1.826  1.00 20.00     0.064 C 
HETATM    2  C2  UNL     1     -35.972  15.130  -7.462  1.00 20.00     0.000 C 
HETATM    3  C3  UNL     1     -36.701  15.147  -6.123  1.00 20.00     0.003 C 
HETATM    4  C4  UNL     1     -34.462  15.032  -7.278  1.00 20.00     0.003 C 
HETATM    5  C5  UNL     1     -36.165  16.250  -5.208  1.00 20.00     0.038 C 
HETATM    6  C6  UNL     1     -33.933  16.126  -6.349  1.00 20.00     0.038 C 
HETATM    7  C7  UNL     1     -34.771  15.931  -2.152  1.00 20.00     0.045 C 
HETATM    8  C8  UNL     1     -34.101  17.316  -4.129  1.00 20.00     0.057 C 
HETATM    9  C9  UNL     1     -34.831  14.688  -3.034  1.00 20.00     0.170 C 
HETATM   10  C10 UNL     1     -33.753  16.930  -2.685  1.00 20.00     0.097 C 
HETATM   11  C11 UNL     1     -34.640  16.132  -4.972  1.00 20.00     0.062 C 
HETATM   12  N12 UNL     1     -33.633  19.063  -1.149  1.00 20.00    -0.197 NA
HETATM   13  O13 UNL     1     -34.302  14.888  -4.342  1.00 20.00    -0.380 OA
ENDROOT
TORSDOF 0
ENDMDL
MODEL 9
REMARK VINA RESULT:      -4.5      2.679      4.560
REMARK  0 active torsions:
REMARK  status: ('A' for Active; 'I' for Inactive)
ROOT
HETATM    1  C1  UNL     1     -34.397  16.998  -0.965  1.00 20.00     0.064 C 
HETATM    2  C2  UNL     1     -34.794  18.273  -7.610  1.00 20.00     0.000 C 
HETATM    3  C3  UNL     1     -35.181  16.956  -6.947  1.00 20.00     0.003 C 
HETATM    4  C4  UNL     1     -33.590  18.912  -6.928  1.00 20.00     0.003 C 
HETATM    5  C5  UNL     1     -35.404  17.130  -5.444  1.00 20.00     0.038 C 
HETATM    6  C6  UNL     1     -33.809  19.069  -5.422  1.00 20.00     0.038 C 
HETATM    7  C7  UNL     1     -33.789  15.601  -2.905  1.00 20.00     0.045 C 
HETATM    8  C8  UNL     1     -34.450  17.996  -3.229  1.00 20.00     0.057 C 
HETATM    9  C9  UNL     1     -33.118  15.594  -4.275  1.00 20.00     0.170 C 
HETATM   10  C10 UNL     1     -33.762  16.995  -2.292  1.00 20.00     0.097 C 
HETATM   11  C11 UNL     1     -34.169  17.732  -4.730  1.00 20.00     0.062 C 
HETATM   12  N12 UNL     1     -34.898  17.001   0.082  1.00 20.00    -0.197 NA
HETATM   13  O13 UNL     1     -33.019  16.886  -4.871  1.00 20.00    -0.380 OA
ENDROOT
TORSDOF 0
ENDMDL
