MODEL 1
REMARK VINA RESULT:      -4.2      0.000      0.000
REMARK  0 active torsions:
REMARK  status: ('A' for Active; 'I' for Inactive)
ROOT
HETATM    1  C1  UNL     1     -34.458  13.649  -4.474  1.00 20.00     0.086 C 
HETATM    2  C2  UNL     1     -34.872  15.404  -2.773  1.00 20.00     0.056 C 
HETATM    3  C3  UNL     1     -34.128  16.037  -5.019  1.00 20.00     0.115 C 
HETATM    4  C4  UNL     1     -34.671  16.903  -2.519  1.00 20.00     0.046 C 
HETATM    5  C5  UNL     1     -34.007  14.950  -3.955  1.00 20.00     0.135 C 
HETATM    6  C6  UNL     1     -33.650  17.224  -1.437  1.00 20.00     0.021 C 
HETATM    7  N7  UNL     1     -34.814  12.624  -4.883  1.00 20.00    -0.195 NA
HETATM    8  S8  UNL     1     -34.164  17.614  -4.118  1.00 20.00    -0.162 SA
HETATM    9 CL9  UNL     1     -32.296  14.719  -3.470  1.00 20.00    -0.102 Cl
ENDROOT
TORSDOF 0
ENDMDL
MODEL 2
REMARK VINA RESULT:      -4.1      2.251      2.541
REMARK  0 active torsions:
REMARK  status: ('A' for Active; 'I' for Inactive)
ROOT
HETATM    1  C1  UNL     1     -37.005  14.536  -4.016  1.00 20.00     0.086 C 
HETATM    2  C2  UNL     1     -34.778  15.125  -3.098  1.00 20.00     0.056 C 
HETATM    3  C3  UNL     1     -35.441  15.948  -5.308  1.00 20.00     0.115 C 
HETATM    4  C4  UNL     1     -33.443  15.759  -3.502  1.00 20.00     0.046 C 
HETATM    5  C5  UNL     1     -35.591  14.769  -4.349  1.00 20.00     0.135 C 
HETATM    6  C6  UNL     1     -32.274  14.784  -3.551  1.00 20.00     0.021 C 
HETATM    7  N7  UNL     1     -38.120  14.352  -3.753  1.00 20.00    -0.195 NA
HETATM    8  S8  UNL     1     -33.725  16.514  -5.136  1.00 20.00    -0.162 SA
HETATM    9 CL9  UNL     1     -35.008  13.252  -5.107  1.00 20.00    -0.102 Cl
ENDROOT
TORSDOF 0
ENDMDL
MODEL 3
REMARK VINA RESULT:      -3.9      1.009      1.009
REMARK  0 active torsions:
REMARK  status: ('A' for Active; 'I' for Inactive)
ROOT
HETATM    1  C1  UNL     1     -34.830  13.902  -4.107  1.00 20.00     0.086 C 
HETATM    2  C2  UNL     1     -34.846  15.497  -2.210  1.00 20.00     0.056 C 
HETATM    3  C3  UNL     1     -35.579  16.235  -4.427  1.00 20.00     0.115 C 
HETATM    4  C4  UNL     1     -35.019  16.988  -1.896  1.00 20.00     0.046 C 
HETATM    5  C5  UNL     1     -34.607  15.301  -3.712  1.00 20.00     0.135 C 
HETATM    6  C6  UNL     1     -33.748  17.681  -1.423  1.00 20.00     0.021 C 
HETATM    7  N7  UNL     1     -35.006  12.798  -4.419  1.00 20.00    -0.195 NA
HETATM    8  S8  UNL     1     -35.640  17.750  -3.429  1.00 20.00    -0.162 SA
HETATM    9 CL9  UNL     1     -32.912  15.675  -4.165  1.00 20.00    -0.102 Cl
ENDROOT
TORSDOF 0
ENDMDL
MODEL 4
REMARK VINA RESULT:      -3.9     12.878     13.800
REMARK  0 active torsions:
REMARK  status: ('A' for Active; 'I' for Inactive)
ROOT
HETATM    1  C1  UNL     1     -41.923   2.864  -2.781  1.00 20.00     0.086 C 
HETATM    2  C2  UNL     1     -40.812   4.567  -1.363  1.00 20.00     0.056 C 
HETATM    3  C3  UNL     1     -43.080   3.822  -0.818  1.00 20.00     0.115 C 
HETATM    4  C4  UNL     1     -41.098   5.557  -0.228  1.00 20.00     0.046 C 
HETATM    5  C5  UNL     1     -42.128   4.082  -1.983  1.00 20.00     0.135 C 
HETATM    6  C6  UNL     1     -41.031   7.021  -0.640  1.00 20.00     0.021 C 
HETATM    7  N7  UNL     1     -41.761   1.903  -3.411  1.00 20.00    -0.195 NA
HETATM    8  S8  UNL     1     -42.758   5.135   0.393  1.00 20.00    -0.162 SA
HETATM    9 CL9  UNL     1     -42.815   5.298  -3.108  1.00 20.00    -0.102 Cl
ENDROOT
TORSDOF 0
ENDMDL
MODEL 5
REMARK VINA RESULT:      -3.7      1.772      2.002
REMARK  0 active torsions:
REMARK  status: ('A' for Active; 'I' for Inactive)
ROOT
HETATM    1  C1  UNL     1     -34.828  13.958  -4.184  1.00 20.00     0.086 C 
HETATM    2  C2  UNL     1     -35.832  16.163  -4.712  1.00 20.00     0.056 C 
HETATM    3  C3  UNL     1     -33.395  15.917  -4.656  1.00 20.00     0.115 C 
HETATM    4  C4  UNL     1     -35.461  17.640  -4.890  1.00 20.00     0.046 C 
HETATM    5  C5  UNL     1     -34.688  15.413  -4.018  1.00 20.00     0.135 C 
HETATM    6  C6  UNL     1     -35.996  18.557  -3.798  1.00 20.00     0.021 C 
HETATM    7  N7  UNL     1     -34.939  12.811  -4.316  1.00 20.00    -0.195 NA
HETATM    8  S8  UNL     1     -33.641  17.692  -4.945  1.00 20.00    -0.162 SA
HETATM    9 CL9  UNL     1     -34.682  15.707  -2.249  1.00 20.00    -0.102 Cl
ENDROOT
TORSDOF 0
ENDMDL
MODEL 6
REMARK VINA RESULT:      -3.7      2.305      2.668
REMARK  0 active torsions:
REMARK  status: ('A' for Active; 'I' for Inactive)
ROOT
HETATM    1  C1  UNL     1     -34.848  13.701  -4.994  1.00 20.00     0.086 C 
HETATM    2  C2  UNL     1     -34.103  16.034  -4.610  1.00 20.00     0.056 C 
HETATM    3  C3  UNL     1     -36.361  15.600  -5.455  1.00 20.00     0.115 C 
HETATM    4  C4  UNL     1     -34.518  17.486  -4.876  1.00 20.00     0.046 C 
HETATM    5  C5  UNL     1     -34.925  15.084  -5.490  1.00 20.00     0.135 C 
HETATM    6  C6  UNL     1     -33.634  18.218  -5.876  1.00 20.00     0.021 C 
HETATM    7  N7  UNL     1     -34.787  12.611  -4.602  1.00 20.00    -0.195 NA
HETATM    8  S8  UNL     1     -36.240  17.412  -5.466  1.00 20.00    -0.162 SA
HETATM    9 CL9  UNL     1     -34.304  15.037  -7.171  1.00 20.00    -0.102 Cl
ENDROOT
TORSDOF 0
ENDMDL
MODEL 7
REMARK VINA RESULT:      -3.6      2.602      3.652
REMARK  0 active torsions:
REMARK  status: ('A' for Active; 'I' for Inactive)
ROOT
HETATM    1  C1  UNL     1     -34.778  16.019  -2.029  1.00 20.00     0.086 C 
HETATM    2  C2  UNL     1     -34.609  16.381  -4.476  1.00 20.00     0.056 C 
HETATM    3  C3  UNL     1     -36.585  15.275  -3.544  1.00 20.00     0.115 C 
HETATM    4  C4  UNL     1     -35.283  15.994  -5.797  1.00 20.00     0.046 C 
HETATM    5  C5  UNL     1     -35.080  15.451  -3.352  1.00 20.00     0.135 C 
HETATM    6  C6  UNL     1     -34.448  15.081  -6.684  1.00 20.00     0.021 C 
HETATM    7  N7  UNL     1     -34.540  16.468  -0.986  1.00 20.00    -0.195 NA
HETATM    8  S8  UNL     1     -36.852  15.191  -5.337  1.00 20.00    -0.162 SA
HETATM    9 CL9  UNL     1     -34.241  13.867  -3.409  1.00 20.00    -0.102 Cl
ENDROOT
TORSDOF 0
ENDMDL
MODEL 8
REMARK VINA RESULT:      -3.6      1.940      2.372
REMARK  0 active torsions:
REMARK  status: ('A' for Active; 'I' for Inactive)
ROOT
HETATM    1  C1  UNL     1     -34.897  13.761  -4.484  1.00 20.00     0.086 C 
HETATM    2  C2  UNL     1     -33.543  15.833  -4.345  1.00 20.00     0.056 C 
HETATM    3  C3  UNL     1     -35.671  15.687  -3.142  1.00 20.00     0.115 C 
HETATM    4  C4  UNL     1     -33.614  17.284  -3.855  1.00 20.00     0.046 C 
HETATM    5  C5  UNL     1     -34.951  15.229  -4.408  1.00 20.00     0.135 C 
HETATM    6  C6  UNL     1     -33.624  18.322  -4.969  1.00 20.00     0.021 C 
HETATM    7  N7  UNL     1     -34.854  12.603  -4.544  1.00 20.00    -0.195 NA
HETATM    8  S8  UNL     1     -35.130  17.395  -2.852  1.00 20.00    -0.162 SA
HETATM    9 CL9  UNL     1     -35.835  15.765  -5.874  1.00 20.00    -0.102 Cl
ENDROOT
TORSDOF 0
ENDMDL
MODEL 9
REMARK VINA RESULT:      -3.6      2.777      3.742
REMARK  0 active torsions:
REMARK  status: ('A' for Active; 'I' for Inactive)
ROOT
HETATM    1  C1  UNL     1     -34.735  16.573  -1.401  1.00 20.00     0.086 C 
HETATM    2  C2  UNL     1     -34.306  14.871  -3.152  1.00 20.00     0.056 C 
HETATM    3  C3  UNL     1     -33.815  17.229  -3.599  1.00 20.00     0.115 C 
HETATM    4  C4  UNL     1     -33.949  14.740  -4.637  1.00 20.00     0.046 C 
HETATM    5  C5  UNL     1     -34.766  16.302  -2.846  1.00 20.00     0.135 C 
HETATM    6  C6  UNL     1     -35.070  14.185  -5.505  1.00 20.00     0.021 C 
HETATM    7  N7  UNL     1     -34.710  16.786  -0.261  1.00 20.00    -0.195 NA
HETATM    8  S8  UNL     1     -33.473  16.411  -5.184  1.00 20.00    -0.162 SA
HETATM    9 CL9  UNL     1     -36.463  16.574  -3.360  1.00 20.00    -0.102 Cl
ENDROOT
TORSDOF 0
ENDMDL
