MODEL 1
REMARK VINA RESULT:      -4.9      0.000      0.000
REMARK  1 active torsions:
REMARK  status: ('A' for Active; 'I' for Inactive)
REMARK    1  A    between atoms: C2_2  and  C3_3 
ROOT
HETATM    1  C1  UNL     1     -34.962  15.348  -2.839  1.00 20.00    -0.063 C 
HETATM    2  C2  UNL     1     -34.095  14.567  -3.501  1.00 20.00     0.088 C 
HETATM    3  C4  UNL     1     -34.558  16.130  -1.612  1.00 20.00     0.044 C 
HETATM    4  C5  UNL     1     -36.397  15.477  -3.258  1.00 20.00     0.108 C 
HETATM    5  C6  UNL     1     -36.201  18.008  -2.167  1.00 20.00     0.083 C 
HETATM    6  C7  UNL     1     -34.748  17.661  -1.763  1.00 20.00    -0.036 C 
HETATM    7  C8  UNL     1     -33.740  18.235  -2.783  1.00 20.00     0.016 C 
HETATM    8  C9  UNL     1     -34.459  18.322  -0.398  1.00 20.00     0.016 C 
HETATM    9  S12 UNL     1     -36.773  17.198  -3.699  1.00 20.00    -0.164 SA
ENDROOT
BRANCH   2  10
HETATM   10  C3  UNL     1     -34.510  13.776  -4.745  1.00 20.00     0.198 C 
HETATM   11  O10 UNL     1     -34.955  12.619  -4.490  1.00 20.00    -0.644 OA
HETATM   12  O11 UNL     1     -34.366  14.345  -5.864  1.00 20.00    -0.644 OA
ENDBRANCH   2  10
TORSDOF 1
ENDMDL
MODEL 2
REMARK VINA RESULT:      -4.7      1.665      2.000
REMARK  1 active torsions:
REMARK  status: ('A' for Active; 'I' for Inactive)
REMARK    1  A    between atoms: C2_2  and  C3_3 
ROOT
HETATM    1  C1  UNL     1     -34.542  16.472  -2.299  1.00 20.00    -0.063 C 
HETATM    2  C2  UNL     1     -33.624  15.704  -2.903  1.00 20.00     0.088 C 
HETATM    3  C4  UNL     1     -34.665  16.539  -0.795  1.00 20.00     0.044 C 
HETATM    4  C5  UNL     1     -35.526  17.296  -3.076  1.00 20.00     0.108 C 
HETATM    5  C6  UNL     1     -35.433  18.976  -0.884  1.00 20.00     0.083 C 
HETATM    6  C7  UNL     1     -34.467  17.966  -0.221  1.00 20.00    -0.036 C 
HETATM    7  C8  UNL     1     -32.999  18.417  -0.384  1.00 20.00     0.016 C 
HETATM    8  C9  UNL     1     -34.777  17.926   1.290  1.00 20.00     0.016 C 
HETATM    9  S12 UNL     1     -35.307  19.060  -2.703  1.00 20.00    -0.164 SA
ENDROOT
BRANCH   2  10
HETATM   10  C3  UNL     1     -33.503  15.640  -4.429  1.00 20.00     0.198 C 
HETATM   11  O10 UNL     1     -34.125  14.669  -4.951  1.00 20.00    -0.644 OA
HETATM   12  O11 UNL     1     -32.813  16.537  -4.991  1.00 20.00    -0.644 OA
ENDBRANCH   2  10
TORSDOF 1
ENDMDL
MODEL 3
REMARK VINA RESULT:      -4.6      3.032      4.673
REMARK  1 active torsions:
REMARK  status: ('A' for Active; 'I' for Inactive)
REMARK    1  A    between atoms: C2_2  and  C3_3 
ROOT
HETATM    1  C1  UNL     1     -34.232  16.214  -2.416  1.00 20.00    -0.063 C 
HETATM    2  C2  UNL     1     -34.610  16.396  -1.142  1.00 20.00     0.088 C 
HETATM    3  C4  UNL     1     -34.152  14.840  -3.039  1.00 20.00     0.044 C 
HETATM    4  C5  UNL     1     -33.838  17.360  -3.301  1.00 20.00     0.108 C 
HETATM    5  C6  UNL     1     -34.788  15.755  -5.339  1.00 20.00     0.083 C 
HETATM    6  C7  UNL     1     -35.069  14.667  -4.276  1.00 20.00    -0.036 C 
HETATM    7  C8  UNL     1     -36.555  14.677  -3.855  1.00 20.00     0.016 C 
HETATM    8  C9  UNL     1     -34.773  13.290  -4.908  1.00 20.00     0.016 C 
HETATM    9  S12 UNL     1     -34.953  17.467  -4.729  1.00 20.00    -0.164 SA
ENDROOT
BRANCH   2  10
HETATM   10  C3  UNL     1     -34.690  17.791  -0.516  1.00 20.00     0.198 C 
HETATM   11  O10 UNL     1     -33.636  18.140   0.092  1.00 20.00    -0.644 OA
HETATM   12  O11 UNL     1     -35.770  18.429  -0.666  1.00 20.00    -0.644 OA
ENDBRANCH   2  10
TORSDOF 1
ENDMDL
MODEL 4
REMARK VINA RESULT:      -4.4      1.663      2.047
REMARK  1 active torsions:
REMARK  status: ('A' for Active; 'I' for Inactive)
REMARK    1  A    between atoms: C2_2  and  C3_3 
ROOT
HETATM    1  C1  UNL     1     -35.120  15.622  -3.774  1.00 20.00    -0.063 C 
HETATM    2  C2  UNL     1     -34.898  14.404  -3.256  1.00 20.00     0.088 C 
HETATM    3  C4  UNL     1     -35.825  16.706  -2.995  1.00 20.00     0.044 C 
HETATM    4  C5  UNL     1     -34.704  15.980  -5.170  1.00 20.00     0.108 C 
HETATM    5  C6  UNL     1     -34.463  18.536  -4.149  1.00 20.00     0.083 C 
HETATM    6  C7  UNL     1     -34.968  17.983  -2.796  1.00 20.00    -0.036 C 
HETATM    7  C8  UNL     1     -33.789  17.700  -1.840  1.00 20.00     0.016 C 
HETATM    8  C9  UNL     1     -35.854  19.062  -2.137  1.00 20.00     0.016 C 
HETATM    9  S12 UNL     1     -33.504  17.342  -5.142  1.00 20.00    -0.164 SA
ENDROOT
BRANCH   2  10
HETATM   10  C3  UNL     1     -34.182  13.308  -4.049  1.00 20.00     0.198 C 
HETATM   11  O10 UNL     1     -32.940  13.234  -3.812  1.00 20.00    -0.644 OA
HETATM   12  O11 UNL     1     -34.884  12.614  -4.837  1.00 20.00    -0.644 OA
ENDBRANCH   2  10
TORSDOF 1
ENDMDL
MODEL 5
REMARK VINA RESULT:      -4.4      2.529      3.528
REMARK  1 active torsions:
REMARK  status: ('A' for Active; 'I' for Inactive)
REMARK    1  A    between atoms: C2_2  and  C3_3 
ROOT
HETATM    1  C1  UNL     1     -34.309  15.614  -5.316  1.00 20.00    -0.063 C 
HETATM    2  C2  UNL     1     -35.177  14.626  -5.583  1.00 20.00     0.088 C 
HETATM    3  C4  UNL     1     -33.946  16.658  -6.344  1.00 20.00     0.044 C 
HETATM    4  C5  UNL     1     -33.623  15.733  -3.988  1.00 20.00     0.108 C 
HETATM    5  C6  UNL     1     -33.620  18.440  -4.540  1.00 20.00     0.083 C 
HETATM    6  C7  UNL     1     -34.278  18.106  -5.900  1.00 20.00    -0.036 C 
HETATM    7  C8  UNL     1     -35.807  18.318  -5.841  1.00 20.00     0.016 C 
HETATM    8  C9  UNL     1     -33.713  19.078  -6.958  1.00 20.00     0.016 C 
HETATM    9  S12 UNL     1     -34.066  17.300  -3.186  1.00 20.00    -0.164 SA
ENDROOT
BRANCH   2  10
HETATM   10  C3  UNL     1     -35.542  13.569  -4.536  1.00 20.00     0.198 C 
HETATM   11  O10 UNL     1     -34.786  12.554  -4.549  1.00 20.00    -0.644 OA
HETATM   12  O11 UNL     1     -36.533  13.813  -3.792  1.00 20.00    -0.644 OA
ENDBRANCH   2  10
TORSDOF 1
ENDMDL
MODEL 6
REMARK VINA RESULT:      -4.3      2.807      4.544
REMARK  1 active torsions:
REMARK  status: ('A' for Active; 'I' for Inactive)
REMARK    1  A    between atoms: C2_2  and  C3_3 
ROOT
HETATM    1  C1  UNL     1     -34.495  16.473  -3.548  1.00 20.00    -0.063 C 
HETATM    2  C2  UNL     1     -33.660  16.382  -2.503  1.00 20.00     0.088 C 
HETATM    3  C4  UNL     1     -34.226  15.760  -4.852  1.00 20.00     0.044 C 
HETATM    4  C5  UNL     1     -35.740  17.309  -3.501  1.00 20.00     0.108 C 
HETATM    5  C6  UNL     1     -36.725  15.453  -5.296  1.00 20.00     0.083 C 
HETATM    6  C7  UNL     1     -35.341  14.761  -5.254  1.00 20.00    -0.036 C 
HETATM    7  C8  UNL     1     -35.358  13.552  -4.293  1.00 20.00     0.016 C 
HETATM    8  C9  UNL     1     -35.027  14.229  -6.668  1.00 20.00     0.016 C 
HETATM    9  S12 UNL     1     -37.209  16.268  -3.736  1.00 20.00    -0.164 SA
ENDROOT
BRANCH   2  10
HETATM   10  C3  UNL     1     -33.938  17.106  -1.182  1.00 20.00     0.198 C 
HETATM   11  O10 UNL     1     -33.319  18.204  -1.061  1.00 20.00    -0.644 OA
HETATM   12  O11 UNL     1     -34.732  16.547  -0.374  1.00 20.00    -0.644 OA
ENDBRANCH   2  10
TORSDOF 1
ENDMDL
MODEL 7
REMARK VINA RESULT:      -4.1      2.445      3.319
REMARK  1 active torsions:
REMARK  status: ('A' for Active; 'I' for Inactive)
REMARK    1  A    between atoms: C2_2  and  C3_3 
ROOT
HETATM    1  C1  UNL     1     -35.239  15.598  -4.505  1.00 20.00    -0.063 C 
HETATM    2  C2  UNL     1     -34.289  14.798  -5.013  1.00 20.00     0.088 C 
HETATM    3  C4  UNL     1     -35.493  16.984  -5.049  1.00 20.00     0.044 C 
HETATM    4  C5  UNL     1     -36.095  15.179  -3.346  1.00 20.00     0.108 C 
HETATM    5  C6  UNL     1     -37.985  16.832  -4.501  1.00 20.00     0.083 C 
HETATM    6  C7  UNL     1     -36.935  17.185  -5.581  1.00 20.00    -0.036 C 
HETATM    7  C8  UNL     1     -37.161  16.355  -6.863  1.00 20.00     0.016 C 
HETATM    8  C9  UNL     1     -37.110  18.674  -5.951  1.00 20.00     0.016 C 
HETATM    9  S12 UNL     1     -37.843  15.138  -3.836  1.00 20.00    -0.164 SA
ENDROOT
BRANCH   2  10
HETATM   10  C3  UNL     1     -34.036  13.393  -4.458  1.00 20.00     0.198 C 
HETATM   11  O10 UNL     1     -34.821  12.513  -4.918  1.00 20.00    -0.644 OA
HETATM   12  O11 UNL     1     -33.098  13.264  -3.622  1.00 20.00    -0.644 OA
ENDBRANCH   2  10
TORSDOF 1
ENDMDL
MODEL 8
REMARK VINA RESULT:      -4.1      2.205      2.907
REMARK  1 active torsions:
REMARK  status: ('A' for Active; 'I' for Inactive)
REMARK    1  A    between atoms: C2_2  and  C3_3 
ROOT
HETATM    1  C1  UNL     1     -35.665  15.822  -5.076  1.00 20.00    -0.063 C 
HETATM    2  C2  UNL     1     -35.868  14.712  -5.802  1.00 20.00     0.088 C 
HETATM    3  C4  UNL     1     -35.666  15.802  -3.566  1.00 20.00     0.044 C 
HETATM    4  C5  UNL     1     -35.449  17.162  -5.716  1.00 20.00     0.108 C 
HETATM    5  C6  UNL     1     -33.946  17.690  -3.458  1.00 20.00     0.083 C 
HETATM    6  C7  UNL     1     -34.332  16.284  -2.940  1.00 20.00    -0.036 C 
HETATM    7  C8  UNL     1     -33.204  15.266  -3.215  1.00 20.00     0.016 C 
HETATM    8  C9  UNL     1     -34.520  16.371  -1.410  1.00 20.00     0.016 C 
HETATM    9  S12 UNL     1     -33.814  17.815  -5.274  1.00 20.00    -0.164 SA
ENDROOT
BRANCH   2  10
HETATM   10  C3  UNL     1     -35.866  14.737  -7.333  1.00 20.00     0.198 C 
HETATM   11  O10 UNL     1     -34.710  14.674  -7.844  1.00 20.00    -0.644 OA
HETATM   12  O11 UNL     1     -36.987  14.819  -7.910  1.00 20.00    -0.644 OA
ENDBRANCH   2  10
TORSDOF 1
ENDMDL
MODEL 9
REMARK VINA RESULT:      -4.1      3.578      4.855
REMARK  1 active torsions:
REMARK  status: ('A' for Active; 'I' for Inactive)
REMARK    1  A    between atoms: C2_2  and  C3_3 
ROOT
HETATM    1  C1  UNL     1     -34.067  17.081  -1.530  1.00 20.00    -0.063 C 
HETATM    2  C2  UNL     1     -34.764  16.782  -0.423  1.00 20.00     0.088 C 
HETATM    3  C4  UNL     1     -33.755  16.045  -2.583  1.00 20.00     0.044 C 
HETATM    4  C5  UNL     1     -33.529  18.458  -1.783  1.00 20.00     0.108 C 
HETATM    5  C6  UNL     1     -33.842  17.792  -4.447  1.00 20.00     0.083 C 
HETATM    6  C7  UNL     1     -34.320  16.396  -3.984  1.00 20.00    -0.036 C 
HETATM    7  C8  UNL     1     -35.862  16.311  -3.983  1.00 20.00     0.016 C 
HETATM    8  C9  UNL     1     -33.795  15.351  -4.992  1.00 20.00     0.016 C 
HETATM    9  S12 UNL     1     -34.253  19.150  -3.298  1.00 20.00    -0.164 SA
ENDROOT
BRANCH   2  10
HETATM   10  C3  UNL     1     -35.079  17.837   0.641  1.00 20.00     0.198 C 
HETATM   11  O10 UNL     1     -36.214  18.380   0.503  1.00 20.00    -0.644 OA
HETATM   12  O11 UNL     1     -34.196  18.050   1.520  1.00 20.00    -0.644 OA
ENDBRANCH   2  10
TORSDOF 1
ENDMDL
