MODEL 1
REMARK VINA RESULT:      -4.2      0.000      0.000
REMARK  0 active torsions:
REMARK  status: ('A' for Active; 'I' for Inactive)
ROOT
HETATM    1  C1  UNL     1     -36.873  14.675  -3.717  1.00 20.00     0.086 C 
HETATM    2  C2  UNL     1     -35.196  15.798  -2.275  1.00 20.00     0.056 C 
HETATM    3  C3  UNL     1     -35.118  16.123  -4.694  1.00 20.00     0.115 C 
HETATM    4  C4  UNL     1     -33.808  16.435  -2.355  1.00 20.00     0.046 C 
HETATM    5  C5  UNL     1     -35.473  15.103  -3.612  1.00 20.00     0.135 C 
HETATM    6  C6  UNL     1     -33.626  17.566  -1.355  1.00 20.00     0.021 C 
HETATM    7  N7  UNL     1     -37.980  14.336  -3.800  1.00 20.00    -0.195 NA
HETATM    8  S8  UNL     1     -33.675  17.039  -4.070  1.00 20.00    -0.162 SA
HETATM    9 CL9  UNL     1     -34.473  13.621  -3.784  1.00 20.00    -0.102 Cl
ENDROOT
TORSDOF 0
ENDMDL
MODEL 2
REMARK VINA RESULT:      -4.1      2.076      2.165
REMARK  0 active torsions:
REMARK  status: ('A' for Active; 'I' for Inactive)
ROOT
HETATM    1  C1  UNL     1     -34.829  13.774  -4.466  1.00 20.00     0.086 C 
HETATM    2  C2  UNL     1     -34.306  15.317  -2.594  1.00 20.00     0.056 C 
HETATM    3  C3  UNL     1     -36.257  15.742  -3.999  1.00 20.00     0.115 C 
HETATM    4  C4  UNL     1     -34.593  16.744  -2.125  1.00 20.00     0.046 C 
HETATM    5  C5  UNL     1     -34.838  15.175  -4.024  1.00 20.00     0.135 C 
HETATM    6  C6  UNL     1     -34.613  16.869  -0.610  1.00 20.00     0.021 C 
HETATM    7  N7  UNL     1     -34.821  12.668  -4.815  1.00 20.00    -0.195 NA
HETATM    8  S8  UNL     1     -36.218  17.149  -2.845  1.00 20.00    -0.162 SA
HETATM    9 CL9  UNL     1     -33.811  16.082  -5.183  1.00 20.00    -0.102 Cl
ENDROOT
TORSDOF 0
ENDMDL
MODEL 3
REMARK VINA RESULT:      -3.9      1.995      2.235
REMARK  0 active torsions:
REMARK  status: ('A' for Active; 'I' for Inactive)
ROOT
HETATM    1  C1  UNL     1     -37.109  14.527  -4.105  1.00 20.00     0.086 C 
HETATM    2  C2  UNL     1     -35.154  16.039  -4.320  1.00 20.00     0.056 C 
HETATM    3  C3  UNL     1     -35.831  14.664  -6.221  1.00 20.00     0.115 C 
HETATM    4  C4  UNL     1     -33.901  16.234  -5.174  1.00 20.00     0.046 C 
HETATM    5  C5  UNL     1     -35.774  14.689  -4.693  1.00 20.00     0.135 C 
HETATM    6  C6  UNL     1     -33.501  17.695  -5.302  1.00 20.00     0.021 C 
HETATM    7  N7  UNL     1     -38.165  14.399  -3.639  1.00 20.00    -0.195 NA
HETATM    8  S8  UNL     1     -34.331  15.520  -6.795  1.00 20.00    -0.162 SA
HETATM    9 CL9  UNL     1     -34.776  13.331  -4.073  1.00 20.00    -0.102 Cl
ENDROOT
TORSDOF 0
ENDMDL
MODEL 4
REMARK VINA RESULT:      -3.7      2.936      3.059
REMARK  0 active torsions:
REMARK  status: ('A' for Active; 'I' for Inactive)
ROOT
HETATM    1  C1  UNL     1     -34.821  13.721  -5.061  1.00 20.00     0.086 C 
HETATM    2  C2  UNL     1     -33.805  15.984  -5.101  1.00 20.00     0.056 C 
HETATM    3  C3  UNL     1     -36.189  15.724  -5.561  1.00 20.00     0.115 C 
HETATM    4  C4  UNL     1     -34.064  17.384  -5.658  1.00 20.00     0.046 C 
HETATM    5  C5  UNL     1     -34.834  15.033  -5.720  1.00 20.00     0.135 C 
HETATM    6  C6  UNL     1     -33.501  18.481  -4.768  1.00 20.00     0.021 C 
HETATM    7  N7  UNL     1     -34.810  12.684  -4.541  1.00 20.00    -0.195 NA
HETATM    8  S8  UNL     1     -35.878  17.502  -5.789  1.00 20.00    -0.162 SA
HETATM    9 CL9  UNL     1     -34.472  14.737  -7.454  1.00 20.00    -0.102 Cl
ENDROOT
TORSDOF 0
ENDMDL
MODEL 5
REMARK VINA RESULT:      -3.7      2.273      2.829
REMARK  0 active torsions:
REMARK  status: ('A' for Active; 'I' for Inactive)
ROOT
HETATM    1  C1  UNL     1     -34.810  13.959  -4.179  1.00 20.00     0.086 C 
HETATM    2  C2  UNL     1     -35.809  16.169  -4.705  1.00 20.00     0.056 C 
HETATM    3  C3  UNL     1     -33.380  15.925  -4.647  1.00 20.00     0.115 C 
HETATM    4  C4  UNL     1     -35.450  17.655  -4.707  1.00 20.00     0.046 C 
HETATM    5  C5  UNL     1     -34.672  15.411  -4.012  1.00 20.00     0.135 C 
HETATM    6  C6  UNL     1     -36.185  18.432  -5.788  1.00 20.00     0.021 C 
HETATM    7  N7  UNL     1     -34.920  12.812  -4.311  1.00 20.00    -0.195 NA
HETATM    8  S8  UNL     1     -33.647  17.696  -4.972  1.00 20.00    -0.162 SA
HETATM    9 CL9  UNL     1     -34.677  15.723  -2.243  1.00 20.00    -0.102 Cl
ENDROOT
TORSDOF 0
ENDMDL
MODEL 6
REMARK VINA RESULT:      -3.7      3.076      3.877
REMARK  0 active torsions:
REMARK  status: ('A' for Active; 'I' for Inactive)
ROOT
HETATM    1  C1  UNL     1     -34.020  17.987  -3.113  1.00 20.00     0.086 C 
HETATM    2  C2  UNL     1     -33.866  15.565  -3.630  1.00 20.00     0.056 C 
HETATM    3  C3  UNL     1     -36.058  16.626  -3.463  1.00 20.00     0.115 C 
HETATM    4  C4  UNL     1     -34.709  14.291  -3.579  1.00 20.00     0.046 C 
HETATM    5  C5  UNL     1     -34.637  16.671  -2.903  1.00 20.00     0.135 C 
HETATM    6  C6  UNL     1     -34.342  13.302  -4.674  1.00 20.00     0.021 C 
HETATM    7  N7  UNL     1     -33.532  19.027  -3.279  1.00 20.00    -0.195 NA
HETATM    8  S8  UNL     1     -36.429  14.868  -3.756  1.00 20.00    -0.162 SA
HETATM    9 CL9  UNL     1     -34.644  16.389  -1.130  1.00 20.00    -0.102 Cl
ENDROOT
TORSDOF 0
ENDMDL
MODEL 7
REMARK VINA RESULT:      -3.7      2.448      3.535
REMARK  0 active torsions:
REMARK  status: ('A' for Active; 'I' for Inactive)
ROOT
HETATM    1  C1  UNL     1     -34.421  15.903  -2.311  1.00 20.00     0.086 C 
HETATM    2  C2  UNL     1     -34.156  16.461  -4.714  1.00 20.00     0.056 C 
HETATM    3  C3  UNL     1     -35.132  14.316  -4.074  1.00 20.00     0.115 C 
HETATM    4  C4  UNL     1     -34.082  15.782  -6.082  1.00 20.00     0.046 C 
HETATM    5  C5  UNL     1     -34.109  15.367  -3.642  1.00 20.00     0.135 C 
HETATM    6  C6  UNL     1     -34.638  16.652  -7.198  1.00 20.00     0.021 C 
HETATM    7  N7  UNL     1     -34.667  16.327  -1.259  1.00 20.00    -0.195 NA
HETATM    8  S8  UNL     1     -35.050  14.249  -5.891  1.00 20.00    -0.162 SA
HETATM    9 CL9  UNL     1     -32.468  14.648  -3.530  1.00 20.00    -0.102 Cl
ENDROOT
TORSDOF 0
ENDMDL
MODEL 8
REMARK VINA RESULT:      -3.7      1.901      2.384
REMARK  0 active torsions:
REMARK  status: ('A' for Active; 'I' for Inactive)
ROOT
HETATM    1  C1  UNL     1     -37.518  14.721  -3.933  1.00 20.00     0.086 C 
HETATM    2  C2  UNL     1     -35.124  14.082  -4.068  1.00 20.00     0.056 C 
HETATM    3  C3  UNL     1     -35.758  16.157  -2.947  1.00 20.00     0.115 C 
HETATM    4  C4  UNL     1     -33.730  14.703  -3.975  1.00 20.00     0.046 C 
HETATM    5  C5  UNL     1     -36.147  15.223  -4.093  1.00 20.00     0.135 C 
HETATM    6  C6  UNL     1     -32.696  13.737  -3.420  1.00 20.00     0.021 C 
HETATM    7  N7  UNL     1     -38.601  14.325  -3.808  1.00 20.00    -0.195 NA
HETATM    8  S8  UNL     1     -33.939  16.149  -2.885  1.00 20.00    -0.162 SA
HETATM    9 CL9  UNL     1     -36.102  16.091  -5.663  1.00 20.00    -0.102 Cl
ENDROOT
TORSDOF 0
ENDMDL
MODEL 9
REMARK VINA RESULT:      -3.6      2.654      3.552
REMARK  0 active torsions:
REMARK  status: ('A' for Active; 'I' for Inactive)
ROOT
HETATM    1  C1  UNL     1     -33.903  13.953  -3.735  1.00 20.00     0.086 C 
HETATM    2  C2  UNL     1     -36.334  14.443  -3.814  1.00 20.00     0.056 C 
HETATM    3  C3  UNL     1     -34.755  16.011  -4.818  1.00 20.00     0.115 C 
HETATM    4  C4  UNL     1     -37.296  15.616  -4.001  1.00 20.00     0.046 C 
HETATM    5  C5  UNL     1     -34.919  15.012  -3.673  1.00 20.00     0.135 C 
HETATM    6  C6  UNL     1     -38.599  15.203  -4.667  1.00 20.00     0.021 C 
HETATM    7  N7  UNL     1     -33.100  13.117  -3.784  1.00 20.00    -0.195 NA
HETATM    8  S8  UNL     1     -36.377  16.809  -5.027  1.00 20.00    -0.162 SA
HETATM    9 CL9  UNL     1     -34.710  15.825  -2.086  1.00 20.00    -0.102 Cl
ENDROOT
TORSDOF 0
ENDMDL
