MODEL 1
REMARK VINA RESULT:      -4.7      0.000      0.000
REMARK  1 active torsions:
REMARK  status: ('A' for Active; 'I' for Inactive)
REMARK    1  A    between atoms: C6_6  and  O10_10 
ROOT
HETATM    1  C1  UNL     1     -33.639  18.415  -5.592  1.00 20.00     0.015 C 
HETATM    2  C2  UNL     1     -33.610  17.343  -5.052  1.00 20.00    -0.077 C 
HETATM    3  C3  UNL     1     -36.046  15.430  -4.828  1.00 20.00     0.023 C 
HETATM    4  C4  UNL     1     -36.463  15.553  -3.366  1.00 20.00     0.075 C 
HETATM    5  C5  UNL     1     -33.822  16.209  -2.879  1.00 20.00     0.126 C 
HETATM    6  C6  UNL     1     -33.572  16.019  -4.388  1.00 20.00     0.135 C 
HETATM    7  C7  UNL     1     -34.571  15.007  -5.061  1.00 20.00    -0.004 C 
HETATM    8  C8  UNL     1     -34.362  13.567  -4.523  1.00 20.00     0.019 C 
HETATM    9  C9  UNL     1     -34.330  14.926  -6.590  1.00 20.00     0.019 C 
HETATM   10  S11 UNL     1     -35.494  16.793  -2.468  1.00 20.00    -0.165 SA
ENDROOT
BRANCH   6  11
HETATM   11  O10 UNL     1     -32.232  15.533  -4.538  1.00 20.00    -0.376 OA
HETATM   12  H25 UNL     1     -31.709  16.284  -4.851  1.00 20.00     0.211 HD
ENDBRANCH   6  11
TORSDOF 1
ENDMDL
MODEL 2
REMARK VINA RESULT:      -4.7      1.233      2.397
REMARK  1 active torsions:
REMARK  status: ('A' for Active; 'I' for Inactive)
REMARK    1  A    between atoms: C6_6  and  O10_10 
ROOT
HETATM    1  C1  UNL     1     -34.626  14.777  -7.275  1.00 20.00     0.015 C 
HETATM    2  C2  UNL     1     -34.364  15.333  -6.244  1.00 20.00    -0.077 C 
HETATM    3  C3  UNL     1     -36.167  15.271  -3.716  1.00 20.00     0.023 C 
HETATM    4  C4  UNL     1     -36.787  16.665  -3.686  1.00 20.00     0.075 C 
HETATM    5  C5  UNL     1     -34.526  17.480  -5.052  1.00 20.00     0.126 C 
HETATM    6  C6  UNL     1     -34.040  16.020  -4.971  1.00 20.00     0.135 C 
HETATM    7  C7  UNL     1     -34.614  15.240  -3.732  1.00 20.00    -0.004 C 
HETATM    8  C8  UNL     1     -34.078  15.825  -2.400  1.00 20.00     0.019 C 
HETATM    9  C9  UNL     1     -34.164  13.757  -3.754  1.00 20.00     0.019 C 
HETATM   10  S11 UNL     1     -36.334  17.659  -5.131  1.00 20.00    -0.165 SA
ENDROOT
BRANCH   6  11
HETATM   11  O10 UNL     1     -32.609  16.053  -4.888  1.00 20.00    -0.376 OA
HETATM   12  H25 UNL     1     -32.295  15.271  -5.362  1.00 20.00     0.211 HD
ENDBRANCH   6  11
TORSDOF 1
ENDMDL
MODEL 3
REMARK VINA RESULT:      -4.7      1.560      2.631
REMARK  1 active torsions:
REMARK  status: ('A' for Active; 'I' for Inactive)
REMARK    1  A    between atoms: C6_6  and  O10_10 
ROOT
HETATM    1  C1  UNL     1     -34.407  16.203  -1.763  1.00 20.00     0.015 C 
HETATM    2  C2  UNL     1     -34.440  15.624  -2.815  1.00 20.00    -0.077 C 
HETATM    3  C3  UNL     1     -35.845  16.708  -5.364  1.00 20.00     0.023 C 
HETATM    4  C4  UNL     1     -37.105  15.853  -5.467  1.00 20.00     0.075 C 
HETATM    5  C5  UNL     1     -35.665  13.925  -4.106  1.00 20.00     0.126 C 
HETATM    6  C6  UNL     1     -34.479  14.910  -4.113  1.00 20.00     0.135 C 
HETATM    7  C7  UNL     1     -34.511  15.914  -5.323  1.00 20.00    -0.004 C 
HETATM    8  C8  UNL     1     -34.315  15.177  -6.673  1.00 20.00     0.019 C 
HETATM    9  C9  UNL     1     -33.349  16.936  -5.226  1.00 20.00     0.019 C 
HETATM   10  S11 UNL     1     -37.297  14.724  -4.063  1.00 20.00    -0.165 SA
ENDROOT
BRANCH   6  11
HETATM   11  O10 UNL     1     -33.279  14.130  -4.176  1.00 20.00    -0.376 OA
HETATM   12  H25 UNL     1     -32.546  14.759  -4.119  1.00 20.00     0.211 HD
ENDBRANCH   6  11
TORSDOF 1
ENDMDL
MODEL 4
REMARK VINA RESULT:      -4.7      1.992      3.278
REMARK  1 active torsions:
REMARK  status: ('A' for Active; 'I' for Inactive)
REMARK    1  A    between atoms: C6_6  and  O10_10 
ROOT
HETATM    1  C1  UNL     1     -34.530  16.573  -0.880  1.00 20.00     0.015 C 
HETATM    2  C2  UNL     1     -34.967  16.303  -1.965  1.00 20.00    -0.077 C 
HETATM    3  C3  UNL     1     -33.238  16.047  -4.533  1.00 20.00     0.023 C 
HETATM    4  C4  UNL     1     -33.565  17.318  -5.311  1.00 20.00     0.075 C 
HETATM    5  C5  UNL     1     -35.991  17.264  -3.986  1.00 20.00     0.126 C 
HETATM    6  C6  UNL     1     -35.507  15.969  -3.305  1.00 20.00     0.135 C 
HETATM    7  C7  UNL     1     -34.463  15.166  -4.164  1.00 20.00    -0.004 C 
HETATM    8  C8  UNL     1     -35.106  14.617  -5.464  1.00 20.00     0.019 C 
HETATM    9  C9  UNL     1     -33.946  13.926  -3.391  1.00 20.00     0.019 C 
HETATM   10  S11 UNL     1     -34.659  18.433  -4.394  1.00 20.00    -0.165 SA
ENDROOT
BRANCH   6  11
HETATM   11  O10 UNL     1     -36.662  15.152  -3.077  1.00 20.00    -0.376 OA
HETATM   12  H25 UNL     1     -37.376  15.547  -3.597  1.00 20.00     0.211 HD
ENDBRANCH   6  11
TORSDOF 1
ENDMDL
MODEL 5
REMARK VINA RESULT:      -4.7      2.195      3.736
REMARK  1 active torsions:
REMARK  status: ('A' for Active; 'I' for Inactive)
REMARK    1  A    between atoms: C6_6  and  O10_10 
ROOT
HETATM    1  C1  UNL     1     -37.790  14.724  -4.100  1.00 20.00     0.015 C 
HETATM    2  C2  UNL     1     -36.626  14.469  -4.237  1.00 20.00    -0.077 C 
HETATM    3  C3  UNL     1     -34.391  16.605  -4.536  1.00 20.00     0.023 C 
HETATM    4  C4  UNL     1     -34.027  16.536  -6.017  1.00 20.00     0.075 C 
HETATM    5  C5  UNL     1     -34.899  13.915  -5.901  1.00 20.00     0.126 C 
HETATM    6  C6  UNL     1     -35.187  14.153  -4.406  1.00 20.00     0.135 C 
HETATM    7  C7  UNL     1     -34.274  15.262  -3.765  1.00 20.00    -0.004 C 
HETATM    8  C8  UNL     1     -32.788  14.819  -3.733  1.00 20.00     0.019 C 
HETATM    9  C9  UNL     1     -34.670  15.521  -2.289  1.00 20.00     0.019 C 
HETATM   10  S11 UNL     1     -35.088  15.395  -6.941  1.00 20.00    -0.165 SA
ENDROOT
BRANCH   6  11
HETATM   11  O10 UNL     1     -34.969  12.910  -3.728  1.00 20.00    -0.376 OA
HETATM   12  H25 UNL     1     -35.389  12.230  -4.273  1.00 20.00     0.211 HD
ENDBRANCH   6  11
TORSDOF 1
ENDMDL
MODEL 6
REMARK VINA RESULT:      -4.6      1.470      2.423
REMARK  1 active torsions:
REMARK  status: ('A' for Active; 'I' for Inactive)
REMARK    1  A    between atoms: C6_6  and  O10_10 
ROOT
HETATM    1  C1  UNL     1     -36.778  16.460  -5.849  1.00 20.00     0.015 C 
HETATM    2  C2  UNL     1     -35.675  16.102  -5.538  1.00 20.00    -0.077 C 
HETATM    3  C3  UNL     1     -34.811  15.412  -2.636  1.00 20.00     0.023 C 
HETATM    4  C4  UNL     1     -33.956  16.606  -2.225  1.00 20.00     0.075 C 
HETATM    5  C5  UNL     1     -33.430  16.902  -4.923  1.00 20.00     0.126 C 
HETATM    6  C6  UNL     1     -34.313  15.660  -5.156  1.00 20.00     0.135 C 
HETATM    7  C7  UNL     1     -34.348  14.681  -3.926  1.00 20.00    -0.004 C 
HETATM    8  C8  UNL     1     -32.959  14.038  -3.677  1.00 20.00     0.019 C 
HETATM    9  C9  UNL     1     -35.320  13.501  -4.184  1.00 20.00     0.019 C 
HETATM   10  S11 UNL     1     -33.921  17.905  -3.487  1.00 20.00    -0.165 SA
ENDROOT
BRANCH   6  11
HETATM   11  O10 UNL     1     -33.782  14.970  -6.295  1.00 20.00    -0.376 OA
HETATM   12  H25 UNL     1     -33.014  15.482  -6.585  1.00 20.00     0.211 HD
ENDBRANCH   6  11
TORSDOF 1
ENDMDL
MODEL 7
REMARK VINA RESULT:      -4.3      1.686      3.369
REMARK  1 active torsions:
REMARK  status: ('A' for Active; 'I' for Inactive)
REMARK    1  A    between atoms: C6_6  and  O10_10 
ROOT
HETATM    1  C1  UNL     1     -34.592  13.265  -4.410  1.00 20.00     0.015 C 
HETATM    2  C2  UNL     1     -34.240  14.393  -4.617  1.00 20.00    -0.077 C 
HETATM    3  C3  UNL     1     -35.914  16.908  -3.894  1.00 20.00     0.023 C 
HETATM    4  C4  UNL     1     -36.431  17.392  -5.245  1.00 20.00     0.075 C 
HETATM    5  C5  UNL     1     -34.189  16.177  -6.312  1.00 20.00     0.126 C 
HETATM    6  C6  UNL     1     -33.804  15.787  -4.871  1.00 20.00     0.135 C 
HETATM    7  C7  UNL     1     -34.371  16.775  -3.787  1.00 20.00    -0.004 C 
HETATM    8  C8  UNL     1     -33.728  18.181  -3.915  1.00 20.00     0.019 C 
HETATM    9  C9  UNL     1     -34.030  16.284  -2.356  1.00 20.00     0.019 C 
HETATM   10  S11 UNL     1     -35.981  16.280  -6.602  1.00 20.00    -0.165 SA
ENDROOT
BRANCH   6  11
HETATM   11  O10 UNL     1     -32.373  15.777  -4.802  1.00 20.00    -0.376 OA
HETATM   12  H25 UNL     1     -32.120  16.602  -4.364  1.00 20.00     0.211 HD
ENDBRANCH   6  11
TORSDOF 1
ENDMDL
MODEL 8
REMARK VINA RESULT:      -4.2      2.293      3.288
REMARK  1 active torsions:
REMARK  status: ('A' for Active; 'I' for Inactive)
REMARK    1  A    between atoms: C6_6  and  O10_10 
ROOT
HETATM    1  C1  UNL     1     -34.788  16.676  -6.969  1.00 20.00     0.015 C 
HETATM    2  C2  UNL     1     -35.079  16.371  -5.846  1.00 20.00    -0.077 C 
HETATM    3  C3  UNL     1     -33.062  15.272  -3.755  1.00 20.00     0.023 C 
HETATM    4  C4  UNL     1     -33.406  13.787  -3.674  1.00 20.00     0.075 C 
HETATM    5  C5  UNL     1     -35.950  14.541  -4.449  1.00 20.00     0.126 C 
HETATM    6  C6  UNL     1     -35.438  15.995  -4.458  1.00 20.00     0.135 C 
HETATM    7  C7  UNL     1     -34.242  16.239  -3.466  1.00 20.00    -0.004 C 
HETATM    8  C8  UNL     1     -34.690  16.071  -1.991  1.00 20.00     0.019 C 
HETATM    9  C9  UNL     1     -33.711  17.691  -3.584  1.00 20.00     0.019 C 
HETATM   10  S11 UNL     1     -34.684  13.303  -4.863  1.00 20.00    -0.165 SA
ENDROOT
BRANCH   6  11
HETATM   11  O10 UNL     1     -36.539  16.835  -4.088  1.00 20.00    -0.376 OA
HETATM   12  H25 UNL     1     -37.135  16.847  -4.850  1.00 20.00     0.211 HD
ENDBRANCH   6  11
TORSDOF 1
ENDMDL
MODEL 9
REMARK VINA RESULT:      -4.2      2.062      3.104
REMARK  1 active torsions:
REMARK  status: ('A' for Active; 'I' for Inactive)
REMARK    1  A    between atoms: C6_6  and  O10_10 
ROOT
HETATM    1  C1  UNL     1     -34.508  16.576  -0.905  1.00 20.00     0.015 C 
HETATM    2  C2  UNL     1     -34.485  16.551  -2.104  1.00 20.00    -0.077 C 
HETATM    3  C3  UNL     1     -36.319  14.753  -3.851  1.00 20.00     0.023 C 
HETATM    4  C4  UNL     1     -35.378  13.659  -4.347  1.00 20.00     0.075 C 
HETATM    5  C5  UNL     1     -33.367  15.533  -4.046  1.00 20.00     0.126 C 
HETATM    6  C6  UNL     1     -34.457  16.521  -3.586  1.00 20.00     0.135 C 
HETATM    7  C7  UNL     1     -35.877  16.204  -4.183  1.00 20.00    -0.004 C 
HETATM    8  C8  UNL     1     -35.899  16.404  -5.721  1.00 20.00     0.019 C 
HETATM    9  C9  UNL     1     -36.947  17.172  -3.615  1.00 20.00     0.019 C 
HETATM   10  S11 UNL     1     -33.717  13.796  -3.637  1.00 20.00    -0.165 SA
ENDROOT
BRANCH   6  11
HETATM   11  O10 UNL     1     -34.049  17.829  -4.005  1.00 20.00    -0.376 OA
HETATM   12  H25 UNL     1     -34.424  17.958  -4.887  1.00 20.00     0.211 HD
ENDBRANCH   6  11
TORSDOF 1
ENDMDL
