MODEL 1
REMARK VINA RESULT:      -4.2      0.000      0.000
REMARK  0 active torsions:
REMARK  status: ('A' for Active; 'I' for Inactive)
ROOT
HETATM    1  C1  UNL     1     -33.725  16.866  -3.745  1.00 20.00     0.056 C 
HETATM    2  C2  UNL     1     -33.629  15.897  -4.906  1.00 20.00     0.094 C 
HETATM    3  C3  UNL     1     -34.919  16.363  -2.924  1.00 20.00     0.056 C 
HETATM    4  C4  UNL     1     -34.221  14.605  -4.339  1.00 20.00     0.068 C 
HETATM    5  C5  UNL     1     -34.613  16.358  -1.426  1.00 20.00     0.045 C 
HETATM    6  C6  UNL     1     -36.192  17.178  -3.173  1.00 20.00     0.045 C 
HETATM    7  C7  UNL     1     -34.924  13.672  -5.325  1.00 20.00     0.047 C 
HETATM    8  C8  UNL     1     -33.126  13.797  -3.617  1.00 20.00     0.047 C 
HETATM    9  O9  UNL     1     -35.181  15.009  -3.341  1.00 20.00    -0.369 OA
HETATM   10 BR10 UNL     1     -34.586  16.629  -6.444  1.00 20.00    -0.088 Br
ENDROOT
TORSDOF 0
ENDMDL
MODEL 2
REMARK VINA RESULT:      -4.1      1.759      2.573
REMARK  0 active torsions:
REMARK  status: ('A' for Active; 'I' for Inactive)
ROOT
HETATM    1  C1  UNL     1     -33.029  15.856  -4.254  1.00 20.00     0.056 C 
HETATM    2  C2  UNL     1     -33.463  16.823  -5.338  1.00 20.00     0.094 C 
HETATM    3  C3  UNL     1     -34.333  15.198  -3.785  1.00 20.00     0.056 C 
HETATM    4  C4  UNL     1     -34.738  16.185  -5.893  1.00 20.00     0.068 C 
HETATM    5  C5  UNL     1     -34.176  13.685  -3.624  1.00 20.00     0.045 C 
HETATM    6  C6  UNL     1     -34.855  15.790  -2.473  1.00 20.00     0.045 C 
HETATM    7  C7  UNL     1     -35.800  17.131  -6.454  1.00 20.00     0.047 C 
HETATM    8  C8  UNL     1     -34.381  15.165  -6.992  1.00 20.00     0.047 C 
HETATM    9  O9  UNL     1     -35.324  15.447  -4.801  1.00 20.00    -0.369 OA
HETATM   10 BR10 UNL     1     -33.707  18.599  -4.563  1.00 20.00    -0.088 Br
ENDROOT
TORSDOF 0
ENDMDL
MODEL 3
REMARK VINA RESULT:      -4.0      2.050      3.107
REMARK  0 active torsions:
REMARK  status: ('A' for Active; 'I' for Inactive)
ROOT
HETATM    1  C1  UNL     1     -35.717  16.346  -4.529  1.00 20.00     0.056 C 
HETATM    2  C2  UNL     1     -35.243  15.310  -3.529  1.00 20.00     0.094 C 
HETATM    3  C3  UNL     1     -34.528  16.531  -5.480  1.00 20.00     0.056 C 
HETATM    4  C4  UNL     1     -34.216  14.498  -4.320  1.00 20.00     0.068 C 
HETATM    5  C5  UNL     1     -34.974  16.561  -6.943  1.00 20.00     0.045 C 
HETATM    6  C6  UNL     1     -33.720  17.797  -5.177  1.00 20.00     0.045 C 
HETATM    7  C7  UNL     1     -33.066  13.873  -3.529  1.00 20.00     0.047 C 
HETATM    8  C8  UNL     1     -34.923  13.372  -5.099  1.00 20.00     0.047 C 
HETATM    9  O9  UNL     1     -33.654  15.401  -5.293  1.00 20.00    -0.369 OA
HETATM   10 BR10 UNL     1     -34.530  16.213  -1.950  1.00 20.00    -0.088 Br
ENDROOT
TORSDOF 0
ENDMDL
MODEL 4
REMARK VINA RESULT:      -4.0      2.114      3.577
REMARK  0 active torsions:
REMARK  status: ('A' for Active; 'I' for Inactive)
ROOT
HETATM    1  C1  UNL     1     -33.698  15.167  -3.710  1.00 20.00     0.056 C 
HETATM    2  C2  UNL     1     -33.744  16.564  -3.123  1.00 20.00     0.094 C 
HETATM    3  C3  UNL     1     -34.938  15.088  -4.608  1.00 20.00     0.056 C 
HETATM    4  C4  UNL     1     -34.495  17.369  -4.185  1.00 20.00     0.068 C 
HETATM    5  C5  UNL     1     -34.618  14.445  -5.958  1.00 20.00     0.045 C 
HETATM    6  C6  UNL     1     -36.095  14.328  -3.953  1.00 20.00     0.045 C 
HETATM    7  C7  UNL     1     -35.327  18.557  -3.698  1.00 20.00     0.047 C 
HETATM    8  C8  UNL     1     -33.508  17.886  -5.250  1.00 20.00     0.047 C 
HETATM    9  O9  UNL     1     -35.381  16.439  -4.841  1.00 20.00    -0.369 OA
HETATM   10 BR10 UNL     1     -34.614  16.505  -1.375  1.00 20.00    -0.088 Br
ENDROOT
TORSDOF 0
ENDMDL
MODEL 5
REMARK VINA RESULT:      -3.9      1.509      3.356
REMARK  0 active torsions:
REMARK  status: ('A' for Active; 'I' for Inactive)
ROOT
HETATM    1  C1  UNL     1     -35.904  14.504  -3.769  1.00 20.00     0.056 C 
HETATM    2  C2  UNL     1     -36.372  15.875  -3.324  1.00 20.00     0.094 C 
HETATM    3  C3  UNL     1     -34.497  14.744  -4.331  1.00 20.00     0.056 C 
HETATM    4  C4  UNL     1     -35.069  16.604  -2.993  1.00 20.00     0.068 C 
HETATM    5  C5  UNL     1     -33.507  13.682  -3.849  1.00 20.00     0.045 C 
HETATM    6  C6  UNL     1     -34.472  14.794  -5.862  1.00 20.00     0.045 C 
HETATM    7  C7  UNL     1     -35.052  18.121  -3.190  1.00 20.00     0.047 C 
HETATM    8  C8  UNL     1     -34.657  16.310  -1.537  1.00 20.00     0.047 C 
HETATM    9  O9  UNL     1     -34.059  16.028  -3.846  1.00 20.00    -0.369 OA
HETATM   10 BR10 UNL     1     -37.428  16.694  -4.750  1.00 20.00    -0.088 Br
ENDROOT
TORSDOF 0
ENDMDL
MODEL 6
REMARK VINA RESULT:      -3.9      1.816      2.963
REMARK  0 active torsions:
REMARK  status: ('A' for Active; 'I' for Inactive)
ROOT
HETATM    1  C1  UNL     1     -33.170  15.813  -4.389  1.00 20.00     0.056 C 
HETATM    2  C2  UNL     1     -34.141  14.897  -3.670  1.00 20.00     0.094 C 
HETATM    3  C3  UNL     1     -34.064  16.849  -5.081  1.00 20.00     0.056 C 
HETATM    4  C4  UNL     1     -35.343  15.802  -3.395  1.00 20.00     0.068 C 
HETATM    5  C5  UNL     1     -33.520  18.269  -4.911  1.00 20.00     0.045 C 
HETATM    6  C6  UNL     1     -34.256  16.562  -6.574  1.00 20.00     0.045 C 
HETATM    7  C7  UNL     1     -36.718  15.133  -3.343  1.00 20.00     0.047 C 
HETATM    8  C8  UNL     1     -35.136  16.565  -2.072  1.00 20.00     0.047 C 
HETATM    9  O9  UNL     1     -35.360  16.780  -4.454  1.00 20.00    -0.369 OA
HETATM   10 BR10 UNL     1     -34.524  13.346  -4.794  1.00 20.00    -0.088 Br
ENDROOT
TORSDOF 0
ENDMDL
MODEL 7
REMARK VINA RESULT:      -3.9      1.906      2.734
REMARK  0 active torsions:
REMARK  status: ('A' for Active; 'I' for Inactive)
ROOT
HETATM    1  C1  UNL     1     -34.237  14.433  -4.875  1.00 20.00     0.056 C 
HETATM    2  C2  UNL     1     -35.467  14.357  -5.758  1.00 20.00     0.094 C 
HETATM    3  C3  UNL     1     -34.282  15.845  -4.279  1.00 20.00     0.056 C 
HETATM    4  C4  UNL     1     -36.438  15.337  -5.099  1.00 20.00     0.068 C 
HETATM    5  C5  UNL     1     -33.970  15.836  -2.781  1.00 20.00     0.045 C 
HETATM    6  C6  UNL     1     -33.328  16.815  -4.983  1.00 20.00     0.045 C 
HETATM    7  C7  UNL     1     -37.438  16.046  -6.014  1.00 20.00     0.047 C 
HETATM    8  C8  UNL     1     -37.233  14.624  -3.988  1.00 20.00     0.047 C 
HETATM    9  O9  UNL     1     -35.622  16.342  -4.461  1.00 20.00    -0.369 OA
HETATM   10 BR10 UNL     1     -34.975  14.804  -7.596  1.00 20.00    -0.088 Br
ENDROOT
TORSDOF 0
ENDMDL
MODEL 8
REMARK VINA RESULT:      -3.7      1.807      3.113
REMARK  0 active torsions:
REMARK  status: ('A' for Active; 'I' for Inactive)
ROOT
HETATM    1  C1  UNL     1     -34.862  15.486  -2.929  1.00 20.00     0.056 C 
HETATM    2  C2  UNL     1     -35.566  16.549  -3.749  1.00 20.00     0.094 C 
HETATM    3  C3  UNL     1     -34.186  14.586  -3.971  1.00 20.00     0.056 C 
HETATM    4  C4  UNL     1     -34.722  16.632  -5.022  1.00 20.00     0.068 C 
HETATM    5  C5  UNL     1     -32.750  14.240  -3.573  1.00 20.00     0.045 C 
HETATM    6  C6  UNL     1     -34.962  13.290  -4.224  1.00 20.00     0.045 C 
HETATM    7  C7  UNL     1     -35.446  17.025  -6.311  1.00 20.00     0.047 C 
HETATM    8  C8  UNL     1     -33.553  17.614  -4.816  1.00 20.00     0.047 C 
HETATM    9  O9  UNL     1     -34.151  15.321  -5.210  1.00 20.00    -0.369 OA
HETATM   10 BR10 UNL     1     -37.426  16.023  -4.033  1.00 20.00    -0.088 Br
ENDROOT
TORSDOF 0
ENDMDL
MODEL 9
REMARK VINA RESULT:      -3.7      2.018      3.315
REMARK  0 active torsions:
REMARK  status: ('A' for Active; 'I' for Inactive)
ROOT
HETATM    1  C1  UNL     1     -33.916  15.970  -5.622  1.00 20.00     0.056 C 
HETATM    2  C2  UNL     1     -33.452  15.713  -4.202  1.00 20.00     0.094 C 
HETATM    3  C3  UNL     1     -35.395  16.351  -5.477  1.00 20.00     0.056 C 
HETATM    4  C4  UNL     1     -34.374  16.598  -3.361  1.00 20.00     0.068 C 
HETATM    5  C5  UNL     1     -35.754  17.561  -6.342  1.00 20.00     0.045 C 
HETATM    6  C6  UNL     1     -36.339  15.194  -5.818  1.00 20.00     0.045 C 
HETATM    7  C7  UNL     1     -34.698  16.118  -1.946  1.00 20.00     0.047 C 
HETATM    8  C8  UNL     1     -33.789  18.020  -3.259  1.00 20.00     0.047 C 
HETATM    9  O9  UNL     1     -35.612  16.698  -4.096  1.00 20.00    -0.369 OA
HETATM   10 BR10 UNL     1     -33.577  13.802  -3.815  1.00 20.00    -0.088 Br
ENDROOT
TORSDOF 0
ENDMDL
