MODEL 1
REMARK VINA RESULT:      -4.1      0.000      0.000
REMARK  2 active torsions:
REMARK  status: ('A' for Active; 'I' for Inactive)
REMARK    1  A    between atoms: C1_1  and  C5_5 
REMARK    2  A    between atoms: C1_1  and  C8_8 
ROOT
HETATM    1  C2  UNL     1     -34.264  15.238  -6.683  1.00 20.00     0.084 C 
HETATM    2  C3  UNL     1     -35.373  14.435  -6.023  1.00 20.00     0.085 C 
HETATM    3  C4  UNL     1     -33.137  15.718  -4.197  1.00 20.00     0.096 C 
HETATM    4  C5  UNL     1     -34.167  14.814  -3.529  1.00 20.00     0.126 C 
HETATM    5  S10 UNL     1     -33.716  16.634  -5.660  1.00 20.00    -0.167 SA
HETATM    6  S11 UNL     1     -34.795  13.477  -4.591  1.00 20.00    -0.155 SA
ENDROOT
BRANCH   4   7
HETATM    7  C1  UNL     1     -35.330  15.558  -2.950  1.00 20.00     0.144 C 
HETATM    8  O9  UNL     1     -36.479  15.134  -3.085  1.00 20.00    -0.296 OA
BRANCH   7   9
HETATM    9  C8  UNL     1     -35.022  16.865  -2.226  1.00 20.00     0.048 C 
HETATM   10  C6  UNL     1     -36.203  17.820  -2.350  1.00 20.00     0.017 C 
HETATM   11  C7  UNL     1     -34.681  16.612  -0.760  1.00 20.00     0.017 C 
ENDBRANCH   7   9
ENDBRANCH   4   7
TORSDOF 2
ENDMDL
MODEL 2
REMARK VINA RESULT:      -4.0      1.261      1.358
REMARK  2 active torsions:
REMARK  status: ('A' for Active; 'I' for Inactive)
REMARK    1  A    between atoms: C1_1  and  C5_5 
REMARK    2  A    between atoms: C1_1  and  C8_8 
ROOT
HETATM    1  C2  UNL     1     -34.919  14.409  -6.117  1.00 20.00     0.084 C 
HETATM    2  C3  UNL     1     -35.090  13.684  -4.793  1.00 20.00     0.085 C 
HETATM    3  C4  UNL     1     -33.262  16.260  -4.886  1.00 20.00     0.096 C 
HETATM    4  C5  UNL     1     -33.321  15.477  -3.579  1.00 20.00     0.126 C 
HETATM    5  S10 UNL     1     -34.768  16.207  -5.910  1.00 20.00    -0.167 SA
HETATM    6  S11 UNL     1     -33.578  13.688  -3.785  1.00 20.00    -0.155 SA
ENDROOT
BRANCH   4   7
HETATM    7  C1  UNL     1     -34.335  16.003  -2.611  1.00 20.00     0.144 C 
HETATM    8  O9  UNL     1     -35.520  15.679  -2.704  1.00 20.00    -0.296 OA
BRANCH   7   9
HETATM    9  C8  UNL     1     -33.834  16.972  -1.545  1.00 20.00     0.048 C 
HETATM   10  C6  UNL     1     -33.757  18.382  -2.118  1.00 20.00     0.017 C 
HETATM   11  C7  UNL     1     -34.728  16.936  -0.309  1.00 20.00     0.017 C 
ENDBRANCH   7   9
ENDBRANCH   4   7
TORSDOF 2
ENDMDL
MODEL 3
REMARK VINA RESULT:      -3.9      1.860      2.325
REMARK  2 active torsions:
REMARK  status: ('A' for Active; 'I' for Inactive)
REMARK    1  A    between atoms: C1_1  and  C5_5 
REMARK    2  A    between atoms: C1_1  and  C8_8 
ROOT
HETATM    1  C2  UNL     1     -36.452  15.158  -6.486  1.00 20.00     0.084 C 
HETATM    2  C3  UNL     1     -36.780  15.975  -5.247  1.00 20.00     0.085 C 
HETATM    3  C4  UNL     1     -34.735  13.580  -4.987  1.00 20.00     0.096 C 
HETATM    4  C5  UNL     1     -35.145  14.306  -3.710  1.00 20.00     0.126 C 
HETATM    5  S10 UNL     1     -34.729  14.587  -6.505  1.00 20.00    -0.167 SA
HETATM    6  S11 UNL     1     -36.838  14.970  -3.733  1.00 20.00    -0.155 SA
ENDROOT
BRANCH   4   7
HETATM    7  C1  UNL     1     -34.202  15.399  -3.315  1.00 20.00     0.144 C 
HETATM    8  O9  UNL     1     -32.996  15.305  -3.549  1.00 20.00    -0.296 OA
BRANCH   7   9
HETATM    9  C8  UNL     1     -34.801  16.600  -2.589  1.00 20.00     0.048 C 
HETATM   10  C6  UNL     1     -34.567  16.470  -1.089  1.00 20.00     0.017 C 
HETATM   11  C7  UNL     1     -34.218  17.907  -3.119  1.00 20.00     0.017 C 
ENDBRANCH   7   9
ENDBRANCH   4   7
TORSDOF 2
ENDMDL
MODEL 4
REMARK VINA RESULT:      -3.8      1.616      2.395
REMARK  2 active torsions:
REMARK  status: ('A' for Active; 'I' for Inactive)
REMARK    1  A    between atoms: C1_1  and  C5_5 
REMARK    2  A    between atoms: C1_1  and  C8_8 
ROOT
HETATM    1  C2  UNL     1     -34.902  14.337  -6.421  1.00 20.00     0.084 C 
HETATM    2  C3  UNL     1     -34.267  15.712  -6.295  1.00 20.00     0.085 C 
HETATM    3  C4  UNL     1     -35.714  14.472  -3.775  1.00 20.00     0.096 C 
HETATM    4  C5  UNL     1     -35.194  15.901  -3.664  1.00 20.00     0.126 C 
HETATM    5  S10 UNL     1     -34.781  13.373  -4.888  1.00 20.00    -0.167 SA
HETATM    6  S11 UNL     1     -35.217  16.833  -5.226  1.00 20.00    -0.155 SA
ENDROOT
BRANCH   4   7
HETATM    7  C1  UNL     1     -33.825  15.995  -3.065  1.00 20.00     0.144 C 
HETATM    8  O9  UNL     1     -32.890  15.341  -3.529  1.00 20.00    -0.296 OA
BRANCH   7   9
HETATM    9  C8  UNL     1     -33.663  16.902  -1.849  1.00 20.00     0.048 C 
HETATM   10  C6  UNL     1     -33.719  18.363  -2.278  1.00 20.00     0.017 C 
HETATM   11  C7  UNL     1     -34.730  16.604  -0.799  1.00 20.00     0.017 C 
ENDBRANCH   7   9
ENDBRANCH   4   7
TORSDOF 2
ENDMDL
MODEL 5
REMARK VINA RESULT:      -3.5     12.594     13.963
REMARK  2 active torsions:
REMARK  status: ('A' for Active; 'I' for Inactive)
REMARK    1  A    between atoms: C1_1  and  C5_5 
REMARK    2  A    between atoms: C1_1  and  C8_8 
ROOT
HETATM    1  C2  UNL     1     -41.526   7.428  -1.001  1.00 20.00     0.084 C 
HETATM    2  C3  UNL     1     -40.836   6.256  -0.324  1.00 20.00     0.085 C 
HETATM    3  C4  UNL     1     -43.342   5.686  -2.162  1.00 20.00     0.096 C 
HETATM    4  C5  UNL     1     -42.742   4.512  -1.395  1.00 20.00     0.126 C 
HETATM    5  S10 UNL     1     -42.175   7.000  -2.641  1.00 20.00    -0.167 SA
HETATM    6  S11 UNL     1     -41.997   4.961   0.203  1.00 20.00    -0.155 SA
ENDROOT
BRANCH   4   7
HETATM    7  C1  UNL     1     -41.746   3.725  -2.189  1.00 20.00     0.144 C 
HETATM    8  O9  UNL     1     -40.537   3.905  -2.037  1.00 20.00    -0.296 OA
BRANCH   7   9
HETATM    9  C8  UNL     1     -42.303   2.731  -3.203  1.00 20.00     0.048 C 
HETATM   10  C6  UNL     1     -41.164   1.940  -3.836  1.00 20.00     0.017 C 
HETATM   11  C7  UNL     1     -43.317   1.795  -2.551  1.00 20.00     0.017 C 
ENDBRANCH   7   9
ENDBRANCH   4   7
TORSDOF 2
ENDMDL
MODEL 6
REMARK VINA RESULT:      -3.5      2.242      4.106
REMARK  2 active torsions:
REMARK  status: ('A' for Active; 'I' for Inactive)
REMARK    1  A    between atoms: C1_1  and  C5_5 
REMARK    2  A    between atoms: C1_1  and  C8_8 
ROOT
HETATM    1  C2  UNL     1     -35.039  19.018  -2.815  1.00 20.00     0.084 C 
HETATM    2  C3  UNL     1     -33.810  18.274  -2.319  1.00 20.00     0.085 C 
HETATM    3  C4  UNL     1     -36.351  16.603  -3.177  1.00 20.00     0.096 C 
HETATM    4  C5  UNL     1     -35.176  15.847  -2.565  1.00 20.00     0.126 C 
HETATM    5  S10 UNL     1     -35.925  18.107  -4.112  1.00 20.00    -0.167 SA
HETATM    6  S11 UNL     1     -34.224  16.798  -1.342  1.00 20.00    -0.155 SA
ENDROOT
BRANCH   4   7
HETATM    7  C1  UNL     1     -34.232  15.285  -3.583  1.00 20.00     0.144 C 
HETATM    8  O9  UNL     1     -33.014  15.340  -3.409  1.00 20.00    -0.296 OA
BRANCH   7   9
HETATM    9  C8  UNL     1     -34.851  14.684  -4.841  1.00 20.00     0.048 C 
HETATM   10  C6  UNL     1     -34.237  15.324  -6.080  1.00 20.00     0.017 C 
HETATM   11  C7  UNL     1     -34.673  13.169  -4.868  1.00 20.00     0.017 C 
ENDBRANCH   7   9
ENDBRANCH   4   7
TORSDOF 2
ENDMDL
MODEL 7
REMARK VINA RESULT:      -3.5      2.334      4.192
REMARK  2 active torsions:
REMARK  status: ('A' for Active; 'I' for Inactive)
REMARK    1  A    between atoms: C1_1  and  C5_5 
REMARK    2  A    between atoms: C1_1  and  C8_8 
ROOT
HETATM    1  C2  UNL     1     -35.798  17.452  -1.931  1.00 20.00     0.084 C 
HETATM    2  C3  UNL     1     -36.353  16.523  -2.998  1.00 20.00     0.085 C 
HETATM    3  C4  UNL     1     -33.897  18.374  -3.725  1.00 20.00     0.096 C 
HETATM    4  C5  UNL     1     -34.516  17.542  -4.844  1.00 20.00     0.126 C 
HETATM    5  S10 UNL     1     -33.998  17.656  -2.055  1.00 20.00    -0.167 SA
HETATM    6  S11 UNL     1     -36.302  17.250  -4.663  1.00 20.00    -0.155 SA
ENDROOT
BRANCH   4   7
HETATM    7  C1  UNL     1     -33.831  16.230  -5.063  1.00 20.00     0.144 C 
HETATM    8  O9  UNL     1     -32.641  16.086  -4.779  1.00 20.00    -0.296 OA
BRANCH   7   9
HETATM    9  C8  UNL     1     -34.664  15.110  -5.678  1.00 20.00     0.048 C 
HETATM   10  C6  UNL     1     -34.387  15.016  -7.173  1.00 20.00     0.017 C 
HETATM   11  C7  UNL     1     -34.383  13.777  -4.989  1.00 20.00     0.017 C 
ENDBRANCH   7   9
ENDBRANCH   4   7
TORSDOF 2
ENDMDL
MODEL 8
REMARK VINA RESULT:      -3.5      2.252      3.244
REMARK  2 active torsions:
REMARK  status: ('A' for Active; 'I' for Inactive)
REMARK    1  A    between atoms: C1_1  and  C5_5 
REMARK    2  A    between atoms: C1_1  and  C8_8 
ROOT
HETATM    1  C2  UNL     1     -37.137  17.355  -6.274  1.00 20.00     0.084 C 
HETATM    2  C3  UNL     1     -37.033  16.125  -5.387  1.00 20.00     0.085 C 
HETATM    3  C4  UNL     1     -34.536  16.945  -7.142  1.00 20.00     0.096 C 
HETATM    4  C5  UNL     1     -34.455  15.640  -6.356  1.00 20.00     0.126 C 
HETATM    5  S10 UNL     1     -35.564  18.253  -6.401  1.00 20.00    -0.167 SA
HETATM    6  S11 UNL     1     -36.050  14.793  -6.138  1.00 20.00    -0.155 SA
ENDROOT
BRANCH   4   7
HETATM    7  C1  UNL     1     -33.799  15.788  -5.019  1.00 20.00     0.144 C 
HETATM    8  O9  UNL     1     -32.887  16.599  -4.851  1.00 20.00    -0.296 OA
BRANCH   7   9
HETATM    9  C8  UNL     1     -34.289  14.868  -3.904  1.00 20.00     0.048 C 
HETATM   10  C6  UNL     1     -33.316  13.711  -3.717  1.00 20.00     0.017 C 
HETATM   11  C7  UNL     1     -34.472  15.640  -2.600  1.00 20.00     0.017 C 
ENDBRANCH   7   9
ENDBRANCH   4   7
TORSDOF 2
ENDMDL
MODEL 9
REMARK VINA RESULT:      -3.4      2.260      3.240
REMARK  2 active torsions:
REMARK  status: ('A' for Active; 'I' for Inactive)
REMARK    1  A    between atoms: C1_1  and  C5_5 
REMARK    2  A    between atoms: C1_1  and  C8_8 
ROOT
HETATM    1  C2  UNL     1     -36.143  16.188  -7.604  1.00 20.00     0.084 C 
HETATM    2  C3  UNL     1     -34.656  16.499  -7.546  1.00 20.00     0.085 C 
HETATM    3  C4  UNL     1     -36.420  17.037  -4.980  1.00 20.00     0.096 C 
HETATM    4  C5  UNL     1     -34.959  17.473  -4.942  1.00 20.00     0.126 C 
HETATM    5  S10 UNL     1     -36.788  15.586  -6.017  1.00 20.00    -0.167 SA
HETATM    6  S11 UNL     1     -34.282  17.976  -6.554  1.00 20.00    -0.155 SA
ENDROOT
BRANCH   4   7
HETATM    7  C1  UNL     1     -34.047  16.454  -4.331  1.00 20.00     0.144 C 
HETATM    8  O9  UNL     1     -32.876  16.357  -4.699  1.00 20.00    -0.296 OA
BRANCH   7   9
HETATM    9  C8  UNL     1     -34.649  15.537  -3.271  1.00 20.00     0.048 C 
HETATM   10  C6  UNL     1     -34.063  14.137  -3.401  1.00 20.00     0.017 C 
HETATM   11  C7  UNL     1     -34.417  16.095  -1.869  1.00 20.00     0.017 C 
ENDBRANCH   7   9
ENDBRANCH   4   7
TORSDOF 2
ENDMDL
