MODEL 1
REMARK VINA RESULT:      -4.5      0.000      0.000
REMARK  0 active torsions:
REMARK  status: ('A' for Active; 'I' for Inactive)
ROOT
HETATM    1  C1  UNL     1     -34.610  13.804  -5.028  1.00 20.00     0.088 C 
HETATM    2  C2  UNL     1     -33.829  16.034  -4.560  1.00 20.00    -0.057 C 
HETATM    3  C3  UNL     1     -34.404  15.156  -5.397  1.00 20.00     0.097 C 
HETATM    4  C4  UNL     1     -33.382  15.592  -3.183  1.00 20.00     0.037 C 
HETATM    5  C5  UNL     1     -34.103  16.359  -2.074  1.00 20.00     0.014 C 
HETATM    6  C6  UNL     1     -33.905  17.869  -2.157  1.00 20.00     0.075 C 
HETATM    7  C7  UNL     1     -33.552  17.489  -4.883  1.00 20.00     0.072 C 
HETATM    8  C8  UNL     1     -33.865  17.944  -6.310  1.00 20.00     0.026 C 
HETATM    9  N9  UNL     1     -34.782  12.695  -4.734  1.00 20.00    -0.192 NA
HETATM   10  S10 UNL     1     -34.513  18.546  -3.732  1.00 20.00    -0.160 SA
ENDROOT
TORSDOF 0
ENDMDL
MODEL 2
REMARK VINA RESULT:      -4.3      1.379      2.809
REMARK  0 active torsions:
REMARK  status: ('A' for Active; 'I' for Inactive)
ROOT
HETATM    1  C1  UNL     1     -34.690  13.573  -4.024  1.00 20.00     0.088 C 
HETATM    2  C2  UNL     1     -35.075  15.838  -3.300  1.00 20.00    -0.057 C 
HETATM    3  C3  UNL     1     -34.613  14.602  -3.053  1.00 20.00     0.097 C 
HETATM    4  C4  UNL     1     -35.695  16.165  -4.641  1.00 20.00     0.037 C 
HETATM    5  C5  UNL     1     -34.927  17.265  -5.375  1.00 20.00     0.014 C 
HETATM    6  C6  UNL     1     -34.834  18.566  -4.584  1.00 20.00     0.075 C 
HETATM    7  C7  UNL     1     -35.052  16.988  -2.312  1.00 20.00     0.072 C 
HETATM    8  C8  UNL     1     -34.557  16.667  -0.900  1.00 20.00     0.026 C 
HETATM    9  N9  UNL     1     -34.749  12.725  -4.812  1.00 20.00    -0.192 NA
HETATM   10  S10 UNL     1     -33.997  18.330  -2.987  1.00 20.00    -0.160 SA
ENDROOT
TORSDOF 0
ENDMDL
MODEL 3
REMARK VINA RESULT:      -4.3      2.096      3.025
REMARK  0 active torsions:
REMARK  status: ('A' for Active; 'I' for Inactive)
ROOT
HETATM    1  C1  UNL     1     -34.567  13.620  -4.052  1.00 20.00     0.088 C 
HETATM    2  C2  UNL     1     -35.391  15.573  -2.908  1.00 20.00    -0.057 C 
HETATM    3  C3  UNL     1     -34.381  14.739  -3.204  1.00 20.00     0.097 C 
HETATM    4  C4  UNL     1     -36.770  15.333  -3.485  1.00 20.00     0.037 C 
HETATM    5  C5  UNL     1     -37.236  16.499  -4.357  1.00 20.00     0.014 C 
HETATM    6  C6  UNL     1     -37.277  17.830  -3.612  1.00 20.00     0.075 C 
HETATM    7  C7  UNL     1     -35.285  16.777  -1.994  1.00 20.00     0.072 C 
HETATM    8  C8  UNL     1     -33.944  16.979  -1.283  1.00 20.00     0.026 C 
HETATM    9  N9  UNL     1     -34.710  12.702  -4.746  1.00 20.00    -0.192 NA
HETATM   10  S10 UNL     1     -35.642  18.293  -2.963  1.00 20.00    -0.160 SA
ENDROOT
TORSDOF 0
ENDMDL
MODEL 4
REMARK VINA RESULT:      -4.3      1.814      1.867
REMARK  0 active torsions:
REMARK  status: ('A' for Active; 'I' for Inactive)
ROOT
HETATM    1  C1  UNL     1     -36.845  15.092  -4.019  1.00 20.00     0.088 C 
HETATM    2  C2  UNL     1     -34.818  16.312  -3.564  1.00 20.00    -0.057 C 
HETATM    3  C3  UNL     1     -35.854  16.040  -4.374  1.00 20.00     0.097 C 
HETATM    4  C4  UNL     1     -34.687  15.604  -2.233  1.00 20.00     0.037 C 
HETATM    5  C5  UNL     1     -34.718  16.582  -1.058  1.00 20.00     0.014 C 
HETATM    6  C6  UNL     1     -33.621  17.640  -1.124  1.00 20.00     0.075 C 
HETATM    7  C7  UNL     1     -33.705  17.293  -3.876  1.00 20.00     0.072 C 
HETATM    8  C8  UNL     1     -33.726  17.931  -5.267  1.00 20.00     0.026 C 
HETATM    9  N9  UNL     1     -37.661  14.319  -3.735  1.00 20.00    -0.192 NA
HETATM   10  S10 UNL     1     -33.738  18.644  -2.636  1.00 20.00    -0.160 SA
ENDROOT
TORSDOF 0
ENDMDL
MODEL 5
REMARK VINA RESULT:      -4.2      2.374      2.851
REMARK  0 active torsions:
REMARK  status: ('A' for Active; 'I' for Inactive)
ROOT
HETATM    1  C1  UNL     1     -37.896  14.767  -4.503  1.00 20.00     0.088 C 
HETATM    2  C2  UNL     1     -35.592  14.943  -5.185  1.00 20.00    -0.057 C 
HETATM    3  C3  UNL     1     -36.887  15.239  -5.378  1.00 20.00     0.097 C 
HETATM    4  C4  UNL     1     -35.175  14.087  -4.008  1.00 20.00     0.037 C 
HETATM    5  C5  UNL     1     -34.230  14.832  -3.065  1.00 20.00     0.014 C 
HETATM    6  C6  UNL     1     -32.957  15.322  -3.749  1.00 20.00     0.075 C 
HETATM    7  C7  UNL     1     -34.455  15.387  -6.084  1.00 20.00     0.072 C 
HETATM    8  C8  UNL     1     -34.845  16.140  -7.358  1.00 20.00     0.026 C 
HETATM    9  N9  UNL     1     -38.727  14.385  -3.791  1.00 20.00    -0.192 NA
HETATM   10  S10 UNL     1     -33.320  16.460  -5.121  1.00 20.00    -0.160 SA
ENDROOT
TORSDOF 0
ENDMDL
MODEL 6
REMARK VINA RESULT:      -4.1      2.539      4.048
REMARK  0 active torsions:
REMARK  status: ('A' for Active; 'I' for Inactive)
ROOT
HETATM    1  C1  UNL     1     -34.021  16.599  -1.870  1.00 20.00     0.088 C 
HETATM    2  C2  UNL     1     -34.052  15.477  -4.002  1.00 20.00    -0.057 C 
HETATM    3  C3  UNL     1     -34.407  15.524  -2.708  1.00 20.00     0.097 C 
HETATM    4  C4  UNL     1     -33.222  16.591  -4.604  1.00 20.00     0.037 C 
HETATM    5  C5  UNL     1     -33.953  17.297  -5.746  1.00 20.00     0.014 C 
HETATM    6  C6  UNL     1     -34.350  16.358  -6.880  1.00 20.00     0.075 C 
HETATM    7  C7  UNL     1     -34.403  14.356  -4.960  1.00 20.00     0.072 C 
HETATM    8  C8  UNL     1     -35.127  13.147  -4.361  1.00 20.00     0.026 C 
HETATM    9  N9  UNL     1     -33.709  17.476  -1.178  1.00 20.00    -0.192 NA
HETATM   10  S10 UNL     1     -35.452  15.030  -6.306  1.00 20.00    -0.160 SA
ENDROOT
TORSDOF 0
ENDMDL
MODEL 7
REMARK VINA RESULT:      -4.1      1.092      1.273
REMARK  0 active torsions:
REMARK  status: ('A' for Active; 'I' for Inactive)
ROOT
HETATM    1  C1  UNL     1     -34.801  13.625  -5.169  1.00 20.00     0.088 C 
HETATM    2  C2  UNL     1     -34.100  15.897  -5.557  1.00 20.00    -0.057 C 
HETATM    3  C3  UNL     1     -34.782  14.808  -5.947  1.00 20.00     0.097 C 
HETATM    4  C4  UNL     1     -33.327  15.884  -4.255  1.00 20.00     0.037 C 
HETATM    5  C5  UNL     1     -33.836  16.941  -3.276  1.00 20.00     0.014 C 
HETATM    6  C6  UNL     1     -33.772  18.360  -3.832  1.00 20.00     0.075 C 
HETATM    7  C7  UNL     1     -34.008  17.193  -6.338  1.00 20.00     0.072 C 
HETATM    8  C8  UNL     1     -34.663  17.204  -7.721  1.00 20.00     0.026 C 
HETATM    9  N9  UNL     1     -34.823  12.653  -4.537  1.00 20.00    -0.192 NA
HETATM   10  S10 UNL     1     -34.763  18.539  -5.347  1.00 20.00    -0.160 SA
ENDROOT
TORSDOF 0
ENDMDL
MODEL 8
REMARK VINA RESULT:      -4.0      1.994      2.029
REMARK  0 active torsions:
REMARK  status: ('A' for Active; 'I' for Inactive)
ROOT
HETATM    1  C1  UNL     1     -35.335  13.884  -4.244  1.00 20.00     0.088 C 
HETATM    2  C2  UNL     1     -35.447  16.213  -3.639  1.00 20.00    -0.057 C 
HETATM    3  C3  UNL     1     -35.913  15.173  -4.349  1.00 20.00     0.097 C 
HETATM    4  C4  UNL     1     -34.279  16.027  -2.695  1.00 20.00     0.037 C 
HETATM    5  C5  UNL     1     -34.655  16.349  -1.248  1.00 20.00     0.014 C 
HETATM    6  C6  UNL     1     -35.174  17.771  -1.061  1.00 20.00     0.075 C 
HETATM    7  C7  UNL     1     -35.991  17.626  -3.709  1.00 20.00     0.072 C 
HETATM    8  C8  UNL     1     -37.083  17.888  -4.749  1.00 20.00     0.026 C 
HETATM    9  N9  UNL     1     -34.869  12.825  -4.163  1.00 20.00    -0.192 NA
HETATM   10  S10 UNL     1     -36.658  18.088  -2.063  1.00 20.00    -0.160 SA
ENDROOT
TORSDOF 0
ENDMDL
MODEL 9
REMARK VINA RESULT:      -3.9      2.627      3.954
REMARK  0 active torsions:
REMARK  status: ('A' for Active; 'I' for Inactive)
ROOT
HETATM    1  C1  UNL     1     -34.841  16.907  -0.895  1.00 20.00     0.088 C 
HETATM    2  C2  UNL     1     -33.819  16.388  -3.015  1.00 20.00    -0.057 C 
HETATM    3  C3  UNL     1     -34.385  15.982  -1.866  1.00 20.00     0.097 C 
HETATM    4  C4  UNL     1     -33.657  17.865  -3.301  1.00 20.00     0.037 C 
HETATM    5  C5  UNL     1     -34.417  18.292  -4.558  1.00 20.00     0.014 C 
HETATM    6  C6  UNL     1     -33.987  17.532  -5.809  1.00 20.00     0.075 C 
HETATM    7  C7  UNL     1     -33.285  15.467  -4.094  1.00 20.00     0.072 C 
HETATM    8  C8  UNL     1     -33.307  13.968  -3.786  1.00 20.00     0.026 C 
HETATM    9  N9  UNL     1     -35.218  17.657  -0.096  1.00 20.00    -0.192 NA
HETATM   10  S10 UNL     1     -34.243  15.740  -5.635  1.00 20.00    -0.160 SA
ENDROOT
TORSDOF 0
ENDMDL
