MODEL 1
REMARK VINA RESULT:      -4.1      0.000      0.000
REMARK  2 active torsions:
REMARK  status: ('A' for Active; 'I' for Inactive)
REMARK    1  A    between atoms: C5_5  and  N9_9 
REMARK    2  A    between atoms: C8_8  and  N9_9 
ROOT
HETATM    1  C1  UNL     1     -34.445  17.628   0.314  1.00 20.00     0.013 C 
HETATM    2  C2  UNL     1     -34.573  16.956  -0.673  1.00 20.00    -0.087 C 
HETATM    3  C8  UNL     1     -34.733  16.134  -1.875  1.00 20.00     0.362 C 
ENDROOT
BRANCH   3   4
HETATM    4  N9  UNL     1     -33.678  16.420  -2.838  1.00 20.00     0.099 N 
HETATM    5  H23 UNL     1     -32.778  16.424  -2.357  1.00 20.00     0.317 HD
BRANCH   4   6
HETATM    6  C5  UNL     1     -33.652  15.431  -3.882  1.00 20.00     0.232 C 
HETATM    7  C3  UNL     1     -34.445  15.873  -5.108  1.00 20.00     0.051 C 
HETATM    8  C6  UNL     1     -34.473  14.677  -6.055  1.00 20.00     0.045 C 
HETATM    9  C7  UNL     1     -35.593  14.764  -7.078  1.00 20.00     0.021 C 
HETATM   10  S10 UNL     1     -34.677  13.233  -4.962  1.00 20.00    -0.162 SA
HETATM   11  C4  UNL     1     -34.273  14.116  -3.428  1.00 20.00     0.109 C 
ENDBRANCH   4   6
ENDBRANCH   3   4
TORSDOF 2
ENDMDL
MODEL 2
REMARK VINA RESULT:      -4.1      2.214      5.079
REMARK  2 active torsions:
REMARK  status: ('A' for Active; 'I' for Inactive)
REMARK    1  A    between atoms: C5_5  and  N9_9 
REMARK    2  A    between atoms: C8_8  and  N9_9 
ROOT
HETATM    1  C1  UNL     1     -35.460  14.418  -7.773  1.00 20.00     0.013 C 
HETATM    2  C2  UNL     1     -34.997  14.553  -6.674  1.00 20.00    -0.087 C 
HETATM    3  C8  UNL     1     -34.434  14.715  -5.331  1.00 20.00     0.362 C 
ENDROOT
BRANCH   3   4
HETATM    4  N9  UNL     1     -33.241  15.549  -5.369  1.00 20.00     0.099 N 
HETATM    5  H23 UNL     1     -33.217  16.058  -6.253  1.00 20.00     0.317 HD
BRANCH   4   6
HETATM    6  C5  UNL     1     -33.236  16.490  -4.282  1.00 20.00     0.232 C 
HETATM    7  C3  UNL     1     -33.689  15.852  -2.972  1.00 20.00     0.051 C 
HETATM    8  C6  UNL     1     -33.795  16.986  -1.957  1.00 20.00     0.045 C 
HETATM    9  C7  UNL     1     -34.672  16.630  -0.768  1.00 20.00     0.021 C 
HETATM   10  S10 UNL     1     -34.485  18.383  -2.902  1.00 20.00    -0.162 SA
HETATM   11  C4  UNL     1     -34.187  17.652  -4.537  1.00 20.00     0.109 C 
ENDBRANCH   4   6
ENDBRANCH   3   4
TORSDOF 2
ENDMDL
MODEL 3
REMARK VINA RESULT:      -4.0      1.500      1.608
REMARK  2 active torsions:
REMARK  status: ('A' for Active; 'I' for Inactive)
REMARK    1  A    between atoms: C5_5  and  N9_9 
REMARK    2  A    between atoms: C8_8  and  N9_9 
ROOT
HETATM    1  C1  UNL     1     -34.764  16.915  -0.383  1.00 20.00     0.013 C 
HETATM    2  C2  UNL     1     -34.285  16.589  -1.434  1.00 20.00    -0.087 C 
HETATM    3  C8  UNL     1     -33.697  16.193  -2.716  1.00 20.00     0.362 C 
ENDROOT
BRANCH   3   4
HETATM    4  N9  UNL     1     -34.234  14.914  -3.156  1.00 20.00     0.099 N 
HETATM    5  H23 UNL     1     -35.216  14.852  -2.886  1.00 20.00     0.317 HD
BRANCH   4   6
HETATM    6  C5  UNL     1     -34.128  14.774  -4.584  1.00 20.00     0.232 C 
HETATM    7  C3  UNL     1     -34.104  16.127  -5.290  1.00 20.00     0.051 C 
HETATM    8  C6  UNL     1     -34.157  15.831  -6.786  1.00 20.00     0.045 C 
HETATM    9  C7  UNL     1     -34.619  17.024  -7.604  1.00 20.00     0.021 C 
HETATM   10  S10 UNL     1     -35.314  14.430  -6.934  1.00 20.00    -0.162 SA
HETATM   11  C4  UNL     1     -35.312  14.014  -5.167  1.00 20.00     0.109 C 
ENDBRANCH   4   6
ENDBRANCH   3   4
TORSDOF 2
ENDMDL
MODEL 4
REMARK VINA RESULT:      -4.0      2.719      5.052
REMARK  2 active torsions:
REMARK  status: ('A' for Active; 'I' for Inactive)
REMARK    1  A    between atoms: C5_5  and  N9_9 
REMARK    2  A    between atoms: C8_8  and  N9_9 
ROOT
HETATM    1  C1  UNL     1     -33.470  13.621  -3.744  1.00 20.00     0.013 C 
HETATM    2  C2  UNL     1     -34.560  14.123  -3.784  1.00 20.00    -0.087 C 
HETATM    3  C8  UNL     1     -35.891  14.734  -3.837  1.00 20.00     0.362 C 
ENDROOT
BRANCH   3   4
HETATM    4  N9  UNL     1     -36.119  15.570  -2.667  1.00 20.00     0.099 N 
HETATM    5  H23 UNL     1     -36.209  14.976  -1.842  1.00 20.00     0.317 HD
BRANCH   4   6
HETATM    6  C5  UNL     1     -35.030  16.489  -2.471  1.00 20.00     0.232 C 
HETATM    7  C3  UNL     1     -34.652  16.622  -0.999  1.00 20.00     0.051 C 
HETATM    8  C6  UNL     1     -33.613  17.737  -0.921  1.00 20.00     0.045 C 
HETATM    9  C7  UNL     1     -33.484  18.323   0.474  1.00 20.00     0.021 C 
HETATM   10  S10 UNL     1     -34.189  18.983  -2.120  1.00 20.00    -0.162 SA
HETATM   11  C4  UNL     1     -35.384  17.893  -2.945  1.00 20.00     0.109 C 
ENDBRANCH   4   6
ENDBRANCH   3   4
TORSDOF 2
ENDMDL
MODEL 5
REMARK VINA RESULT:      -3.9      2.025      2.249
REMARK  2 active torsions:
REMARK  status: ('A' for Active; 'I' for Inactive)
REMARK    1  A    between atoms: C5_5  and  N9_9 
REMARK    2  A    between atoms: C8_8  and  N9_9 
ROOT
HETATM    1  C1  UNL     1     -34.643  17.084  -0.179  1.00 20.00     0.013 C 
HETATM    2  C2  UNL     1     -34.768  16.511  -1.226  1.00 20.00    -0.087 C 
HETATM    3  C8  UNL     1     -34.916  15.811  -2.505  1.00 20.00     0.362 C 
ENDROOT
BRANCH   3   4
HETATM    4  N9  UNL     1     -36.318  15.519  -2.772  1.00 20.00     0.099 N 
HETATM    5  H23 UNL     1     -36.864  16.374  -2.671  1.00 20.00     0.317 HD
BRANCH   4   6
HETATM    6  C5  UNL     1     -36.491  15.003  -4.104  1.00 20.00     0.232 C 
HETATM    7  C3  UNL     1     -35.175  14.958  -4.875  1.00 20.00     0.051 C 
HETATM    8  C6  UNL     1     -35.528  14.556  -6.304  1.00 20.00     0.045 C 
HETATM    9  C7  UNL     1     -34.443  14.922  -7.302  1.00 20.00     0.021 C 
HETATM   10  S10 UNL     1     -37.085  15.436  -6.655  1.00 20.00    -0.162 SA
HETATM   11  C4  UNL     1     -37.433  15.871  -4.927  1.00 20.00     0.109 C 
ENDBRANCH   4   6
ENDBRANCH   3   4
TORSDOF 2
ENDMDL
MODEL 6
REMARK VINA RESULT:      -3.9     10.686     12.088
REMARK  2 active torsions:
REMARK  status: ('A' for Active; 'I' for Inactive)
REMARK    1  A    between atoms: C5_5  and  N9_9 
REMARK    2  A    between atoms: C8_8  and  N9_9 
ROOT
HETATM    1  C1  UNL     1     -32.435   9.204   0.434  1.00 20.00     0.013 C 
HETATM    2  C2  UNL     1     -32.103   8.721   1.482  1.00 20.00    -0.087 C 
HETATM    3  C8  UNL     1     -31.695   8.136   2.763  1.00 20.00     0.362 C 
ENDROOT
BRANCH   3   4
HETATM    4  N9  UNL     1     -32.067   6.729   2.827  1.00 20.00     0.099 N 
HETATM    5  H23 UNL     1     -31.365   6.221   3.366  1.00 20.00     0.317 HD
BRANCH   4   6
HETATM    6  C5  UNL     1     -33.353   6.565   3.451  1.00 20.00     0.232 C 
HETATM    7  C3  UNL     1     -33.228   6.201   4.928  1.00 20.00     0.051 C 
HETATM    8  C6  UNL     1     -34.642   5.896   5.415  1.00 20.00     0.045 C 
HETATM    9  C7  UNL     1     -34.659   5.070   6.689  1.00 20.00     0.021 C 
HETATM   10  S10 UNL     1     -35.421   5.005   4.029  1.00 20.00    -0.162 SA
HETATM   11  C4  UNL     1     -34.155   5.444   2.805  1.00 20.00     0.109 C 
ENDBRANCH   4   6
ENDBRANCH   3   4
TORSDOF 2
ENDMDL
MODEL 7
REMARK VINA RESULT:      -3.9      1.619      2.283
REMARK  2 active torsions:
REMARK  status: ('A' for Active; 'I' for Inactive)
REMARK    1  A    between atoms: C5_5  and  N9_9 
REMARK    2  A    between atoms: C8_8  and  N9_9 
ROOT
HETATM    1  C1  UNL     1     -32.142  19.022   0.294  1.00 20.00     0.013 C 
HETATM    2  C2  UNL     1     -33.017  18.327  -0.146  1.00 20.00    -0.087 C 
HETATM    3  C8  UNL     1     -34.088  17.481  -0.681  1.00 20.00     0.362 C 
ENDROOT
BRANCH   3   4
HETATM    4  N9  UNL     1     -33.700  16.910  -1.963  1.00 20.00     0.099 N 
HETATM    5  H23 UNL     1     -32.744  16.561  -1.899  1.00 20.00     0.317 HD
BRANCH   4   6
HETATM    6  C5  UNL     1     -34.576  15.829  -2.330  1.00 20.00     0.232 C 
HETATM    7  C3  UNL     1     -33.949  14.919  -3.382  1.00 20.00     0.051 C 
HETATM    8  C6  UNL     1     -35.035  13.930  -3.795  1.00 20.00     0.045 C 
HETATM    9  C7  UNL     1     -34.757  13.280  -5.139  1.00 20.00     0.021 C 
HETATM   10  S10 UNL     1     -36.565  14.920  -3.835  1.00 20.00    -0.162 SA
HETATM   11  C4  UNL     1     -35.878  16.338  -2.933  1.00 20.00     0.109 C 
ENDBRANCH   4   6
ENDBRANCH   3   4
TORSDOF 2
ENDMDL
MODEL 8
REMARK VINA RESULT:      -3.9      1.775      2.219
REMARK  2 active torsions:
REMARK  status: ('A' for Active; 'I' for Inactive)
REMARK    1  A    between atoms: C5_5  and  N9_9 
REMARK    2  A    between atoms: C8_8  and  N9_9 
ROOT
HETATM    1  C1  UNL     1     -35.280  17.771   1.766  1.00 20.00     0.013 C 
HETATM    2  C2  UNL     1     -34.948  17.435   0.662  1.00 20.00    -0.087 C 
HETATM    3  C8  UNL     1     -34.538  17.025  -0.684  1.00 20.00     0.362 C 
ENDROOT
BRANCH   3   4
HETATM    4  N9  UNL     1     -35.701  16.707  -1.501  1.00 20.00     0.099 N 
HETATM    5  H23 UNL     1     -36.359  17.486  -1.465  1.00 20.00     0.317 HD
BRANCH   4   6
HETATM    6  C5  UNL     1     -35.320  16.473  -2.868  1.00 20.00     0.232 C 
HETATM    7  C3  UNL     1     -35.481  15.008  -3.263  1.00 20.00     0.051 C 
HETATM    8  C6  UNL     1     -34.891  14.874  -4.663  1.00 20.00     0.045 C 
HETATM    9  C7  UNL     1     -34.531  13.441  -5.014  1.00 20.00     0.021 C 
HETATM   10  S10 UNL     1     -33.419  15.948  -4.645  1.00 20.00    -0.162 SA
HETATM   11  C4  UNL     1     -33.858  16.819  -3.114  1.00 20.00     0.109 C 
ENDBRANCH   4   6
ENDBRANCH   3   4
TORSDOF 2
ENDMDL
MODEL 9
REMARK VINA RESULT:      -3.7     12.993     14.295
REMARK  2 active torsions:
REMARK  status: ('A' for Active; 'I' for Inactive)
REMARK    1  A    between atoms: C5_5  and  N9_9 
REMARK    2  A    between atoms: C8_8  and  N9_9 
ROOT
HETATM    1  C1  UNL     1     -41.986   0.487  -4.357  1.00 20.00     0.013 C 
HETATM    2  C2  UNL     1     -41.742   1.511  -3.779  1.00 20.00    -0.087 C 
HETATM    3  C8  UNL     1     -41.440   2.762  -3.078  1.00 20.00     0.362 C 
ENDROOT
BRANCH   3   4
HETATM    4  N9  UNL     1     -42.303   2.921  -1.916  1.00 20.00     0.099 N 
HETATM    5  H23 UNL     1     -41.926   2.375  -1.141  1.00 20.00     0.317 HD
BRANCH   4   6
HETATM    6  C5  UNL     1     -42.388   4.303  -1.524  1.00 20.00     0.232 C 
HETATM    7  C3  UNL     1     -42.654   5.219  -2.715  1.00 20.00     0.051 C 
HETATM    8  C6  UNL     1     -42.553   6.647  -2.188  1.00 20.00     0.045 C 
HETATM    9  C7  UNL     1     -42.313   7.665  -3.289  1.00 20.00     0.021 C 
HETATM   10  S10 UNL     1     -41.167   6.602  -1.005  1.00 20.00    -0.162 SA
HETATM   11  C4  UNL     1     -41.090   4.791  -0.896  1.00 20.00     0.109 C 
ENDBRANCH   4   6
ENDBRANCH   3   4
TORSDOF 2
ENDMDL
