MODEL 1
REMARK VINA RESULT:      -4.8      0.000      0.000
REMARK  0 active torsions:
REMARK  status: ('A' for Active; 'I' for Inactive)
ROOT
HETATM    1  C1  UNL     1     -37.112  14.387  -4.105  1.00 20.00     0.067 C 
HETATM    2  C2  UNL     1     -34.725  13.814  -3.905  1.00 20.00     0.059 C 
HETATM    3  C3  UNL     1     -35.868  14.138  -4.856  1.00 20.00     0.129 C 
HETATM    4  C4  UNL     1     -34.080  15.173  -3.613  1.00 20.00     0.056 C 
HETATM    5  C5  UNL     1     -35.329  15.366  -5.608  1.00 20.00     0.071 C 
HETATM    6  C6  UNL     1     -34.593  15.796  -2.313  1.00 20.00     0.045 C 
HETATM    7  C7  UNL     1     -32.556  15.076  -3.569  1.00 20.00     0.045 C 
HETATM    8  C8  UNL     1     -34.481  14.937  -6.817  1.00 20.00     0.047 C 
HETATM    9  C9  UNL     1     -36.390  16.361  -6.085  1.00 20.00     0.047 C 
HETATM   10  N10 UNL     1     -38.091  14.583  -3.514  1.00 20.00    -0.197 NA
HETATM   11  O11 UNL     1     -34.450  16.052  -4.694  1.00 20.00    -0.369 OA
ENDROOT
TORSDOF 0
ENDMDL
MODEL 2
REMARK VINA RESULT:      -4.6      1.908      2.831
REMARK  0 active torsions:
REMARK  status: ('A' for Active; 'I' for Inactive)
ROOT
HETATM    1  C1  UNL     1     -34.437  13.644  -4.401  1.00 20.00     0.067 C 
HETATM    2  C2  UNL     1     -34.891  15.515  -2.865  1.00 20.00     0.059 C 
HETATM    3  C3  UNL     1     -34.055  15.019  -4.036  1.00 20.00     0.129 C 
HETATM    4  C4  UNL     1     -36.092  16.202  -3.522  1.00 20.00     0.056 C 
HETATM    5  C5  UNL     1     -34.357  16.068  -5.119  1.00 20.00     0.071 C 
HETATM    6  C6  UNL     1     -37.311  15.281  -3.620  1.00 20.00     0.045 C 
HETATM    7  C7  UNL     1     -36.478  17.486  -2.791  1.00 20.00     0.045 C 
HETATM    8  C8  UNL     1     -33.414  17.275  -4.991  1.00 20.00     0.047 C 
HETATM    9  C9  UNL     1     -34.302  15.555  -6.561  1.00 20.00     0.047 C 
HETATM   10  N10 UNL     1     -34.739  12.561  -4.689  1.00 20.00    -0.197 NA
HETATM   11  O11 UNL     1     -35.695  16.544  -4.865  1.00 20.00    -0.369 OA
ENDROOT
TORSDOF 0
ENDMDL
MODEL 3
REMARK VINA RESULT:      -4.6      1.689      3.484
REMARK  0 active torsions:
REMARK  status: ('A' for Active; 'I' for Inactive)
ROOT
HETATM    1  C1  UNL     1     -34.894  13.598  -4.436  1.00 20.00     0.067 C 
HETATM    2  C2  UNL     1     -35.678  15.911  -4.760  1.00 20.00     0.059 C 
HETATM    3  C3  UNL     1     -34.958  14.942  -3.834  1.00 20.00     0.129 C 
HETATM    4  C4  UNL     1     -34.559  16.526  -5.607  1.00 20.00     0.056 C 
HETATM    5  C5  UNL     1     -33.589  15.620  -3.654  1.00 20.00     0.071 C 
HETATM    6  C6  UNL     1     -34.392  15.822  -6.956  1.00 20.00     0.045 C 
HETATM    7  C7  UNL     1     -34.779  18.020  -5.834  1.00 20.00     0.045 C 
HETATM    8  C8  UNL     1     -33.631  16.643  -2.508  1.00 20.00     0.047 C 
HETATM    9  C9  UNL     1     -32.413  14.668  -3.417  1.00 20.00     0.047 C 
HETATM   10  N10 UNL     1     -34.843  12.541  -4.910  1.00 20.00    -0.197 NA
HETATM   11  O11 UNL     1     -33.333  16.352  -4.870  1.00 20.00    -0.369 OA
ENDROOT
TORSDOF 0
ENDMDL
MODEL 4
REMARK VINA RESULT:      -4.6      1.733      2.198
REMARK  0 active torsions:
REMARK  status: ('A' for Active; 'I' for Inactive)
ROOT
HETATM    1  C1  UNL     1     -34.571  13.782  -4.839  1.00 20.00     0.067 C 
HETATM    2  C2  UNL     1     -33.306  15.827  -4.305  1.00 20.00     0.059 C 
HETATM    3  C3  UNL     1     -34.162  15.107  -5.337  1.00 20.00     0.129 C 
HETATM    4  C4  UNL     1     -34.311  16.634  -3.478  1.00 20.00     0.056 C 
HETATM    5  C5  UNL     1     -35.324  16.093  -5.541  1.00 20.00     0.071 C 
HETATM    6  C6  UNL     1     -34.727  15.911  -2.194  1.00 20.00     0.045 C 
HETATM    7  C7  UNL     1     -33.773  18.021  -3.131  1.00 20.00     0.045 C 
HETATM    8  C8  UNL     1     -34.971  17.144  -6.606  1.00 20.00     0.047 C 
HETATM    9  C9  UNL     1     -36.667  15.456  -5.910  1.00 20.00     0.047 C 
HETATM   10  N10 UNL     1     -34.894  12.740  -4.446  1.00 20.00    -0.197 NA
HETATM   11  O11 UNL     1     -35.491  16.793  -4.291  1.00 20.00    -0.369 OA
ENDROOT
TORSDOF 0
ENDMDL
MODEL 5
REMARK VINA RESULT:      -4.5      1.368      2.745
REMARK  0 active torsions:
REMARK  status: ('A' for Active; 'I' for Inactive)
ROOT
HETATM    1  C1  UNL     1     -36.592  14.761  -3.618  1.00 20.00     0.067 C 
HETATM    2  C2  UNL     1     -35.130  16.739  -3.744  1.00 20.00     0.059 C 
HETATM    3  C3  UNL     1     -35.228  15.264  -3.381  1.00 20.00     0.129 C 
HETATM    4  C4  UNL     1     -34.695  16.738  -5.213  1.00 20.00     0.056 C 
HETATM    5  C5  UNL     1     -34.156  14.634  -4.286  1.00 20.00     0.071 C 
HETATM    6  C6  UNL     1     -35.878  16.884  -6.173  1.00 20.00     0.045 C 
HETATM    7  C7  UNL     1     -33.667  17.831  -5.498  1.00 20.00     0.045 C 
HETATM    8  C8  UNL     1     -32.775  14.681  -3.613  1.00 20.00     0.047 C 
HETATM    9  C9  UNL     1     -34.436  13.195  -4.729  1.00 20.00     0.047 C 
HETATM   10  N10 UNL     1     -37.667  14.365  -3.805  1.00 20.00    -0.197 NA
HETATM   11  O11 UNL     1     -34.082  15.459  -5.467  1.00 20.00    -0.369 OA
ENDROOT
TORSDOF 0
ENDMDL
MODEL 6
REMARK VINA RESULT:      -4.5      2.098      3.060
REMARK  0 active torsions:
REMARK  status: ('A' for Active; 'I' for Inactive)
ROOT
HETATM    1  C1  UNL     1     -34.429  13.527  -4.869  1.00 20.00     0.067 C 
HETATM    2  C2  UNL     1     -34.366  15.027  -6.822  1.00 20.00     0.059 C 
HETATM    3  C3  UNL     1     -35.236  14.148  -5.935  1.00 20.00     0.129 C 
HETATM    4  C4  UNL     1     -34.452  16.415  -6.178  1.00 20.00     0.056 C 
HETATM    5  C5  UNL     1     -36.294  15.142  -5.428  1.00 20.00     0.071 C 
HETATM    6  C6  UNL     1     -33.273  16.700  -5.244  1.00 20.00     0.045 C 
HETATM    7  C7  UNL     1     -34.551  17.519  -7.229  1.00 20.00     0.045 C 
HETATM    8  C8  UNL     1     -37.463  15.251  -6.421  1.00 20.00     0.047 C 
HETATM    9  C9  UNL     1     -36.861  14.844  -4.037  1.00 20.00     0.047 C 
HETATM   10  N10 UNL     1     -33.794  13.039  -4.030  1.00 20.00    -0.197 NA
HETATM   11  O11 UNL     1     -35.653  16.433  -5.382  1.00 20.00    -0.369 OA
ENDROOT
TORSDOF 0
ENDMDL
MODEL 7
REMARK VINA RESULT:      -4.3      1.845      2.414
REMARK  0 active torsions:
REMARK  status: ('A' for Active; 'I' for Inactive)
ROOT
HETATM    1  C1  UNL     1     -35.008  13.660  -5.104  1.00 20.00     0.067 C 
HETATM    2  C2  UNL     1     -33.878  15.723  -5.835  1.00 20.00     0.059 C 
HETATM    3  C3  UNL     1     -35.138  14.875  -5.928  1.00 20.00     0.129 C 
HETATM    4  C4  UNL     1     -34.154  16.683  -4.674  1.00 20.00     0.056 C 
HETATM    5  C5  UNL     1     -36.224  15.851  -5.447  1.00 20.00     0.071 C 
HETATM    6  C6  UNL     1     -33.562  16.188  -3.352  1.00 20.00     0.045 C 
HETATM    7  C7  UNL     1     -33.637  18.090  -4.970  1.00 20.00     0.045 C 
HETATM    8  C8  UNL     1     -36.746  16.707  -6.613  1.00 20.00     0.047 C 
HETATM    9  C9  UNL     1     -37.420  15.205  -4.741  1.00 20.00     0.047 C 
HETATM   10  N10 UNL     1     -34.905  12.704  -4.455  1.00 20.00    -0.197 NA
HETATM   11  O11 UNL     1     -35.585  16.747  -4.515  1.00 20.00    -0.369 OA
ENDROOT
TORSDOF 0
ENDMDL
MODEL 8
REMARK VINA RESULT:      -4.3      2.495      3.787
REMARK  0 active torsions:
REMARK  status: ('A' for Active; 'I' for Inactive)
ROOT
HETATM    1  C1  UNL     1     -33.566  17.870  -4.921  1.00 20.00     0.067 C 
HETATM    2  C2  UNL     1     -33.070  15.576  -4.175  1.00 20.00     0.059 C 
HETATM    3  C3  UNL     1     -33.541  16.962  -3.761  1.00 20.00     0.129 C 
HETATM    4  C4  UNL     1     -34.361  14.827  -4.522  1.00 20.00     0.056 C 
HETATM    5  C5  UNL     1     -34.926  16.670  -3.158  1.00 20.00     0.071 C 
HETATM    6  C6  UNL     1     -34.664  14.849  -6.022  1.00 20.00     0.045 C 
HETATM    7  C7  UNL     1     -34.325  13.382  -4.029  1.00 20.00     0.045 C 
HETATM    8  C8  UNL     1     -34.807  16.295  -1.672  1.00 20.00     0.047 C 
HETATM    9  C9  UNL     1     -35.953  17.797  -3.297  1.00 20.00     0.047 C 
HETATM   10  N10 UNL     1     -33.585  18.584  -5.835  1.00 20.00    -0.197 NA
HETATM   11  O11 UNL     1     -35.436  15.512  -3.850  1.00 20.00    -0.369 OA
ENDROOT
TORSDOF 0
ENDMDL
MODEL 9
REMARK VINA RESULT:      -4.3      1.626      3.420
REMARK  0 active torsions:
REMARK  status: ('A' for Active; 'I' for Inactive)
ROOT
HETATM    1  C1  UNL     1     -35.403  13.768  -4.301  1.00 20.00     0.067 C 
HETATM    2  C2  UNL     1     -36.398  15.583  -5.636  1.00 20.00     0.059 C 
HETATM    3  C3  UNL     1     -35.952  15.134  -4.252  1.00 20.00     0.129 C 
HETATM    4  C4  UNL     1     -35.165  16.279  -6.222  1.00 20.00     0.056 C 
HETATM    5  C5  UNL     1     -34.926  16.215  -3.874  1.00 20.00     0.071 C 
HETATM    6  C6  UNL     1     -34.337  15.350  -7.113  1.00 20.00     0.045 C 
HETATM    7  C7  UNL     1     -35.545  17.534  -7.006  1.00 20.00     0.045 C 
HETATM    8  C8  UNL     1     -35.619  17.427  -3.230  1.00 20.00     0.047 C 
HETATM    9  C9  UNL     1     -33.795  15.751  -2.951  1.00 20.00     0.047 C 
HETATM   10  N10 UNL     1     -34.970  12.692  -4.339  1.00 20.00    -0.197 NA
HETATM   11  O11 UNL     1     -34.336  16.669  -5.110  1.00 20.00    -0.369 OA
ENDROOT
TORSDOF 0
ENDMDL
