MODEL 1
REMARK VINA RESULT:      -4.6      0.000      0.000
REMARK  3 active torsions:
REMARK  status: ('A' for Active; 'I' for Inactive)
REMARK    1  A    between atoms: C4_4  and  C7_7 
REMARK    2  A    between atoms: C4_4  and  O9_9 
REMARK    3  A    between atoms: C7_7  and  C8_8 
ROOT
HETATM    1  C1  UNL     1     -34.924  15.965  -4.777  1.00 20.00     0.053 C 
HETATM    2  C2  UNL     1     -33.911  14.094  -3.559  1.00 20.00     0.112 C 
HETATM    3  C3  UNL     1     -35.162  14.879  -5.828  1.00 20.00     0.046 C 
HETATM    4  C4  UNL     1     -33.721  15.566  -3.916  1.00 20.00     0.067 C 
HETATM    5  C5  UNL     1     -34.378  15.082  -7.119  1.00 20.00     0.021 C 
HETATM    6  S10 UNL     1     -34.666  13.322  -5.022  1.00 20.00    -0.162 SA
ENDROOT
BRANCH   4   7
HETATM    7  C7  UNL     1     -33.611  16.433  -2.663  1.00 20.00     0.038 C 
BRANCH   7   8
HETATM    8  C8  UNL     1     -34.789  16.198  -1.725  1.00 20.00    -0.002 C 
HETATM    9  C6  UNL     1     -34.619  16.966  -0.423  1.00 20.00     0.005 C 
ENDBRANCH   7   8
ENDBRANCH   4   7
BRANCH   4  10
HETATM   10  O9  UNL     1     -32.506  15.713  -4.649  1.00 20.00    -0.389 OA
HETATM   11  H26 UNL     1     -32.686  16.349  -5.357  1.00 20.00     0.210 HD
ENDBRANCH   4  10
TORSDOF 3
ENDMDL
MODEL 2
REMARK VINA RESULT:      -4.0      1.928      2.403
REMARK  3 active torsions:
REMARK  status: ('A' for Active; 'I' for Inactive)
REMARK    1  A    between atoms: C4_4  and  C7_7 
REMARK    2  A    between atoms: C4_4  and  O9_9 
REMARK    3  A    between atoms: C7_7  and  C8_8 
ROOT
HETATM    1  C1  UNL     1     -33.568  15.047  -3.363  1.00 20.00     0.053 C 
HETATM    2  C2  UNL     1     -34.900  16.999  -4.017  1.00 20.00     0.112 C 
HETATM    3  C3  UNL     1     -34.142  14.482  -4.663  1.00 20.00     0.046 C 
HETATM    4  C4  UNL     1     -34.519  16.122  -2.826  1.00 20.00     0.067 C 
HETATM    5  C5  UNL     1     -35.092  13.307  -4.462  1.00 20.00     0.021 C 
HETATM    6  S10 UNL     1     -35.014  15.877  -5.444  1.00 20.00    -0.162 SA
ENDROOT
BRANCH   4   7
HETATM    7  C7  UNL     1     -33.874  16.943  -1.713  1.00 20.00     0.038 C 
BRANCH   7   8
HETATM    8  C8  UNL     1     -34.686  16.862  -0.425  1.00 20.00    -0.002 C 
HETATM    9  C6  UNL     1     -34.320  17.987   0.530  1.00 20.00     0.005 C 
ENDBRANCH   7   8
ENDBRANCH   4   7
BRANCH   4  10
HETATM   10  O9  UNL     1     -35.701  15.527  -2.293  1.00 20.00    -0.389 OA
HETATM   11  H26 UNL     1     -35.829  15.911  -1.412  1.00 20.00     0.210 HD
ENDBRANCH   4  10
TORSDOF 3
ENDMDL
MODEL 3
REMARK VINA RESULT:      -4.0      1.351      1.499
REMARK  3 active torsions:
REMARK  status: ('A' for Active; 'I' for Inactive)
REMARK    1  A    between atoms: C4_4  and  C7_7 
REMARK    2  A    between atoms: C4_4  and  O9_9 
REMARK    3  A    between atoms: C7_7  and  C8_8 
ROOT
HETATM    1  C1  UNL     1     -35.121  16.488  -4.927  1.00 20.00     0.053 C 
HETATM    2  C2  UNL     1     -34.358  14.196  -5.343  1.00 20.00     0.112 C 
HETATM    3  C3  UNL     1     -35.349  16.463  -6.440  1.00 20.00     0.046 C 
HETATM    4  C4  UNL     1     -34.030  15.474  -4.574  1.00 20.00     0.067 C 
HETATM    5  C5  UNL     1     -34.444  17.411  -7.219  1.00 20.00     0.021 C 
HETATM    6  S10 UNL     1     -35.040  14.739  -6.938  1.00 20.00    -0.162 SA
ENDROOT
BRANCH   4   7
HETATM    7  C7  UNL     1     -33.963  15.216  -3.069  1.00 20.00     0.038 C 
BRANCH   7   8
HETATM    8  C8  UNL     1     -33.774  16.516  -2.296  1.00 20.00    -0.002 C 
HETATM    9  C6  UNL     1     -34.631  16.540  -1.040  1.00 20.00     0.005 C 
ENDBRANCH   7   8
ENDBRANCH   4   7
BRANCH   4  10
HETATM   10  O9  UNL     1     -32.749  15.946  -4.986  1.00 20.00    -0.389 OA
HETATM   11  H26 UNL     1     -32.898  16.499  -5.769  1.00 20.00     0.210 HD
ENDBRANCH   4  10
TORSDOF 3
ENDMDL
MODEL 4
REMARK VINA RESULT:      -3.9     12.762     13.442
REMARK  3 active torsions:
REMARK  status: ('A' for Active; 'I' for Inactive)
REMARK    1  A    between atoms: C4_4  and  C7_7 
REMARK    2  A    between atoms: C4_4  and  O9_9 
REMARK    3  A    between atoms: C7_7  and  C8_8 
ROOT
HETATM    1  C1  UNL     1     -42.114   4.904  -2.510  1.00 20.00     0.053 C 
HETATM    2  C2  UNL     1     -42.502   4.398  -0.143  1.00 20.00     0.112 C 
HETATM    3  C3  UNL     1     -42.828   3.564  -2.697  1.00 20.00     0.046 C 
HETATM    4  C4  UNL     1     -41.460   4.927  -1.125  1.00 20.00     0.067 C 
HETATM    5  C5  UNL     1     -41.944   2.466  -3.277  1.00 20.00     0.021 C 
HETATM    6  S10 UNL     1     -43.411   3.100  -1.036  1.00 20.00    -0.162 SA
ENDROOT
BRANCH   4   7
HETATM    7  C7  UNL     1     -40.997   6.332  -0.742  1.00 20.00     0.038 C 
BRANCH   7   8
HETATM    8  C8  UNL     1     -41.709   7.393  -1.573  1.00 20.00    -0.002 C 
HETATM    9  C6  UNL     1     -42.853   8.026  -0.796  1.00 20.00     0.005 C 
ENDBRANCH   7   8
ENDBRANCH   4   7
BRANCH   4  10
HETATM   10  O9  UNL     1     -40.317   4.074  -1.092  1.00 20.00    -0.389 OA
HETATM   11  H26 UNL     1     -40.589   3.234  -1.493  1.00 20.00     0.210 HD
ENDBRANCH   4  10
TORSDOF 3
ENDMDL
MODEL 5
REMARK VINA RESULT:      -3.8      2.112      4.452
REMARK  3 active torsions:
REMARK  status: ('A' for Active; 'I' for Inactive)
REMARK    1  A    between atoms: C4_4  and  C7_7 
REMARK    2  A    between atoms: C4_4  and  O9_9 
REMARK    3  A    between atoms: C7_7  and  C8_8 
ROOT
HETATM    1  C1  UNL     1     -34.979  16.147  -4.454  1.00 20.00     0.053 C 
HETATM    2  C2  UNL     1     -33.656  17.980  -5.402  1.00 20.00     0.112 C 
HETATM    3  C3  UNL     1     -34.872  17.003  -3.190  1.00 20.00     0.046 C 
HETATM    4  C4  UNL     1     -33.788  16.459  -5.366  1.00 20.00     0.067 C 
HETATM    5  C5  UNL     1     -34.058  16.361  -2.073  1.00 20.00     0.021 C 
HETATM    6  S10 UNL     1     -34.092  18.556  -3.733  1.00 20.00    -0.162 SA
ENDROOT
BRANCH   4   7
HETATM    7  C7  UNL     1     -33.983  15.884  -6.767  1.00 20.00     0.038 C 
BRANCH   7   8
HETATM    8  C8  UNL     1     -34.796  14.595  -6.726  1.00 20.00    -0.002 C 
HETATM    9  C6  UNL     1     -35.735  14.497  -7.918  1.00 20.00     0.005 C 
ENDBRANCH   7   8
ENDBRANCH   4   7
BRANCH   4  10
HETATM   10  O9  UNL     1     -32.586  15.903  -4.835  1.00 20.00    -0.389 OA
HETATM   11  H26 UNL     1     -32.790  14.986  -4.594  1.00 20.00     0.210 HD
ENDBRANCH   4  10
TORSDOF 3
ENDMDL
MODEL 6
REMARK VINA RESULT:      -3.8     13.335     14.473
REMARK  3 active torsions:
REMARK  status: ('A' for Active; 'I' for Inactive)
REMARK    1  A    between atoms: C4_4  and  C7_7 
REMARK    2  A    between atoms: C4_4  and  O9_9 
REMARK    3  A    between atoms: C7_7  and  C8_8 
ROOT
HETATM    1  C1  UNL     1     -41.111   4.408  -1.480  1.00 20.00     0.053 C 
HETATM    2  C2  UNL     1     -43.350   4.069  -0.540  1.00 20.00     0.112 C 
HETATM    3  C3  UNL     1     -41.080   5.542  -0.453  1.00 20.00     0.046 C 
HETATM    4  C4  UNL     1     -42.568   4.115  -1.851  1.00 20.00     0.067 C 
HETATM    5  C5  UNL     1     -41.032   6.935  -1.070  1.00 20.00     0.021 C 
HETATM    6  S10 UNL     1     -42.599   5.335   0.529  1.00 20.00    -0.162 SA
ENDROOT
BRANCH   4   7
HETATM    7  C7  UNL     1     -42.701   2.804  -2.624  1.00 20.00     0.038 C 
BRANCH   7   8
HETATM    8  C8  UNL     1     -41.394   2.437  -3.316  1.00 20.00    -0.002 C 
HETATM    9  C6  UNL     1     -41.497   1.087  -4.009  1.00 20.00     0.005 C 
ENDBRANCH   7   8
ENDBRANCH   4   7
BRANCH   4  10
HETATM   10  O9  UNL     1     -43.099   5.154  -2.670  1.00 20.00    -0.389 OA
HETATM   11  H26 UNL     1     -42.420   5.358  -3.332  1.00 20.00     0.210 HD
ENDBRANCH   4  10
TORSDOF 3
ENDMDL
MODEL 7
REMARK VINA RESULT:      -3.6     11.537     12.493
REMARK  3 active torsions:
REMARK  status: ('A' for Active; 'I' for Inactive)
REMARK    1  A    between atoms: C4_4  and  C7_7 
REMARK    2  A    between atoms: C4_4  and  O9_9 
REMARK    3  A    between atoms: C7_7  and  C8_8 
ROOT
HETATM    1  C1  UNL     1     -42.626   5.658  -2.621  1.00 20.00     0.053 C 
HETATM    2  C2  UNL     1     -42.786   7.029  -0.594  1.00 20.00     0.112 C 
HETATM    3  C3  UNL     1     -42.285   4.567  -1.603  1.00 20.00     0.046 C 
HETATM    4  C4  UNL     1     -42.259   7.022  -2.027  1.00 20.00     0.067 C 
HETATM    5  C5  UNL     1     -40.857   4.046  -1.710  1.00 20.00     0.021 C 
HETATM    6  S10 UNL     1     -42.561   5.334   0.025  1.00 20.00    -0.162 SA
ENDROOT
BRANCH   4   7
HETATM    7  C7  UNL     1     -42.849   8.171  -2.843  1.00 20.00     0.038 C 
BRANCH   7   8
HETATM    8  C8  UNL     1     -42.802   7.868  -4.336  1.00 20.00    -0.002 C 
HETATM    9  C6  UNL     1     -41.990   8.913  -5.085  1.00 20.00     0.005 C 
ENDBRANCH   7   8
ENDBRANCH   4   7
BRANCH   4  10
HETATM   10  O9  UNL     1     -40.843   7.195  -2.000  1.00 20.00    -0.389 OA
HETATM   11  H26 UNL     1     -40.680   8.072  -1.620  1.00 20.00     0.210 HD
ENDBRANCH   4  10
TORSDOF 3
ENDMDL
MODEL 8
REMARK VINA RESULT:      -3.6      2.658      4.662
REMARK  3 active torsions:
REMARK  status: ('A' for Active; 'I' for Inactive)
REMARK    1  A    between atoms: C4_4  and  C7_7 
REMARK    2  A    between atoms: C4_4  and  O9_9 
REMARK    3  A    between atoms: C7_7  and  C8_8 
ROOT
HETATM    1  C1  UNL     1     -34.550  16.233  -1.501  1.00 20.00     0.053 C 
HETATM    2  C2  UNL     1     -36.191  17.583  -2.725  1.00 20.00     0.112 C 
HETATM    3  C3  UNL     1     -34.820  17.273  -0.412  1.00 20.00     0.046 C 
HETATM    4  C4  UNL     1     -34.855  16.856  -2.867  1.00 20.00     0.067 C 
HETATM    5  C5  UNL     1     -33.623  18.160  -0.091  1.00 20.00     0.021 C 
HETATM    6  S10 UNL     1     -36.202  18.276  -1.044  1.00 20.00    -0.162 SA
ENDROOT
BRANCH   4   7
HETATM    7  C7  UNL     1     -34.910  15.802  -3.970  1.00 20.00     0.038 C 
BRANCH   7   8
HETATM    8  C8  UNL     1     -34.515  14.428  -3.440  1.00 20.00    -0.002 C 
HETATM    9  C6  UNL     1     -35.040  13.319  -4.338  1.00 20.00     0.005 C 
ENDBRANCH   7   8
ENDBRANCH   4   7
BRANCH   4  10
HETATM   10  O9  UNL     1     -33.849  17.803  -3.225  1.00 20.00    -0.389 OA
HETATM   11  H26 UNL     1     -34.157  18.238  -4.035  1.00 20.00     0.210 HD
ENDBRANCH   4  10
TORSDOF 3
ENDMDL
MODEL 9
REMARK VINA RESULT:      -3.5      1.891      4.075
REMARK  3 active torsions:
REMARK  status: ('A' for Active; 'I' for Inactive)
REMARK    1  A    between atoms: C4_4  and  C7_7 
REMARK    2  A    between atoms: C4_4  and  O9_9 
REMARK    3  A    between atoms: C7_7  and  C8_8 
ROOT
HETATM    1  C1  UNL     1     -33.267  16.141  -4.846  1.00 20.00     0.053 C 
HETATM    2  C2  UNL     1     -34.545  14.144  -5.470  1.00 20.00     0.112 C 
HETATM    3  C3  UNL     1     -33.265  15.456  -3.478  1.00 20.00     0.046 C 
HETATM    4  C4  UNL     1     -34.486  15.661  -5.639  1.00 20.00     0.067 C 
HETATM    5  C5  UNL     1     -34.051  16.205  -2.408  1.00 20.00     0.021 C 
HETATM    6  S10 UNL     1     -33.995  13.813  -3.768  1.00 20.00    -0.162 SA
ENDROOT
BRANCH   4   7
HETATM    7  C7  UNL     1     -34.393  16.054  -7.112  1.00 20.00     0.038 C 
BRANCH   7   8
HETATM    8  C8  UNL     1     -35.174  17.332  -7.392  1.00 20.00    -0.002 C 
HETATM    9  C6  UNL     1     -34.241  18.488  -7.716  1.00 20.00     0.005 C 
ENDBRANCH   7   8
ENDBRANCH   4   7
BRANCH   4  10
HETATM   10  O9  UNL     1     -35.684  16.231  -5.116  1.00 20.00    -0.389 OA
HETATM   11  H26 UNL     1     -35.847  15.798  -4.264  1.00 20.00     0.210 HD
ENDBRANCH   4  10
TORSDOF 3
ENDMDL
