MODEL 1
REMARK VINA RESULT:      -5.1      0.000      0.000
REMARK  3 active torsions:
REMARK  status: ('A' for Active; 'I' for Inactive)
REMARK    1  A    between atoms: C6_6  and  C9_9 
REMARK    2  A    between atoms: C6_6  and  O10_10 
REMARK    3  A    between atoms: C8_8  and  C9_9 
ROOT
HETATM    1  C1  UNL     1     -34.509  17.691   0.506  1.00 20.00     0.012 C 
HETATM    2  C2  UNL     1     -34.606  16.999  -0.470  1.00 20.00    -0.117 C 
HETATM    3  C8  UNL     1     -34.730  16.151  -1.662  1.00 20.00     0.096 C 
ENDROOT
BRANCH   3   4
HETATM    4  C9  UNL     1     -33.590  16.431  -2.624  1.00 20.00     0.050 C 
BRANCH   4   5
HETATM    5  C6  UNL     1     -33.713  15.564  -3.876  1.00 20.00     0.068 C 
HETATM    6  C3  UNL     1     -34.898  15.993  -4.746  1.00 20.00     0.053 C 
HETATM    7  C5  UNL     1     -35.157  14.910  -5.796  1.00 20.00     0.046 C 
HETATM    8  C7  UNL     1     -34.359  15.091  -7.082  1.00 20.00     0.021 C 
HETATM    9  S11 UNL     1     -34.708  13.343  -4.985  1.00 20.00    -0.162 SA
HETATM   10  C4  UNL     1     -33.943  14.099  -3.517  1.00 20.00     0.112 C 
BRANCH   5  11
HETATM   11  O10 UNL     1     -32.489  15.678  -4.600  1.00 20.00    -0.389 OA
HETATM   12  H25 UNL     1     -32.582  15.115  -5.385  1.00 20.00     0.210 HD
ENDBRANCH   5  11
ENDBRANCH   4   5
ENDBRANCH   3   4
TORSDOF 3
ENDMDL
MODEL 2
REMARK VINA RESULT:      -4.6      1.237      1.284
REMARK  3 active torsions:
REMARK  status: ('A' for Active; 'I' for Inactive)
REMARK    1  A    between atoms: C6_6  and  C9_9 
REMARK    2  A    between atoms: C6_6  and  O10_10 
REMARK    3  A    between atoms: C8_8  and  C9_9 
ROOT
HETATM    1  C1  UNL     1     -34.400  17.361  -0.117  1.00 20.00     0.012 C 
HETATM    2  C2  UNL     1     -34.613  16.697  -1.094  1.00 20.00    -0.117 C 
HETATM    3  C8  UNL     1     -34.878  15.885  -2.288  1.00 20.00     0.096 C 
ENDROOT
BRANCH   3   4
HETATM    4  C9  UNL     1     -33.592  15.651  -3.060  1.00 20.00     0.050 C 
BRANCH   4   5
HETATM    5  C6  UNL     1     -33.852  15.669  -4.565  1.00 20.00     0.068 C 
HETATM    6  C3  UNL     1     -34.950  16.671  -4.937  1.00 20.00     0.053 C 
HETATM    7  C5  UNL     1     -35.380  16.418  -6.383  1.00 20.00     0.046 C 
HETATM    8  C7  UNL     1     -34.561  17.182  -7.416  1.00 20.00     0.021 C 
HETATM    9  S11 UNL     1     -35.196  14.623  -6.628  1.00 20.00    -0.162 SA
HETATM   10  C4  UNL     1     -34.321  14.305  -5.064  1.00 20.00     0.112 C 
BRANCH   5  11
HETATM   11  O10 UNL     1     -32.626  16.004  -5.211  1.00 20.00    -0.389 OA
HETATM   12  H25 UNL     1     -32.056  16.398  -4.531  1.00 20.00     0.210 HD
ENDBRANCH   5  11
ENDBRANCH   4   5
ENDBRANCH   3   4
TORSDOF 3
ENDMDL
MODEL 3
REMARK VINA RESULT:      -4.6      1.826      2.201
REMARK  3 active torsions:
REMARK  status: ('A' for Active; 'I' for Inactive)
REMARK    1  A    between atoms: C6_6  and  C9_9 
REMARK    2  A    between atoms: C6_6  and  O10_10 
REMARK    3  A    between atoms: C8_8  and  C9_9 
ROOT
HETATM    1  C1  UNL     1     -34.705  16.831  -0.714  1.00 20.00     0.012 C 
HETATM    2  C2  UNL     1     -34.267  16.363  -1.729  1.00 20.00    -0.117 C 
HETATM    3  C8  UNL     1     -33.729  15.795  -2.972  1.00 20.00     0.096 C 
ENDROOT
BRANCH   3   4
HETATM    4  C9  UNL     1     -34.291  14.404  -3.197  1.00 20.00     0.050 C 
BRANCH   4   5
HETATM    5  C6  UNL     1     -35.121  14.356  -4.479  1.00 20.00     0.068 C 
HETATM    6  C3  UNL     1     -34.580  15.321  -5.539  1.00 20.00     0.053 C 
HETATM    7  C5  UNL     1     -35.617  15.461  -6.655  1.00 20.00     0.046 C 
HETATM    8  C7  UNL     1     -35.479  14.425  -7.763  1.00 20.00     0.021 C 
HETATM    9  S11 UNL     1     -37.231  15.295  -5.828  1.00 20.00    -0.162 SA
HETATM   10  C4  UNL     1     -36.569  14.763  -4.219  1.00 20.00     0.112 C 
BRANCH   5  11
HETATM   11  O10 UNL     1     -35.095  13.014  -4.960  1.00 20.00    -0.389 OA
HETATM   12  H25 UNL     1     -34.228  12.887  -5.376  1.00 20.00     0.210 HD
ENDBRANCH   5  11
ENDBRANCH   4   5
ENDBRANCH   3   4
TORSDOF 3
ENDMDL
MODEL 4
REMARK VINA RESULT:      -4.4      2.060      2.569
REMARK  3 active torsions:
REMARK  status: ('A' for Active; 'I' for Inactive)
REMARK    1  A    between atoms: C6_6  and  C9_9 
REMARK    2  A    between atoms: C6_6  and  O10_10 
REMARK    3  A    between atoms: C8_8  and  C9_9 
ROOT
HETATM    1  C1  UNL     1     -32.888  18.642  -0.134  1.00 20.00     0.012 C 
HETATM    2  C2  UNL     1     -33.656  17.761  -0.409  1.00 20.00    -0.117 C 
HETATM    3  C8  UNL     1     -34.593  16.681  -0.741  1.00 20.00     0.096 C 
ENDROOT
BRANCH   3   4
HETATM    4  C9  UNL     1     -35.556  17.137  -1.821  1.00 20.00     0.050 C 
BRANCH   4   5
HETATM    5  C6  UNL     1     -35.556  16.159  -2.995  1.00 20.00     0.068 C 
HETATM    6  C3  UNL     1     -34.320  15.254  -2.977  1.00 20.00     0.053 C 
HETATM    7  C5  UNL     1     -34.217  14.532  -4.322  1.00 20.00     0.046 C 
HETATM    8  C7  UNL     1     -34.979  13.214  -4.378  1.00 20.00     0.021 C 
HETATM    9  S11 UNL     1     -34.886  15.705  -5.544  1.00 20.00    -0.162 SA
HETATM   10  C4  UNL     1     -35.537  16.895  -4.332  1.00 20.00     0.112 C 
BRANCH   5  11
HETATM   11  O10 UNL     1     -36.750  15.383  -2.910  1.00 20.00    -0.389 OA
HETATM   12  H25 UNL     1     -37.470  15.950  -3.226  1.00 20.00     0.210 HD
ENDBRANCH   5  11
ENDBRANCH   4   5
ENDBRANCH   3   4
TORSDOF 3
ENDMDL
MODEL 5
REMARK VINA RESULT:      -4.4      1.913      2.323
REMARK  3 active torsions:
REMARK  status: ('A' for Active; 'I' for Inactive)
REMARK    1  A    between atoms: C6_6  and  C9_9 
REMARK    2  A    between atoms: C6_6  and  O10_10 
REMARK    3  A    between atoms: C8_8  and  C9_9 
ROOT
HETATM    1  C1  UNL     1     -34.800  17.059  -0.171  1.00 20.00     0.012 C 
HETATM    2  C2  UNL     1     -34.421  16.632  -1.227  1.00 20.00    -0.117 C 
HETATM    3  C8  UNL     1     -33.953  16.112  -2.518  1.00 20.00     0.096 C 
ENDROOT
BRANCH   3   4
HETATM    4  C9  UNL     1     -34.971  15.145  -3.093  1.00 20.00     0.050 C 
BRANCH   4   5
HETATM    5  C6  UNL     1     -35.199  15.419  -4.578  1.00 20.00     0.068 C 
HETATM    6  C3  UNL     1     -34.332  14.514  -5.460  1.00 20.00     0.053 C 
HETATM    7  C5  UNL     1     -34.365  15.043  -6.895  1.00 20.00     0.046 C 
HETATM    8  C7  UNL     1     -35.509  14.487  -7.734  1.00 20.00     0.021 C 
HETATM    9  S11 UNL     1     -34.517  16.851  -6.732  1.00 20.00    -0.162 SA
HETATM   10  C4  UNL     1     -34.836  16.856  -4.941  1.00 20.00     0.112 C 
BRANCH   5  11
HETATM   11  O10 UNL     1     -36.583  15.207  -4.849  1.00 20.00    -0.389 OA
HETATM   12  H25 UNL     1     -37.012  15.066  -3.990  1.00 20.00     0.210 HD
ENDBRANCH   5  11
ENDBRANCH   4   5
ENDBRANCH   3   4
TORSDOF 3
ENDMDL
MODEL 6
REMARK VINA RESULT:      -4.1     13.617     15.042
REMARK  3 active torsions:
REMARK  status: ('A' for Active; 'I' for Inactive)
REMARK    1  A    between atoms: C6_6  and  C9_9 
REMARK    2  A    between atoms: C6_6  and  O10_10 
REMARK    3  A    between atoms: C8_8  and  C9_9 
ROOT
HETATM    1  C1  UNL     1     -41.543  -0.086  -4.164  1.00 20.00     0.012 C 
HETATM    2  C2  UNL     1     -41.523   1.064  -3.819  1.00 20.00    -0.117 C 
HETATM    3  C8  UNL     1     -41.495   2.470  -3.399  1.00 20.00     0.096 C 
ENDROOT
BRANCH   3   4
HETATM    4  C9  UNL     1     -42.783   2.829  -2.681  1.00 20.00     0.050 C 
BRANCH   4   5
HETATM    5  C6  UNL     1     -42.608   4.104  -1.860  1.00 20.00     0.068 C 
HETATM    6  C3  UNL     1     -41.131   4.390  -1.566  1.00 20.00     0.053 C 
HETATM    7  C5  UNL     1     -41.042   5.478  -0.493  1.00 20.00     0.046 C 
HETATM    8  C7  UNL     1     -41.037   6.896  -1.049  1.00 20.00     0.021 C 
HETATM    9  S11 UNL     1     -42.497   5.218   0.570  1.00 20.00    -0.162 SA
HETATM   10  C4  UNL     1     -43.307   3.995  -0.507  1.00 20.00     0.112 C 
BRANCH   5  11
HETATM   11  O10 UNL     1     -43.190   5.177  -2.598  1.00 20.00    -0.389 OA
HETATM   12  H25 UNL     1     -42.539   5.895  -2.599  1.00 20.00     0.210 HD
ENDBRANCH   5  11
ENDBRANCH   4   5
ENDBRANCH   3   4
TORSDOF 3
ENDMDL
MODEL 7
REMARK VINA RESULT:      -4.0      1.293      1.409
REMARK  3 active torsions:
REMARK  status: ('A' for Active; 'I' for Inactive)
REMARK    1  A    between atoms: C6_6  and  C9_9 
REMARK    2  A    between atoms: C6_6  and  O10_10 
REMARK    3  A    between atoms: C8_8  and  C9_9 
ROOT
HETATM    1  C1  UNL     1     -34.167  18.363   1.236  1.00 20.00     0.012 C 
HETATM    2  C2  UNL     1     -34.425  17.651   0.305  1.00 20.00    -0.117 C 
HETATM    3  C8  UNL     1     -34.744  16.778  -0.832  1.00 20.00     0.096 C 
ENDROOT
BRANCH   3   4
HETATM    4  C9  UNL     1     -33.697  16.930  -1.920  1.00 20.00     0.050 C 
BRANCH   4   5
HETATM    5  C6  UNL     1     -34.135  16.216  -3.197  1.00 20.00     0.068 C 
HETATM    6  C3  UNL     1     -34.428  17.208  -4.327  1.00 20.00     0.053 C 
HETATM    7  C5  UNL     1     -35.154  16.471  -5.455  1.00 20.00     0.046 C 
HETATM    8  C7  UNL     1     -34.222  15.833  -6.478  1.00 20.00     0.021 C 
HETATM    9  S11 UNL     1     -36.154  15.196  -4.624  1.00 20.00    -0.162 SA
HETATM   10  C4  UNL     1     -35.417  15.417  -2.976  1.00 20.00     0.112 C 
BRANCH   5  11
HETATM   11  O10 UNL     1     -33.089  15.321  -3.571  1.00 20.00    -0.389 OA
HETATM   12  H25 UNL     1     -33.300  15.012  -4.465  1.00 20.00     0.210 HD
ENDBRANCH   5  11
ENDBRANCH   4   5
ENDBRANCH   3   4
TORSDOF 3
ENDMDL
MODEL 8
REMARK VINA RESULT:      -4.0      2.701      5.067
REMARK  3 active torsions:
REMARK  status: ('A' for Active; 'I' for Inactive)
REMARK    1  A    between atoms: C6_6  and  C9_9 
REMARK    2  A    between atoms: C6_6  and  O10_10 
REMARK    3  A    between atoms: C8_8  and  C9_9 
ROOT
HETATM    1  C1  UNL     1     -34.451  13.273  -4.539  1.00 20.00     0.012 C 
HETATM    2  C2  UNL     1     -33.951  14.231  -4.017  1.00 20.00    -0.117 C 
HETATM    3  C8  UNL     1     -33.336  15.400  -3.377  1.00 20.00     0.096 C 
ENDROOT
BRANCH   3   4
HETATM    4  C9  UNL     1     -34.120  16.655  -3.715  1.00 20.00     0.050 C 
BRANCH   4   5
HETATM    5  C6  UNL     1     -34.419  17.463  -2.454  1.00 20.00     0.068 C 
HETATM    6  C3  UNL     1     -34.384  16.586  -1.198  1.00 20.00     0.053 C 
HETATM    7  C5  UNL     1     -34.992  17.367  -0.032  1.00 20.00     0.046 C 
HETATM    8  C7  UNL     1     -33.988  18.219   0.735  1.00 20.00     0.021 C 
HETATM    9  S11 UNL     1     -36.275  18.420  -0.782  1.00 20.00    -0.162 SA
HETATM   10  C4  UNL     1     -35.811  18.087  -2.509  1.00 20.00     0.112 C 
BRANCH   5  11
HETATM   11  O10 UNL     1     -33.447  18.504  -2.367  1.00 20.00    -0.389 OA
HETATM   12  H25 UNL     1     -33.189  18.715  -3.278  1.00 20.00     0.210 HD
ENDBRANCH   5  11
ENDBRANCH   4   5
ENDBRANCH   3   4
TORSDOF 3
ENDMDL
MODEL 9
REMARK VINA RESULT:      -4.0      1.972      4.929
REMARK  3 active torsions:
REMARK  status: ('A' for Active; 'I' for Inactive)
REMARK    1  A    between atoms: C6_6  and  C9_9 
REMARK    2  A    between atoms: C6_6  and  O10_10 
REMARK    3  A    between atoms: C8_8  and  C9_9 
ROOT
HETATM    1  C1  UNL     1     -37.122  14.971  -7.911  1.00 20.00     0.012 C 
HETATM    2  C2  UNL     1     -35.976  14.924  -7.556  1.00 20.00    -0.117 C 
HETATM    3  C8  UNL     1     -34.574  14.870  -7.126  1.00 20.00     0.096 C 
ENDROOT
BRANCH   3   4
HETATM    4  C9  UNL     1     -34.472  14.239  -5.750  1.00 20.00     0.050 C 
BRANCH   4   5
HETATM    5  C6  UNL     1     -34.055  15.275  -4.708  1.00 20.00     0.068 C 
HETATM    6  C3  UNL     1     -35.214  15.633  -3.771  1.00 20.00     0.053 C 
HETATM    7  C5  UNL     1     -34.836  16.883  -2.973  1.00 20.00     0.046 C 
HETATM    8  C7  UNL     1     -34.094  16.587  -1.675  1.00 20.00     0.021 C 
HETATM    9  S11 UNL     1     -33.789  17.865  -4.093  1.00 20.00    -0.162 SA
HETATM   10  C4  UNL     1     -33.610  16.578  -5.367  1.00 20.00     0.112 C 
BRANCH   5  11
HETATM   11  O10 UNL     1     -32.962  14.731  -3.971  1.00 20.00    -0.389 OA
HETATM   12  H25 UNL     1     -33.057  15.054  -3.061  1.00 20.00     0.210 HD
ENDBRANCH   5  11
ENDBRANCH   4   5
ENDBRANCH   3   4
TORSDOF 3
ENDMDL
