MODEL 1
REMARK VINA RESULT:      -4.6      0.000      0.000
REMARK  0 active torsions:
REMARK  status: ('A' for Active; 'I' for Inactive)
ROOT
HETATM    1  C1  UNL     1     -34.660  13.813  -4.079  1.00 20.00     0.086 C 
HETATM    2  C2  UNL     1     -34.136  16.896  -1.834  1.00 20.00     0.013 C 
HETATM    3  C3  UNL     1     -34.600  15.527  -2.333  1.00 20.00     0.043 C 
HETATM    4  C4  UNL     1     -34.559  18.034  -2.750  1.00 20.00     0.074 C 
HETATM    5  C5  UNL     1     -34.447  16.180  -4.812  1.00 20.00     0.081 C 
HETATM    6  C6  UNL     1     -34.081  15.129  -3.731  1.00 20.00     0.137 C 
HETATM    7  C7  UNL     1     -33.952  15.850  -6.226  1.00 20.00     0.024 C 
HETATM    8  N8  UNL     1     -35.116  12.782  -4.353  1.00 20.00    -0.195 NA
HETATM    9  S9  UNL     1     -33.839  17.863  -4.403  1.00 20.00    -0.162 SA
HETATM   10 CL10 UNL     1     -32.299  14.852  -3.647  1.00 20.00    -0.102 Cl
ENDROOT
TORSDOF 0
ENDMDL
MODEL 2
REMARK VINA RESULT:      -4.5      2.014      2.016
REMARK  0 active torsions:
REMARK  status: ('A' for Active; 'I' for Inactive)
ROOT
HETATM    1  C1  UNL     1     -37.084  14.605  -3.851  1.00 20.00     0.086 C 
HETATM    2  C2  UNL     1     -33.926  16.366  -2.531  1.00 20.00     0.013 C 
HETATM    3  C3  UNL     1     -35.352  15.824  -2.624  1.00 20.00     0.043 C 
HETATM    4  C4  UNL     1     -33.567  17.287  -3.685  1.00 20.00     0.074 C 
HETATM    5  C5  UNL     1     -35.370  15.811  -5.192  1.00 20.00     0.081 C 
HETATM    6  C6  UNL     1     -35.661  15.007  -3.896  1.00 20.00     0.137 C 
HETATM    7  C7  UNL     1     -35.648  15.053  -6.497  1.00 20.00     0.024 C 
HETATM    8  N8  UNL     1     -38.200  14.292  -3.817  1.00 20.00    -0.195 NA
HETATM    9  S9  UNL     1     -33.643  16.424  -5.276  1.00 20.00    -0.162 SA
HETATM   10 CL10 UNL     1     -34.733  13.460  -3.850  1.00 20.00    -0.102 Cl
ENDROOT
TORSDOF 0
ENDMDL
MODEL 3
REMARK VINA RESULT:      -4.4      2.432      2.896
REMARK  0 active torsions:
REMARK  status: ('A' for Active; 'I' for Inactive)
ROOT
HETATM    1  C1  UNL     1     -37.093  14.525  -4.086  1.00 20.00     0.086 C 
HETATM    2  C2  UNL     1     -33.320  13.777  -3.954  1.00 20.00     0.013 C 
HETATM    3  C3  UNL     1     -34.825  13.688  -3.703  1.00 20.00     0.043 C 
HETATM    4  C4  UNL     1     -32.738  15.133  -3.588  1.00 20.00     0.074 C 
HETATM    5  C5  UNL     1     -35.235  16.174  -4.204  1.00 20.00     0.081 C 
HETATM    6  C6  UNL     1     -35.680  14.712  -4.480  1.00 20.00     0.137 C 
HETATM    7  C7  UNL     1     -36.040  17.244  -4.953  1.00 20.00     0.024 C 
HETATM    8  N8  UNL     1     -38.201  14.378  -3.775  1.00 20.00    -0.195 NA
HETATM    9  S9  UNL     1     -33.463  16.461  -4.583  1.00 20.00    -0.162 SA
HETATM   10 CL10 UNL     1     -35.625  14.320  -6.240  1.00 20.00    -0.102 Cl
ENDROOT
TORSDOF 0
ENDMDL
MODEL 4
REMARK VINA RESULT:      -4.2      2.896      3.795
REMARK  0 active torsions:
REMARK  status: ('A' for Active; 'I' for Inactive)
ROOT
HETATM    1  C1  UNL     1     -33.893  17.670  -3.645  1.00 20.00     0.086 C 
HETATM    2  C2  UNL     1     -33.411  13.853  -3.753  1.00 20.00     0.013 C 
HETATM    3  C3  UNL     1     -33.132  15.353  -3.848  1.00 20.00     0.043 C 
HETATM    4  C4  UNL     1     -34.567  13.409  -4.634  1.00 20.00     0.074 C 
HETATM    5  C5  UNL     1     -35.590  15.964  -4.275  1.00 20.00     0.081 C 
HETATM    6  C6  UNL     1     -34.311  16.265  -3.448  1.00 20.00     0.137 C 
HETATM    7  C7  UNL     1     -36.805  16.831  -3.921  1.00 20.00     0.024 C 
HETATM    8  N8  UNL     1     -33.566  18.772  -3.802  1.00 20.00    -0.195 NA
HETATM    9  S9  UNL     1     -36.119  14.211  -4.153  1.00 20.00    -0.162 SA
HETATM   10 CL10 UNL     1     -34.611  16.107  -1.675  1.00 20.00    -0.102 Cl
ENDROOT
TORSDOF 0
ENDMDL
MODEL 5
REMARK VINA RESULT:      -4.2      1.787      3.001
REMARK  0 active torsions:
REMARK  status: ('A' for Active; 'I' for Inactive)
ROOT
HETATM    1  C1  UNL     1     -34.875  13.867  -4.720  1.00 20.00     0.086 C 
HETATM    2  C2  UNL     1     -34.360  17.174  -6.622  1.00 20.00     0.013 C 
HETATM    3  C3  UNL     1     -34.391  15.682  -6.289  1.00 20.00     0.043 C 
HETATM    4  C4  UNL     1     -33.528  17.982  -5.639  1.00 20.00     0.074 C 
HETATM    5  C5  UNL     1     -34.210  16.061  -3.756  1.00 20.00     0.081 C 
HETATM    6  C6  UNL     1     -34.965  15.333  -4.900  1.00 20.00     0.137 C 
HETATM    7  C7  UNL     1     -34.736  15.764  -2.345  1.00 20.00     0.024 C 
HETATM    8  N8  UNL     1     -34.803  12.718  -4.579  1.00 20.00    -0.195 NA
HETATM    9  S9  UNL     1     -34.199  17.885  -3.959  1.00 20.00    -0.162 SA
HETATM   10 CL10 UNL     1     -36.731  15.703  -4.874  1.00 20.00    -0.102 Cl
ENDROOT
TORSDOF 0
ENDMDL
MODEL 6
REMARK VINA RESULT:      -4.1      2.089      2.555
REMARK  0 active torsions:
REMARK  status: ('A' for Active; 'I' for Inactive)
ROOT
HETATM    1  C1  UNL     1     -33.869  13.898  -3.783  1.00 20.00     0.086 C 
HETATM    2  C2  UNL     1     -37.465  15.261  -3.952  1.00 20.00     0.013 C 
HETATM    3  C3  UNL     1     -36.282  14.295  -3.876  1.00 20.00     0.043 C 
HETATM    4  C4  UNL     1     -37.403  16.178  -5.162  1.00 20.00     0.074 C 
HETATM    5  C5  UNL     1     -34.644  15.933  -4.985  1.00 20.00     0.081 C 
HETATM    6  C6  UNL     1     -34.894  14.965  -3.798  1.00 20.00     0.137 C 
HETATM    7  C7  UNL     1     -33.283  16.640  -4.965  1.00 20.00     0.024 C 
HETATM    8  N8  UNL     1     -33.065  13.062  -3.773  1.00 20.00    -0.195 NA
HETATM    9  S9  UNL     1     -35.931  17.233  -5.125  1.00 20.00    -0.162 SA
HETATM   10 CL10 UNL     1     -34.725  15.803  -2.208  1.00 20.00    -0.102 Cl
ENDROOT
TORSDOF 0
ENDMDL
MODEL 7
REMARK VINA RESULT:      -4.1      1.231      1.247
REMARK  0 active torsions:
REMARK  status: ('A' for Active; 'I' for Inactive)
ROOT
HETATM    1  C1  UNL     1     -34.858  13.962  -4.086  1.00 20.00     0.086 C 
HETATM    2  C2  UNL     1     -34.632  16.980  -1.709  1.00 20.00     0.013 C 
HETATM    3  C3  UNL     1     -34.713  15.543  -2.224  1.00 20.00     0.043 C 
HETATM    4  C4  UNL     1     -35.793  17.843  -2.176  1.00 20.00     0.074 C 
HETATM    5  C5  UNL     1     -35.877  16.206  -4.416  1.00 20.00     0.081 C 
HETATM    6  C6  UNL     1     -34.725  15.398  -3.761  1.00 20.00     0.137 C 
HETATM    7  C7  UNL     1     -35.942  16.113  -5.945  1.00 20.00     0.024 C 
HETATM    8  N8  UNL     1     -34.965  12.835  -4.341  1.00 20.00    -0.195 NA
HETATM    9  S9  UNL     1     -35.832  17.989  -3.981  1.00 20.00    -0.162 SA
HETATM   10 CL10 UNL     1     -33.115  15.882  -4.417  1.00 20.00    -0.102 Cl
ENDROOT
TORSDOF 0
ENDMDL
MODEL 8
REMARK VINA RESULT:      -4.0      2.279      2.604
REMARK  0 active torsions:
REMARK  status: ('A' for Active; 'I' for Inactive)
ROOT
HETATM    1  C1  UNL     1     -34.806  13.798  -4.936  1.00 20.00     0.086 C 
HETATM    2  C2  UNL     1     -33.383  17.362  -5.229  1.00 20.00     0.013 C 
HETATM    3  C3  UNL     1     -33.570  15.906  -4.804  1.00 20.00     0.043 C 
HETATM    4  C4  UNL     1     -34.609  18.219  -4.959  1.00 20.00     0.074 C 
HETATM    5  C5  UNL     1     -36.090  15.897  -5.301  1.00 20.00     0.081 C 
HETATM    6  C6  UNL     1     -34.734  15.166  -5.495  1.00 20.00     0.137 C 
HETATM    7  C7  UNL     1     -37.290  15.218  -5.972  1.00 20.00     0.024 C 
HETATM    8  N8  UNL     1     -34.864  12.726  -4.496  1.00 20.00    -0.195 NA
HETATM    9  S9  UNL     1     -36.050  17.635  -5.889  1.00 20.00    -0.162 SA
HETATM   10 CL10 UNL     1     -34.342  14.940  -7.242  1.00 20.00    -0.102 Cl
ENDROOT
TORSDOF 0
ENDMDL
MODEL 9
REMARK VINA RESULT:      -3.9      2.392      3.281
REMARK  0 active torsions:
REMARK  status: ('A' for Active; 'I' for Inactive)
ROOT
HETATM    1  C1  UNL     1     -34.670  16.142  -1.978  1.00 20.00     0.086 C 
HETATM    2  C2  UNL     1     -33.348  16.477  -5.577  1.00 20.00     0.013 C 
HETATM    3  C3  UNL     1     -33.520  16.675  -4.071  1.00 20.00     0.043 C 
HETATM    4  C4  UNL     1     -34.620  16.762  -6.359  1.00 20.00     0.074 C 
HETATM    5  C5  UNL     1     -35.990  15.972  -4.079  1.00 20.00     0.081 C 
HETATM    6  C6  UNL     1     -34.600  15.791  -3.413  1.00 20.00     0.137 C 
HETATM    7  C7  UNL     1     -37.110  15.113  -3.477  1.00 20.00     0.024 C 
HETATM    8  N8  UNL     1     -34.727  16.419  -0.853  1.00 20.00    -0.195 NA
HETATM    9  S9  UNL     1     -35.961  15.641  -5.884  1.00 20.00    -0.162 SA
HETATM   10 CL10 UNL     1     -34.062  14.068  -3.449  1.00 20.00    -0.102 Cl
ENDROOT
TORSDOF 0
ENDMDL
