MODEL 1
REMARK VINA RESULT:      -3.9      0.000      0.000
REMARK  1 active torsions:
REMARK  status: ('A' for Active; 'I' for Inactive)
REMARK    1  A    between atoms: C4_4  and  S9_9 
ROOT
HETATM    1  C1  UNL     1     -34.968  14.014  -3.814  1.00 20.00     0.020 C 
HETATM    2  C2  UNL     1     -34.743  13.312  -5.148  1.00 20.00     0.075 C 
HETATM    3  C3  UNL     1     -34.306  15.831  -6.174  1.00 20.00     0.089 C 
HETATM    4  C4  UNL     1     -34.558  16.350  -4.753  1.00 20.00     0.061 C 
HETATM    5  C5  UNL     1     -34.183  15.341  -3.617  1.00 20.00    -0.034 C 
HETATM    6  C6  UNL     1     -32.669  15.036  -3.560  1.00 20.00     0.016 C 
HETATM    7  C7  UNL     1     -34.599  15.905  -2.236  1.00 20.00     0.016 C 
HETATM    8  S8  UNL     1     -35.274  14.339  -6.541  1.00 20.00    -0.168 SA
ENDROOT
BRANCH   4   9
HETATM    9  S9  UNL     1     -33.703  17.974  -4.610  1.00 20.00    -0.176 SA
HETATM   10  H23 UNL     1     -34.358  18.535  -5.632  1.00 20.00     0.102 HD
ENDBRANCH   4   9
TORSDOF 1
ENDMDL
MODEL 2
REMARK VINA RESULT:      -3.5      1.053      3.144
REMARK  1 active torsions:
REMARK  status: ('A' for Active; 'I' for Inactive)
REMARK    1  A    between atoms: C4_4  and  S9_9 
ROOT
HETATM    1  C1  UNL     1     -33.610  15.943  -2.994  1.00 20.00     0.020 C 
HETATM    2  C2  UNL     1     -33.979  17.421  -3.038  1.00 20.00     0.075 C 
HETATM    3  C3  UNL     1     -34.703  16.960  -5.655  1.00 20.00     0.089 C 
HETATM    4  C4  UNL     1     -34.284  15.504  -5.415  1.00 20.00     0.061 C 
HETATM    5  C5  UNL     1     -34.436  15.021  -3.934  1.00 20.00    -0.034 C 
HETATM    6  C6  UNL     1     -35.906  14.991  -3.460  1.00 20.00     0.016 C 
HETATM    7  C7  UNL     1     -33.863  13.591  -3.773  1.00 20.00     0.016 C 
HETATM    8  S8  UNL     1     -33.711  18.129  -4.681  1.00 20.00    -0.168 SA
ENDROOT
BRANCH   4   9
HETATM    9  S9  UNL     1     -35.203  14.470  -6.629  1.00 20.00    -0.176 SA
HETATM   10  H23 UNL     1     -34.175  13.654  -6.881  1.00 20.00     0.102 HD
ENDBRANCH   4   9
TORSDOF 1
ENDMDL
MODEL 3
REMARK VINA RESULT:      -3.5      1.681      3.031
REMARK  1 active torsions:
REMARK  status: ('A' for Active; 'I' for Inactive)
REMARK    1  A    between atoms: C4_4  and  S9_9 
ROOT
HETATM    1  C1  UNL     1     -33.300  15.903  -4.517  1.00 20.00     0.020 C 
HETATM    2  C2  UNL     1     -33.413  17.392  -4.823  1.00 20.00     0.075 C 
HETATM    3  C3  UNL     1     -36.126  16.947  -5.004  1.00 20.00     0.089 C 
HETATM    4  C4  UNL     1     -35.811  15.482  -4.675  1.00 20.00     0.061 C 
HETATM    5  C5  UNL     1     -34.529  15.274  -3.802  1.00 20.00    -0.034 C 
HETATM    6  C6  UNL     1     -34.662  15.877  -2.385  1.00 20.00     0.016 C 
HETATM    7  C7  UNL     1     -34.227  13.764  -3.641  1.00 20.00     0.016 C 
HETATM    8  S8  UNL     1     -34.790  17.741  -5.945  1.00 20.00    -0.168 SA
ENDROOT
BRANCH   4   9
HETATM    9  S9  UNL     1     -37.334  14.755  -3.938  1.00 20.00    -0.176 SA
HETATM   10  H23 UNL     1     -38.158  15.270  -4.855  1.00 20.00     0.102 HD
ENDBRANCH   4   9
TORSDOF 1
ENDMDL
MODEL 4
REMARK VINA RESULT:      -3.5      1.194      3.102
REMARK  1 active torsions:
REMARK  status: ('A' for Active; 'I' for Inactive)
REMARK    1  A    between atoms: C4_4  and  S9_9 
ROOT
HETATM    1  C1  UNL     1     -34.461  15.634  -2.555  1.00 20.00     0.020 C 
HETATM    2  C2  UNL     1     -35.368  16.847  -2.378  1.00 20.00     0.075 C 
HETATM    3  C3  UNL     1     -35.249  17.090  -5.120  1.00 20.00     0.089 C 
HETATM    4  C4  UNL     1     -34.350  15.846  -5.095  1.00 20.00     0.061 C 
HETATM    5  C5  UNL     1     -34.622  14.872  -3.901  1.00 20.00    -0.034 C 
HETATM    6  C6  UNL     1     -36.025  14.226  -3.959  1.00 20.00     0.016 C 
HETATM    7  C7  UNL     1     -33.580  13.726  -3.892  1.00 20.00     0.016 C 
HETATM    8  S8  UNL     1     -35.045  18.111  -3.632  1.00 20.00    -0.168 SA
ENDROOT
BRANCH   4   9
HETATM    9  S9  UNL     1     -34.489  15.047  -6.748  1.00 20.00    -0.176 SA
HETATM   10  H23 UNL     1     -35.014  16.119  -7.347  1.00 20.00     0.102 HD
ENDBRANCH   4   9
TORSDOF 1
ENDMDL
MODEL 5
REMARK VINA RESULT:      -3.5      1.879      3.127
REMARK  1 active torsions:
REMARK  status: ('A' for Active; 'I' for Inactive)
REMARK    1  A    between atoms: C4_4  and  S9_9 
ROOT
HETATM    1  C1  UNL     1     -34.739  13.617  -5.305  1.00 20.00     0.020 C 
HETATM    2  C2  UNL     1     -34.386  13.868  -3.844  1.00 20.00     0.075 C 
HETATM    3  C3  UNL     1     -33.661  16.398  -4.658  1.00 20.00     0.089 C 
HETATM    4  C4  UNL     1     -34.076  15.959  -6.068  1.00 20.00     0.061 C 
HETATM    5  C5  UNL     1     -35.198  14.869  -6.105  1.00 20.00    -0.034 C 
HETATM    6  C6  UNL     1     -36.545  15.372  -5.539  1.00 20.00     0.016 C 
HETATM    7  C7  UNL     1     -35.448  14.402  -7.560  1.00 20.00     0.016 C 
HETATM    8  S8  UNL     1     -32.999  15.018  -3.679  1.00 20.00    -0.168 SA
ENDROOT
BRANCH   4   9
HETATM    9  S9  UNL     1     -34.499  17.486  -7.006  1.00 20.00    -0.176 SA
HETATM   10  H23 UNL     1     -34.803  18.203  -5.920  1.00 20.00     0.102 HD
ENDBRANCH   4   9
TORSDOF 1
ENDMDL
MODEL 6
REMARK VINA RESULT:      -3.5      1.826      2.356
REMARK  1 active torsions:
REMARK  status: ('A' for Active; 'I' for Inactive)
REMARK    1  A    between atoms: C4_4  and  S9_9 
ROOT
HETATM    1  C1  UNL     1     -34.707  14.198  -5.665  1.00 20.00     0.020 C 
HETATM    2  C2  UNL     1     -35.669  15.034  -6.502  1.00 20.00     0.075 C 
HETATM    3  C3  UNL     1     -36.323  16.290  -4.139  1.00 20.00     0.089 C 
HETATM    4  C4  UNL     1     -35.301  15.360  -3.473  1.00 20.00     0.061 C 
HETATM    5  C5  UNL     1     -34.130  14.906  -4.407  1.00 20.00    -0.034 C 
HETATM    6  C6  UNL     1     -33.225  16.078  -4.848  1.00 20.00     0.016 C 
HETATM    7  C7  UNL     1     -33.235  13.870  -3.684  1.00 20.00     0.016 C 
HETATM    8  S8  UNL     1     -37.140  15.506  -5.559  1.00 20.00    -0.168 SA
ENDROOT
BRANCH   4   9
HETATM    9  S9  UNL     1     -34.737  16.193  -1.932  1.00 20.00    -0.176 SA
HETATM   10  H23 UNL     1     -33.585  15.520  -1.856  1.00 20.00     0.102 HD
ENDBRANCH   4   9
TORSDOF 1
ENDMDL
MODEL 7
REMARK VINA RESULT:      -3.4      1.523      2.745
REMARK  1 active torsions:
REMARK  status: ('A' for Active; 'I' for Inactive)
REMARK    1  A    between atoms: C4_4  and  S9_9 
ROOT
HETATM    1  C1  UNL     1     -34.274  15.634  -6.238  1.00 20.00     0.020 C 
HETATM    2  C2  UNL     1     -35.074  14.338  -6.169  1.00 20.00     0.075 C 
HETATM    3  C3  UNL     1     -34.696  14.481  -3.444  1.00 20.00     0.089 C 
HETATM    4  C4  UNL     1     -33.924  15.778  -3.715  1.00 20.00     0.061 C 
HETATM    5  C5  UNL     1     -34.389  16.556  -4.992  1.00 20.00    -0.034 C 
HETATM    6  C6  UNL     1     -35.836  17.086  -4.879  1.00 20.00     0.016 C 
HETATM    7  C7  UNL     1     -33.464  17.771  -5.249  1.00 20.00     0.016 C 
HETATM    8  S8  UNL     1     -34.527  13.286  -4.802  1.00 20.00    -0.168 SA
ENDROOT
BRANCH   4   9
HETATM    9  S9  UNL     1     -33.994  16.781  -2.173  1.00 20.00    -0.176 SA
HETATM   10  H23 UNL     1     -34.858  17.676  -2.660  1.00 20.00     0.102 HD
ENDBRANCH   4   9
TORSDOF 1
ENDMDL
MODEL 8
REMARK VINA RESULT:      -3.4      1.890      3.561
REMARK  1 active torsions:
REMARK  status: ('A' for Active; 'I' for Inactive)
REMARK    1  A    between atoms: C4_4  and  S9_9 
ROOT
HETATM    1  C1  UNL     1     -33.777  15.345  -5.049  1.00 20.00     0.020 C 
HETATM    2  C2  UNL     1     -33.077  15.575  -3.715  1.00 20.00     0.075 C 
HETATM    3  C3  UNL     1     -35.605  15.889  -2.666  1.00 20.00     0.089 C 
HETATM    4  C4  UNL     1     -36.123  15.627  -4.087  1.00 20.00     0.061 C 
HETATM    5  C5  UNL     1     -35.196  14.716  -4.958  1.00 20.00    -0.034 C 
HETATM    6  C6  UNL     1     -35.083  13.275  -4.411  1.00 20.00     0.016 C 
HETATM    7  C7  UNL     1     -35.737  14.625  -6.406  1.00 20.00     0.016 C 
HETATM    8  S8  UNL     1     -33.996  16.730  -2.668  1.00 20.00    -0.168 SA
ENDROOT
BRANCH   4   9
HETATM    9  S9  UNL     1     -37.843  14.993  -3.926  1.00 20.00    -0.176 SA
HETATM   10  H23 UNL     1     -38.006  14.780  -5.236  1.00 20.00     0.102 HD
ENDBRANCH   4   9
TORSDOF 1
ENDMDL
MODEL 9
REMARK VINA RESULT:      -3.3      2.027      3.984
REMARK  1 active torsions:
REMARK  status: ('A' for Active; 'I' for Inactive)
REMARK    1  A    between atoms: C4_4  and  S9_9 
ROOT
HETATM    1  C1  UNL     1     -34.642  16.354  -1.277  1.00 20.00     0.020 C 
HETATM    2  C2  UNL     1     -34.852  17.757  -0.720  1.00 20.00     0.075 C 
HETATM    3  C3  UNL     1     -33.808  18.648  -3.109  1.00 20.00     0.089 C 
HETATM    4  C4  UNL     1     -33.681  17.168  -3.495  1.00 20.00     0.061 C 
HETATM    5  C5  UNL     1     -34.737  16.229  -2.823  1.00 20.00    -0.034 C 
HETATM    6  C6  UNL     1     -36.184  16.532  -3.274  1.00 20.00     0.016 C 
HETATM    7  C7  UNL     1     -34.440  14.749  -3.170  1.00 20.00     0.016 C 
HETATM    8  S8  UNL     1     -33.595  18.911  -1.324  1.00 20.00    -0.168 SA
ENDROOT
BRANCH   4   9
HETATM    9  S9  UNL     1     -33.683  17.088  -5.334  1.00 20.00    -0.176 SA
HETATM   10  H23 UNL     1     -33.096  15.889  -5.394  1.00 20.00     0.102 HD
ENDBRANCH   4   9
TORSDOF 1
ENDMDL
