MODEL 1
REMARK VINA RESULT:      -4.2      0.000      0.000
REMARK  1 active torsions:
REMARK  status: ('A' for Active; 'I' for Inactive)
REMARK    1  A    between atoms: C5_5  and  O9_9 
ROOT
HETATM    1  C1  UNL     1     -36.134  15.068  -4.790  1.00 20.00     0.022 C 
HETATM    2  C2  UNL     1     -36.712  16.416  -5.209  1.00 20.00     0.075 C 
HETATM    3  C3  UNL     1     -34.166  17.399  -4.824  1.00 20.00     0.112 C 
HETATM    4  C4  UNL     1     -34.628  14.864  -5.102  1.00 20.00    -0.015 C 
HETATM    5  C5  UNL     1     -33.740  15.972  -4.425  1.00 20.00     0.069 C 
HETATM    6  C6  UNL     1     -34.231  13.452  -4.607  1.00 20.00     0.018 C 
HETATM    7  C7  UNL     1     -34.422  14.850  -6.640  1.00 20.00     0.018 C 
HETATM    8  C8  UNL     1     -33.677  15.849  -2.889  1.00 20.00     0.047 C 
HETATM    9  S10 UNL     1     -35.882  17.808  -4.400  1.00 20.00    -0.166 SA
ENDROOT
BRANCH   5  10
HETATM   10  O9  UNL     1     -32.389  15.803  -4.889  1.00 20.00    -0.389 OA
HETATM   11  H26 UNL     1     -31.972  15.189  -4.269  1.00 20.00     0.210 HD
ENDBRANCH   5  10
TORSDOF 1
ENDMDL
MODEL 2
REMARK VINA RESULT:      -4.2      1.244      2.206
REMARK  1 active torsions:
REMARK  status: ('A' for Active; 'I' for Inactive)
REMARK    1  A    between atoms: C5_5  and  O9_9 
ROOT
HETATM    1  C1  UNL     1     -36.040  15.570  -3.758  1.00 20.00     0.022 C 
HETATM    2  C2  UNL     1     -36.692  15.031  -5.027  1.00 20.00     0.075 C 
HETATM    3  C3  UNL     1     -34.280  15.560  -6.251  1.00 20.00     0.112 C 
HETATM    4  C4  UNL     1     -34.500  15.390  -3.674  1.00 20.00    -0.015 C 
HETATM    5  C5  UNL     1     -33.770  16.072  -4.889  1.00 20.00     0.069 C 
HETATM    6  C6  UNL     1     -34.028  15.995  -2.329  1.00 20.00     0.018 C 
HETATM    7  C7  UNL     1     -34.165  13.877  -3.602  1.00 20.00     0.018 C 
HETATM    8  C8  UNL     1     -33.826  17.613  -4.848  1.00 20.00     0.047 C 
HETATM    9  S10 UNL     1     -36.054  15.822  -6.526  1.00 20.00    -0.166 SA
ENDROOT
BRANCH   5  10
HETATM   10  O9  UNL     1     -32.375  15.728  -4.818  1.00 20.00    -0.389 OA
HETATM   11  H26 UNL     1     -32.108  15.520  -5.724  1.00 20.00     0.210 HD
ENDBRANCH   5  10
TORSDOF 1
ENDMDL
MODEL 3
REMARK VINA RESULT:      -4.1      1.369      2.071
REMARK  1 active torsions:
REMARK  status: ('A' for Active; 'I' for Inactive)
REMARK    1  A    between atoms: C5_5  and  O9_9 
ROOT
HETATM    1  C1  UNL     1     -35.005  15.322  -2.978  1.00 20.00     0.022 C 
HETATM    2  C2  UNL     1     -36.498  15.473  -3.255  1.00 20.00     0.075 C 
HETATM    3  C3  UNL     1     -35.759  15.966  -5.864  1.00 20.00     0.112 C 
HETATM    4  C4  UNL     1     -34.154  14.827  -4.178  1.00 20.00    -0.015 C 
HETATM    5  C5  UNL     1     -34.294  15.781  -5.421  1.00 20.00     0.069 C 
HETATM    6  C6  UNL     1     -32.681  14.738  -3.706  1.00 20.00     0.018 C 
HETATM    7  C7  UNL     1     -34.573  13.378  -4.539  1.00 20.00     0.018 C 
HETATM    8  C8  UNL     1     -33.626  17.156  -5.214  1.00 20.00     0.047 C 
HETATM    9  S10 UNL     1     -36.841  16.657  -4.582  1.00 20.00    -0.166 SA
ENDROOT
BRANCH   5  10
HETATM   10  O9  UNL     1     -33.605  15.172  -6.527  1.00 20.00    -0.389 OA
HETATM   11  H26 UNL     1     -34.252  15.115  -7.243  1.00 20.00     0.210 HD
ENDBRANCH   5  10
TORSDOF 1
ENDMDL
MODEL 4
REMARK VINA RESULT:      -4.1      1.223      1.879
REMARK  1 active torsions:
REMARK  status: ('A' for Active; 'I' for Inactive)
REMARK    1  A    between atoms: C5_5  and  O9_9 
ROOT
HETATM    1  C1  UNL     1     -35.919  16.125  -4.908  1.00 20.00     0.022 C 
HETATM    2  C2  UNL     1     -36.198  17.062  -3.737  1.00 20.00     0.075 C 
HETATM    3  C3  UNL     1     -33.703  16.332  -2.820  1.00 20.00     0.112 C 
HETATM    4  C4  UNL     1     -34.422  15.955  -5.281  1.00 20.00    -0.015 C 
HETATM    5  C5  UNL     1     -33.577  15.428  -4.063  1.00 20.00     0.069 C 
HETATM    6  C6  UNL     1     -34.344  14.975  -6.478  1.00 20.00     0.018 C 
HETATM    7  C7  UNL     1     -33.867  17.307  -5.800  1.00 20.00     0.018 C 
HETATM    8  C8  UNL     1     -33.890  13.966  -3.689  1.00 20.00     0.047 C 
HETATM    9  S10 UNL     1     -35.401  16.516  -2.205  1.00 20.00    -0.166 SA
ENDROOT
BRANCH   5  10
HETATM   10  O9  UNL     1     -32.190  15.448  -4.444  1.00 20.00    -0.389 OA
HETATM   11  H26 UNL     1     -31.880  16.347  -4.269  1.00 20.00     0.210 HD
ENDBRANCH   5  10
TORSDOF 1
ENDMDL
MODEL 5
REMARK VINA RESULT:      -4.1      1.968      2.798
REMARK  1 active torsions:
REMARK  status: ('A' for Active; 'I' for Inactive)
REMARK    1  A    between atoms: C5_5  and  O9_9 
ROOT
HETATM    1  C1  UNL     1     -35.123  16.952  -4.224  1.00 20.00     0.022 C 
HETATM    2  C2  UNL     1     -35.445  16.838  -5.711  1.00 20.00     0.075 C 
HETATM    3  C3  UNL     1     -34.403  14.292  -5.535  1.00 20.00     0.112 C 
HETATM    4  C4  UNL     1     -35.147  15.616  -3.435  1.00 20.00    -0.015 C 
HETATM    5  C5  UNL     1     -34.143  14.567  -4.040  1.00 20.00     0.069 C 
HETATM    6  C6  UNL     1     -34.799  15.934  -1.960  1.00 20.00     0.018 C 
HETATM    7  C7  UNL     1     -36.594  15.057  -3.419  1.00 20.00     0.018 C 
HETATM    8  C8  UNL     1     -32.663  14.941  -3.819  1.00 20.00     0.047 C 
HETATM    9  S10 UNL     1     -34.283  15.762  -6.592  1.00 20.00    -0.166 SA
ENDROOT
BRANCH   5  10
HETATM   10  O9  UNL     1     -34.340  13.318  -3.354  1.00 20.00    -0.389 OA
HETATM   11  H26 UNL     1     -33.531  12.808  -3.497  1.00 20.00     0.210 HD
ENDBRANCH   5  10
TORSDOF 1
ENDMDL
MODEL 6
REMARK VINA RESULT:      -4.1      1.696      2.980
REMARK  1 active torsions:
REMARK  status: ('A' for Active; 'I' for Inactive)
REMARK    1  A    between atoms: C5_5  and  O9_9 
ROOT
HETATM    1  C1  UNL     1     -33.107  16.115  -4.570  1.00 20.00     0.022 C 
HETATM    2  C2  UNL     1     -33.639  17.516  -4.855  1.00 20.00     0.075 C 
HETATM    3  C3  UNL     1     -36.096  16.304  -5.155  1.00 20.00     0.112 C 
HETATM    4  C4  UNL     1     -34.129  15.132  -3.940  1.00 20.00    -0.015 C 
HETATM    5  C5  UNL     1     -35.404  14.961  -4.846  1.00 20.00     0.069 C 
HETATM    6  C6  UNL     1     -33.410  13.777  -3.728  1.00 20.00     0.018 C 
HETATM    7  C7  UNL     1     -34.517  15.634  -2.524  1.00 20.00     0.018 C 
HETATM    8  C8  UNL     1     -35.123  14.197  -6.156  1.00 20.00     0.047 C 
HETATM    9  S10 UNL     1     -35.037  17.506  -6.006  1.00 20.00    -0.166 SA
ENDROOT
BRANCH   5  10
HETATM   10  O9  UNL     1     -36.358  14.164  -4.123  1.00 20.00    -0.389 OA
HETATM   11  H26 UNL     1     -35.838  13.532  -3.608  1.00 20.00     0.210 HD
ENDBRANCH   5  10
TORSDOF 1
ENDMDL
MODEL 7
REMARK VINA RESULT:      -4.0      1.601      3.078
REMARK  1 active torsions:
REMARK  status: ('A' for Active; 'I' for Inactive)
REMARK    1  A    between atoms: C5_5  and  O9_9 
ROOT
HETATM    1  C1  UNL     1     -35.805  16.676  -3.745  1.00 20.00     0.022 C 
HETATM    2  C2  UNL     1     -36.435  15.352  -3.323  1.00 20.00     0.075 C 
HETATM    3  C3  UNL     1     -34.159  14.175  -4.338  1.00 20.00     0.112 C 
HETATM    4  C4  UNL     1     -34.253  16.699  -3.756  1.00 20.00    -0.015 C 
HETATM    5  C5  UNL     1     -33.662  15.589  -4.702  1.00 20.00     0.069 C 
HETATM    6  C6  UNL     1     -33.806  18.112  -4.207  1.00 20.00     0.018 C 
HETATM    7  C7  UNL     1     -33.729  16.530  -2.305  1.00 20.00     0.018 C 
HETATM    8  C8  UNL     1     -33.909  15.869  -6.198  1.00 20.00     0.047 C 
HETATM    9  S10 UNL     1     -35.961  13.981  -4.407  1.00 20.00    -0.166 SA
ENDROOT
BRANCH   5  10
HETATM   10  O9  UNL     1     -32.234  15.578  -4.534  1.00 20.00    -0.389 OA
HETATM   11  H26 UNL     1     -31.935  16.470  -4.757  1.00 20.00     0.210 HD
ENDBRANCH   5  10
TORSDOF 1
ENDMDL
MODEL 8
REMARK VINA RESULT:      -3.9      1.795      3.013
REMARK  1 active torsions:
REMARK  status: ('A' for Active; 'I' for Inactive)
REMARK    1  A    between atoms: C5_5  and  O9_9 
ROOT
HETATM    1  C1  UNL     1     -35.051  16.891  -4.415  1.00 20.00     0.022 C 
HETATM    2  C2  UNL     1     -36.549  17.104  -4.219  1.00 20.00     0.075 C 
HETATM    3  C3  UNL     1     -36.718  14.356  -4.085  1.00 20.00     0.112 C 
HETATM    4  C4  UNL     1     -34.472  15.608  -3.762  1.00 20.00    -0.015 C 
HETATM    5  C5  UNL     1     -35.190  14.312  -4.291  1.00 20.00     0.069 C 
HETATM    6  C6  UNL     1     -32.954  15.568  -4.068  1.00 20.00     0.018 C 
HETATM    7  C7  UNL     1     -34.591  15.719  -2.219  1.00 20.00     0.018 C 
HETATM    8  C8  UNL     1     -34.864  13.991  -5.764  1.00 20.00     0.047 C 
HETATM    9  S10 UNL     1     -37.538  15.751  -4.906  1.00 20.00    -0.166 SA
ENDROOT
BRANCH   5  10
HETATM   10  O9  UNL     1     -34.706  13.193  -3.528  1.00 20.00    -0.389 OA
HETATM   11  H26 UNL     1     -35.472  12.622  -3.381  1.00 20.00     0.210 HD
ENDBRANCH   5  10
TORSDOF 1
ENDMDL
MODEL 9
REMARK VINA RESULT:      -3.9      2.225      3.408
REMARK  1 active torsions:
REMARK  status: ('A' for Active; 'I' for Inactive)
REMARK    1  A    between atoms: C5_5  and  O9_9 
ROOT
HETATM    1  C1  UNL     1     -33.663  17.026  -3.743  1.00 20.00     0.022 C 
HETATM    2  C2  UNL     1     -33.816  17.336  -5.229  1.00 20.00     0.075 C 
HETATM    3  C3  UNL     1     -35.776  15.398  -5.225  1.00 20.00     0.112 C 
HETATM    4  C4  UNL     1     -34.945  16.511  -3.037  1.00 20.00    -0.015 C 
HETATM    5  C5  UNL     1     -35.500  15.206  -3.720  1.00 20.00     0.069 C 
HETATM    6  C6  UNL     1     -34.594  16.254  -1.551  1.00 20.00     0.018 C 
HETATM    7  C7  UNL     1     -36.015  17.634  -3.033  1.00 20.00     0.018 C 
HETATM    8  C8  UNL     1     -34.601  13.973  -3.500  1.00 20.00     0.047 C 
HETATM    9  S10 UNL     1     -34.321  15.886  -6.192  1.00 20.00    -0.166 SA
ENDROOT
BRANCH   5  10
HETATM   10  O9  UNL     1     -36.762  14.888  -3.109  1.00 20.00    -0.389 OA
HETATM   11  H26 UNL     1     -36.593  14.853  -2.157  1.00 20.00     0.210 HD
ENDBRANCH   5  10
TORSDOF 1
ENDMDL
