MODEL 1
REMARK VINA RESULT:      -3.8      0.000      0.000
REMARK  1 active torsions:
REMARK  status: ('A' for Active; 'I' for Inactive)
REMARK    1  A    between atoms: C4_4  and  S9_9 
ROOT
HETATM    1  C1  UNL     1     -34.815  15.614  -2.808  1.00 20.00     0.025 C 
HETATM    2  C2  UNL     1     -33.894  17.988  -2.900  1.00 20.00     0.088 C 
HETATM    3  C3  UNL     1     -33.153  16.053  -4.746  1.00 20.00     0.082 C 
HETATM    4  C4  UNL     1     -33.967  16.679  -2.105  1.00 20.00     0.054 C 
HETATM    5  C5  UNL     1     -34.121  15.047  -4.079  1.00 20.00    -0.038 C 
HETATM    6  C6  UNL     1     -35.208  14.612  -5.082  1.00 20.00     0.015 C 
HETATM    7  C7  UNL     1     -33.307  13.792  -3.697  1.00 20.00     0.015 C 
HETATM    8  S8  UNL     1     -33.746  17.770  -4.706  1.00 20.00    -0.167 SA
ENDROOT
BRANCH   4   9
HETATM    9  S9  UNL     1     -34.654  17.033  -0.446  1.00 20.00    -0.177 SA
HETATM   10  H23 UNL     1     -33.541  17.601   0.032  1.00 20.00     0.102 HD
ENDBRANCH   4   9
TORSDOF 1
ENDMDL
MODEL 2
REMARK VINA RESULT:      -3.6      2.471      3.376
REMARK  1 active torsions:
REMARK  status: ('A' for Active; 'I' for Inactive)
REMARK    1  A    between atoms: C4_4  and  S9_9 
ROOT
HETATM    1  C1  UNL     1     -35.730  14.393  -3.814  1.00 20.00     0.025 C 
HETATM    2  C2  UNL     1     -36.472  15.147  -6.132  1.00 20.00     0.088 C 
HETATM    3  C3  UNL     1     -33.926  15.673  -5.162  1.00 20.00     0.082 C 
HETATM    4  C4  UNL     1     -36.680  15.285  -4.620  1.00 20.00     0.054 C 
HETATM    5  C5  UNL     1     -34.258  14.892  -3.868  1.00 20.00    -0.038 C 
HETATM    6  C6  UNL     1     -33.320  13.677  -3.727  1.00 20.00     0.015 C 
HETATM    7  C7  UNL     1     -33.995  15.830  -2.671  1.00 20.00     0.015 C 
HETATM    8  S8  UNL     1     -34.727  14.998  -6.646  1.00 20.00    -0.167 SA
ENDROOT
BRANCH   4   9
HETATM    9  S9  UNL     1     -38.418  14.872  -4.222  1.00 20.00    -0.177 SA
HETATM   10  H23 UNL     1     -38.119  13.938  -3.311  1.00 20.00     0.102 HD
ENDBRANCH   4   9
TORSDOF 1
ENDMDL
MODEL 3
REMARK VINA RESULT:      -3.5      2.012      3.657
REMARK  1 active torsions:
REMARK  status: ('A' for Active; 'I' for Inactive)
REMARK    1  A    between atoms: C4_4  and  S9_9 
ROOT
HETATM    1  C1  UNL     1     -33.788  16.165  -2.630  1.00 20.00     0.025 C 
HETATM    2  C2  UNL     1     -35.500  15.914  -4.500  1.00 20.00     0.088 C 
HETATM    3  C3  UNL     1     -35.851  17.717  -2.420  1.00 20.00     0.082 C 
HETATM    4  C4  UNL     1     -34.801  15.241  -3.314  1.00 20.00     0.054 C 
HETATM    5  C5  UNL     1     -34.472  17.318  -1.842  1.00 20.00    -0.038 C 
HETATM    6  C6  UNL     1     -33.528  18.537  -1.832  1.00 20.00     0.015 C 
HETATM    7  C7  UNL     1     -34.685  16.876  -0.378  1.00 20.00     0.015 C 
HETATM    8  S8  UNL     1     -35.921  17.670  -4.235  1.00 20.00    -0.167 SA
ENDROOT
BRANCH   4   9
HETATM    9  S9  UNL     1     -33.969  13.722  -3.903  1.00 20.00    -0.177 SA
HETATM   10  H23 UNL     1     -35.059  12.950  -3.843  1.00 20.00     0.102 HD
ENDBRANCH   4   9
TORSDOF 1
ENDMDL
MODEL 4
REMARK VINA RESULT:      -3.5      2.342      3.840
REMARK  1 active torsions:
REMARK  status: ('A' for Active; 'I' for Inactive)
REMARK    1  A    between atoms: C4_4  and  S9_9 
ROOT
HETATM    1  C1  UNL     1     -35.647  16.088  -3.918  1.00 20.00     0.025 C 
HETATM    2  C2  UNL     1     -34.917  14.032  -5.235  1.00 20.00     0.088 C 
HETATM    3  C3  UNL     1     -33.182  15.387  -3.545  1.00 20.00     0.082 C 
HETATM    4  C4  UNL     1     -35.401  15.485  -5.305  1.00 20.00     0.054 C 
HETATM    5  C5  UNL     1     -34.327  16.345  -3.139  1.00 20.00    -0.038 C 
HETATM    6  C6  UNL     1     -34.612  16.220  -1.629  1.00 20.00     0.015 C 
HETATM    7  C7  UNL     1     -33.851  17.789  -3.409  1.00 20.00     0.015 C 
HETATM    8  S8  UNL     1     -33.738  13.691  -3.884  1.00 20.00    -0.167 SA
ENDROOT
BRANCH   4   9
HETATM    9  S9  UNL     1     -36.935  15.549  -6.299  1.00 20.00    -0.177 SA
HETATM   10  H23 UNL     1     -37.598  14.648  -5.565  1.00 20.00     0.102 HD
ENDBRANCH   4   9
TORSDOF 1
ENDMDL
MODEL 5
REMARK VINA RESULT:      -3.4      1.056      2.882
REMARK  1 active torsions:
REMARK  status: ('A' for Active; 'I' for Inactive)
REMARK    1  A    between atoms: C4_4  and  S9_9 
ROOT
HETATM    1  C1  UNL     1     -33.508  16.031  -4.771  1.00 20.00     0.025 C 
HETATM    2  C2  UNL     1     -34.628  17.696  -3.202  1.00 20.00     0.088 C 
HETATM    3  C3  UNL     1     -35.296  15.003  -3.204  1.00 20.00     0.082 C 
HETATM    4  C4  UNL     1     -34.405  17.268  -4.656  1.00 20.00     0.054 C 
HETATM    5  C5  UNL     1     -34.214  14.736  -4.279  1.00 20.00    -0.038 C 
HETATM    6  C6  UNL     1     -33.147  13.770  -3.728  1.00 20.00     0.015 C 
HETATM    7  C7  UNL     1     -34.901  14.045  -5.476  1.00 20.00     0.015 C 
HETATM    8  S8  UNL     1     -34.849  16.314  -2.030  1.00 20.00    -0.167 SA
ENDROOT
BRANCH   4   9
HETATM    9  S9  UNL     1     -33.668  18.666  -5.577  1.00 20.00    -0.177 SA
HETATM   10  H23 UNL     1     -32.668  17.953  -6.107  1.00 20.00     0.102 HD
ENDBRANCH   4   9
TORSDOF 1
ENDMDL
MODEL 6
REMARK VINA RESULT:      -3.4      2.200      3.828
REMARK  1 active torsions:
REMARK  status: ('A' for Active; 'I' for Inactive)
REMARK    1  A    between atoms: C4_4  and  S9_9 
ROOT
HETATM    1  C1  UNL     1     -34.246  16.392  -4.743  1.00 20.00     0.025 C 
HETATM    2  C2  UNL     1     -36.295  15.311  -5.803  1.00 20.00     0.088 C 
HETATM    3  C3  UNL     1     -35.002  14.183  -3.623  1.00 20.00     0.082 C 
HETATM    4  C4  UNL     1     -34.832  15.727  -5.993  1.00 20.00     0.054 C 
HETATM    5  C5  UNL     1     -34.026  15.383  -3.580  1.00 20.00    -0.038 C 
HETATM    6  C6  UNL     1     -34.169  16.135  -2.241  1.00 20.00     0.015 C 
HETATM    7  C7  UNL     1     -32.589  14.825  -3.655  1.00 20.00     0.015 C 
HETATM    8  S8  UNL     1     -36.681  14.626  -4.156  1.00 20.00    -0.167 SA
ENDROOT
BRANCH   4   9
HETATM    9  S9  UNL     1     -34.722  16.865  -7.420  1.00 20.00    -0.177 SA
HETATM   10  H23 UNL     1     -35.331  17.889  -6.812  1.00 20.00     0.102 HD
ENDBRANCH   4   9
TORSDOF 1
ENDMDL
MODEL 7
REMARK VINA RESULT:      -3.3     13.263     14.416
REMARK  1 active torsions:
REMARK  status: ('A' for Active; 'I' for Inactive)
REMARK    1  A    between atoms: C4_4  and  S9_9 
ROOT
HETATM    1  C1  UNL     1     -41.288   4.311  -1.707  1.00 20.00     0.025 C 
HETATM    2  C2  UNL     1     -43.150   4.502  -3.435  1.00 20.00     0.088 C 
HETATM    3  C3  UNL     1     -43.206   5.923  -1.053  1.00 20.00     0.082 C 
HETATM    4  C4  UNL     1     -42.417   3.587  -2.449  1.00 20.00     0.054 C 
HETATM    5  C5  UNL     1     -41.821   5.344  -0.675  1.00 20.00    -0.038 C 
HETATM    6  C6  UNL     1     -40.791   6.482  -0.538  1.00 20.00     0.015 C 
HETATM    7  C7  UNL     1     -41.956   4.663   0.703  1.00 20.00     0.015 C 
HETATM    8  S8  UNL     1     -43.417   6.205  -2.835  1.00 20.00    -0.167 SA
ENDROOT
BRANCH   4   9
HETATM    9  S9  UNL     1     -41.747   2.150  -3.361  1.00 20.00    -0.177 SA
HETATM   10  H23 UNL     1     -40.788   1.872  -2.472  1.00 20.00     0.102 HD
ENDBRANCH   4   9
TORSDOF 1
ENDMDL
MODEL 8
REMARK VINA RESULT:      -3.3      1.619      3.201
REMARK  1 active torsions:
REMARK  status: ('A' for Active; 'I' for Inactive)
REMARK    1  A    between atoms: C4_4  and  S9_9 
ROOT
HETATM    1  C1  UNL     1     -34.136  15.283  -5.390  1.00 20.00     0.025 C 
HETATM    2  C2  UNL     1     -34.580  17.654  -4.572  1.00 20.00     0.088 C 
HETATM    3  C3  UNL     1     -34.798  15.457  -2.892  1.00 20.00     0.082 C 
HETATM    4  C4  UNL     1     -35.026  16.525  -5.507  1.00 20.00     0.054 C 
HETATM    5  C5  UNL     1     -34.339  14.531  -4.044  1.00 20.00    -0.038 C 
HETATM    6  C6  UNL     1     -33.019  13.830  -3.667  1.00 20.00     0.015 C 
HETATM    7  C7  UNL     1     -35.415  13.439  -4.229  1.00 20.00     0.015 C 
HETATM    8  S8  UNL     1     -34.023  17.099  -2.924  1.00 20.00    -0.167 SA
ENDROOT
BRANCH   4   9
HETATM    9  S9  UNL     1     -35.016  17.144  -7.228  1.00 20.00    -0.177 SA
HETATM   10  H23 UNL     1     -36.088  17.932  -7.084  1.00 20.00     0.102 HD
ENDBRANCH   4   9
TORSDOF 1
ENDMDL
MODEL 9
REMARK VINA RESULT:      -3.3      1.573      1.582
REMARK  1 active torsions:
REMARK  status: ('A' for Active; 'I' for Inactive)
REMARK    1  A    between atoms: C4_4  and  S9_9 
ROOT
HETATM    1  C1  UNL     1     -35.037  15.492  -2.808  1.00 20.00     0.025 C 
HETATM    2  C2  UNL     1     -35.944  17.508  -4.075  1.00 20.00     0.088 C 
HETATM    3  C3  UNL     1     -34.357  15.593  -5.305  1.00 20.00     0.082 C 
HETATM    4  C4  UNL     1     -35.027  17.018  -2.949  1.00 20.00     0.054 C 
HETATM    5  C5  UNL     1     -34.317  14.781  -3.988  1.00 20.00    -0.038 C 
HETATM    6  C6  UNL     1     -34.961  13.397  -4.199  1.00 20.00     0.015 C 
HETATM    7  C7  UNL     1     -32.835  14.558  -3.618  1.00 20.00     0.015 C 
HETATM    8  S8  UNL     1     -35.927  16.467  -5.574  1.00 20.00    -0.167 SA
ENDROOT
BRANCH   4   9
HETATM    9  S9  UNL     1     -35.551  17.797  -1.379  1.00 20.00    -0.177 SA
HETATM   10  H23 UNL     1     -36.300  18.745  -1.953  1.00 20.00     0.102 HD
ENDBRANCH   4   9
TORSDOF 1
ENDMDL
