MODEL 1
REMARK VINA RESULT:      -4.3      0.000      0.000
REMARK  1 active torsions:
REMARK  status: ('A' for Active; 'I' for Inactive)
REMARK    1  A    between atoms: C5_5  and  O9_9 
ROOT
HETATM    1  C1  UNL     1     -35.454  13.560  -4.432  1.00 20.00     0.098 C 
HETATM    2  C2  UNL     1     -35.898  15.577  -3.031  1.00 20.00     0.069 C 
HETATM    3  C3  UNL     1     -36.633  15.547  -5.363  1.00 20.00     0.128 C 
HETATM    4  C4  UNL     1     -34.859  16.552  -3.589  1.00 20.00     0.047 C 
HETATM    5  C5  UNL     1     -36.395  14.655  -4.148  1.00 20.00     0.157 C 
HETATM    6  C6  UNL     1     -33.424  16.046  -3.509  1.00 20.00     0.021 C 
HETATM    7  N8  UNL     1     -34.712  12.697  -4.657  1.00 20.00    -0.194 NA
HETATM    8  S10 UNL     1     -35.345  16.827  -5.323  1.00 20.00    -0.161 SA
ENDROOT
BRANCH   5   9
HETATM    9  O9  UNL     1     -37.636  14.088  -3.730  1.00 20.00    -0.369 OA
HETATM   10  C7  UNL     1     -38.668  15.062  -3.706  1.00 20.00     0.204 C 
ENDBRANCH   5   9
TORSDOF 1
ENDMDL
MODEL 2
REMARK VINA RESULT:      -4.1      2.302      2.921
REMARK  1 active torsions:
REMARK  status: ('A' for Active; 'I' for Inactive)
REMARK    1  A    between atoms: C5_5  and  O9_9 
ROOT
HETATM    1  C1  UNL     1     -36.947  14.529  -4.280  1.00 20.00     0.098 C 
HETATM    2  C2  UNL     1     -34.944  15.919  -4.817  1.00 20.00     0.069 C 
HETATM    3  C3  UNL     1     -34.844  13.495  -5.126  1.00 20.00     0.128 C 
HETATM    4  C4  UNL     1     -34.039  15.596  -3.626  1.00 20.00     0.047 C 
HETATM    5  C5  UNL     1     -35.789  14.692  -5.174  1.00 20.00     0.157 C 
HETATM    6  C6  UNL     1     -34.661  15.902  -2.270  1.00 20.00     0.021 C 
HETATM    7  N8  UNL     1     -37.859  14.399  -3.576  1.00 20.00    -0.194 NA
HETATM    8  S10 UNL     1     -33.673  13.817  -3.774  1.00 20.00    -0.161 SA
ENDROOT
BRANCH   5   9
HETATM    9  O9  UNL     1     -36.267  14.862  -6.508  1.00 20.00    -0.369 OA
HETATM   10  C7  UNL     1     -35.259  14.561  -7.461  1.00 20.00     0.204 C 
ENDBRANCH   5   9
TORSDOF 1
ENDMDL
MODEL 3
REMARK VINA RESULT:      -4.1      2.093      2.874
REMARK  1 active torsions:
REMARK  status: ('A' for Active; 'I' for Inactive)
REMARK    1  A    between atoms: C5_5  and  O9_9 
ROOT
HETATM    1  C1  UNL     1     -34.689  13.981  -4.099  1.00 20.00     0.098 C 
HETATM    2  C2  UNL     1     -33.557  15.991  -5.052  1.00 20.00     0.069 C 
HETATM    3  C3  UNL     1     -35.741  16.236  -3.977  1.00 20.00     0.128 C 
HETATM    4  C4  UNL     1     -34.387  16.219  -6.317  1.00 20.00     0.047 C 
HETATM    5  C5  UNL     1     -34.449  15.424  -3.942  1.00 20.00     0.157 C 
HETATM    6  C6  UNL     1     -34.423  15.023  -7.260  1.00 20.00     0.021 C 
HETATM    7  N8  UNL     1     -34.879  12.844  -4.222  1.00 20.00    -0.194 NA
HETATM    8  S10 UNL     1     -36.062  16.618  -5.724  1.00 20.00    -0.161 SA
ENDROOT
BRANCH   5   9
HETATM    9  O9  UNL     1     -33.790  15.642  -2.696  1.00 20.00    -0.369 OA
HETATM   10  C7  UNL     1     -34.664  16.227  -1.743  1.00 20.00     0.204 C 
ENDBRANCH   5   9
TORSDOF 1
ENDMDL
MODEL 4
REMARK VINA RESULT:      -4.1      1.899      2.410
REMARK  1 active torsions:
REMARK  status: ('A' for Active; 'I' for Inactive)
REMARK    1  A    between atoms: C5_5  and  O9_9 
ROOT
HETATM    1  C1  UNL     1     -35.039  13.715  -5.037  1.00 20.00     0.098 C 
HETATM    2  C2  UNL     1     -35.997  15.980  -4.606  1.00 20.00     0.069 C 
HETATM    3  C3  UNL     1     -34.133  15.740  -6.170  1.00 20.00     0.128 C 
HETATM    4  C4  UNL     1     -34.907  16.593  -3.725  1.00 20.00     0.047 C 
HETATM    5  C5  UNL     1     -35.365  15.025  -5.624  1.00 20.00     0.157 C 
HETATM    6  C6  UNL     1     -34.606  15.797  -2.461  1.00 20.00     0.021 C 
HETATM    7  N8  UNL     1     -34.782  12.684  -4.575  1.00 20.00    -0.194 NA
HETATM    8  S10 UNL     1     -33.431  16.687  -4.788  1.00 20.00    -0.161 SA
ENDROOT
BRANCH   5   9
HETATM    9  O9  UNL     1     -36.303  14.827  -6.681  1.00 20.00    -0.369 OA
HETATM   10  C7  UNL     1     -35.650  14.488  -7.895  1.00 20.00     0.204 C 
ENDBRANCH   5   9
TORSDOF 1
ENDMDL
MODEL 5
REMARK VINA RESULT:      -4.0      2.068      2.904
REMARK  1 active torsions:
REMARK  status: ('A' for Active; 'I' for Inactive)
REMARK    1  A    between atoms: C5_5  and  O9_9 
ROOT
HETATM    1  C1  UNL     1     -36.858  15.062  -3.508  1.00 20.00     0.098 C 
HETATM    2  C2  UNL     1     -34.394  14.973  -3.120  1.00 20.00     0.069 C 
HETATM    3  C3  UNL     1     -35.329  16.752  -4.514  1.00 20.00     0.128 C 
HETATM    4  C4  UNL     1     -33.906  14.454  -4.474  1.00 20.00     0.047 C 
HETATM    5  C5  UNL     1     -35.632  15.853  -3.318  1.00 20.00     0.157 C 
HETATM    6  C6  UNL     1     -34.517  13.120  -4.887  1.00 20.00     0.021 C 
HETATM    7  N8  UNL     1     -37.825  14.439  -3.658  1.00 20.00    -0.194 NA
HETATM    8  S10 UNL     1     -34.344  15.755  -5.671  1.00 20.00    -0.161 SA
ENDROOT
BRANCH   5   9
HETATM    9  O9  UNL     1     -35.789  16.659  -2.151  1.00 20.00    -0.369 OA
HETATM   10  C7  UNL     1     -34.702  16.489  -1.255  1.00 20.00     0.204 C 
ENDBRANCH   5   9
TORSDOF 1
ENDMDL
MODEL 6
REMARK VINA RESULT:      -3.9     11.781     12.724
REMARK  1 active torsions:
REMARK  status: ('A' for Active; 'I' for Inactive)
REMARK    1  A    between atoms: C5_5  and  O9_9 
ROOT
HETATM    1  C1  UNL     1     -42.799   5.142  -2.840  1.00 20.00     0.098 C 
HETATM    2  C2  UNL     1     -40.890   4.564  -1.340  1.00 20.00     0.069 C 
HETATM    3  C3  UNL     1     -43.167   3.977  -0.669  1.00 20.00     0.128 C 
HETATM    4  C4  UNL     1     -41.058   5.613  -0.238  1.00 20.00     0.047 C 
HETATM    5  C5  UNL     1     -42.263   4.159  -1.885  1.00 20.00     0.157 C 
HETATM    6  C6  UNL     1     -41.039   7.051  -0.740  1.00 20.00     0.021 C 
HETATM    7  N8  UNL     1     -43.222   5.916  -3.592  1.00 20.00    -0.194 NA
HETATM    8  S10 UNL     1     -42.658   5.230   0.544  1.00 20.00    -0.161 SA
ENDROOT
BRANCH   5   9
HETATM    9  O9  UNL     1     -42.118   2.908  -2.555  1.00 20.00    -0.369 OA
HETATM   10  C7  UNL     1     -43.308   2.138  -2.478  1.00 20.00     0.204 C 
ENDBRANCH   5   9
TORSDOF 1
ENDMDL
MODEL 7
REMARK VINA RESULT:      -3.9      2.676      3.745
REMARK  1 active torsions:
REMARK  status: ('A' for Active; 'I' for Inactive)
REMARK    1  A    between atoms: C5_5  and  O9_9 
ROOT
HETATM    1  C1  UNL     1     -33.826  16.670  -4.510  1.00 20.00     0.098 C 
HETATM    2  C2  UNL     1     -35.570  15.419  -3.235  1.00 20.00     0.069 C 
HETATM    3  C3  UNL     1     -33.425  14.344  -3.711  1.00 20.00     0.128 C 
HETATM    4  C4  UNL     1     -36.062  14.438  -4.302  1.00 20.00     0.047 C 
HETATM    5  C5  UNL     1     -34.077  15.696  -3.435  1.00 20.00     0.157 C 
HETATM    6  C6  UNL     1     -36.580  15.106  -5.569  1.00 20.00     0.021 C 
HETATM    7  N8  UNL     1     -33.628  17.436  -5.356  1.00 20.00    -0.194 NA
HETATM    8  S10 UNL     1     -34.626  13.382  -4.677  1.00 20.00    -0.161 SA
ENDROOT
BRANCH   5   9
HETATM    9  O9  UNL     1     -33.562  16.226  -2.214  1.00 20.00    -0.369 OA
HETATM   10  C7  UNL     1     -34.599  16.467  -1.276  1.00 20.00     0.204 C 
ENDBRANCH   5   9
TORSDOF 1
ENDMDL
MODEL 8
REMARK VINA RESULT:      -3.8      2.067      3.446
REMARK  1 active torsions:
REMARK  status: ('A' for Active; 'I' for Inactive)
REMARK    1  A    between atoms: C5_5  and  O9_9 
ROOT
HETATM    1  C1  UNL     1     -36.591  14.282  -4.108  1.00 20.00     0.098 C 
HETATM    2  C2  UNL     1     -35.075  13.862  -6.046  1.00 20.00     0.069 C 
HETATM    3  C3  UNL     1     -34.521  15.626  -4.445  1.00 20.00     0.128 C 
HETATM    4  C4  UNL     1     -35.404  15.062  -6.937  1.00 20.00     0.047 C 
HETATM    5  C5  UNL     1     -35.195  14.263  -4.572  1.00 20.00     0.157 C 
HETATM    6  C6  UNL     1     -36.876  15.172  -7.314  1.00 20.00     0.021 C 
HETATM    7  N8  UNL     1     -37.691  14.298  -3.741  1.00 20.00    -0.194 NA
HETATM    8  S10 UNL     1     -34.877  16.522  -5.985  1.00 20.00    -0.161 SA
ENDROOT
BRANCH   5   9
HETATM    9  O9  UNL     1     -34.473  13.306  -3.797  1.00 20.00    -0.369 OA
HETATM   10  C7  UNL     1     -33.128  13.712  -3.597  1.00 20.00     0.204 C 
ENDBRANCH   5   9
TORSDOF 1
ENDMDL
MODEL 9
REMARK VINA RESULT:      -3.8      2.100      3.022
REMARK  1 active torsions:
REMARK  status: ('A' for Active; 'I' for Inactive)
REMARK    1  A    between atoms: C5_5  and  O9_9 
ROOT
HETATM    1  C1  UNL     1     -36.389  14.760  -3.842  1.00 20.00     0.098 C 
HETATM    2  C2  UNL     1     -34.128  14.675  -4.896  1.00 20.00     0.069 C 
HETATM    3  C3  UNL     1     -35.068  16.835  -4.239  1.00 20.00     0.128 C 
HETATM    4  C4  UNL     1     -34.442  15.200  -6.299  1.00 20.00     0.047 C 
HETATM    5  C5  UNL     1     -35.043  15.354  -3.872  1.00 20.00     0.157 C 
HETATM    6  C6  UNL     1     -35.502  14.397  -7.041  1.00 20.00     0.021 C 
HETATM    7  N8  UNL     1     -37.450  14.294  -3.819  1.00 20.00    -0.194 NA
HETATM    8  S10 UNL     1     -34.996  16.918  -6.052  1.00 20.00    -0.161 SA
ENDROOT
BRANCH   5   9
HETATM    9  O9  UNL     1     -34.450  15.198  -2.583  1.00 20.00    -0.369 OA
HETATM   10  C7  UNL     1     -34.780  16.281  -1.727  1.00 20.00     0.204 C 
ENDBRANCH   5   9
TORSDOF 1
ENDMDL
