MODEL 1
REMARK VINA RESULT:      -3.6      0.000      0.000
REMARK  5 active torsions:
REMARK  status: ('A' for Active; 'I' for Inactive)
REMARK    1  A    between atoms: C4_4  and  C7_7 
REMARK    2  A    between atoms: C4_4  and  O8_8 
REMARK    3  A    between atoms: C5_5  and  C7_7 
REMARK    4  A    between atoms: C5_5  and  S9_9 
REMARK    5  A    between atoms: C6_6  and  C7_7 
ROOT
HETATM    1  C7  UNL     1     -35.299  14.074  -3.936  1.00 20.00     0.022 C 
ENDROOT
BRANCH   1   2
HETATM    2  C4  UNL     1     -36.592  14.900  -4.105  1.00 20.00     0.172 C 
BRANCH   2   3
HETATM    3  O8  UNL     1     -37.727  14.139  -3.713  1.00 20.00    -0.396 OA
HETATM    4  C3  UNL     1     -38.938  14.773  -4.103  1.00 20.00     0.201 C 
ENDBRANCH   2   3
ENDBRANCH   1   2
BRANCH   1   5
HETATM    5  C5  UNL     1     -34.730  13.607  -5.300  1.00 20.00     0.077 C 
BRANCH   5   6
HETATM    6  S9  UNL     1     -35.378  14.489  -6.753  1.00 20.00    -0.182 SA
HETATM    7  H25 UNL     1     -34.304  15.271  -6.928  1.00 20.00     0.101 HD
ENDBRANCH   5   6
ENDBRANCH   1   5
BRANCH   1   8
HETATM    8  C6  UNL     1     -34.259  14.805  -3.029  1.00 20.00    -0.016 C 
HETATM    9  C1  UNL     1     -33.069  15.345  -3.835  1.00 20.00     0.010 C 
HETATM   10  C2  UNL     1     -34.883  15.971  -2.252  1.00 20.00     0.010 C 
ENDBRANCH   1   8
TORSDOF 5
ENDMDL
MODEL 2
REMARK VINA RESULT:      -3.5      0.581      1.280
REMARK  5 active torsions:
REMARK  status: ('A' for Active; 'I' for Inactive)
REMARK    1  A    between atoms: C4_4  and  C7_7 
REMARK    2  A    between atoms: C4_4  and  O8_8 
REMARK    3  A    between atoms: C5_5  and  C7_7 
REMARK    4  A    between atoms: C5_5  and  S9_9 
REMARK    5  A    between atoms: C6_6  and  C7_7 
ROOT
HETATM    1  C7  UNL     1     -35.158  14.439  -3.608  1.00 20.00     0.022 C 
ENDROOT
BRANCH   1   2
HETATM    2  C4  UNL     1     -36.558  15.082  -3.510  1.00 20.00     0.172 C 
BRANCH   2   3
HETATM    3  O8  UNL     1     -37.571  14.115  -3.756  1.00 20.00    -0.396 OA
HETATM    4  C3  UNL     1     -38.778  14.726  -4.192  1.00 20.00     0.201 C 
ENDBRANCH   2   3
ENDBRANCH   1   2
BRANCH   1   5
HETATM    5  C5  UNL     1     -35.024  13.535  -4.860  1.00 20.00     0.077 C 
BRANCH   5   6
HETATM    6  S9  UNL     1     -35.188  14.393  -6.456  1.00 20.00    -0.182 SA
HETATM    7  H25 UNL     1     -35.576  15.567  -5.941  1.00 20.00     0.101 HD
ENDBRANCH   5   6
ENDBRANCH   1   5
BRANCH   1   8
HETATM    8  C6  UNL     1     -34.022  15.501  -3.465  1.00 20.00    -0.016 C 
HETATM    9  C1  UNL     1     -34.093  16.245  -2.124  1.00 20.00     0.010 C 
HETATM   10  C2  UNL     1     -32.626  14.881  -3.599  1.00 20.00     0.010 C 
ENDBRANCH   1   8
TORSDOF 5
ENDMDL
MODEL 3
REMARK VINA RESULT:      -3.5      2.184      3.187
REMARK  5 active torsions:
REMARK  status: ('A' for Active; 'I' for Inactive)
REMARK    1  A    between atoms: C4_4  and  C7_7 
REMARK    2  A    between atoms: C4_4  and  O8_8 
REMARK    3  A    between atoms: C5_5  and  C7_7 
REMARK    4  A    between atoms: C5_5  and  S9_9 
REMARK    5  A    between atoms: C6_6  and  C7_7 
ROOT
HETATM    1  C7  UNL     1     -33.609  16.090  -3.043  1.00 20.00     0.022 C 
ENDROOT
BRANCH   1   2
HETATM    2  C4  UNL     1     -33.309  14.725  -3.699  1.00 20.00     0.172 C 
BRANCH   2   3
HETATM    3  O8  UNL     1     -34.309  13.774  -3.356  1.00 20.00    -0.396 OA
HETATM    4  C3  UNL     1     -34.954  13.258  -4.512  1.00 20.00     0.201 C 
ENDBRANCH   2   3
ENDBRANCH   1   2
BRANCH   1   5
HETATM    5  C5  UNL     1     -33.661  17.234  -4.089  1.00 20.00     0.077 C 
BRANCH   5   6
HETATM    6  S9  UNL     1     -33.824  16.695  -5.819  1.00 20.00    -0.182 SA
HETATM    7  H25 UNL     1     -34.705  15.716  -5.576  1.00 20.00     0.101 HD
ENDBRANCH   5   6
ENDBRANCH   1   5
BRANCH   1   8
HETATM    8  C6  UNL     1     -34.860  16.022  -2.111  1.00 20.00    -0.016 C 
HETATM    9  C1  UNL     1     -34.597  16.667  -0.744  1.00 20.00     0.010 C 
HETATM   10  C2  UNL     1     -36.087  16.697  -2.735  1.00 20.00     0.010 C 
ENDBRANCH   1   8
TORSDOF 5
ENDMDL
MODEL 4
REMARK VINA RESULT:      -3.3      2.679      3.844
REMARK  5 active torsions:
REMARK  status: ('A' for Active; 'I' for Inactive)
REMARK    1  A    between atoms: C4_4  and  C7_7 
REMARK    2  A    between atoms: C4_4  and  O8_8 
REMARK    3  A    between atoms: C5_5  and  C7_7 
REMARK    4  A    between atoms: C5_5  and  S9_9 
REMARK    5  A    between atoms: C6_6  and  C7_7 
ROOT
HETATM    1  C7  UNL     1     -34.518  15.797  -2.548  1.00 20.00     0.022 C 
ENDROOT
BRANCH   1   2
HETATM    2  C4  UNL     1     -34.090  16.817  -1.472  1.00 20.00     0.172 C 
BRANCH   2   3
HETATM    3  O8  UNL     1     -34.781  16.578  -0.252  1.00 20.00    -0.396 OA
HETATM    4  C3  UNL     1     -34.841  17.750   0.550  1.00 20.00     0.201 C 
ENDBRANCH   2   3
ENDBRANCH   1   2
BRANCH   1   5
HETATM    5  C5  UNL     1     -35.748  16.288  -3.353  1.00 20.00     0.077 C 
BRANCH   5   6
HETATM    6  S9  UNL     1     -36.992  15.013  -3.724  1.00 20.00    -0.182 SA
HETATM    7  H25 UNL     1     -36.115  14.066  -4.082  1.00 20.00     0.101 HD
ENDBRANCH   5   6
ENDBRANCH   1   5
BRANCH   1   8
HETATM    8  C6  UNL     1     -33.313  15.352  -3.436  1.00 20.00    -0.016 C 
HETATM    9  C1  UNL     1     -33.374  13.859  -3.787  1.00 20.00     0.010 C 
HETATM   10  C2  UNL     1     -33.226  16.152  -4.741  1.00 20.00     0.010 C 
ENDBRANCH   1   8
TORSDOF 5
ENDMDL
MODEL 5
REMARK VINA RESULT:      -3.3      2.767      3.652
REMARK  5 active torsions:
REMARK  status: ('A' for Active; 'I' for Inactive)
REMARK    1  A    between atoms: C4_4  and  C7_7 
REMARK    2  A    between atoms: C4_4  and  O8_8 
REMARK    3  A    between atoms: C5_5  and  C7_7 
REMARK    4  A    between atoms: C5_5  and  S9_9 
REMARK    5  A    between atoms: C6_6  and  C7_7 
ROOT
HETATM    1  C7  UNL     1     -34.289  16.211  -3.242  1.00 20.00     0.022 C 
ENDROOT
BRANCH   1   2
HETATM    2  C4  UNL     1     -33.118  15.690  -4.102  1.00 20.00     0.172 C 
BRANCH   2   3
HETATM    3  O8  UNL     1     -32.810  16.612  -5.140  1.00 20.00    -0.396 OA
HETATM    4  C3  UNL     1     -33.958  16.922  -5.918  1.00 20.00     0.201 C 
ENDBRANCH   2   3
ENDBRANCH   1   2
BRANCH   1   5
HETATM    5  C5  UNL     1     -35.379  15.128  -3.034  1.00 20.00     0.077 C 
BRANCH   5   6
HETATM    6  S9  UNL     1     -35.295  13.714  -4.176  1.00 20.00    -0.182 SA
HETATM    7  H25 UNL     1     -35.011  14.436  -5.268  1.00 20.00     0.101 HD
ENDBRANCH   5   6
ENDBRANCH   1   5
BRANCH   1   8
HETATM    8  C6  UNL     1     -33.786  16.869  -1.918  1.00 20.00    -0.016 C 
HETATM    9  C1  UNL     1     -33.614  18.388  -2.058  1.00 20.00     0.010 C 
HETATM   10  C2  UNL     1     -34.728  16.598  -0.739  1.00 20.00     0.010 C 
ENDBRANCH   1   8
TORSDOF 5
ENDMDL
MODEL 6
REMARK VINA RESULT:      -3.3      2.895      4.257
REMARK  5 active torsions:
REMARK  status: ('A' for Active; 'I' for Inactive)
REMARK    1  A    between atoms: C4_4  and  C7_7 
REMARK    2  A    between atoms: C4_4  and  O8_8 
REMARK    3  A    between atoms: C5_5  and  C7_7 
REMARK    4  A    between atoms: C5_5  and  S9_9 
REMARK    5  A    between atoms: C6_6  and  C7_7 
ROOT
HETATM    1  C7  UNL     1     -34.401  15.044  -3.011  1.00 20.00     0.022 C 
ENDROOT
BRANCH   1   2
HETATM    2  C4  UNL     1     -33.197  15.540  -3.839  1.00 20.00     0.172 C 
BRANCH   2   3
HETATM    3  O8  UNL     1     -33.389  16.890  -4.243  1.00 20.00    -0.396 OA
HETATM    4  C3  UNL     1     -33.597  16.989  -5.645  1.00 20.00     0.201 C 
ENDBRANCH   2   3
ENDBRANCH   1   2
BRANCH   1   5
HETATM    5  C5  UNL     1     -35.203  16.219  -2.395  1.00 20.00     0.077 C 
BRANCH   5   6
HETATM    6  S9  UNL     1     -34.589  16.820  -0.791  1.00 20.00    -0.182 SA
HETATM    7  H25 UNL     1     -35.258  17.980  -0.814  1.00 20.00     0.101 HD
ENDBRANCH   5   6
ENDBRANCH   1   5
BRANCH   1   8
HETATM    8  C6  UNL     1     -35.275  14.028  -3.813  1.00 20.00    -0.016 C 
HETATM    9  C1  UNL     1     -36.465  14.711  -4.503  1.00 20.00     0.010 C 
HETATM   10  C2  UNL     1     -34.466  13.278  -4.877  1.00 20.00     0.010 C 
ENDBRANCH   1   8
TORSDOF 5
ENDMDL
MODEL 7
REMARK VINA RESULT:      -3.3      2.527      3.577
REMARK  5 active torsions:
REMARK  status: ('A' for Active; 'I' for Inactive)
REMARK    1  A    between atoms: C4_4  and  C7_7 
REMARK    2  A    between atoms: C4_4  and  O8_8 
REMARK    3  A    between atoms: C5_5  and  C7_7 
REMARK    4  A    between atoms: C5_5  and  S9_9 
REMARK    5  A    between atoms: C6_6  and  C7_7 
ROOT
HETATM    1  C7  UNL     1     -34.941  15.354  -3.339  1.00 20.00     0.022 C 
ENDROOT
BRANCH   1   2
HETATM    2  C4  UNL     1     -34.050  16.122  -2.339  1.00 20.00     0.172 C 
BRANCH   2   3
HETATM    3  O8  UNL     1     -34.699  16.244  -1.080  1.00 20.00    -0.396 OA
HETATM    4  C3  UNL     1     -34.275  17.410  -0.387  1.00 20.00     0.201 C 
ENDBRANCH   2   3
ENDBRANCH   1   2
BRANCH   1   5
HETATM    5  C5  UNL     1     -35.169  16.157  -4.645  1.00 20.00     0.077 C 
BRANCH   5   6
HETATM    6  S9  UNL     1     -33.723  17.084  -5.247  1.00 20.00    -0.182 SA
HETATM    7  H25 UNL     1     -33.078  16.021  -5.746  1.00 20.00     0.101 HD
ENDBRANCH   5   6
ENDBRANCH   1   5
BRANCH   1   8
HETATM    8  C6  UNL     1     -34.430  13.897  -3.569  1.00 20.00    -0.016 C 
HETATM    9  C1  UNL     1     -34.910  13.321  -4.908  1.00 20.00     0.010 C 
HETATM   10  C2  UNL     1     -32.900  13.804  -3.525  1.00 20.00     0.010 C 
ENDBRANCH   1   8
TORSDOF 5
ENDMDL
MODEL 8
REMARK VINA RESULT:      -3.3      2.240      3.455
REMARK  5 active torsions:
REMARK  status: ('A' for Active; 'I' for Inactive)
REMARK    1  A    between atoms: C4_4  and  C7_7 
REMARK    2  A    between atoms: C4_4  and  O8_8 
REMARK    3  A    between atoms: C5_5  and  C7_7 
REMARK    4  A    between atoms: C5_5  and  S9_9 
REMARK    5  A    between atoms: C6_6  and  C7_7 
ROOT
HETATM    1  C7  UNL     1     -35.410  15.021  -3.179  1.00 20.00     0.022 C 
ENDROOT
BRANCH   1   2
HETATM    2  C4  UNL     1     -34.964  16.360  -2.555  1.00 20.00     0.172 C 
BRANCH   2   3
HETATM    3  O8  UNL     1     -34.763  16.217  -1.154  1.00 20.00    -0.396 OA
HETATM    4  C3  UNL     1     -34.079  17.338  -0.609  1.00 20.00     0.201 C 
ENDBRANCH   2   3
ENDBRANCH   1   2
BRANCH   1   5
HETATM    5  C5  UNL     1     -36.386  15.233  -4.365  1.00 20.00     0.077 C 
BRANCH   5   6
HETATM    6  S9  UNL     1     -38.136  14.899  -3.998  1.00 20.00    -0.182 SA
HETATM    7  H25 UNL     1     -38.498  16.182  -3.873  1.00 20.00     0.101 HD
ENDBRANCH   5   6
ENDBRANCH   1   5
BRANCH   1   8
HETATM    8  C6  UNL     1     -34.191  14.104  -3.514  1.00 20.00    -0.016 C 
HETATM    9  C1  UNL     1     -34.435  13.256  -4.770  1.00 20.00     0.010 C 
HETATM   10  C2  UNL     1     -32.900  14.905  -3.717  1.00 20.00     0.010 C 
ENDBRANCH   1   8
TORSDOF 5
ENDMDL
MODEL 9
REMARK VINA RESULT:      -3.2      2.914      3.835
REMARK  5 active torsions:
REMARK  status: ('A' for Active; 'I' for Inactive)
REMARK    1  A    between atoms: C4_4  and  C7_7 
REMARK    2  A    between atoms: C4_4  and  O8_8 
REMARK    3  A    between atoms: C5_5  and  C7_7 
REMARK    4  A    between atoms: C5_5  and  S9_9 
REMARK    5  A    between atoms: C6_6  and  C7_7 
ROOT
HETATM    1  C7  UNL     1     -34.188  15.717  -4.342  1.00 20.00     0.022 C 
ENDROOT
BRANCH   1   2
HETATM    2  C4  UNL     1     -33.245  14.710  -3.650  1.00 20.00     0.172 C 
BRANCH   2   3
HETATM    3  O8  UNL     1     -33.645  13.375  -3.931  1.00 20.00    -0.396 OA
HETATM    4  C3  UNL     1     -35.035  13.298  -4.219  1.00 20.00     0.201 C 
ENDBRANCH   2   3
ENDBRANCH   1   2
BRANCH   1   5
HETATM    5  C5  UNL     1     -34.702  16.798  -3.356  1.00 20.00     0.077 C 
BRANCH   5   6
HETATM    6  S9  UNL     1     -34.583  16.360  -1.594  1.00 20.00    -0.182 SA
HETATM    7  H25 UNL     1     -35.900  16.400  -1.354  1.00 20.00     0.101 HD
ENDBRANCH   5   6
ENDBRANCH   1   5
BRANCH   1   8
HETATM    8  C6  UNL     1     -33.559  16.296  -5.649  1.00 20.00    -0.016 C 
HETATM    9  C1  UNL     1     -34.215  15.718  -6.910  1.00 20.00     0.010 C 
HETATM   10  C2  UNL     1     -33.654  17.825  -5.713  1.00 20.00     0.010 C 
ENDBRANCH   1   8
TORSDOF 5
ENDMDL
