MODEL 1
REMARK VINA RESULT:      -3.6      0.000      0.000
REMARK  5 active torsions:
REMARK  status: ('A' for Active; 'I' for Inactive)
REMARK    1  A    between atoms: C5_5  and  C8_8 
REMARK    2  A    between atoms: C5_5  and  N9_9 
REMARK    3  A    between atoms: C6_6  and  C8_8 
REMARK    4  A    between atoms: C6_6  and  S10_10 
REMARK    5  A    between atoms: C7_7  and  C8_8 
ROOT
HETATM    1  C8  UNL     1     -34.947  15.240  -2.771  1.00 20.00     0.024 C 
ENDROOT
BRANCH   1   2
HETATM    2  C5  UNL     1     -36.020  15.823  -3.715  1.00 20.00     0.239 C 
BRANCH   2   3
HETATM    3  N9  UNL     1     -37.364  15.815  -3.091  1.00 20.00    -0.078 N 
HETATM    4  C3  UNL     1     -37.944  17.200  -2.936  1.00 20.00     0.269 C 
HETATM    5  C4  UNL     1     -38.330  14.898  -3.802  1.00 20.00     0.269 C 
HETATM    6  H29 UNL     1     -37.268  15.438  -2.132  1.00 20.00     0.278 HD
ENDBRANCH   2   3
ENDBRANCH   1   2
BRANCH   1   7
HETATM    7  C6  UNL     1     -34.038  14.186  -3.454  1.00 20.00     0.077 C 
BRANCH   7   8
HETATM    8  S10 UNL     1     -34.753  13.396  -4.932  1.00 20.00    -0.182 SA
HETATM    9  H30 UNL     1     -33.838  13.860  -5.792  1.00 20.00     0.101 HD
ENDBRANCH   7   8
ENDBRANCH   1   7
BRANCH   1  10
HETATM   10  C7  UNL     1     -34.066  16.343  -2.089  1.00 20.00    -0.016 C 
HETATM   11  C1  UNL     1     -34.597  16.751  -0.707  1.00 20.00     0.010 C 
HETATM   12  C2  UNL     1     -33.951  17.611  -2.949  1.00 20.00     0.010 C 
ENDBRANCH   1  10
TORSDOF 5
ENDMDL
MODEL 2
REMARK VINA RESULT:      -3.5      2.335      3.131
REMARK  5 active torsions:
REMARK  status: ('A' for Active; 'I' for Inactive)
REMARK    1  A    between atoms: C5_5  and  C8_8 
REMARK    2  A    between atoms: C5_5  and  N9_9 
REMARK    3  A    between atoms: C6_6  and  C8_8 
REMARK    4  A    between atoms: C6_6  and  S10_10 
REMARK    5  A    between atoms: C7_7  and  C8_8 
ROOT
HETATM    1  C8  UNL     1     -33.755  16.411  -3.013  1.00 20.00     0.024 C 
ENDROOT
BRANCH   1   2
HETATM    2  C5  UNL     1     -34.945  15.430  -3.079  1.00 20.00     0.239 C 
BRANCH   2   3
HETATM    3  N9  UNL     1     -34.499  14.043  -3.356  1.00 20.00    -0.078 N 
HETATM    4  C3  UNL     1     -35.260  13.401  -4.490  1.00 20.00     0.269 C 
HETATM    5  C4  UNL     1     -33.009  13.945  -3.576  1.00 20.00     0.269 C 
HETATM    6  H29 UNL     1     -34.701  13.471  -2.517  1.00 20.00     0.278 HD
ENDBRANCH   2   3
ENDBRANCH   1   2
BRANCH   1   7
HETATM    7  C6  UNL     1     -33.796  17.499  -4.118  1.00 20.00     0.077 C 
BRANCH   7   8
HETATM    8  S10 UNL     1     -33.946  16.861  -5.818  1.00 20.00    -0.182 SA
HETATM    9  H30 UNL     1     -35.265  16.634  -5.762  1.00 20.00     0.101 HD
ENDBRANCH   7   8
ENDBRANCH   1   7
BRANCH   1  10
HETATM   10  C7  UNL     1     -33.594  17.084  -1.606  1.00 20.00    -0.016 C 
HETATM   11  C1  UNL     1     -34.723  16.705  -0.637  1.00 20.00     0.010 C 
HETATM   12  C2  UNL     1     -33.538  18.617  -1.696  1.00 20.00     0.010 C 
ENDBRANCH   1  10
TORSDOF 5
ENDMDL
MODEL 3
REMARK VINA RESULT:      -3.5      2.451      3.377
REMARK  5 active torsions:
REMARK  status: ('A' for Active; 'I' for Inactive)
REMARK    1  A    between atoms: C5_5  and  C8_8 
REMARK    2  A    between atoms: C5_5  and  N9_9 
REMARK    3  A    between atoms: C6_6  and  C8_8 
REMARK    4  A    between atoms: C6_6  and  S10_10 
REMARK    5  A    between atoms: C7_7  and  C8_8 
ROOT
HETATM    1  C8  UNL     1     -34.313  16.373  -3.128  1.00 20.00     0.024 C 
ENDROOT
BRANCH   1   2
HETATM    2  C5  UNL     1     -33.225  15.660  -3.961  1.00 20.00     0.239 C 
BRANCH   2   3
HETATM    3  N9  UNL     1     -33.239  16.101  -5.376  1.00 20.00    -0.078 N 
HETATM    4  C3  UNL     1     -34.145  15.258  -6.241  1.00 20.00     0.269 C 
HETATM    5  C4  UNL     1     -33.558  17.570  -5.524  1.00 20.00     0.269 C 
HETATM    6  H29 UNL     1     -32.285  15.977  -5.757  1.00 20.00     0.278 HD
ENDBRANCH   2   3
ENDBRANCH   1   2
BRANCH   1   7
HETATM    7  C6  UNL     1     -35.543  15.476  -2.833  1.00 20.00     0.077 C 
BRANCH   7   8
HETATM    8  S10 UNL     1     -37.052  15.914  -3.756  1.00 20.00    -0.182 SA
HETATM    9  H30 UNL     1     -37.518  14.663  -3.856  1.00 20.00     0.101 HD
ENDBRANCH   7   8
ENDBRANCH   1   7
BRANCH   1  10
HETATM   10  C7  UNL     1     -33.761  16.980  -1.792  1.00 20.00    -0.016 C 
HETATM   11  C1  UNL     1     -34.678  16.701  -0.593  1.00 20.00     0.010 C 
HETATM   12  C2  UNL     1     -33.548  18.499  -1.886  1.00 20.00     0.010 C 
ENDBRANCH   1  10
TORSDOF 5
ENDMDL
MODEL 4
REMARK VINA RESULT:      -3.4      1.927      3.361
REMARK  5 active torsions:
REMARK  status: ('A' for Active; 'I' for Inactive)
REMARK    1  A    between atoms: C5_5  and  C8_8 
REMARK    2  A    between atoms: C5_5  and  N9_9 
REMARK    3  A    between atoms: C6_6  and  C8_8 
REMARK    4  A    between atoms: C6_6  and  S10_10 
REMARK    5  A    between atoms: C7_7  and  C8_8 
ROOT
HETATM    1  C8  UNL     1     -35.577  14.960  -3.284  1.00 20.00     0.024 C 
ENDROOT
BRANCH   1   2
HETATM    2  C5  UNL     1     -35.196  16.415  -2.936  1.00 20.00     0.239 C 
BRANCH   2   3
HETATM    3  N9  UNL     1     -35.703  16.813  -1.602  1.00 20.00    -0.078 N 
HETATM    4  C3  UNL     1     -34.615  16.870  -0.557  1.00 20.00     0.269 C 
HETATM    5  C4  UNL     1     -36.489  18.102  -1.639  1.00 20.00     0.269 C 
HETATM    6  H29 UNL     1     -36.366  16.085  -1.283  1.00 20.00     0.278 HD
ENDBRANCH   2   3
ENDBRANCH   1   2
BRANCH   1   7
HETATM    7  C6  UNL     1     -36.581  14.854  -4.460  1.00 20.00     0.077 C 
BRANCH   7   8
HETATM    8  S10 UNL     1     -38.337  14.911  -3.978  1.00 20.00    -0.182 SA
HETATM    9  H30 UNL     1     -38.372  13.684  -3.443  1.00 20.00     0.101 HD
ENDBRANCH   7   8
ENDBRANCH   1   7
BRANCH   1  10
HETATM   10  C7  UNL     1     -34.330  14.051  -3.561  1.00 20.00    -0.016 C 
HETATM   11  C1  UNL     1     -33.025  14.853  -3.666  1.00 20.00     0.010 C 
HETATM   12  C2  UNL     1     -34.486  13.225  -4.848  1.00 20.00     0.010 C 
ENDBRANCH   1  10
TORSDOF 5
ENDMDL
MODEL 5
REMARK VINA RESULT:      -3.4      2.307      3.572
REMARK  5 active torsions:
REMARK  status: ('A' for Active; 'I' for Inactive)
REMARK    1  A    between atoms: C5_5  and  C8_8 
REMARK    2  A    between atoms: C5_5  and  N9_9 
REMARK    3  A    between atoms: C6_6  and  C8_8 
REMARK    4  A    between atoms: C6_6  and  S10_10 
REMARK    5  A    between atoms: C7_7  and  C8_8 
ROOT
HETATM    1  C8  UNL     1     -34.383  15.932  -3.327  1.00 20.00     0.024 C 
ENDROOT
BRANCH   1   2
HETATM    2  C5  UNL     1     -34.042  16.503  -1.934  1.00 20.00     0.239 C 
BRANCH   2   3
HETATM    3  N9  UNL     1     -35.263  16.824  -1.158  1.00 20.00    -0.078 N 
HETATM    4  C3  UNL     1     -34.956  17.319   0.235  1.00 20.00     0.269 C 
HETATM    5  C4  UNL     1     -36.180  17.779  -1.884  1.00 20.00     0.269 C 
HETATM    6  H29 UNL     1     -35.802  15.949  -1.036  1.00 20.00     0.278 HD
ENDBRANCH   2   3
ENDBRANCH   1   2
BRANCH   1   7
HETATM    7  C6  UNL     1     -33.397  16.387  -4.434  1.00 20.00     0.077 C 
BRANCH   7   8
HETATM    8  S10 UNL     1     -33.667  18.078  -5.056  1.00 20.00    -0.182 SA
HETATM    9  H30 UNL     1     -32.778  18.665  -4.245  1.00 20.00     0.101 HD
ENDBRANCH   7   8
ENDBRANCH   1   7
BRANCH   1  10
HETATM   10  C7  UNL     1     -34.509  14.369  -3.334  1.00 20.00    -0.016 C 
HETATM   11  C1  UNL     1     -33.209  13.673  -3.761  1.00 20.00     0.010 C 
HETATM   12  C2  UNL     1     -35.638  13.879  -4.255  1.00 20.00     0.010 C 
ENDBRANCH   1  10
TORSDOF 5
ENDMDL
MODEL 6
REMARK VINA RESULT:      -3.4      2.468      3.860
REMARK  5 active torsions:
REMARK  status: ('A' for Active; 'I' for Inactive)
REMARK    1  A    between atoms: C5_5  and  C8_8 
REMARK    2  A    between atoms: C5_5  and  N9_9 
REMARK    3  A    between atoms: C6_6  and  C8_8 
REMARK    4  A    between atoms: C6_6  and  S10_10 
REMARK    5  A    between atoms: C7_7  and  C8_8 
ROOT
HETATM    1  C8  UNL     1     -34.284  15.700  -4.415  1.00 20.00     0.024 C 
ENDROOT
BRANCH   1   2
HETATM    2  C5  UNL     1     -33.979  15.531  -2.911  1.00 20.00     0.239 C 
BRANCH   2   3
HETATM    3  N9  UNL     1     -35.125  15.947  -2.067  1.00 20.00    -0.078 N 
HETATM    4  C3  UNL     1     -34.700  16.747  -0.860  1.00 20.00     0.269 C 
HETATM    5  C4  UNL     1     -36.192  16.672  -2.852  1.00 20.00     0.269 C 
HETATM    6  H29 UNL     1     -35.575  15.091  -1.698  1.00 20.00     0.278 HD
ENDBRANCH   2   3
ENDBRANCH   1   2
BRANCH   1   7
HETATM    7  C6  UNL     1     -33.283  16.635  -5.142  1.00 20.00     0.077 C 
BRANCH   7   8
HETATM    8  S10 UNL     1     -33.649  18.414  -4.998  1.00 20.00    -0.182 SA
HETATM    9  H30 UNL     1     -33.042  18.770  -6.137  1.00 20.00     0.101 HD
ENDBRANCH   7   8
ENDBRANCH   1   7
BRANCH   1  10
HETATM   10  C7  UNL     1     -34.389  14.333  -5.176  1.00 20.00    -0.016 C 
HETATM   11  C1  UNL     1     -35.128  14.459  -6.516  1.00 20.00     0.010 C 
HETATM   12  C2  UNL     1     -35.096  13.254  -4.341  1.00 20.00     0.010 C 
ENDBRANCH   1  10
TORSDOF 5
ENDMDL
MODEL 7
REMARK VINA RESULT:      -3.4      2.637      4.045
REMARK  5 active torsions:
REMARK  status: ('A' for Active; 'I' for Inactive)
REMARK    1  A    between atoms: C5_5  and  C8_8 
REMARK    2  A    between atoms: C5_5  and  N9_9 
REMARK    3  A    between atoms: C6_6  and  C8_8 
REMARK    4  A    between atoms: C6_6  and  S10_10 
REMARK    5  A    between atoms: C7_7  and  C8_8 
ROOT
HETATM    1  C8  UNL     1     -34.235  15.172  -3.139  1.00 20.00     0.024 C 
ENDROOT
BRANCH   1   2
HETATM    2  C5  UNL     1     -33.396  15.892  -4.217  1.00 20.00     0.239 C 
BRANCH   2   3
HETATM    3  N9  UNL     1     -34.159  16.981  -4.872  1.00 20.00    -0.078 N 
HETATM    4  C3  UNL     1     -33.501  18.330  -4.716  1.00 20.00     0.269 C 
HETATM    5  C4  UNL     1     -34.462  16.688  -6.322  1.00 20.00     0.269 C 
HETATM    6  H29 UNL     1     -35.077  17.055  -4.399  1.00 20.00     0.278 HD
ENDBRANCH   2   3
ENDBRANCH   1   2
BRANCH   1   7
HETATM    7  C6  UNL     1     -35.195  16.121  -2.376  1.00 20.00     0.077 C 
BRANCH   7   8
HETATM    8  S10 UNL     1     -34.490  16.887  -0.881  1.00 20.00    -0.182 SA
HETATM    9  H30 UNL     1     -35.610  16.816  -0.150  1.00 20.00     0.101 HD
ENDBRANCH   7   8
ENDBRANCH   1   7
BRANCH   1  10
HETATM   10  C7  UNL     1     -35.033  13.945  -3.702  1.00 20.00    -0.016 C 
HETATM   11  C1  UNL     1     -34.333  13.285  -4.899  1.00 20.00     0.010 C 
HETATM   12  C2  UNL     1     -36.458  14.324  -4.133  1.00 20.00     0.010 C 
ENDBRANCH   1  10
TORSDOF 5
ENDMDL
MODEL 8
REMARK VINA RESULT:      -3.3      2.820      3.648
REMARK  5 active torsions:
REMARK  status: ('A' for Active; 'I' for Inactive)
REMARK    1  A    between atoms: C5_5  and  C8_8 
REMARK    2  A    between atoms: C5_5  and  N9_9 
REMARK    3  A    between atoms: C6_6  and  C8_8 
REMARK    4  A    between atoms: C6_6  and  S10_10 
REMARK    5  A    between atoms: C7_7  and  C8_8 
ROOT
HETATM    1  C8  UNL     1     -35.231  14.911  -4.429  1.00 20.00     0.024 C 
ENDROOT
BRANCH   1   2
HETATM    2  C5  UNL     1     -34.735  14.043  -5.606  1.00 20.00     0.239 C 
BRANCH   2   3
HETATM    3  N9  UNL     1     -34.545  14.845  -6.839  1.00 20.00    -0.078 N 
HETATM    4  C3  UNL     1     -35.547  14.506  -7.915  1.00 20.00     0.269 C 
HETATM    5  C4  UNL     1     -34.519  16.330  -6.568  1.00 20.00     0.269 C 
HETATM    6  H29 UNL     1     -33.616  14.610  -7.230  1.00 20.00     0.278 HD
ENDBRANCH   2   3
ENDBRANCH   1   2
BRANCH   1   7
HETATM    7  C6  UNL     1     -36.681  14.579  -3.993  1.00 20.00     0.077 C 
BRANCH   7   8
HETATM    8  S10 UNL     1     -37.984  15.310  -5.035  1.00 20.00    -0.182 SA
HETATM    9  H30 UNL     1     -38.496  14.145  -5.451  1.00 20.00     0.101 HD
ENDBRANCH   7   8
ENDBRANCH   1   7
BRANCH   1  10
HETATM   10  C7  UNL     1     -34.274  14.863  -3.188  1.00 20.00    -0.016 C 
HETATM   11  C1  UNL     1     -34.542  16.000  -2.192  1.00 20.00     0.010 C 
HETATM   12  C2  UNL     1     -32.793  14.922  -3.591  1.00 20.00     0.010 C 
ENDBRANCH   1  10
TORSDOF 5
ENDMDL
MODEL 9
REMARK VINA RESULT:      -3.2      2.350      3.524
REMARK  5 active torsions:
REMARK  status: ('A' for Active; 'I' for Inactive)
REMARK    1  A    between atoms: C5_5  and  C8_8 
REMARK    2  A    between atoms: C5_5  and  N9_9 
REMARK    3  A    between atoms: C6_6  and  C8_8 
REMARK    4  A    between atoms: C6_6  and  S10_10 
REMARK    5  A    between atoms: C7_7  and  C8_8 
ROOT
HETATM    1  C8  UNL     1     -34.647  15.666  -4.603  1.00 20.00     0.024 C 
ENDROOT
BRANCH   1   2
HETATM    2  C5  UNL     1     -35.042  15.233  -3.175  1.00 20.00     0.239 C 
BRANCH   2   3
HETATM    3  N9  UNL     1     -36.404  15.695  -2.817  1.00 20.00    -0.078 N 
HETATM    4  C3  UNL     1     -36.527  17.200  -2.812  1.00 20.00     0.269 C 
HETATM    5  C4  UNL     1     -37.476  15.065  -3.674  1.00 20.00     0.269 C 
HETATM    6  H29 UNL     1     -36.599  15.390  -1.847  1.00 20.00     0.278 HD
ENDBRANCH   2   3
ENDBRANCH   1   2
BRANCH   1   7
HETATM    7  C6  UNL     1     -33.424  16.620  -4.637  1.00 20.00     0.077 C 
BRANCH   7   8
HETATM    8  S10 UNL     1     -33.713  18.210  -5.479  1.00 20.00    -0.182 SA
HETATM    9  H30 UNL     1     -32.851  17.993  -6.479  1.00 20.00     0.101 HD
ENDBRANCH   7   8
ENDBRANCH   1   7
BRANCH   1  10
HETATM   10  C7  UNL     1     -34.405  14.453  -5.566  1.00 20.00    -0.016 C 
HETATM   11  C1  UNL     1     -35.327  14.481  -6.793  1.00 20.00     0.010 C 
HETATM   12  C2  UNL     1     -34.593  13.101  -4.859  1.00 20.00     0.010 C 
ENDBRANCH   1  10
TORSDOF 5
ENDMDL
