MODEL 1
REMARK VINA RESULT:      -3.4      0.000      0.000
REMARK  5 active torsions:
REMARK  status: ('A' for Active; 'I' for Inactive)
REMARK    1  A    between atoms: C5_5  and  C7_7 
REMARK    2  A    between atoms: C5_5  and  S9_9 
REMARK    3  A    between atoms: C6_6  and  C7_7 
REMARK    4  A    between atoms: C6_6  and  S10_10 
REMARK    5  A    between atoms: C7_7  and  C8_8 
ROOT
HETATM    1  C7  UNL     1     -34.234  16.029  -4.172  1.00 20.00     0.011 C 
ENDROOT
BRANCH   1   2
HETATM    2  C5  UNL     1     -33.342  16.755  -5.214  1.00 20.00     0.077 C 
BRANCH   2   3
HETATM    3  S9  UNL     1     -33.718  18.529  -5.410  1.00 20.00    -0.182 SA
HETATM    4  H28 UNL     1     -32.726  18.965  -4.624  1.00 20.00     0.101 HD
ENDBRANCH   2   3
ENDBRANCH   1   2
BRANCH   1   5
HETATM    5  C6  UNL     1     -33.618  15.972  -2.746  1.00 20.00     0.079 C 
BRANCH   5   6
HETATM    6  S10 UNL     1     -34.637  16.588  -1.373  1.00 20.00    -0.173 SA
HETATM    7  C4  UNL     1     -33.517  17.874  -0.774  1.00 20.00     0.089 C 
ENDBRANCH   5   6
ENDBRANCH   1   5
BRANCH   1   8
HETATM    8  C8  UNL     1     -34.780  14.631  -4.694  1.00 20.00    -0.046 C 
HETATM    9  C1  UNL     1     -36.204  14.353  -4.167  1.00 20.00     0.015 C 
HETATM   10  C2  UNL     1     -34.805  14.510  -6.230  1.00 20.00     0.015 C 
HETATM   11  C3  UNL     1     -33.878  13.491  -4.156  1.00 20.00     0.015 C 
ENDBRANCH   1   8
TORSDOF 5
ENDMDL
MODEL 2
REMARK VINA RESULT:      -3.4      1.798      2.533
REMARK  5 active torsions:
REMARK  status: ('A' for Active; 'I' for Inactive)
REMARK    1  A    between atoms: C5_5  and  C7_7 
REMARK    2  A    between atoms: C5_5  and  S9_9 
REMARK    3  A    between atoms: C6_6  and  C7_7 
REMARK    4  A    between atoms: C6_6  and  S10_10 
REMARK    5  A    between atoms: C7_7  and  C8_8 
ROOT
HETATM    1  C7  UNL     1     -35.306  15.154  -3.235  1.00 20.00     0.011 C 
ENDROOT
BRANCH   1   2
HETATM    2  C5  UNL     1     -36.692  14.745  -3.800  1.00 20.00     0.077 C 
BRANCH   2   3
HETATM    3  S9  UNL     1     -37.930  16.084  -3.778  1.00 20.00    -0.182 SA
HETATM    4  H28 UNL     1     -37.706  16.495  -5.032  1.00 20.00     0.101 HD
ENDBRANCH   2   3
ENDBRANCH   1   2
BRANCH   1   5
HETATM    5  C6  UNL     1     -35.275  16.575  -2.607  1.00 20.00     0.079 C 
BRANCH   5   6
HETATM    6  S10 UNL     1     -34.626  16.727  -0.916  1.00 20.00    -0.173 SA
HETATM    7  C4  UNL     1     -33.524  18.132  -1.184  1.00 20.00     0.089 C 
ENDBRANCH   5   6
ENDBRANCH   1   5
BRANCH   1   8
HETATM    8  C8  UNL     1     -34.117  14.873  -4.251  1.00 20.00    -0.046 C 
HETATM    9  C1  UNL     1     -34.652  14.440  -5.633  1.00 20.00     0.015 C 
HETATM   10  C2  UNL     1     -33.178  16.076  -4.455  1.00 20.00     0.015 C 
HETATM   11  C3  UNL     1     -33.254  13.698  -3.723  1.00 20.00     0.015 C 
ENDBRANCH   1   8
TORSDOF 5
ENDMDL
MODEL 3
REMARK VINA RESULT:      -3.4      2.319      4.577
REMARK  5 active torsions:
REMARK  status: ('A' for Active; 'I' for Inactive)
REMARK    1  A    between atoms: C5_5  and  C7_7 
REMARK    2  A    between atoms: C5_5  and  S9_9 
REMARK    3  A    between atoms: C6_6  and  C7_7 
REMARK    4  A    between atoms: C6_6  and  S10_10 
REMARK    5  A    between atoms: C7_7  and  C8_8 
ROOT
HETATM    1  C7  UNL     1     -35.396  14.880  -4.809  1.00 20.00     0.011 C 
ENDROOT
BRANCH   1   2
HETATM    2  C5  UNL     1     -36.634  14.399  -4.007  1.00 20.00     0.077 C 
BRANCH   2   3
HETATM    3  S9  UNL     1     -38.033  15.569  -4.023  1.00 20.00    -0.182 SA
HETATM    4  H28 UNL     1     -37.414  16.527  -3.322  1.00 20.00     0.101 HD
ENDBRANCH   2   3
ENDBRANCH   1   2
BRANCH   1   5
HETATM    5  C6  UNL     1     -35.079  14.013  -6.060  1.00 20.00     0.079 C 
BRANCH   5   6
HETATM    6  S10 UNL     1     -35.219  14.812  -7.686  1.00 20.00    -0.173 SA
HETATM    7  C4  UNL     1     -37.014  15.008  -7.726  1.00 20.00     0.089 C 
ENDBRANCH   5   6
ENDBRANCH   1   5
BRANCH   1   8
HETATM    8  C8  UNL     1     -34.135  15.164  -3.886  1.00 20.00    -0.046 C 
HETATM    9  C1  UNL     1     -33.177  16.182  -4.542  1.00 20.00     0.015 C 
HETATM   10  C2  UNL     1     -34.498  15.685  -2.482  1.00 20.00     0.015 C 
HETATM   11  C3  UNL     1     -33.327  13.855  -3.697  1.00 20.00     0.015 C 
ENDBRANCH   1   8
TORSDOF 5
ENDMDL
MODEL 4
REMARK VINA RESULT:      -3.3      2.038      2.637
REMARK  5 active torsions:
REMARK  status: ('A' for Active; 'I' for Inactive)
REMARK    1  A    between atoms: C5_5  and  C7_7 
REMARK    2  A    between atoms: C5_5  and  S9_9 
REMARK    3  A    between atoms: C6_6  and  C7_7 
REMARK    4  A    between atoms: C6_6  and  S10_10 
REMARK    5  A    between atoms: C7_7  and  C8_8 
ROOT
HETATM    1  C7  UNL     1     -34.918  15.572  -2.964  1.00 20.00     0.011 C 
ENDROOT
BRANCH   1   2
HETATM    2  C5  UNL     1     -36.135  16.308  -3.585  1.00 20.00     0.077 C 
BRANCH   2   3
HETATM    3  S9  UNL     1     -37.654  15.301  -3.664  1.00 20.00    -0.182 SA
HETATM    4  H28 UNL     1     -37.043  14.123  -3.490  1.00 20.00     0.101 HD
ENDBRANCH   2   3
ENDBRANCH   1   2
BRANCH   1   5
HETATM    5  C6  UNL     1     -34.030  16.474  -2.062  1.00 20.00     0.079 C 
BRANCH   5   6
HETATM    6  S10 UNL     1     -34.731  17.014  -0.475  1.00 20.00    -0.173 SA
HETATM    7  C4  UNL     1     -33.505  18.275  -0.063  1.00 20.00     0.089 C 
ENDBRANCH   5   6
ENDBRANCH   1   5
BRANCH   1   8
HETATM    8  C8  UNL     1     -34.101  14.723  -4.029  1.00 20.00    -0.046 C 
HETATM    9  C1  UNL     1     -32.604  14.649  -3.658  1.00 20.00     0.015 C 
HETATM   10  C2  UNL     1     -34.622  13.284  -4.207  1.00 20.00     0.015 C 
HETATM   11  C3  UNL     1     -34.180  15.417  -5.413  1.00 20.00     0.015 C 
ENDBRANCH   1   8
TORSDOF 5
ENDMDL
MODEL 5
REMARK VINA RESULT:      -3.3      1.994      3.661
REMARK  5 active torsions:
REMARK  status: ('A' for Active; 'I' for Inactive)
REMARK    1  A    between atoms: C5_5  and  C7_7 
REMARK    2  A    between atoms: C5_5  and  S9_9 
REMARK    3  A    between atoms: C6_6  and  C7_7 
REMARK    4  A    between atoms: C6_6  and  S10_10 
REMARK    5  A    between atoms: C7_7  and  C8_8 
ROOT
HETATM    1  C7  UNL     1     -34.403  15.548  -5.272  1.00 20.00     0.011 C 
ENDROOT
BRANCH   1   2
HETATM    2  C5  UNL     1     -33.264  16.601  -5.327  1.00 20.00     0.077 C 
BRANCH   2   3
HETATM    3  S9  UNL     1     -33.817  18.314  -5.029  1.00 20.00    -0.182 SA
HETATM    4  H28 UNL     1     -35.078  18.119  -5.433  1.00 20.00     0.101 HD
ENDBRANCH   2   3
ENDBRANCH   1   2
BRANCH   1   5
HETATM    5  C6  UNL     1     -35.820  16.139  -5.518  1.00 20.00     0.079 C 
BRANCH   5   6
HETATM    6  S10 UNL     1     -36.695  15.609  -7.019  1.00 20.00    -0.173 SA
HETATM    7  C4  UNL     1     -35.419  14.525  -7.697  1.00 20.00     0.089 C 
ENDBRANCH   5   6
ENDBRANCH   1   5
BRANCH   1   8
HETATM    8  C8  UNL     1     -34.310  14.604  -3.998  1.00 20.00    -0.046 C 
HETATM    9  C1  UNL     1     -35.134  13.313  -4.195  1.00 20.00     0.015 C 
HETATM   10  C2  UNL     1     -32.870  14.202  -3.627  1.00 20.00     0.015 C 
HETATM   11  C3  UNL     1     -34.916  15.332  -2.771  1.00 20.00     0.015 C 
ENDBRANCH   1   8
TORSDOF 5
ENDMDL
MODEL 6
REMARK VINA RESULT:      -3.3      1.846      3.803
REMARK  5 active torsions:
REMARK  status: ('A' for Active; 'I' for Inactive)
REMARK    1  A    between atoms: C5_5  and  C7_7 
REMARK    2  A    between atoms: C5_5  and  S9_9 
REMARK    3  A    between atoms: C6_6  and  C7_7 
REMARK    4  A    between atoms: C6_6  and  S10_10 
REMARK    5  A    between atoms: C7_7  and  C8_8 
ROOT
HETATM    1  C7  UNL     1     -34.531  15.746  -5.167  1.00 20.00     0.011 C 
ENDROOT
BRANCH   1   2
HETATM    2  C5  UNL     1     -33.287  16.666  -5.041  1.00 20.00     0.077 C 
BRANCH   2   3
HETATM    3  S9  UNL     1     -33.649  18.441  -5.249  1.00 20.00    -0.182 SA
HETATM    4  H28 UNL     1     -34.958  18.343  -4.990  1.00 20.00     0.101 HD
ENDBRANCH   2   3
ENDBRANCH   1   2
BRANCH   1   5
HETATM    5  C6  UNL     1     -35.789  16.462  -5.732  1.00 20.00     0.079 C 
BRANCH   5   6
HETATM    6  S10 UNL     1     -36.301  16.039  -7.424  1.00 20.00    -0.173 SA
HETATM    7  C4  UNL     1     -35.419  14.470  -7.578  1.00 20.00     0.089 C 
ENDBRANCH   5   6
ENDBRANCH   1   5
BRANCH   1   8
HETATM    8  C8  UNL     1     -34.808  14.898  -3.853  1.00 20.00    -0.046 C 
HETATM    9  C1  UNL     1     -33.916  13.638  -3.800  1.00 20.00     0.015 C 
HETATM   10  C2  UNL     1     -34.599  15.689  -2.548  1.00 20.00     0.015 C 
HETATM   11  C3  UNL     1     -36.276  14.399  -3.860  1.00 20.00     0.015 C 
ENDBRANCH   1   8
TORSDOF 5
ENDMDL
MODEL 7
REMARK VINA RESULT:      -3.3      1.870      3.139
REMARK  5 active torsions:
REMARK  status: ('A' for Active; 'I' for Inactive)
REMARK    1  A    between atoms: C5_5  and  C7_7 
REMARK    2  A    between atoms: C5_5  and  S9_9 
REMARK    3  A    between atoms: C6_6  and  C7_7 
REMARK    4  A    between atoms: C6_6  and  S10_10 
REMARK    5  A    between atoms: C7_7  and  C8_8 
ROOT
HETATM    1  C7  UNL     1     -34.581  15.684  -5.279  1.00 20.00     0.011 C 
ENDROOT
BRANCH   1   2
HETATM    2  C5  UNL     1     -34.449  14.767  -6.524  1.00 20.00     0.077 C 
BRANCH   2   3
HETATM    3  S9  UNL     1     -35.903  14.790  -7.625  1.00 20.00    -0.182 SA
HETATM    4  H28 UNL     1     -35.243  15.214  -8.710  1.00 20.00     0.101 HD
ENDBRANCH   2   3
ENDBRANCH   1   2
BRANCH   1   5
HETATM    5  C6  UNL     1     -33.359  16.618  -5.053  1.00 20.00     0.079 C 
BRANCH   5   6
HETATM    6  S10 UNL     1     -33.642  18.409  -5.184  1.00 20.00    -0.173 SA
HETATM    7  C4  UNL     1     -35.438  18.375  -5.383  1.00 20.00     0.089 C 
ENDBRANCH   5   6
ENDBRANCH   1   5
BRANCH   1   8
HETATM    8  C8  UNL     1     -35.040  14.898  -3.978  1.00 20.00    -0.046 C 
HETATM    9  C1  UNL     1     -34.456  15.537  -2.700  1.00 20.00     0.015 C 
HETATM   10  C2  UNL     1     -36.570  14.810  -3.814  1.00 20.00     0.015 C 
HETATM   11  C3  UNL     1     -34.499  13.446  -4.034  1.00 20.00     0.015 C 
ENDBRANCH   1   8
TORSDOF 5
ENDMDL
MODEL 8
REMARK VINA RESULT:      -3.3      2.488      3.751
REMARK  5 active torsions:
REMARK  status: ('A' for Active; 'I' for Inactive)
REMARK    1  A    between atoms: C5_5  and  C7_7 
REMARK    2  A    between atoms: C5_5  and  S9_9 
REMARK    3  A    between atoms: C6_6  and  C7_7 
REMARK    4  A    between atoms: C6_6  and  S10_10 
REMARK    5  A    between atoms: C7_7  and  C8_8 
ROOT
HETATM    1  C7  UNL     1     -35.406  14.896  -4.880  1.00 20.00     0.011 C 
ENDROOT
BRANCH   1   2
HETATM    2  C5  UNL     1     -35.097  13.980  -6.095  1.00 20.00     0.077 C 
BRANCH   2   3
HETATM    3  S9  UNL     1     -35.223  14.817  -7.711  1.00 20.00    -0.182 SA
HETATM    4  H28 UNL     1     -33.938  14.650  -8.048  1.00 20.00     0.101 HD
ENDBRANCH   2   3
ENDBRANCH   1   2
BRANCH   1   5
HETATM    5  C6  UNL     1     -36.166  16.200  -5.252  1.00 20.00     0.079 C 
BRANCH   5   6
HETATM    6  S10 UNL     1     -37.978  16.179  -5.112  1.00 20.00    -0.173 SA
HETATM    7  C4  UNL     1     -38.132  14.822  -3.929  1.00 20.00     0.089 C 
ENDBRANCH   5   6
ENDBRANCH   1   5
BRANCH   1   8
HETATM    8  C8  UNL     1     -34.144  15.130  -3.945  1.00 20.00    -0.046 C 
HETATM    9  C1  UNL     1     -33.368  13.815  -3.711  1.00 20.00     0.015 C 
HETATM   10  C2  UNL     1     -33.155  16.179  -4.488  1.00 20.00     0.015 C 
HETATM   11  C3  UNL     1     -34.617  15.618  -2.552  1.00 20.00     0.015 C 
ENDBRANCH   1   8
TORSDOF 5
ENDMDL
MODEL 9
REMARK VINA RESULT:      -3.3      1.949      3.109
REMARK  5 active torsions:
REMARK  status: ('A' for Active; 'I' for Inactive)
REMARK    1  A    between atoms: C5_5  and  C7_7 
REMARK    2  A    between atoms: C5_5  and  S9_9 
REMARK    3  A    between atoms: C6_6  and  C7_7 
REMARK    4  A    between atoms: C6_6  and  S10_10 
REMARK    5  A    between atoms: C7_7  and  C8_8 
ROOT
HETATM    1  C7  UNL     1     -34.617  15.874  -5.012  1.00 20.00     0.011 C 
ENDROOT
BRANCH   1   2
HETATM    2  C5  UNL     1     -33.525  16.880  -5.463  1.00 20.00     0.077 C 
BRANCH   2   3
HETATM    3  S9  UNL     1     -33.747  18.567  -4.806  1.00 20.00    -0.182 SA
HETATM    4  H28 UNL     1     -34.299  18.187  -3.647  1.00 20.00     0.101 HD
ENDBRANCH   2   3
ENDBRANCH   1   2
BRANCH   1   5
HETATM    5  C6  UNL     1     -36.032  16.501  -4.871  1.00 20.00     0.079 C 
BRANCH   5   6
HETATM    6  S10 UNL     1     -37.436  15.546  -5.521  1.00 20.00    -0.173 SA
HETATM    7  C4  UNL     1     -38.079  14.927  -3.951  1.00 20.00     0.089 C 
ENDBRANCH   5   6
ENDBRANCH   1   5
BRANCH   1   8
HETATM    8  C8  UNL     1     -34.172  15.000  -3.762  1.00 20.00    -0.046 C 
HETATM    9  C1  UNL     1     -34.706  15.597  -2.442  1.00 20.00     0.015 C 
HETATM   10  C2  UNL     1     -34.624  13.529  -3.841  1.00 20.00     0.015 C 
HETATM   11  C3  UNL     1     -32.626  15.002  -3.654  1.00 20.00     0.015 C 
ENDBRANCH   1   8
TORSDOF 5
ENDMDL
