MODEL 1
REMARK VINA RESULT:      -3.2      0.000      0.000
REMARK  6 active torsions:
REMARK  status: ('A' for Active; 'I' for Inactive)
REMARK    1  A    between atoms: C3_3  and  C5_5 
REMARK    2  A    between atoms: C3_3  and  C7_7 
REMARK    3  A    between atoms: C4_4  and  C6_6 
REMARK    4  A    between atoms: C4_4  and  C7_7 
REMARK    5  A    between atoms: C5_5  and  S8_8 
REMARK    6  A    between atoms: C6_6  and  S9_9 
ROOT
HETATM    1  C1  UNL     1     -32.800  14.011  -3.608  1.00 20.00     0.010 C 
HETATM    2  C7  UNL     1     -34.326  13.880  -3.570  1.00 20.00    -0.017 C 
ENDROOT
BRANCH   2   3
HETATM    3  C3  UNL     1     -34.882  13.369  -4.918  1.00 20.00     0.014 C 
BRANCH   3   4
HETATM    4  C5  UNL     1     -35.599  14.424  -5.760  1.00 20.00     0.071 C 
BRANCH   4   5
HETATM    5  S8  UNL     1     -34.484  15.084  -7.036  1.00 20.00    -0.182 SA
HETATM    6  H25 UNL     1     -35.249  14.738  -8.081  1.00 20.00     0.101 HD
ENDBRANCH   4   5
ENDBRANCH   3   4
ENDBRANCH   2   3
BRANCH   2   7
HETATM    7  C4  UNL     1     -35.009  15.193  -3.132  1.00 20.00     0.014 C 
BRANCH   7   8
HETATM    8  C6  UNL     1     -34.028  16.199  -2.530  1.00 20.00     0.073 C 
BRANCH   8   9
HETATM    9  S9  UNL     1     -34.599  16.749  -0.895  1.00 20.00    -0.173 SA
HETATM   10  C2  UNL     1     -33.377  18.050  -0.616  1.00 20.00     0.089 C 
ENDBRANCH   8   9
ENDBRANCH   7   8
ENDBRANCH   2   7
TORSDOF 6
ENDMDL
MODEL 2
REMARK VINA RESULT:      -3.2      2.054      3.890
REMARK  6 active torsions:
REMARK  status: ('A' for Active; 'I' for Inactive)
REMARK    1  A    between atoms: C3_3  and  C5_5 
REMARK    2  A    between atoms: C3_3  and  C7_7 
REMARK    3  A    between atoms: C4_4  and  C6_6 
REMARK    4  A    between atoms: C4_4  and  C7_7 
REMARK    5  A    between atoms: C5_5  and  S8_8 
REMARK    6  A    between atoms: C6_6  and  S9_9 
ROOT
HETATM    1  C1  UNL     1     -34.663  16.261  -1.507  1.00 20.00     0.010 C 
HETATM    2  C7  UNL     1     -34.616  15.988  -3.014  1.00 20.00    -0.017 C 
ENDROOT
BRANCH   2   3
HETATM    3  C3  UNL     1     -34.233  14.520  -3.310  1.00 20.00     0.014 C 
BRANCH   3   4
HETATM    4  C5  UNL     1     -35.322  13.697  -3.997  1.00 20.00     0.071 C 
BRANCH   4   5
HETATM    5  S8  UNL     1     -36.869  14.649  -4.098  1.00 20.00    -0.182 SA
HETATM    6  H25 UNL     1     -36.296  15.855  -3.984  1.00 20.00     0.101 HD
ENDBRANCH   4   5
ENDBRANCH   3   4
ENDBRANCH   2   3
BRANCH   2   7
HETATM    7  C4  UNL     1     -33.693  16.979  -3.755  1.00 20.00     0.014 C 
BRANCH   7   8
HETATM    8  C6  UNL     1     -33.210  16.443  -5.102  1.00 20.00     0.073 C 
BRANCH   8   9
HETATM    9  S9  UNL     1     -34.428  16.794  -6.404  1.00 20.00    -0.173 SA
HETATM   10  C2  UNL     1     -34.430  15.173  -7.204  1.00 20.00     0.089 C 
ENDBRANCH   8   9
ENDBRANCH   7   8
ENDBRANCH   2   7
TORSDOF 6
ENDMDL
MODEL 3
REMARK VINA RESULT:      -3.2      1.639      4.824
REMARK  6 active torsions:
REMARK  status: ('A' for Active; 'I' for Inactive)
REMARK    1  A    between atoms: C3_3  and  C5_5 
REMARK    2  A    between atoms: C3_3  and  C7_7 
REMARK    3  A    between atoms: C4_4  and  C6_6 
REMARK    4  A    between atoms: C4_4  and  C7_7 
REMARK    5  A    between atoms: C5_5  and  S8_8 
REMARK    6  A    between atoms: C6_6  and  S9_9 
ROOT
HETATM    1  C1  UNL     1     -33.640  17.409  -4.504  1.00 20.00     0.010 C 
HETATM    2  C7  UNL     1     -33.828  16.317  -3.445  1.00 20.00    -0.017 C 
ENDROOT
BRANCH   2   3
HETATM    3  C3  UNL     1     -33.673  16.884  -2.016  1.00 20.00     0.014 C 
BRANCH   3   4
HETATM    4  C5  UNL     1     -34.768  16.462  -1.035  1.00 20.00     0.071 C 
BRANCH   4   5
HETATM    5  S8  UNL     1     -34.845  17.619   0.366  1.00 20.00    -0.182 SA
HETATM    6  H25 UNL     1     -34.428  18.693  -0.318  1.00 20.00     0.101 HD
ENDBRANCH   4   5
ENDBRANCH   3   4
ENDBRANCH   2   3
BRANCH   2   7
HETATM    7  C4  UNL     1     -32.895  15.111  -3.684  1.00 20.00     0.014 C 
BRANCH   7   8
HETATM    8  C6  UNL     1     -33.652  13.786  -3.769  1.00 20.00     0.073 C 
BRANCH   8   9
HETATM    9  S9  UNL     1     -35.378  14.065  -4.263  1.00 20.00    -0.173 SA
HETATM   10  C2  UNL     1     -35.130  14.130  -6.052  1.00 20.00     0.089 C 
ENDBRANCH   8   9
ENDBRANCH   7   8
ENDBRANCH   2   7
TORSDOF 6
ENDMDL
MODEL 4
REMARK VINA RESULT:      -3.2     10.823     11.984
REMARK  6 active torsions:
REMARK  status: ('A' for Active; 'I' for Inactive)
REMARK    1  A    between atoms: C3_3  and  C5_5 
REMARK    2  A    between atoms: C3_3  and  C7_7 
REMARK    3  A    between atoms: C4_4  and  C6_6 
REMARK    4  A    between atoms: C4_4  and  C7_7 
REMARK    5  A    between atoms: C5_5  and  S8_8 
REMARK    6  A    between atoms: C6_6  and  S9_9 
ROOT
HETATM    1  C1  UNL     1     -34.983   5.796   3.127  1.00 20.00     0.010 C 
HETATM    2  C7  UNL     1     -33.661   5.729   3.899  1.00 20.00    -0.017 C 
ENDROOT
BRANCH   2   3
HETATM    3  C3  UNL     1     -33.719   6.574   5.191  1.00 20.00     0.014 C 
BRANCH   3   4
HETATM    4  C5  UNL     1     -34.424   5.900   6.369  1.00 20.00     0.071 C 
BRANCH   4   5
HETATM    5  S8  UNL     1     -34.738   4.147   6.002  1.00 20.00    -0.182 SA
HETATM    6  H25 UNL     1     -33.481   3.733   6.218  1.00 20.00     0.101 HD
ENDBRANCH   4   5
ENDBRANCH   3   4
ENDBRANCH   2   3
BRANCH   2   7
HETATM    7  C4  UNL     1     -32.455   6.117   3.017  1.00 20.00     0.014 C 
BRANCH   7   8
HETATM    8  C6  UNL     1     -32.130   7.609   3.083  1.00 20.00     0.073 C 
BRANCH   8   9
HETATM    9  S9  UNL     1     -31.899   8.287   1.413  1.00 20.00    -0.173 SA
HETATM   10  C2  UNL     1     -32.589   9.932   1.701  1.00 20.00     0.089 C 
ENDBRANCH   8   9
ENDBRANCH   7   8
ENDBRANCH   2   7
TORSDOF 6
ENDMDL
MODEL 5
REMARK VINA RESULT:      -3.2      1.187      4.725
REMARK  6 active torsions:
REMARK  status: ('A' for Active; 'I' for Inactive)
REMARK    1  A    between atoms: C3_3  and  C5_5 
REMARK    2  A    between atoms: C3_3  and  C7_7 
REMARK    3  A    between atoms: C4_4  and  C6_6 
REMARK    4  A    between atoms: C4_4  and  C7_7 
REMARK    5  A    between atoms: C5_5  and  S8_8 
REMARK    6  A    between atoms: C6_6  and  S9_9 
ROOT
HETATM    1  C1  UNL     1     -32.728  15.226  -3.600  1.00 20.00     0.010 C 
HETATM    2  C7  UNL     1     -34.255  15.113  -3.553  1.00 20.00    -0.017 C 
ENDROOT
BRANCH   2   3
HETATM    3  C3  UNL     1     -34.823  15.693  -2.238  1.00 20.00     0.014 C 
BRANCH   3   4
HETATM    4  C5  UNL     1     -33.984  16.807  -1.610  1.00 20.00     0.071 C 
BRANCH   4   5
HETATM    5  S8  UNL     1     -34.739  17.371  -0.055  1.00 20.00    -0.182 SA
HETATM    6  H25 UNL     1     -35.999  17.064  -0.393  1.00 20.00     0.101 HD
ENDBRANCH   4   5
ENDBRANCH   3   4
ENDBRANCH   2   3
BRANCH   2   7
HETATM    7  C4  UNL     1     -34.737  13.667  -3.794  1.00 20.00     0.014 C 
BRANCH   7   8
HETATM    8  C6  UNL     1     -34.901  13.338  -5.278  1.00 20.00     0.073 C 
BRANCH   8   9
HETATM    9  S9  UNL     1     -35.694  14.718  -6.154  1.00 20.00    -0.173 SA
HETATM   10  C2  UNL     1     -34.329  15.145  -7.259  1.00 20.00     0.089 C 
ENDBRANCH   8   9
ENDBRANCH   7   8
ENDBRANCH   2   7
TORSDOF 6
ENDMDL
MODEL 6
REMARK VINA RESULT:      -3.2      2.200      4.136
REMARK  6 active torsions:
REMARK  status: ('A' for Active; 'I' for Inactive)
REMARK    1  A    between atoms: C3_3  and  C5_5 
REMARK    2  A    between atoms: C3_3  and  C7_7 
REMARK    3  A    between atoms: C4_4  and  C6_6 
REMARK    4  A    between atoms: C4_4  and  C7_7 
REMARK    5  A    between atoms: C5_5  and  S8_8 
REMARK    6  A    between atoms: C6_6  and  S9_9 
ROOT
HETATM    1  C1  UNL     1     -34.658  16.696  -0.821  1.00 20.00     0.010 C 
HETATM    2  C7  UNL     1     -34.000  16.358  -2.163  1.00 20.00    -0.017 C 
ENDROOT
BRANCH   2   3
HETATM    3  C3  UNL     1     -33.734  17.632  -2.997  1.00 20.00     0.014 C 
BRANCH   3   4
HETATM    4  C5  UNL     1     -34.653  17.812  -4.206  1.00 20.00     0.071 C 
BRANCH   4   5
HETATM    5  S8  UNL     1     -33.701  18.373  -5.650  1.00 20.00    -0.182 SA
HETATM    6  H25 UNL     1     -32.760  19.023  -4.951  1.00 20.00     0.101 HD
ENDBRANCH   4   5
ENDBRANCH   3   4
ENDBRANCH   2   3
BRANCH   2   7
HETATM    7  C4  UNL     1     -34.811  15.313  -2.959  1.00 20.00     0.014 C 
BRANCH   7   8
HETATM    8  C6  UNL     1     -33.949  14.156  -3.464  1.00 20.00     0.073 C 
BRANCH   8   9
HETATM    9  S9  UNL     1     -34.768  13.304  -4.845  1.00 20.00    -0.173 SA
HETATM   10  C2  UNL     1     -34.598  14.602  -6.090  1.00 20.00     0.089 C 
ENDBRANCH   8   9
ENDBRANCH   7   8
ENDBRANCH   2   7
TORSDOF 6
ENDMDL
MODEL 7
REMARK VINA RESULT:      -3.1      1.945      3.027
REMARK  6 active torsions:
REMARK  status: ('A' for Active; 'I' for Inactive)
REMARK    1  A    between atoms: C3_3  and  C5_5 
REMARK    2  A    between atoms: C3_3  and  C7_7 
REMARK    3  A    between atoms: C4_4  and  C6_6 
REMARK    4  A    between atoms: C4_4  and  C7_7 
REMARK    5  A    between atoms: C5_5  and  S8_8 
REMARK    6  A    between atoms: C6_6  and  S9_9 
ROOT
HETATM    1  C1  UNL     1     -33.854  17.813  -2.849  1.00 20.00     0.010 C 
HETATM    2  C7  UNL     1     -33.953  16.539  -2.004  1.00 20.00    -0.017 C 
ENDROOT
BRANCH   2   3
HETATM    3  C3  UNL     1     -34.689  15.413  -2.764  1.00 20.00     0.014 C 
BRANCH   3   4
HETATM    4  C5  UNL     1     -33.796  14.548  -3.654  1.00 20.00     0.071 C 
BRANCH   4   5
HETATM    5  S8  UNL     1     -34.803  13.380  -4.619  1.00 20.00    -0.182 SA
HETATM    6  H25 UNL     1     -34.212  13.629  -5.796  1.00 20.00     0.101 HD
ENDBRANCH   4   5
ENDBRANCH   3   4
ENDBRANCH   2   3
BRANCH   2   7
HETATM    7  C4  UNL     1     -34.590  16.807  -0.624  1.00 20.00     0.014 C 
BRANCH   7   8
HETATM    8  C6  UNL     1     -34.640  18.294  -0.274  1.00 20.00     0.073 C 
BRANCH   8   9
HETATM    9  S9  UNL     1     -33.533  18.660   1.120  1.00 20.00    -0.173 SA
HETATM   10  C2  UNL     1     -32.055  19.091   0.174  1.00 20.00     0.089 C 
ENDBRANCH   8   9
ENDBRANCH   7   8
ENDBRANCH   2   7
TORSDOF 6
ENDMDL
MODEL 8
REMARK VINA RESULT:      -3.1     10.631     11.582
REMARK  6 active torsions:
REMARK  status: ('A' for Active; 'I' for Inactive)
REMARK    1  A    between atoms: C3_3  and  C5_5 
REMARK    2  A    between atoms: C3_3  and  C7_7 
REMARK    3  A    between atoms: C4_4  and  C6_6 
REMARK    4  A    between atoms: C4_4  and  C7_7 
REMARK    5  A    between atoms: C5_5  and  S8_8 
REMARK    6  A    between atoms: C6_6  and  S9_9 
ROOT
HETATM    1  C1  UNL     1     -32.119   5.187   2.980  1.00 20.00     0.010 C 
HETATM    2  C7  UNL     1     -32.962   6.460   2.861  1.00 20.00    -0.017 C 
ENDROOT
BRANCH   2   3
HETATM    3  C3  UNL     1     -32.077   7.727   2.885  1.00 20.00     0.014 C 
BRANCH   3   4
HETATM    4  C5  UNL     1     -31.777   8.328   1.512  1.00 20.00     0.071 C 
BRANCH   4   5
HETATM    5  S8  UNL     1     -32.561   9.961   1.349  1.00 20.00    -0.182 SA
HETATM    6  H25 UNL     1     -33.366   9.835   2.413  1.00 20.00     0.101 HD
ENDBRANCH   4   5
ENDBRANCH   3   4
ENDBRANCH   2   3
BRANCH   2   7
HETATM    7  C4  UNL     1     -34.074   6.521   3.930  1.00 20.00     0.014 C 
BRANCH   7   8
HETATM    8  C6  UNL     1     -34.993   5.300   3.897  1.00 20.00     0.073 C 
BRANCH   8   9
HETATM    9  S9  UNL     1     -34.955   4.428   5.491  1.00 20.00    -0.173 SA
HETATM   10  C2  UNL     1     -34.402   5.802   6.527  1.00 20.00     0.089 C 
ENDBRANCH   8   9
ENDBRANCH   7   8
ENDBRANCH   2   7
TORSDOF 6
ENDMDL
MODEL 9
REMARK VINA RESULT:      -3.1      1.668      5.174
REMARK  6 active torsions:
REMARK  status: ('A' for Active; 'I' for Inactive)
REMARK    1  A    between atoms: C3_3  and  C5_5 
REMARK    2  A    between atoms: C3_3  and  C7_7 
REMARK    3  A    between atoms: C4_4  and  C6_6 
REMARK    4  A    between atoms: C4_4  and  C7_7 
REMARK    5  A    between atoms: C5_5  and  S8_8 
REMARK    6  A    between atoms: C6_6  and  S9_9 
ROOT
HETATM    1  C1  UNL     1     -36.079  16.494  -2.801  1.00 20.00     0.010 C 
HETATM    2  C7  UNL     1     -34.821  15.880  -2.180  1.00 20.00    -0.017 C 
ENDROOT
BRANCH   2   3
HETATM    3  C3  UNL     1     -34.090  16.892  -1.268  1.00 20.00     0.014 C 
BRANCH   3   4
HETATM    4  C5  UNL     1     -34.811  17.216   0.040  1.00 20.00     0.071 C 
BRANCH   4   5
HETATM    5  S8  UNL     1     -33.947  18.547   0.929  1.00 20.00    -0.182 SA
HETATM    6  H25 UNL     1     -34.758  19.534   0.523  1.00 20.00     0.101 HD
ENDBRANCH   4   5
ENDBRANCH   3   4
ENDBRANCH   2   3
BRANCH   2   7
HETATM    7  C4  UNL     1     -33.876  15.288  -3.247  1.00 20.00     0.014 C 
BRANCH   7   8
HETATM    8  C6  UNL     1     -34.190  13.828  -3.571  1.00 20.00     0.073 C 
BRANCH   8   9
HETATM    9  S9  UNL     1     -34.809  13.668  -5.272  1.00 20.00    -0.173 SA
HETATM   10  C2  UNL     1     -34.296  15.287  -5.889  1.00 20.00     0.089 C 
ENDBRANCH   8   9
ENDBRANCH   7   8
ENDBRANCH   2   7
TORSDOF 6
ENDMDL
