MODEL 1
REMARK VINA RESULT:      -5.1      0.000      0.000
REMARK  1 active torsions:
REMARK  status: ('A' for Active; 'I' for Inactive)
REMARK    1  A    between atoms: C4_4  and  C11_11 
ROOT
HETATM    1  C1  UNL     1     -33.594  17.220  -2.965  1.00 20.00     0.008 A 
HETATM    2  C2  UNL     1     -33.458  17.073  -4.347  1.00 20.00     0.008 A 
HETATM    3  C3  UNL     1     -35.312  15.498  -2.904  1.00 20.00     0.016 A 
HETATM    4  C4  UNL     1     -34.513  16.438  -2.249  1.00 20.00    -0.053 A 
HETATM    5  C5  UNL     1     -34.245  16.132  -4.988  1.00 20.00    -0.050 A 
HETATM    6  C6  UNL     1     -35.168  15.354  -4.274  1.00 20.00    -0.033 A 
HETATM    7  C7  UNL     1     -34.300  15.818  -6.450  1.00 20.00     0.041 C 
HETATM    8  C8  UNL     1     -35.006  14.452  -6.431  1.00 20.00     0.030 C 
HETATM    9  C12 UNL     1     -35.922  14.443  -5.193  1.00 20.00     0.116 C 
HETATM   10 CL13 UNL     1     -37.518  15.127  -5.563  1.00 20.00    -0.120 Cl
ENDROOT
BRANCH   4  11
HETATM   11  C11 UNL     1     -34.640  16.615  -0.774  1.00 20.00     0.018 A 
HETATM   12  C9  UNL     1     -35.447  17.771  -0.243  1.00 20.00     0.010 A 
HETATM   13  C10 UNL     1     -33.956  17.783  -0.114  1.00 20.00     0.010 A 
ENDBRANCH   4  11
TORSDOF 1
ENDMDL
MODEL 2
REMARK VINA RESULT:      -5.1      1.828      5.070
REMARK  1 active torsions:
REMARK  status: ('A' for Active; 'I' for Inactive)
REMARK    1  A    between atoms: C4_4  and  C11_11 
ROOT
HETATM    1  C1  UNL     1     -34.461  14.567  -4.562  1.00 20.00     0.008 A 
HETATM    2  C2  UNL     1     -34.578  14.703  -3.177  1.00 20.00     0.008 A 
HETATM    3  C3  UNL     1     -33.954  16.936  -4.797  1.00 20.00     0.016 A 
HETATM    4  C4  UNL     1     -34.150  15.675  -5.366  1.00 20.00    -0.053 A 
HETATM    5  C5  UNL     1     -34.371  15.953  -2.620  1.00 20.00    -0.050 A 
HETATM    6  C6  UNL     1     -34.066  17.061  -3.422  1.00 20.00    -0.033 A 
HETATM    7  C7  UNL     1     -34.471  16.348  -1.180  1.00 20.00     0.041 C 
HETATM    8  C8  UNL     1     -33.727  17.693  -1.192  1.00 20.00     0.030 C 
HETATM    9  C12 UNL     1     -33.929  18.301  -2.592  1.00 20.00     0.116 C 
HETATM   10 CL13 UNL     1     -35.420  19.263  -2.672  1.00 20.00    -0.120 Cl
ENDROOT
BRANCH   4  11
HETATM   11  C11 UNL     1     -34.032  15.505  -6.843  1.00 20.00     0.018 A 
HETATM   12  C9  UNL     1     -35.082  16.114  -7.735  1.00 20.00     0.010 A 
HETATM   13  C10 UNL     1     -35.024  14.628  -7.560  1.00 20.00     0.010 A 
ENDBRANCH   4  11
TORSDOF 1
ENDMDL
MODEL 3
REMARK VINA RESULT:      -5.0      1.721      2.274
REMARK  1 active torsions:
REMARK  status: ('A' for Active; 'I' for Inactive)
REMARK    1  A    between atoms: C4_4  and  C11_11 
ROOT
HETATM    1  C1  UNL     1     -33.842  14.571  -3.436  1.00 20.00     0.008 A 
HETATM    2  C2  UNL     1     -34.190  13.931  -4.628  1.00 20.00     0.008 A 
HETATM    3  C3  UNL     1     -34.719  16.685  -4.260  1.00 20.00     0.016 A 
HETATM    4  C4  UNL     1     -34.106  15.937  -3.253  1.00 20.00    -0.053 A 
HETATM    5  C5  UNL     1     -34.808  14.677  -5.617  1.00 20.00    -0.050 A 
HETATM    6  C6  UNL     1     -35.066  16.043  -5.438  1.00 20.00    -0.033 A 
HETATM    7  C7  UNL     1     -35.240  14.225  -6.976  1.00 20.00     0.041 C 
HETATM    8  C8  UNL     1     -36.200  15.359  -7.371  1.00 20.00     0.030 C 
HETATM    9  C12 UNL     1     -35.702  16.631  -6.660  1.00 20.00     0.116 C 
HETATM   10 CL13 UNL     1     -34.486  17.484  -7.635  1.00 20.00    -0.120 Cl
ENDROOT
BRANCH   4  11
HETATM   11  C11 UNL     1     -33.724  16.597  -1.972  1.00 20.00     0.018 A 
HETATM   12  C9  UNL     1     -34.703  16.594  -0.827  1.00 20.00     0.010 A 
HETATM   13  C10 UNL     1     -34.424  17.866  -1.564  1.00 20.00     0.010 A 
ENDBRANCH   4  11
TORSDOF 1
ENDMDL
MODEL 4
REMARK VINA RESULT:      -5.0      1.038      1.174
REMARK  1 active torsions:
REMARK  status: ('A' for Active; 'I' for Inactive)
REMARK    1  A    between atoms: C4_4  and  C11_11 
ROOT
HETATM    1  C1  UNL     1     -33.730  17.981  -2.435  1.00 20.00     0.008 A 
HETATM    2  C2  UNL     1     -33.691  17.643  -3.790  1.00 20.00     0.008 A 
HETATM    3  C3  UNL     1     -34.739  15.837  -1.882  1.00 20.00     0.016 A 
HETATM    4  C4  UNL     1     -34.249  17.084  -1.488  1.00 20.00    -0.053 A 
HETATM    5  C5  UNL     1     -34.168  16.401  -4.170  1.00 20.00    -0.050 A 
HETATM    6  C6  UNL     1     -34.692  15.507  -3.226  1.00 20.00    -0.033 A 
HETATM    7  C7  UNL     1     -34.259  15.833  -5.552  1.00 20.00     0.041 C 
HETATM    8  C8  UNL     1     -34.449  14.339  -5.243  1.00 20.00     0.030 C 
HETATM    9  C12 UNL     1     -35.177  14.254  -3.889  1.00 20.00     0.116 C 
HETATM   10 CL13 UNL     1     -36.940  14.311  -4.097  1.00 20.00    -0.120 Cl
ENDROOT
BRANCH   4  11
HETATM   11  C11 UNL     1     -34.281  17.469  -0.048  1.00 20.00     0.018 A 
HETATM   12  C9  UNL     1     -35.539  18.072   0.520  1.00 20.00     0.010 A 
HETATM   13  C10 UNL     1     -34.327  18.929   0.319  1.00 20.00     0.010 A 
ENDBRANCH   4  11
TORSDOF 1
ENDMDL
MODEL 5
REMARK VINA RESULT:      -4.9      2.586      5.110
REMARK  1 active torsions:
REMARK  status: ('A' for Active; 'I' for Inactive)
REMARK    1  A    between atoms: C4_4  and  C11_11 
ROOT
HETATM    1  C1  UNL     1     -36.087  16.487  -3.845  1.00 20.00     0.008 A 
HETATM    2  C2  UNL     1     -36.637  17.448  -2.995  1.00 20.00     0.008 A 
HETATM    3  C3  UNL     1     -34.397  15.922  -2.188  1.00 20.00     0.016 A 
HETATM    4  C4  UNL     1     -34.976  15.729  -3.444  1.00 20.00    -0.053 A 
HETATM    5  C5  UNL     1     -36.065  17.626  -1.747  1.00 20.00    -0.050 A 
HETATM    6  C6  UNL     1     -34.952  16.874  -1.348  1.00 20.00    -0.033 A 
HETATM    7  C7  UNL     1     -36.455  18.607  -0.686  1.00 20.00     0.041 C 
HETATM    8  C8  UNL     1     -35.748  18.008   0.541  1.00 20.00     0.030 C 
HETATM    9  C12 UNL     1     -34.497  17.277   0.021  1.00 20.00     0.116 C 
HETATM   10 CL13 UNL     1     -33.106  18.376  -0.092  1.00 20.00    -0.120 Cl
ENDROOT
BRANCH   4  11
HETATM   11  C11 UNL     1     -34.405  14.709  -4.371  1.00 20.00     0.018 A 
HETATM   12  C9  UNL     1     -34.906  13.290  -4.294  1.00 20.00     0.010 A 
HETATM   13  C10 UNL     1     -33.528  13.620  -3.812  1.00 20.00     0.010 A 
ENDBRANCH   4  11
TORSDOF 1
ENDMDL
MODEL 6
REMARK VINA RESULT:      -4.9     11.627     12.920
REMARK  1 active torsions:
REMARK  status: ('A' for Active; 'I' for Inactive)
REMARK    1  A    between atoms: C4_4  and  C11_11 
ROOT
HETATM    1  C1  UNL     1     -33.624   6.379   2.117  1.00 20.00     0.008 A 
HETATM    2  C2  UNL     1     -34.493   5.529   2.805  1.00 20.00     0.008 A 
HETATM    3  C3  UNL     1     -32.572   7.065   4.201  1.00 20.00     0.016 A 
HETATM    4  C4  UNL     1     -32.670   7.140   2.810  1.00 20.00    -0.053 A 
HETATM    5  C5  UNL     1     -34.381   5.451   4.182  1.00 20.00    -0.050 A 
HETATM    6  C6  UNL     1     -33.433   6.215   4.876  1.00 20.00    -0.033 A 
HETATM    7  C7  UNL     1     -35.213   4.643   5.129  1.00 20.00     0.041 C 
HETATM    8  C8  UNL     1     -34.329   4.664   6.387  1.00 20.00     0.030 C 
HETATM    9  C12 UNL     1     -33.538   5.985   6.352  1.00 20.00     0.116 C 
HETATM   10 CL13 UNL     1     -34.448   7.305   7.117  1.00 20.00    -0.120 Cl
ENDROOT
BRANCH   4  11
HETATM   11  C11 UNL     1     -31.755   8.042   2.053  1.00 20.00     0.018 A 
HETATM   12  C9  UNL     1     -32.228   9.425   1.688  1.00 20.00     0.010 A 
HETATM   13  C10 UNL     1     -32.080   8.383   0.623  1.00 20.00     0.010 A 
ENDBRANCH   4  11
TORSDOF 1
ENDMDL
MODEL 7
REMARK VINA RESULT:      -4.8      1.564      1.702
REMARK  1 active torsions:
REMARK  status: ('A' for Active; 'I' for Inactive)
REMARK    1  A    between atoms: C4_4  and  C11_11 
ROOT
HETATM    1  C1  UNL     1     -35.380  17.994  -2.465  1.00 20.00     0.008 A 
HETATM    2  C2  UNL     1     -35.771  17.752  -3.783  1.00 20.00     0.008 A 
HETATM    3  C3  UNL     1     -34.027  15.972  -2.445  1.00 20.00     0.016 A 
HETATM    4  C4  UNL     1     -34.514  17.111  -1.801  1.00 20.00    -0.053 A 
HETATM    5  C5  UNL     1     -35.275  16.626  -4.418  1.00 20.00    -0.050 A 
HETATM    6  C6  UNL     1     -34.415  15.741  -3.754  1.00 20.00    -0.033 A 
HETATM    7  C7  UNL     1     -35.573  16.144  -5.803  1.00 20.00     0.041 C 
HETATM    8  C8  UNL     1     -34.421  15.149  -6.021  1.00 20.00     0.030 C 
HETATM    9  C12 UNL     1     -34.052  14.586  -4.637  1.00 20.00     0.116 C 
HETATM   10 CL13 UNL     1     -35.040  13.167  -4.230  1.00 20.00    -0.120 Cl
ENDROOT
BRANCH   4  11
HETATM   11  C11 UNL     1     -34.113  17.392  -0.392  1.00 20.00     0.018 A 
HETATM   12  C9  UNL     1     -35.168  17.391   0.683  1.00 20.00     0.010 A 
HETATM   13  C10 UNL     1     -34.547  18.683   0.250  1.00 20.00     0.010 A 
ENDBRANCH   4  11
TORSDOF 1
ENDMDL
MODEL 8
REMARK VINA RESULT:      -4.5      2.777      5.517
REMARK  1 active torsions:
REMARK  status: ('A' for Active; 'I' for Inactive)
REMARK    1  A    between atoms: C4_4  and  C11_11 
ROOT
HETATM    1  C1  UNL     1     -35.858  17.005  -2.989  1.00 20.00     0.008 A 
HETATM    2  C2  UNL     1     -36.490  18.026  -2.276  1.00 20.00     0.008 A 
HETATM    3  C3  UNL     1     -34.570  16.367  -1.025  1.00 20.00     0.016 A 
HETATM    4  C4  UNL     1     -34.906  16.181  -2.368  1.00 20.00    -0.053 A 
HETATM    5  C5  UNL     1     -36.160  18.196  -0.942  1.00 20.00    -0.050 A 
HETATM    6  C6  UNL     1     -35.205  17.378  -0.322  1.00 20.00    -0.033 A 
HETATM    7  C7  UNL     1     -36.675  19.231   0.008  1.00 20.00     0.041 C 
HETATM    8  C8  UNL     1     -36.267  18.618   1.358  1.00 20.00     0.030 C 
HETATM    9  C12 UNL     1     -34.997  17.786   1.104  1.00 20.00     0.116 C 
HETATM   10 CL13 UNL     1     -33.532  18.780   1.251  1.00 20.00    -0.120 Cl
ENDROOT
BRANCH   4  11
HETATM   11  C11 UNL     1     -34.244  15.098  -3.151  1.00 20.00     0.018 A 
HETATM   12  C9  UNL     1     -33.020  15.428  -3.964  1.00 20.00     0.010 A 
HETATM   13  C10 UNL     1     -34.314  15.135  -4.655  1.00 20.00     0.010 A 
ENDBRANCH   4  11
TORSDOF 1
ENDMDL
MODEL 9
REMARK VINA RESULT:      -4.5     12.980     15.185
REMARK  1 active torsions:
REMARK  status: ('A' for Active; 'I' for Inactive)
REMARK    1  A    between atoms: C4_4  and  C11_11 
ROOT
HETATM    1  C1  UNL     1     -43.417   2.525  -1.373  1.00 20.00     0.008 A 
HETATM    2  C2  UNL     1     -43.397   3.440  -0.318  1.00 20.00     0.008 A 
HETATM    3  C3  UNL     1     -41.905   3.919  -2.673  1.00 20.00     0.016 A 
HETATM    4  C4  UNL     1     -42.676   2.762  -2.541  1.00 20.00    -0.053 A 
HETATM    5  C5  UNL     1     -42.621   4.578  -0.452  1.00 20.00    -0.050 A 
HETATM    6  C6  UNL     1     -41.885   4.819  -1.620  1.00 20.00    -0.033 A 
HETATM    7  C7  UNL     1     -42.466   5.705   0.520  1.00 20.00     0.041 C 
HETATM    8  C8  UNL     1     -41.194   6.383  -0.018  1.00 20.00     0.030 C 
HETATM    9  C12 UNL     1     -41.163   6.129  -1.536  1.00 20.00     0.116 C 
HETATM   10 CL13 UNL     1     -42.059   7.382  -2.421  1.00 20.00    -0.120 Cl
ENDROOT
BRANCH   4  11
HETATM   11  C11 UNL     1     -42.716   1.771  -3.654  1.00 20.00     0.018 A 
HETATM   12  C9  UNL     1     -42.300   0.349  -3.382  1.00 20.00     0.010 A 
HETATM   13  C10 UNL     1     -41.421   1.236  -4.207  1.00 20.00     0.010 A 
ENDBRANCH   4  11
TORSDOF 1
ENDMDL
