MODEL 1
REMARK VINA RESULT:      -3.7      0.000      0.000
REMARK  4 active torsions:
REMARK  status: ('A' for Active; 'I' for Inactive)
REMARK    1  A    between atoms: C4_4  and  O8_8 
REMARK    2  A    between atoms: C5_5  and  C6_6 
REMARK    3  A    between atoms: C5_5  and  O8_8 
REMARK    4  A    between atoms: C6_6  and  S9_9 
ROOT
HETATM    1  C1  UNL     1     -34.078   6.218   5.925  1.00 20.00     0.060 C 
HETATM    2  C2  UNL     1     -34.765   4.985   6.467  1.00 20.00     0.170 C 
HETATM    3  C3  UNL     1     -35.030   5.010   4.154  1.00 20.00     0.199 C 
HETATM    4  C4  UNL     1     -33.790   5.810   4.502  1.00 20.00     0.147 C 
HETATM    5  O7  UNL     1     -35.476   4.393   5.369  1.00 20.00    -0.389 OA
ENDROOT
BRANCH   4   6
HETATM    6  O8  UNL     1     -33.622   6.929   3.660  1.00 20.00    -0.383 OA
BRANCH   6   7
HETATM    7  C5  UNL     1     -32.479   6.784   2.827  1.00 20.00     0.178 C 
BRANCH   7   8
HETATM    8  C6  UNL     1     -31.760   8.116   2.692  1.00 20.00     0.097 C 
BRANCH   8   9
HETATM    9  S9  UNL     1     -32.144   8.919   1.105  1.00 20.00    -0.180 SA
HETATM   10  H21 UNL     1     -30.874   9.022   0.691  1.00 20.00     0.101 HD
ENDBRANCH   8   9
ENDBRANCH   7   8
ENDBRANCH   6   7
ENDBRANCH   4   6
TORSDOF 4
ENDMDL
MODEL 2
REMARK VINA RESULT:      -3.5     11.475     12.238
REMARK  4 active torsions:
REMARK  status: ('A' for Active; 'I' for Inactive)
REMARK    1  A    between atoms: C4_4  and  O8_8 
REMARK    2  A    between atoms: C5_5  and  C6_6 
REMARK    3  A    between atoms: C5_5  and  O8_8 
REMARK    4  A    between atoms: C6_6  and  S9_9 
ROOT
HETATM    1  C1  UNL     1     -34.267  13.892  -3.505  1.00 20.00     0.060 C 
HETATM    2  C2  UNL     1     -34.461  13.331  -4.897  1.00 20.00     0.170 C 
HETATM    3  C3  UNL     1     -33.953  15.595  -5.087  1.00 20.00     0.199 C 
HETATM    4  C4  UNL     1     -33.388  15.087  -3.776  1.00 20.00     0.147 C 
HETATM    5  O7  UNL     1     -34.438  14.448  -5.798  1.00 20.00    -0.389 OA
ENDROOT
BRANCH   4   6
HETATM    6  O8  UNL     1     -33.479  16.048  -2.746  1.00 20.00    -0.383 OA
BRANCH   6   7
HETATM    7  C5  UNL     1     -34.742  15.991  -2.096  1.00 20.00     0.178 C 
BRANCH   7   8
HETATM    8  C6  UNL     1     -34.670  16.701  -0.754  1.00 20.00     0.097 C 
BRANCH   8   9
HETATM    9  S9  UNL     1     -33.447  18.047  -0.780  1.00 20.00    -0.180 SA
HETATM   10  H21 UNL     1     -33.356  18.125  -2.115  1.00 20.00     0.101 HD
ENDBRANCH   8   9
ENDBRANCH   7   8
ENDBRANCH   6   7
ENDBRANCH   4   6
TORSDOF 4
ENDMDL
MODEL 3
REMARK VINA RESULT:      -3.4     11.108     12.137
REMARK  4 active torsions:
REMARK  status: ('A' for Active; 'I' for Inactive)
REMARK    1  A    between atoms: C4_4  and  O8_8 
REMARK    2  A    between atoms: C5_5  and  C6_6 
REMARK    3  A    between atoms: C5_5  and  O8_8 
REMARK    4  A    between atoms: C6_6  and  S9_9 
ROOT
HETATM    1  C1  UNL     1     -34.532  15.071  -5.311  1.00 20.00     0.060 C 
HETATM    2  C2  UNL     1     -35.112  13.711  -5.628  1.00 20.00     0.170 C 
HETATM    3  C3  UNL     1     -33.772  13.508  -3.735  1.00 20.00     0.199 C 
HETATM    4  C4  UNL     1     -34.243  14.945  -3.836  1.00 20.00     0.147 C 
HETATM    5  O7  UNL     1     -34.471  12.774  -4.749  1.00 20.00    -0.389 OA
ENDROOT
BRANCH   4   6
HETATM    6  O8  UNL     1     -33.256  15.862  -3.416  1.00 20.00    -0.383 OA
BRANCH   6   7
HETATM    7  C5  UNL     1     -33.814  16.887  -2.603  1.00 20.00     0.178 C 
BRANCH   7   8
HETATM    8  C6  UNL     1     -34.678  16.275  -1.512  1.00 20.00     0.097 C 
BRANCH   8   9
HETATM    9  S9  UNL     1     -34.770  17.358  -0.054  1.00 20.00    -0.180 SA
HETATM   10  H21 UNL     1     -35.378  18.377  -0.677  1.00 20.00     0.101 HD
ENDBRANCH   8   9
ENDBRANCH   7   8
ENDBRANCH   6   7
ENDBRANCH   4   6
TORSDOF 4
ENDMDL
MODEL 4
REMARK VINA RESULT:      -3.4     11.431     11.844
REMARK  4 active torsions:
REMARK  status: ('A' for Active; 'I' for Inactive)
REMARK    1  A    between atoms: C4_4  and  O8_8 
REMARK    2  A    between atoms: C5_5  and  C6_6 
REMARK    3  A    between atoms: C5_5  and  O8_8 
REMARK    4  A    between atoms: C6_6  and  S9_9 
ROOT
HETATM    1  C1  UNL     1     -33.759  13.906  -3.810  1.00 20.00     0.060 C 
HETATM    2  C2  UNL     1     -34.887  13.241  -4.568  1.00 20.00     0.170 C 
HETATM    3  C3  UNL     1     -35.764  15.051  -3.394  1.00 20.00     0.199 C 
HETATM    4  C4  UNL     1     -34.290  15.307  -3.636  1.00 20.00     0.147 C 
HETATM    5  O7  UNL     1     -36.102  13.869  -4.131  1.00 20.00    -0.389 OA
ENDROOT
BRANCH   4   6
HETATM    6  O8  UNL     1     -33.677  15.968  -2.550  1.00 20.00    -0.383 OA
BRANCH   6   7
HETATM    7  C5  UNL     1     -34.621  16.284  -1.536  1.00 20.00     0.178 C 
BRANCH   7   8
HETATM    8  C6  UNL     1     -34.097  17.418  -0.670  1.00 20.00     0.097 C 
BRANCH   8   9
HETATM    9  S9  UNL     1     -35.142  17.669   0.798  1.00 20.00    -0.180 SA
HETATM   10  H21 UNL     1     -35.434  18.952   0.542  1.00 20.00     0.101 HD
ENDBRANCH   8   9
ENDBRANCH   7   8
ENDBRANCH   6   7
ENDBRANCH   4   6
TORSDOF 4
ENDMDL
MODEL 5
REMARK VINA RESULT:      -3.4     11.580     12.927
REMARK  4 active torsions:
REMARK  status: ('A' for Active; 'I' for Inactive)
REMARK    1  A    between atoms: C4_4  and  O8_8 
REMARK    2  A    between atoms: C5_5  and  C6_6 
REMARK    3  A    between atoms: C5_5  and  O8_8 
REMARK    4  A    between atoms: C6_6  and  S9_9 
ROOT
HETATM    1  C1  UNL     1     -34.378  14.618  -5.595  1.00 20.00     0.060 C 
HETATM    2  C2  UNL     1     -34.766  13.339  -4.886  1.00 20.00     0.170 C 
HETATM    3  C3  UNL     1     -33.026  14.333  -3.699  1.00 20.00     0.199 C 
HETATM    4  C4  UNL     1     -33.753  15.413  -4.476  1.00 20.00     0.147 C 
HETATM    5  O7  UNL     1     -33.792  13.130  -3.852  1.00 20.00    -0.389 OA
ENDROOT
BRANCH   4   6
HETATM    6  O8  UNL     1     -32.874  16.403  -4.964  1.00 20.00    -0.383 OA
BRANCH   6   7
HETATM    7  C5  UNL     1     -33.511  17.672  -5.032  1.00 20.00     0.178 C 
BRANCH   7   8
HETATM    8  C6  UNL     1     -34.379  17.887  -3.803  1.00 20.00     0.097 C 
BRANCH   8   9
HETATM    9  S9  UNL     1     -33.676  19.159  -2.709  1.00 20.00    -0.180 SA
HETATM   10  H21 UNL     1     -34.785  19.908  -2.637  1.00 20.00     0.101 HD
ENDBRANCH   8   9
ENDBRANCH   7   8
ENDBRANCH   6   7
ENDBRANCH   4   6
TORSDOF 4
ENDMDL
MODEL 6
REMARK VINA RESULT:      -3.2     11.830     12.463
REMARK  4 active torsions:
REMARK  status: ('A' for Active; 'I' for Inactive)
REMARK    1  A    between atoms: C4_4  and  O8_8 
REMARK    2  A    between atoms: C5_5  and  C6_6 
REMARK    3  A    between atoms: C5_5  and  O8_8 
REMARK    4  A    between atoms: C6_6  and  S9_9 
ROOT
HETATM    1  C1  UNL     1     -33.443  15.239  -3.530  1.00 20.00     0.060 C 
HETATM    2  C2  UNL     1     -34.153  15.941  -2.394  1.00 20.00     0.170 C 
HETATM    3  C3  UNL     1     -35.733  14.737  -3.609  1.00 20.00     0.199 C 
HETATM    4  C4  UNL     1     -34.378  14.090  -3.813  1.00 20.00     0.147 C 
HETATM    5  O7  UNL     1     -35.560  15.746  -2.605  1.00 20.00    -0.389 OA
ENDROOT
BRANCH   4   6
HETATM    6  O8  UNL     1     -34.215  13.593  -5.124  1.00 20.00    -0.383 OA
BRANCH   6   7
HETATM    7  C5  UNL     1     -35.167  14.159  -6.015  1.00 20.00     0.178 C 
BRANCH   7   8
HETATM    8  C6  UNL     1     -34.457  14.908  -7.131  1.00 20.00     0.097 C 
BRANCH   8   9
HETATM    9  S9  UNL     1     -34.551  16.708  -6.886  1.00 20.00    -0.180 SA
HETATM   10  H21 UNL     1     -35.438  16.665  -5.883  1.00 20.00     0.101 HD
ENDBRANCH   8   9
ENDBRANCH   7   8
ENDBRANCH   6   7
ENDBRANCH   4   6
TORSDOF 4
ENDMDL
MODEL 7
REMARK VINA RESULT:      -3.2     11.118     12.174
REMARK  4 active torsions:
REMARK  status: ('A' for Active; 'I' for Inactive)
REMARK    1  A    between atoms: C4_4  and  O8_8 
REMARK    2  A    between atoms: C5_5  and  C6_6 
REMARK    3  A    between atoms: C5_5  and  O8_8 
REMARK    4  A    between atoms: C6_6  and  S9_9 
ROOT
HETATM    1  C1  UNL     1     -33.584  14.658  -3.808  1.00 20.00     0.060 C 
HETATM    2  C2  UNL     1     -33.728  13.211  -4.223  1.00 20.00     0.170 C 
HETATM    3  C3  UNL     1     -35.855  14.154  -4.114  1.00 20.00     0.199 C 
HETATM    4  C4  UNL     1     -34.852  15.264  -4.358  1.00 20.00     0.147 C 
HETATM    5  O7  UNL     1     -35.134  12.918  -4.215  1.00 20.00    -0.389 OA
ENDROOT
BRANCH   4   6
HETATM    6  O8  UNL     1     -35.198  16.455  -3.686  1.00 20.00    -0.383 OA
BRANCH   6   7
HETATM    7  C5  UNL     1     -34.059  17.277  -3.469  1.00 20.00     0.178 C 
BRANCH   7   8
HETATM    8  C6  UNL     1     -34.179  17.993  -2.133  1.00 20.00     0.097 C 
BRANCH   8   9
HETATM    9  S9  UNL     1     -34.597  16.834  -0.795  1.00 20.00    -0.180 SA
HETATM   10  H21 UNL     1     -34.621  17.753   0.181  1.00 20.00     0.101 HD
ENDBRANCH   8   9
ENDBRANCH   7   8
ENDBRANCH   6   7
ENDBRANCH   4   6
TORSDOF 4
ENDMDL
MODEL 8
REMARK VINA RESULT:      -3.2     11.566     12.445
REMARK  4 active torsions:
REMARK  status: ('A' for Active; 'I' for Inactive)
REMARK    1  A    between atoms: C4_4  and  O8_8 
REMARK    2  A    between atoms: C5_5  and  C6_6 
REMARK    3  A    between atoms: C5_5  and  O8_8 
REMARK    4  A    between atoms: C6_6  and  S9_9 
ROOT
HETATM    1  C1  UNL     1     -34.640  16.384  -1.192  1.00 20.00     0.060 C 
HETATM    2  C2  UNL     1     -33.897  17.699  -1.107  1.00 20.00     0.170 C 
HETATM    3  C3  UNL     1     -34.251  17.206  -3.355  1.00 20.00     0.199 C 
HETATM    4  C4  UNL     1     -35.314  16.498  -2.537  1.00 20.00     0.147 C 
HETATM    5  O7  UNL     1     -33.531  18.053  -2.450  1.00 20.00    -0.389 OA
ENDROOT
BRANCH   4   6
HETATM    6  O8  UNL     1     -35.642  15.233  -3.067  1.00 20.00    -0.383 OA
BRANCH   6   7
HETATM    7  C5  UNL     1     -34.476  14.469  -3.346  1.00 20.00     0.178 C 
BRANCH   7   8
HETATM    8  C6  UNL     1     -34.763  13.462  -4.447  1.00 20.00     0.097 C 
BRANCH   8   9
HETATM    9  S9  UNL     1     -35.072  14.288  -6.038  1.00 20.00    -0.180 SA
HETATM   10  H21 UNL     1     -34.546  15.469  -5.685  1.00 20.00     0.101 HD
ENDBRANCH   8   9
ENDBRANCH   7   8
ENDBRANCH   6   7
ENDBRANCH   4   6
TORSDOF 4
ENDMDL
MODEL 9
REMARK VINA RESULT:      -3.1     11.626     12.403
REMARK  4 active torsions:
REMARK  status: ('A' for Active; 'I' for Inactive)
REMARK    1  A    between atoms: C4_4  and  O8_8 
REMARK    2  A    between atoms: C5_5  and  C6_6 
REMARK    3  A    between atoms: C5_5  and  O8_8 
REMARK    4  A    between atoms: C6_6  and  S9_9 
ROOT
HETATM    1  C1  UNL     1     -34.442  15.087  -3.043  1.00 20.00     0.060 C 
HETATM    2  C2  UNL     1     -33.277  14.389  -3.709  1.00 20.00     0.170 C 
HETATM    3  C3  UNL     1     -35.232  13.271  -4.301  1.00 20.00     0.199 C 
HETATM    4  C4  UNL     1     -35.588  14.701  -3.945  1.00 20.00     0.147 C 
HETATM    5  O7  UNL     1     -33.800  13.192  -4.305  1.00 20.00    -0.389 OA
ENDROOT
BRANCH   4   6
HETATM    6  O8  UNL     1     -36.830  14.794  -3.283  1.00 20.00    -0.383 OA
BRANCH   6   7
HETATM    7  C5  UNL     1     -37.912  14.765  -4.205  1.00 20.00     0.178 C 
BRANCH   7   8
HETATM    8  C6  UNL     1     -37.813  15.942  -5.162  1.00 20.00     0.097 C 
BRANCH   8   9
HETATM    9  S9  UNL     1     -38.081  15.421  -6.884  1.00 20.00    -0.180 SA
HETATM   10  H21 UNL     1     -37.827  14.121  -6.676  1.00 20.00     0.101 HD
ENDBRANCH   8   9
ENDBRANCH   7   8
ENDBRANCH   6   7
ENDBRANCH   4   6
TORSDOF 4
ENDMDL
