MODEL 1
REMARK VINA RESULT:      -3.1      0.000      0.000
REMARK  4 active torsions:
REMARK  status: ('A' for Active; 'I' for Inactive)
REMARK    1  A    between atoms: C4_4  and  C6_6 
REMARK    2  A    between atoms: C4_4  and  O7_7 
REMARK    3  A    between atoms: C5_5  and  C6_6 
REMARK    4  A    between atoms: C5_5  and  S8_8 
ROOT
HETATM    1  C1  UNL     1     -34.041  15.290  -3.107  1.00 20.00     0.018 C 
HETATM    2  C2  UNL     1     -35.008  13.294  -4.248  1.00 20.00     0.018 C 
HETATM    3  C6  UNL     1     -35.163  14.818  -4.059  1.00 20.00    -0.018 C 
ENDROOT
BRANCH   3   4
HETATM    4  C4  UNL     1     -36.536  15.133  -3.423  1.00 20.00     0.176 C 
BRANCH   4   5
HETATM    5  O7  UNL     1     -37.499  14.143  -3.769  1.00 20.00    -0.395 OA
HETATM    6  C3  UNL     1     -38.753  14.727  -4.090  1.00 20.00     0.201 C 
ENDBRANCH   4   5
ENDBRANCH   3   4
BRANCH   3   7
HETATM    7  C5  UNL     1     -34.981  15.570  -5.404  1.00 20.00     0.081 C 
BRANCH   7   8
HETATM    8  S8  UNL     1     -35.335  14.618  -6.918  1.00 20.00    -0.181 SA
HETATM    9  H22 UNL     1     -36.601  15.035  -7.045  1.00 20.00     0.101 HD
ENDBRANCH   7   8
ENDBRANCH   3   7
TORSDOF 4
ENDMDL
MODEL 2
REMARK VINA RESULT:      -3.1      3.143      4.028
REMARK  4 active torsions:
REMARK  status: ('A' for Active; 'I' for Inactive)
REMARK    1  A    between atoms: C4_4  and  C6_6 
REMARK    2  A    between atoms: C4_4  and  O7_7 
REMARK    3  A    between atoms: C5_5  and  C6_6 
REMARK    4  A    between atoms: C5_5  and  S8_8 
ROOT
HETATM    1  C1  UNL     1     -34.473  13.387  -4.682  1.00 20.00     0.018 C 
HETATM    2  C2  UNL     1     -32.664  14.646  -3.514  1.00 20.00     0.018 C 
HETATM    3  C6  UNL     1     -34.057  14.782  -4.165  1.00 20.00    -0.018 C 
ENDROOT
BRANCH   3   4
HETATM    4  C4  UNL     1     -33.988  15.766  -5.355  1.00 20.00     0.176 C 
BRANCH   4   5
HETATM    5  O7  UNL     1     -32.980  16.750  -5.147  1.00 20.00    -0.395 OA
HETATM    6  C3  UNL     1     -33.523  18.062  -5.164  1.00 20.00     0.201 C 
ENDBRANCH   4   5
ENDBRANCH   3   4
BRANCH   3   7
HETATM    7  C5  UNL     1     -35.119  15.232  -3.126  1.00 20.00     0.081 C 
BRANCH   7   8
HETATM    8  S8  UNL     1     -34.541  16.356  -1.813  1.00 20.00    -0.181 SA
HETATM    9  H22 UNL     1     -35.258  15.794  -0.831  1.00 20.00     0.101 HD
ENDBRANCH   7   8
ENDBRANCH   3   7
TORSDOF 4
ENDMDL
MODEL 3
REMARK VINA RESULT:      -3.1      1.155      1.155
REMARK  4 active torsions:
REMARK  status: ('A' for Active; 'I' for Inactive)
REMARK    1  A    between atoms: C4_4  and  C6_6 
REMARK    2  A    between atoms: C4_4  and  O7_7 
REMARK    3  A    between atoms: C5_5  and  C6_6 
REMARK    4  A    between atoms: C5_5  and  S8_8 
ROOT
HETATM    1  C1  UNL     1     -33.987  15.217  -3.121  1.00 20.00     0.018 C 
HETATM    2  C2  UNL     1     -35.021  13.301  -4.336  1.00 20.00     0.018 C 
HETATM    3  C6  UNL     1     -35.120  14.821  -4.094  1.00 20.00    -0.018 C 
ENDROOT
BRANCH   3   4
HETATM    4  C4  UNL     1     -36.484  15.165  -3.453  1.00 20.00     0.176 C 
BRANCH   4   5
HETATM    5  O7  UNL     1     -37.450  14.158  -3.737  1.00 20.00    -0.395 OA
HETATM    6  C3  UNL     1     -38.715  14.724  -4.047  1.00 20.00     0.201 C 
ENDBRANCH   4   5
ENDBRANCH   3   4
BRANCH   3   7
HETATM    7  C5  UNL     1     -34.903  15.614  -5.411  1.00 20.00     0.081 C 
BRANCH   7   8
HETATM    8  S8  UNL     1     -33.650  16.936  -5.361  1.00 20.00    -0.181 SA
HETATM    9  H22 UNL     1     -32.631  16.170  -5.772  1.00 20.00     0.101 HD
ENDBRANCH   7   8
ENDBRANCH   3   7
TORSDOF 4
ENDMDL
MODEL 4
REMARK VINA RESULT:      -3.1      2.633      3.018
REMARK  4 active torsions:
REMARK  status: ('A' for Active; 'I' for Inactive)
REMARK    1  A    between atoms: C4_4  and  C6_6 
REMARK    2  A    between atoms: C4_4  and  O7_7 
REMARK    3  A    between atoms: C5_5  and  C6_6 
REMARK    4  A    between atoms: C5_5  and  S8_8 
ROOT
HETATM    1  C1  UNL     1     -32.786  14.859  -3.612  1.00 20.00     0.018 C 
HETATM    2  C2  UNL     1     -34.825  13.484  -4.022  1.00 20.00     0.018 C 
HETATM    3  C6  UNL     1     -34.311  14.929  -3.852  1.00 20.00    -0.018 C 
ENDROOT
BRANCH   3   4
HETATM    4  C4  UNL     1     -34.989  15.589  -2.630  1.00 20.00     0.176 C 
BRANCH   4   5
HETATM    5  O7  UNL     1     -34.036  16.276  -1.826  1.00 20.00    -0.395 OA
HETATM    6  C3  UNL     1     -34.628  16.791  -0.642  1.00 20.00     0.201 C 
ENDBRANCH   4   5
ENDBRANCH   3   4
BRANCH   3   7
HETATM    7  C5  UNL     1     -34.543  15.762  -5.141  1.00 20.00     0.081 C 
BRANCH   7   8
HETATM    8  S8  UNL     1     -33.600  17.315  -5.280  1.00 20.00    -0.181 SA
HETATM    9  H22 UNL     1     -34.613  18.043  -5.770  1.00 20.00     0.101 HD
ENDBRANCH   7   8
ENDBRANCH   3   7
TORSDOF 4
ENDMDL
MODEL 5
REMARK VINA RESULT:      -3.0      1.978      2.508
REMARK  4 active torsions:
REMARK  status: ('A' for Active; 'I' for Inactive)
REMARK    1  A    between atoms: C4_4  and  C6_6 
REMARK    2  A    between atoms: C4_4  and  O7_7 
REMARK    3  A    between atoms: C5_5  and  C6_6 
REMARK    4  A    between atoms: C5_5  and  S8_8 
ROOT
HETATM    1  C1  UNL     1     -35.127  13.319  -4.219  1.00 20.00     0.018 C 
HETATM    2  C2  UNL     1     -35.089  15.530  -5.370  1.00 20.00     0.018 C 
HETATM    3  C6  UNL     1     -35.262  14.843  -4.000  1.00 20.00    -0.018 C 
ENDROOT
BRANCH   3   4
HETATM    4  C4  UNL     1     -36.664  15.153  -3.428  1.00 20.00     0.176 C 
BRANCH   4   5
HETATM    5  O7  UNL     1     -37.603  14.152  -3.808  1.00 20.00    -0.395 OA
HETATM    6  C3  UNL     1     -38.861  14.720  -4.142  1.00 20.00     0.201 C 
ENDBRANCH   4   5
ENDBRANCH   3   4
BRANCH   3   7
HETATM    7  C5  UNL     1     -34.145  15.273  -3.012  1.00 20.00     0.081 C 
BRANCH   7   8
HETATM    8  S8  UNL     1     -34.644  16.401  -1.670  1.00 20.00    -0.181 SA
HETATM    9  H22 UNL     1     -33.544  17.165  -1.721  1.00 20.00     0.101 HD
ENDBRANCH   7   8
ENDBRANCH   3   7
TORSDOF 4
ENDMDL
MODEL 6
REMARK VINA RESULT:      -3.0      2.473      3.423
REMARK  4 active torsions:
REMARK  status: ('A' for Active; 'I' for Inactive)
REMARK    1  A    between atoms: C4_4  and  C6_6 
REMARK    2  A    between atoms: C4_4  and  O7_7 
REMARK    3  A    between atoms: C5_5  and  C6_6 
REMARK    4  A    between atoms: C5_5  and  S8_8 
ROOT
HETATM    1  C1  UNL     1     -33.516  16.674  -4.750  1.00 20.00     0.018 C 
HETATM    2  C2  UNL     1     -32.578  14.727  -3.507  1.00 20.00     0.018 C 
HETATM    3  C6  UNL     1     -33.727  15.756  -3.525  1.00 20.00    -0.018 C 
ENDROOT
BRANCH   3   4
HETATM    4  C4  UNL     1     -33.690  16.610  -2.236  1.00 20.00     0.176 C 
BRANCH   4   5
HETATM    5  O7  UNL     1     -34.658  16.157  -1.296  1.00 20.00    -0.395 OA
HETATM    6  C3  UNL     1     -34.779  17.055  -0.201  1.00 20.00     0.201 C 
ENDBRANCH   4   5
ENDBRANCH   3   4
BRANCH   3   7
HETATM    7  C5  UNL     1     -35.103  15.058  -3.696  1.00 20.00     0.081 C 
BRANCH   7   8
HETATM    8  S8  UNL     1     -35.079  13.399  -4.451  1.00 20.00    -0.181 SA
HETATM    9  H22 UNL     1     -34.810  12.740  -3.316  1.00 20.00     0.101 HD
ENDBRANCH   7   8
ENDBRANCH   3   7
TORSDOF 4
ENDMDL
MODEL 7
REMARK VINA RESULT:      -3.0      2.386      2.730
REMARK  4 active torsions:
REMARK  status: ('A' for Active; 'I' for Inactive)
REMARK    1  A    between atoms: C4_4  and  C6_6 
REMARK    2  A    between atoms: C4_4  and  O7_7 
REMARK    3  A    between atoms: C5_5  and  C6_6 
REMARK    4  A    between atoms: C5_5  and  S8_8 
ROOT
HETATM    1  C1  UNL     1     -34.622  15.570  -2.644  1.00 20.00     0.018 C 
HETATM    2  C2  UNL     1     -33.494  13.665  -3.792  1.00 20.00     0.018 C 
HETATM    3  C6  UNL     1     -34.131  15.053  -4.015  1.00 20.00    -0.018 C 
ENDROOT
BRANCH   3   4
HETATM    4  C4  UNL     1     -35.337  14.931  -4.975  1.00 20.00     0.176 C 
BRANCH   4   5
HETATM    5  O7  UNL     1     -35.091  13.958  -5.984  1.00 20.00    -0.395 OA
HETATM    6  C3  UNL     1     -35.260  14.503  -7.285  1.00 20.00     0.201 C 
ENDBRANCH   4   5
ENDBRANCH   3   4
BRANCH   3   7
HETATM    7  C5  UNL     1     -33.087  16.069  -4.551  1.00 20.00     0.081 C 
BRANCH   7   8
HETATM    8  S8  UNL     1     -33.753  17.559  -5.362  1.00 20.00    -0.181 SA
HETATM    9  H22 UNL     1     -34.897  16.991  -5.766  1.00 20.00     0.101 HD
ENDBRANCH   7   8
ENDBRANCH   3   7
TORSDOF 4
ENDMDL
MODEL 8
REMARK VINA RESULT:      -3.0      2.161      3.137
REMARK  4 active torsions:
REMARK  status: ('A' for Active; 'I' for Inactive)
REMARK    1  A    between atoms: C4_4  and  C6_6 
REMARK    2  A    between atoms: C4_4  and  O7_7 
REMARK    3  A    between atoms: C5_5  and  C6_6 
REMARK    4  A    between atoms: C5_5  and  S8_8 
ROOT
HETATM    1  C1  UNL     1     -36.157  16.377  -3.141  1.00 20.00     0.018 C 
HETATM    2  C2  UNL     1     -34.607  16.421  -1.188  1.00 20.00     0.018 C 
HETATM    3  C6  UNL     1     -34.679  16.227  -2.717  1.00 20.00    -0.018 C 
ENDROOT
BRANCH   3   4
HETATM    4  C4  UNL     1     -34.183  14.811  -3.091  1.00 20.00     0.176 C 
BRANCH   4   5
HETATM    5  O7  UNL     1     -35.218  14.055  -3.713  1.00 20.00    -0.395 OA
HETATM    6  C3  UNL     1     -34.720  13.288  -4.799  1.00 20.00     0.201 C 
ENDBRANCH   4   5
ENDBRANCH   3   4
BRANCH   3   7
HETATM    7  C5  UNL     1     -33.866  17.320  -3.460  1.00 20.00     0.081 C 
BRANCH   7   8
HETATM    8  S8  UNL     1     -33.558  17.034  -5.233  1.00 20.00    -0.181 SA
HETATM    9  H22 UNL     1     -34.006  15.771  -5.244  1.00 20.00     0.101 HD
ENDBRANCH   7   8
ENDBRANCH   3   7
TORSDOF 4
ENDMDL
MODEL 9
REMARK VINA RESULT:      -2.9      2.589      3.594
REMARK  4 active torsions:
REMARK  status: ('A' for Active; 'I' for Inactive)
REMARK    1  A    between atoms: C4_4  and  C6_6 
REMARK    2  A    between atoms: C4_4  and  O7_7 
REMARK    3  A    between atoms: C5_5  and  C6_6 
REMARK    4  A    between atoms: C5_5  and  S8_8 
ROOT
HETATM    1  C1  UNL     1     -33.389  13.648  -3.765  1.00 20.00     0.018 C 
HETATM    2  C2  UNL     1     -34.574  15.547  -2.665  1.00 20.00     0.018 C 
HETATM    3  C6  UNL     1     -34.492  14.714  -3.961  1.00 20.00    -0.018 C 
ENDROOT
BRANCH   3   4
HETATM    4  C4  UNL     1     -34.112  15.626  -5.150  1.00 20.00     0.176 C 
BRANCH   4   5
HETATM    5  O7  UNL     1     -33.218  16.655  -4.740  1.00 20.00    -0.395 OA
HETATM    6  C3  UNL     1     -33.539  17.897  -5.350  1.00 20.00     0.201 C 
ENDBRANCH   4   5
ENDBRANCH   3   4
BRANCH   3   7
HETATM    7  C5  UNL     1     -35.823  13.964  -4.232  1.00 20.00     0.081 C 
BRANCH   7   8
HETATM    8  S8  UNL     1     -37.356  14.887  -3.883  1.00 20.00    -0.181 SA
HETATM    9  H22 UNL     1     -37.376  15.556  -5.043  1.00 20.00     0.101 HD
ENDBRANCH   7   8
ENDBRANCH   3   7
TORSDOF 4
ENDMDL
