MODEL 1
REMARK VINA RESULT:      -3.7      0.000      0.000
REMARK  5 active torsions:
REMARK  status: ('A' for Active; 'I' for Inactive)
REMARK    1  A    between atoms: C4_4  and  C6_6 
REMARK    2  A    between atoms: C4_4  and  O8_8 
REMARK    3  A    between atoms: C5_5  and  C6_6 
REMARK    4  A    between atoms: C5_5  and  S9_9 
REMARK    5  A    between atoms: C7_7  and  O8_8 
ROOT
HETATM    1  C4  UNL     1     -32.899   6.141   3.185  1.00 20.00     0.173 C 
ENDROOT
BRANCH   1   2
HETATM    2  C6  UNL     1     -32.333   7.567   3.145  1.00 20.00     0.014 C 
HETATM    3  C1  UNL     1     -31.163   7.729   4.124  1.00 20.00     0.012 C 
BRANCH   2   4
HETATM    4  C5  UNL     1     -31.975   8.008   1.715  1.00 20.00     0.077 C 
BRANCH   4   5
HETATM    5  S9  UNL     1     -32.420   9.720   1.288  1.00 20.00    -0.182 SA
HETATM    6  H25 UNL     1     -31.571  10.300   2.147  1.00 20.00     0.101 HD
ENDBRANCH   4   5
ENDBRANCH   2   4
ENDBRANCH   1   2
BRANCH   1   7
HETATM    7  O8  UNL     1     -34.137   6.136   3.884  1.00 20.00    -0.386 OA
BRANCH   7   8
HETATM    8  C7  UNL     1     -34.040   5.423   5.109  1.00 20.00     0.113 C 
HETATM    9  C2  UNL     1     -34.109   6.406   6.268  1.00 20.00     0.039 C 
HETATM   10  C3  UNL     1     -35.152   4.388   5.176  1.00 20.00     0.039 C 
ENDBRANCH   7   8
ENDBRANCH   1   7
TORSDOF 5
ENDMDL
MODEL 2
REMARK VINA RESULT:      -3.6      2.823      4.717
REMARK  5 active torsions:
REMARK  status: ('A' for Active; 'I' for Inactive)
REMARK    1  A    between atoms: C4_4  and  C6_6 
REMARK    2  A    between atoms: C4_4  and  O8_8 
REMARK    3  A    between atoms: C5_5  and  C6_6 
REMARK    4  A    between atoms: C5_5  and  S9_9 
REMARK    5  A    between atoms: C7_7  and  O8_8 
ROOT
HETATM    1  C4  UNL     1     -32.193   6.560   3.197  1.00 20.00     0.173 C 
ENDROOT
BRANCH   1   2
HETATM    2  C6  UNL     1     -33.633   6.504   3.723  1.00 20.00     0.014 C 
HETATM    3  C1  UNL     1     -34.447   5.421   3.005  1.00 20.00     0.012 C 
BRANCH   2   4
HETATM    4  C5  UNL     1     -33.684   6.367   5.255  1.00 20.00     0.077 C 
BRANCH   4   5
HETATM    5  S9  UNL     1     -34.734   5.022   5.887  1.00 20.00    -0.182 SA
HETATM    6  H25 UNL     1     -33.841   4.044   5.680  1.00 20.00     0.101 HD
ENDBRANCH   4   5
ENDBRANCH   2   4
ENDBRANCH   1   2
BRANCH   1   7
HETATM    7  O8  UNL     1     -31.805   7.914   3.000  1.00 20.00    -0.386 OA
BRANCH   7   8
HETATM    8  C7  UNL     1     -32.434   8.474   1.856  1.00 20.00     0.113 C 
HETATM    9  C2  UNL     1     -32.779   9.929   2.136  1.00 20.00     0.039 C 
HETATM   10  C3  UNL     1     -31.511   8.331   0.656  1.00 20.00     0.039 C 
ENDBRANCH   7   8
ENDBRANCH   1   7
TORSDOF 5
ENDMDL
MODEL 3
REMARK VINA RESULT:      -3.4      0.960      1.869
REMARK  5 active torsions:
REMARK  status: ('A' for Active; 'I' for Inactive)
REMARK    1  A    between atoms: C4_4  and  C6_6 
REMARK    2  A    between atoms: C4_4  and  O8_8 
REMARK    3  A    between atoms: C5_5  and  C6_6 
REMARK    4  A    between atoms: C5_5  and  S9_9 
REMARK    5  A    between atoms: C7_7  and  O8_8 
ROOT
HETATM    1  C4  UNL     1     -33.799   6.786   4.065  1.00 20.00     0.173 C 
ENDROOT
BRANCH   1   2
HETATM    2  C6  UNL     1     -32.391   6.489   3.534  1.00 20.00     0.014 C 
HETATM    3  C1  UNL     1     -32.432   5.482   2.378  1.00 20.00     0.012 C 
BRANCH   2   4
HETATM    4  C5  UNL     1     -31.625   7.775   3.174  1.00 20.00     0.077 C 
BRANCH   4   5
HETATM    5  S9  UNL     1     -32.155   8.600   1.641  1.00 20.00    -0.182 SA
HETATM    6  H25 UNL     1     -31.466   7.804   0.813  1.00 20.00     0.101 HD
ENDBRANCH   4   5
ENDBRANCH   2   4
ENDBRANCH   1   2
BRANCH   1   7
HETATM    7  O8  UNL     1     -34.570   5.590   4.077  1.00 20.00    -0.386 OA
BRANCH   7   8
HETATM    8  C7  UNL     1     -35.023   5.277   5.387  1.00 20.00     0.113 C 
HETATM    9  C2  UNL     1     -34.836   3.789   5.639  1.00 20.00     0.039 C 
HETATM   10  C3  UNL     1     -34.263   6.124   6.396  1.00 20.00     0.039 C 
ENDBRANCH   7   8
ENDBRANCH   1   7
TORSDOF 5
ENDMDL
MODEL 4
REMARK VINA RESULT:      -3.4     10.697     12.212
REMARK  5 active torsions:
REMARK  status: ('A' for Active; 'I' for Inactive)
REMARK    1  A    between atoms: C4_4  and  C6_6 
REMARK    2  A    between atoms: C4_4  and  O8_8 
REMARK    3  A    between atoms: C5_5  and  C6_6 
REMARK    4  A    between atoms: C5_5  and  S9_9 
REMARK    5  A    between atoms: C7_7  and  O8_8 
ROOT
HETATM    1  C4  UNL     1     -35.604  14.075  -4.327  1.00 20.00     0.173 C 
ENDROOT
BRANCH   1   2
HETATM    2  C6  UNL     1     -34.511  14.422  -3.308  1.00 20.00     0.014 C 
HETATM    3  C1  UNL     1     -33.175  13.767  -3.680  1.00 20.00     0.012 C 
BRANCH   2   4
HETATM    4  C5  UNL     1     -34.386  15.940  -3.087  1.00 20.00     0.077 C 
BRANCH   4   5
HETATM    5  S9  UNL     1     -34.635  16.507  -1.376  1.00 20.00    -0.182 SA
HETATM    6  H25 UNL     1     -35.730  17.236  -1.631  1.00 20.00     0.101 HD
ENDBRANCH   4   5
ENDBRANCH   2   4
ENDBRANCH   1   2
BRANCH   1   7
HETATM    7  O8  UNL     1     -35.012  13.541  -5.504  1.00 20.00    -0.386 OA
BRANCH   7   8
HETATM    8  C7  UNL     1     -35.331  14.321  -6.647  1.00 20.00     0.113 C 
HETATM    9  C2  UNL     1     -36.616  15.092  -6.384  1.00 20.00     0.039 C 
HETATM   10  C3  UNL     1     -34.168  15.248  -6.962  1.00 20.00     0.039 C 
ENDBRANCH   7   8
ENDBRANCH   1   7
TORSDOF 5
ENDMDL
MODEL 5
REMARK VINA RESULT:      -3.3     10.899     11.714
REMARK  5 active torsions:
REMARK  status: ('A' for Active; 'I' for Inactive)
REMARK    1  A    between atoms: C4_4  and  C6_6 
REMARK    2  A    between atoms: C4_4  and  O8_8 
REMARK    3  A    between atoms: C5_5  and  C6_6 
REMARK    4  A    between atoms: C5_5  and  S9_9 
REMARK    5  A    between atoms: C7_7  and  O8_8 
ROOT
HETATM    1  C4  UNL     1     -34.861  16.168  -2.506  1.00 20.00     0.173 C 
ENDROOT
BRANCH   1   2
HETATM    2  C6  UNL     1     -33.772  15.344  -3.205  1.00 20.00     0.014 C 
HETATM    3  C1  UNL     1     -34.275  13.937  -3.553  1.00 20.00     0.012 C 
BRANCH   2   4
HETATM    4  C5  UNL     1     -33.181  16.080  -4.421  1.00 20.00     0.077 C 
BRANCH   4   5
HETATM    5  S9  UNL     1     -33.736  17.799  -4.643  1.00 20.00    -0.182 SA
HETATM    6  H25 UNL     1     -32.541  18.282  -5.009  1.00 20.00     0.101 HD
ENDBRANCH   4   5
ENDBRANCH   2   4
ENDBRANCH   1   2
BRANCH   1   7
HETATM    7  O8  UNL     1     -34.632  16.172  -1.102  1.00 20.00    -0.386 OA
BRANCH   7   8
HETATM    8  C7  UNL     1     -34.647  17.492  -0.576  1.00 20.00     0.113 C 
HETATM    9  C2  UNL     1     -35.172  17.457   0.851  1.00 20.00     0.039 C 
HETATM   10  C3  UNL     1     -33.245  18.076  -0.651  1.00 20.00     0.039 C 
ENDBRANCH   7   8
ENDBRANCH   1   7
TORSDOF 5
ENDMDL
MODEL 6
REMARK VINA RESULT:      -3.3      2.848      4.904
REMARK  5 active torsions:
REMARK  status: ('A' for Active; 'I' for Inactive)
REMARK    1  A    between atoms: C4_4  and  C6_6 
REMARK    2  A    between atoms: C4_4  and  O8_8 
REMARK    3  A    between atoms: C5_5  and  C6_6 
REMARK    4  A    between atoms: C5_5  and  S9_9 
REMARK    5  A    between atoms: C7_7  and  O8_8 
ROOT
HETATM    1  C4  UNL     1     -32.563   6.925   3.566  1.00 20.00     0.173 C 
ENDROOT
BRANCH   1   2
HETATM    2  C6  UNL     1     -33.955   6.492   4.043  1.00 20.00     0.014 C 
HETATM    3  C1  UNL     1     -34.530   5.384   3.152  1.00 20.00     0.012 C 
BRANCH   2   4
HETATM    4  C5  UNL     1     -33.965   6.117   5.536  1.00 20.00     0.077 C 
BRANCH   4   5
HETATM    5  S9  UNL     1     -34.837   4.575   5.952  1.00 20.00    -0.182 SA
HETATM    6  H25 UNL     1     -35.544   4.508   4.815  1.00 20.00     0.101 HD
ENDBRANCH   4   5
ENDBRANCH   2   4
ENDBRANCH   1   2
BRANCH   1   7
HETATM    7  O8  UNL     1     -32.611   7.255   2.183  1.00 20.00    -0.386 OA
BRANCH   7   8
HETATM    8  C7  UNL     1     -31.932   8.474   1.916  1.00 20.00     0.113 C 
HETATM    9  C2  UNL     1     -31.446   8.472   0.474  1.00 20.00     0.039 C 
HETATM   10  C3  UNL     1     -32.867   9.640   2.197  1.00 20.00     0.039 C 
ENDBRANCH   7   8
ENDBRANCH   1   7
TORSDOF 5
ENDMDL
MODEL 7
REMARK VINA RESULT:      -3.2     10.788     11.722
REMARK  5 active torsions:
REMARK  status: ('A' for Active; 'I' for Inactive)
REMARK    1  A    between atoms: C4_4  and  C6_6 
REMARK    2  A    between atoms: C4_4  and  O8_8 
REMARK    3  A    between atoms: C5_5  and  C6_6 
REMARK    4  A    between atoms: C5_5  and  S9_9 
REMARK    5  A    between atoms: C7_7  and  O8_8 
ROOT
HETATM    1  C4  UNL     1     -34.464  15.439  -2.716  1.00 20.00     0.173 C 
ENDROOT
BRANCH   1   2
HETATM    2  C6  UNL     1     -35.100  16.663  -2.044  1.00 20.00     0.014 C 
HETATM    3  C1  UNL     1     -34.650  16.792  -0.583  1.00 20.00     0.012 C 
BRANCH   2   4
HETATM    4  C5  UNL     1     -34.870  17.953  -2.852  1.00 20.00     0.077 C 
BRANCH   4   5
HETATM    5  S9  UNL     1     -33.842  17.771  -4.343  1.00 20.00    -0.182 SA
HETATM    6  H25 UNL     1     -33.021  18.792  -4.068  1.00 20.00     0.101 HD
ENDBRANCH   4   5
ENDBRANCH   2   4
ENDBRANCH   1   2
BRANCH   1   7
HETATM    7  O8  UNL     1     -35.463  14.695  -3.402  1.00 20.00    -0.386 OA
BRANCH   7   8
HETATM    8  C7  UNL     1     -34.891  13.670  -4.203  1.00 20.00     0.113 C 
HETATM    9  C2  UNL     1     -35.076  14.020  -5.672  1.00 20.00     0.039 C 
HETATM   10  C3  UNL     1     -33.424  13.511  -3.838  1.00 20.00     0.039 C 
ENDBRANCH   7   8
ENDBRANCH   1   7
TORSDOF 5
ENDMDL
MODEL 8
REMARK VINA RESULT:      -3.2     11.025     12.100
REMARK  5 active torsions:
REMARK  status: ('A' for Active; 'I' for Inactive)
REMARK    1  A    between atoms: C4_4  and  C6_6 
REMARK    2  A    between atoms: C4_4  and  O8_8 
REMARK    3  A    between atoms: C5_5  and  C6_6 
REMARK    4  A    between atoms: C5_5  and  S9_9 
REMARK    5  A    between atoms: C7_7  and  O8_8 
ROOT
HETATM    1  C4  UNL     1     -33.633  15.758  -4.608  1.00 20.00     0.173 C 
ENDROOT
BRANCH   1   2
HETATM    2  C6  UNL     1     -34.514  14.662  -5.221  1.00 20.00     0.014 C 
HETATM    3  C1  UNL     1     -34.400  13.351  -4.434  1.00 20.00     0.012 C 
BRANCH   2   4
HETATM    4  C5  UNL     1     -35.972  15.124  -5.397  1.00 20.00     0.077 C 
BRANCH   4   5
HETATM    5  S9  UNL     1     -37.073  14.801  -3.984  1.00 20.00    -0.182 SA
HETATM    6  H25 UNL     1     -36.865  15.979  -3.378  1.00 20.00     0.101 HD
ENDBRANCH   4   5
ENDBRANCH   2   4
ENDBRANCH   1   2
BRANCH   1   7
HETATM    7  O8  UNL     1     -33.440  15.502  -3.223  1.00 20.00    -0.386 OA
BRANCH   7   8
HETATM    8  C7  UNL     1     -33.663  16.667  -2.442  1.00 20.00     0.113 C 
HETATM    9  C2  UNL     1     -34.114  17.801  -3.351  1.00 20.00     0.039 C 
HETATM   10  C3  UNL     1     -34.692  16.361  -1.366  1.00 20.00     0.039 C 
ENDBRANCH   7   8
ENDBRANCH   1   7
TORSDOF 5
ENDMDL
MODEL 9
REMARK VINA RESULT:      -3.2     11.025     12.635
REMARK  5 active torsions:
REMARK  status: ('A' for Active; 'I' for Inactive)
REMARK    1  A    between atoms: C4_4  and  C6_6 
REMARK    2  A    between atoms: C4_4  and  O8_8 
REMARK    3  A    between atoms: C5_5  and  C6_6 
REMARK    4  A    between atoms: C5_5  and  S9_9 
REMARK    5  A    between atoms: C7_7  and  O8_8 
ROOT
HETATM    1  C4  UNL     1     -34.687  16.375  -4.997  1.00 20.00     0.173 C 
ENDROOT
BRANCH   1   2
HETATM    2  C6  UNL     1     -35.390  15.873  -6.265  1.00 20.00     0.014 C 
HETATM    3  C1  UNL     1     -34.437  15.055  -7.145  1.00 20.00     0.012 C 
BRANCH   2   4
HETATM    4  C5  UNL     1     -36.695  15.121  -5.944  1.00 20.00     0.077 C 
BRANCH   4   5
HETATM    5  S9  UNL     1     -37.054  14.894  -4.174  1.00 20.00    -0.182 SA
HETATM    6  H25 UNL     1     -37.730  16.041  -4.025  1.00 20.00     0.101 HD
ENDBRANCH   4   5
ENDBRANCH   2   4
ENDBRANCH   1   2
BRANCH   1   7
HETATM    7  O8  UNL     1     -33.350  15.890  -4.965  1.00 20.00    -0.386 OA
BRANCH   7   8
HETATM    8  C7  UNL     1     -33.041  15.301  -3.710  1.00 20.00     0.113 C 
HETATM    9  C2  UNL     1     -33.783  16.045  -2.611  1.00 20.00     0.039 C 
HETATM   10  C3  UNL     1     -33.408  13.826  -3.744  1.00 20.00     0.039 C 
ENDBRANCH   7   8
ENDBRANCH   1   7
TORSDOF 5
ENDMDL
