MODEL 1
REMARK VINA RESULT:      -3.0      0.000      0.000
REMARK  4 active torsions:
REMARK  status: ('A' for Active; 'I' for Inactive)
REMARK    1  A    between atoms: C3_3  and  C5_5 
REMARK    2  A    between atoms: C3_3  and  C6_6 
REMARK    3  A    between atoms: C5_5  and  S7_7 
REMARK    4  A    between atoms: C6_6  and  S8_8 
ROOT
HETATM    1  C1  UNL     1     -33.604  17.113  -1.526  1.00 20.00     0.012 A 
HETATM    2  C2  UNL     1     -34.807  16.214  -1.565  1.00 20.00     0.012 A 
HETATM    3  C3  UNL     1     -34.078  16.549  -2.845  1.00 20.00    -0.024 A 
ENDROOT
BRANCH   3   4
HETATM    4  C5  UNL     1     -34.747  17.486  -3.813  1.00 20.00     0.080 C 
BRANCH   4   5
HETATM    5  S7  UNL     1     -33.678  17.808  -5.249  1.00 20.00    -0.181 SA
HETATM    6  H20 UNL     1     -33.255  19.011  -4.840  1.00 20.00     0.101 HD
ENDBRANCH   4   5
ENDBRANCH   3   4
BRANCH   3   7
HETATM    7  C6  UNL     1     -33.251  15.470  -3.489  1.00 20.00     0.083 C 
BRANCH   7   8
HETATM    8  S8  UNL     1     -34.210  13.938  -3.673  1.00 20.00    -0.173 SA
HETATM    9  C4  UNL     1     -34.574  14.069  -5.438  1.00 20.00     0.089 C 
ENDBRANCH   7   8
ENDBRANCH   3   7
TORSDOF 4
ENDMDL
MODEL 2
REMARK VINA RESULT:      -2.9      1.896      3.500
REMARK  4 active torsions:
REMARK  status: ('A' for Active; 'I' for Inactive)
REMARK    1  A    between atoms: C3_3  and  C5_5 
REMARK    2  A    between atoms: C3_3  and  C6_6 
REMARK    3  A    between atoms: C5_5  and  S7_7 
REMARK    4  A    between atoms: C6_6  and  S8_8 
ROOT
HETATM    1  C1  UNL     1     -35.023  13.274  -4.256  1.00 20.00     0.012 A 
HETATM    2  C2  UNL     1     -33.638  13.670  -3.829  1.00 20.00     0.012 A 
HETATM    3  C3  UNL     1     -34.625  14.731  -4.254  1.00 20.00    -0.024 A 
ENDROOT
BRANCH   3   4
HETATM    4  C5  UNL     1     -34.408  15.404  -5.582  1.00 20.00     0.080 C 
BRANCH   4   5
HETATM    5  S7  UNL     1     -35.702  16.641  -5.903  1.00 20.00    -0.181 SA
HETATM    6  H20 UNL     1     -35.434  17.404  -4.834  1.00 20.00     0.101 HD
ENDBRANCH   4   5
ENDBRANCH   3   4
BRANCH   3   7
HETATM    7  C6  UNL     1     -35.208  15.621  -3.191  1.00 20.00     0.083 C 
BRANCH   7   8
HETATM    8  S8  UNL     1     -33.909  16.599  -2.378  1.00 20.00    -0.173 SA
HETATM    9  C4  UNL     1     -34.636  16.675  -0.725  1.00 20.00     0.089 C 
ENDBRANCH   7   8
ENDBRANCH   3   7
TORSDOF 4
ENDMDL
MODEL 3
REMARK VINA RESULT:      -2.9      1.920      3.502
REMARK  4 active torsions:
REMARK  status: ('A' for Active; 'I' for Inactive)
REMARK    1  A    between atoms: C3_3  and  C5_5 
REMARK    2  A    between atoms: C3_3  and  C6_6 
REMARK    3  A    between atoms: C5_5  and  S7_7 
REMARK    4  A    between atoms: C6_6  and  S8_8 
ROOT
HETATM    1  C1  UNL     1     -33.602  13.541  -3.875  1.00 20.00     0.012 A 
HETATM    2  C2  UNL     1     -34.455  13.978  -5.032  1.00 20.00     0.012 A 
HETATM    3  C3  UNL     1     -34.126  14.957  -3.930  1.00 20.00    -0.024 A 
ENDROOT
BRANCH   3   4
HETATM    4  C5  UNL     1     -35.224  15.339  -2.975  1.00 20.00     0.080 C 
BRANCH   4   5
HETATM    5  S7  UNL     1     -34.598  16.443  -1.673  1.00 20.00    -0.181 SA
HETATM    6  H20 UNL     1     -35.734  16.481  -0.964  1.00 20.00     0.101 HD
ENDBRANCH   4   5
ENDBRANCH   3   4
BRANCH   3   7
HETATM    7  C6  UNL     1     -33.150  16.060  -4.233  1.00 20.00     0.083 C 
BRANCH   7   8
HETATM    8  S8  UNL     1     -33.761  17.118  -5.578  1.00 20.00    -0.173 SA
HETATM    9  C4  UNL     1     -33.576  18.717  -4.757  1.00 20.00     0.089 C 
ENDBRANCH   7   8
ENDBRANCH   3   7
TORSDOF 4
ENDMDL
MODEL 4
REMARK VINA RESULT:      -2.9      1.241      1.241
REMARK  4 active torsions:
REMARK  status: ('A' for Active; 'I' for Inactive)
REMARK    1  A    between atoms: C3_3  and  C5_5 
REMARK    2  A    between atoms: C3_3  and  C6_6 
REMARK    3  A    between atoms: C5_5  and  S7_7 
REMARK    4  A    between atoms: C6_6  and  S8_8 
ROOT
HETATM    1  C1  UNL     1     -33.637  17.204  -1.571  1.00 20.00     0.012 A 
HETATM    2  C2  UNL     1     -34.766  16.216  -1.503  1.00 20.00     0.012 A 
HETATM    3  C3  UNL     1     -34.159  16.571  -2.839  1.00 20.00    -0.024 A 
ENDROOT
BRANCH   3   4
HETATM    4  C5  UNL     1     -34.966  17.429  -3.775  1.00 20.00     0.080 C 
BRANCH   4   5
HETATM    5  S7  UNL     1     -36.720  16.948  -3.749  1.00 20.00    -0.181 SA
HETATM    6  H20 UNL     1     -36.990  17.339  -5.002  1.00 20.00     0.101 HD
ENDBRANCH   4   5
ENDBRANCH   3   4
BRANCH   3   7
HETATM    7  C6  UNL     1     -33.300  15.542  -3.520  1.00 20.00     0.083 C 
BRANCH   7   8
HETATM    8  S8  UNL     1     -34.174  13.955  -3.662  1.00 20.00    -0.173 SA
HETATM    9  C4  UNL     1     -34.609  14.054  -5.414  1.00 20.00     0.089 C 
ENDBRANCH   7   8
ENDBRANCH   3   7
TORSDOF 4
ENDMDL
MODEL 5
REMARK VINA RESULT:      -2.9     12.842     14.017
REMARK  4 active torsions:
REMARK  status: ('A' for Active; 'I' for Inactive)
REMARK    1  A    between atoms: C3_3  and  C5_5 
REMARK    2  A    between atoms: C3_3  and  C6_6 
REMARK    3  A    between atoms: C5_5  and  S7_7 
REMARK    4  A    between atoms: C6_6  and  S8_8 
ROOT
HETATM    1  C1  UNL     1     -41.165   6.851  -1.388  1.00 20.00     0.012 A 
HETATM    2  C2  UNL     1     -40.807   6.243  -0.062  1.00 20.00     0.012 A 
HETATM    3  C3  UNL     1     -41.756   5.519  -0.987  1.00 20.00    -0.024 A 
ENDROOT
BRANCH   3   4
HETATM    4  C5  UNL     1     -43.212   5.477  -0.613  1.00 20.00     0.080 C 
BRANCH   4   5
HETATM    5  S7  UNL     1     -43.416   5.196   1.172  1.00 20.00    -0.181 SA
HETATM    6  H20 UNL     1     -42.449   4.275   1.280  1.00 20.00     0.101 HD
ENDBRANCH   4   5
ENDBRANCH   3   4
BRANCH   3   7
HETATM    7  C6  UNL     1     -41.255   4.286  -1.687  1.00 20.00     0.083 C 
BRANCH   7   8
HETATM    8  S8  UNL     1     -42.570   3.525  -2.684  1.00 20.00    -0.173 SA
HETATM    9  C4  UNL     1     -41.601   2.185  -3.414  1.00 20.00     0.089 C 
ENDBRANCH   7   8
ENDBRANCH   3   7
TORSDOF 4
ENDMDL
MODEL 6
REMARK VINA RESULT:      -2.9      1.466      2.880
REMARK  4 active torsions:
REMARK  status: ('A' for Active; 'I' for Inactive)
REMARK    1  A    between atoms: C3_3  and  C5_5 
REMARK    2  A    between atoms: C3_3  and  C6_6 
REMARK    3  A    between atoms: C5_5  and  S7_7 
REMARK    4  A    between atoms: C6_6  and  S8_8 
ROOT
HETATM    1  C1  UNL     1     -34.922  15.980  -1.908  1.00 20.00     0.012 A 
HETATM    2  C2  UNL     1     -33.603  16.545  -2.352  1.00 20.00     0.012 A 
HETATM    3  C3  UNL     1     -34.376  15.630  -3.272  1.00 20.00    -0.024 A 
ENDROOT
BRANCH   3   4
HETATM    4  C5  UNL     1     -33.851  14.237  -3.486  1.00 20.00     0.080 C 
BRANCH   4   5
HETATM    5  S7  UNL     1     -34.820  13.364  -4.753  1.00 20.00    -0.181 SA
HETATM    6  H20 UNL     1     -34.500  14.185  -5.763  1.00 20.00     0.101 HD
ENDBRANCH   4   5
ENDBRANCH   3   4
BRANCH   3   7
HETATM    7  C6  UNL     1     -35.043  16.238  -4.476  1.00 20.00     0.083 C 
BRANCH   7   8
HETATM    8  S8  UNL     1     -33.827  17.064  -5.544  1.00 20.00    -0.173 SA
HETATM    9  C4  UNL     1     -34.473  16.522  -7.142  1.00 20.00     0.089 C 
ENDBRANCH   7   8
ENDBRANCH   3   7
TORSDOF 4
ENDMDL
MODEL 7
REMARK VINA RESULT:      -2.8      2.370      3.286
REMARK  4 active torsions:
REMARK  status: ('A' for Active; 'I' for Inactive)
REMARK    1  A    between atoms: C3_3  and  C5_5 
REMARK    2  A    between atoms: C3_3  and  C6_6 
REMARK    3  A    between atoms: C5_5  and  S7_7 
REMARK    4  A    between atoms: C6_6  and  S8_8 
ROOT
HETATM    1  C1  UNL     1     -34.940  13.226  -4.363  1.00 20.00     0.012 A 
HETATM    2  C2  UNL     1     -33.727  13.859  -3.745  1.00 20.00     0.012 A 
HETATM    3  C3  UNL     1     -34.884  14.725  -4.184  1.00 20.00    -0.024 A 
ENDROOT
BRANCH   3   4
HETATM    4  C5  UNL     1     -34.703  15.575  -5.412  1.00 20.00     0.080 C 
BRANCH   4   5
HETATM    5  S7  UNL     1     -33.460  16.871  -5.127  1.00 20.00    -0.181 SA
HETATM    6  H20 UNL     1     -33.001  16.904  -6.386  1.00 20.00     0.101 HD
ENDBRANCH   4   5
ENDBRANCH   3   4
BRANCH   3   7
HETATM    7  C6  UNL     1     -35.748  15.342  -3.119  1.00 20.00     0.083 C 
BRANCH   7   8
HETATM    8  S8  UNL     1     -37.163  16.213  -3.853  1.00 20.00    -0.173 SA
HETATM    9  C4  UNL     1     -38.309  14.819  -3.945  1.00 20.00     0.089 C 
ENDBRANCH   7   8
ENDBRANCH   3   7
TORSDOF 4
ENDMDL
MODEL 8
REMARK VINA RESULT:      -2.8      2.054      2.865
REMARK  4 active torsions:
REMARK  status: ('A' for Active; 'I' for Inactive)
REMARK    1  A    between atoms: C3_3  and  C5_5 
REMARK    2  A    between atoms: C3_3  and  C6_6 
REMARK    3  A    between atoms: C5_5  and  S7_7 
REMARK    4  A    between atoms: C6_6  and  S8_8 
ROOT
HETATM    1  C1  UNL     1     -33.361  13.656  -3.721  1.00 20.00     0.012 A 
HETATM    2  C2  UNL     1     -34.814  13.492  -4.065  1.00 20.00     0.012 A 
HETATM    3  C3  UNL     1     -34.241  14.875  -3.868  1.00 20.00    -0.024 A 
ENDROOT
BRANCH   3   4
HETATM    4  C5  UNL     1     -34.621  15.625  -2.621  1.00 20.00     0.080 C 
BRANCH   4   5
HETATM    5  S7  UNL     1     -33.988  17.329  -2.668  1.00 20.00    -0.181 SA
HETATM    6  H20 UNL     1     -35.104  17.906  -2.203  1.00 20.00     0.101 HD
ENDBRANCH   4   5
ENDBRANCH   3   4
BRANCH   3   7
HETATM    7  C6  UNL     1     -34.049  15.741  -5.083  1.00 20.00     0.083 C 
BRANCH   7   8
HETATM    8  S8  UNL     1     -35.530  15.717  -6.138  1.00 20.00    -0.173 SA
HETATM    9  C4  UNL     1     -34.824  14.852  -7.559  1.00 20.00     0.089 C 
ENDBRANCH   7   8
ENDBRANCH   3   7
TORSDOF 4
ENDMDL
MODEL 9
REMARK VINA RESULT:      -2.8     12.515     13.512
REMARK  4 active torsions:
REMARK  status: ('A' for Active; 'I' for Inactive)
REMARK    1  A    between atoms: C3_3  and  C5_5 
REMARK    2  A    between atoms: C3_3  and  C6_6 
REMARK    3  A    between atoms: C5_5  and  S7_7 
REMARK    4  A    between atoms: C6_6  and  S8_8 
ROOT
HETATM    1  C1  UNL     1     -40.621   6.137   0.006  1.00 20.00     0.012 A 
HETATM    2  C2  UNL     1     -42.067   5.759   0.154  1.00 20.00     0.012 A 
HETATM    3  C3  UNL     1     -41.393   5.637  -1.192  1.00 20.00    -0.024 A 
ENDROOT
BRANCH   3   4
HETATM    4  C5  UNL     1     -41.763   6.632  -2.258  1.00 20.00     0.080 C 
BRANCH   4   5
HETATM    5  S7  UNL     1     -43.415   7.328  -1.953  1.00 20.00    -0.181 SA
HETATM    6  H20 UNL     1     -43.636   7.723  -3.214  1.00 20.00     0.101 HD
ENDBRANCH   4   5
ENDBRANCH   3   4
BRANCH   3   7
HETATM    7  C6  UNL     1     -41.084   4.257  -1.705  1.00 20.00     0.083 C 
BRANCH   7   8
HETATM    8  S8  UNL     1     -42.504   3.564  -2.603  1.00 20.00    -0.173 SA
HETATM    9  C4  UNL     1     -41.657   2.185  -3.406  1.00 20.00     0.089 C 
ENDBRANCH   7   8
ENDBRANCH   3   7
TORSDOF 4
ENDMDL
