MODEL 1
REMARK VINA RESULT:      -6.3      0.000      0.000
REMARK  1 active torsions:
REMARK  status: ('A' for Active; 'I' for Inactive)
REMARK    1  A    between atoms: C5_5  and  C12_12 
ROOT
HETATM    1  C1  UNL     1     -33.167   6.076   2.124  1.00 20.00     0.008 A 
HETATM    2  C2  UNL     1     -33.974   5.132   2.768  1.00 20.00     0.009 A 
HETATM    3  C3  UNL     1     -32.893   7.327   4.192  1.00 20.00     0.023 A 
HETATM    4  C4  UNL     1     -33.693   6.378   4.800  1.00 20.00     0.017 A 
HETATM    5  C5  UNL     1     -32.630   7.165   2.831  1.00 20.00    -0.053 A 
HETATM    6  C6  UNL     1     -34.233   5.294   4.119  1.00 20.00    -0.044 A 
HETATM    7  C7  UNL     1     -34.120   6.302   6.187  1.00 20.00     0.160 A 
HETATM    8  C8  UNL     1     -35.061   4.412   4.996  1.00 20.00     0.047 A 
HETATM    9  C9  UNL     1     -34.990   5.082   6.380  1.00 20.00     0.088 A 
HETATM   10  O13 UNL     1     -33.812   7.109   7.045  1.00 20.00    -0.292 OA
ENDROOT
BRANCH   5  11
HETATM   11  C12 UNL     1     -31.775   8.158   2.120  1.00 20.00     0.018 A 
HETATM   12  C10 UNL     1     -32.359   9.496   1.751  1.00 20.00     0.010 A 
HETATM   13  C11 UNL     1     -32.075   8.488   0.681  1.00 20.00     0.010 A 
ENDBRANCH   5  11
TORSDOF 1
ENDMDL
MODEL 2
REMARK VINA RESULT:      -6.0     11.274     12.676
REMARK  1 active torsions:
REMARK  status: ('A' for Active; 'I' for Inactive)
REMARK    1  A    between atoms: C5_5  and  C12_12 
ROOT
HETATM    1  C1  UNL     1     -33.609  17.556  -3.877  1.00 20.00     0.008 A 
HETATM    2  C2  UNL     1     -33.778  17.170  -5.211  1.00 20.00     0.009 A 
HETATM    3  C3  UNL     1     -34.262  15.345  -3.102  1.00 20.00     0.023 A 
HETATM    4  C4  UNL     1     -34.420  14.994  -4.429  1.00 20.00     0.017 A 
HETATM    5  C5  UNL     1     -33.848  16.650  -2.830  1.00 20.00    -0.053 A 
HETATM    6  C6  UNL     1     -34.188  15.874  -5.479  1.00 20.00    -0.044 A 
HETATM    7  C7  UNL     1     -34.834  13.718  -4.989  1.00 20.00     0.160 A 
HETATM    8  C8  UNL     1     -34.429  15.257  -6.818  1.00 20.00     0.047 A 
HETATM    9  C9  UNL     1     -34.862  13.815  -6.497  1.00 20.00     0.088 A 
HETATM   10  O13 UNL     1     -35.110  12.735  -4.326  1.00 20.00    -0.292 OA
ENDROOT
BRANCH   5  11
HETATM   11  C12 UNL     1     -33.662  17.088  -1.417  1.00 20.00     0.018 A 
HETATM   12  C10 UNL     1     -34.750  16.808  -0.415  1.00 20.00     0.010 A 
HETATM   13  C11 UNL     1     -34.509  18.211  -0.879  1.00 20.00     0.010 A 
ENDBRANCH   5  11
TORSDOF 1
ENDMDL
MODEL 3
REMARK VINA RESULT:      -5.6     11.159     12.475
REMARK  1 active torsions:
REMARK  status: ('A' for Active; 'I' for Inactive)
REMARK    1  A    between atoms: C5_5  and  C12_12 
ROOT
HETATM    1  C1  UNL     1     -35.816  17.267  -2.831  1.00 20.00     0.008 A 
HETATM    2  C2  UNL     1     -36.170  17.020  -4.163  1.00 20.00     0.009 A 
HETATM    3  C3  UNL     1     -34.536  15.201  -2.736  1.00 20.00     0.023 A 
HETATM    4  C4  UNL     1     -34.902  14.985  -4.051  1.00 20.00     0.017 A 
HETATM    5  C5  UNL     1     -35.005  16.364  -2.124  1.00 20.00    -0.053 A 
HETATM    6  C6  UNL     1     -35.703  15.864  -4.769  1.00 20.00    -0.044 A 
HETATM    7  C7  UNL     1     -34.558  13.871  -4.920  1.00 20.00     0.160 A 
HETATM    8  C8  UNL     1     -35.956  15.408  -6.169  1.00 20.00     0.047 A 
HETATM    9  C9  UNL     1     -35.194  14.075  -6.275  1.00 20.00     0.088 A 
HETATM   10  O13 UNL     1     -33.862  12.929  -4.585  1.00 20.00    -0.292 OA
ENDROOT
BRANCH   5  11
HETATM   11  C12 UNL     1     -34.645  16.651  -0.706  1.00 20.00     0.018 A 
HETATM   12  C10 UNL     1     -35.129  17.928  -0.072  1.00 20.00     0.010 A 
HETATM   13  C11 UNL     1     -33.678  17.767  -0.405  1.00 20.00     0.010 A 
ENDBRANCH   5  11
TORSDOF 1
ENDMDL
MODEL 4
REMARK VINA RESULT:      -5.6     11.331     11.915
REMARK  1 active torsions:
REMARK  status: ('A' for Active; 'I' for Inactive)
REMARK    1  A    between atoms: C5_5  and  C12_12 
ROOT
HETATM    1  C1  UNL     1     -33.445  16.619  -2.224  1.00 20.00     0.008 A 
HETATM    2  C2  UNL     1     -33.172  15.671  -3.216  1.00 20.00     0.009 A 
HETATM    3  C3  UNL     1     -35.817  16.086  -2.296  1.00 20.00     0.023 A 
HETATM    4  C4  UNL     1     -35.516  15.158  -3.274  1.00 20.00     0.017 A 
HETATM    5  C5  UNL     1     -34.757  16.824  -1.767  1.00 20.00    -0.053 A 
HETATM    6  C6  UNL     1     -34.225  14.938  -3.740  1.00 20.00    -0.044 A 
HETATM    7  C7  UNL     1     -36.414  14.264  -3.988  1.00 20.00     0.160 A 
HETATM    8  C8  UNL     1     -34.160  13.884  -4.798  1.00 20.00     0.047 A 
HETATM    9  C9  UNL     1     -35.621  13.431  -4.968  1.00 20.00     0.088 A 
HETATM   10  O13 UNL     1     -37.617  14.211  -3.806  1.00 20.00    -0.292 OA
ENDROOT
BRANCH   5  11
HETATM   11  C12 UNL     1     -35.020  17.842  -0.709  1.00 20.00     0.018 A 
HETATM   12  C10 UNL     1     -33.924  18.184   0.265  1.00 20.00     0.010 A 
HETATM   13  C11 UNL     1     -35.112  17.400   0.728  1.00 20.00     0.010 A 
ENDBRANCH   5  11
TORSDOF 1
ENDMDL
MODEL 5
REMARK VINA RESULT:      -5.4     11.383     12.233
REMARK  1 active torsions:
REMARK  status: ('A' for Active; 'I' for Inactive)
REMARK    1  A    between atoms: C5_5  and  C12_12 
ROOT
HETATM    1  C1  UNL     1     -32.172  18.783   0.309  1.00 20.00     0.008 A 
HETATM    2  C2  UNL     1     -31.479  19.107   1.481  1.00 20.00     0.009 A 
HETATM    3  C3  UNL     1     -34.160  18.203   1.585  1.00 20.00     0.023 A 
HETATM    4  C4  UNL     1     -33.450  18.530   2.724  1.00 20.00     0.017 A 
HETATM    5  C5  UNL     1     -33.503  18.335   0.361  1.00 20.00    -0.053 A 
HETATM    6  C6  UNL     1     -32.134  18.975   2.696  1.00 20.00    -0.044 A 
HETATM    7  C7  UNL     1     -33.884  18.487   4.111  1.00 20.00     0.160 A 
HETATM    8  C8  UNL     1     -31.588  19.263   4.057  1.00 20.00     0.047 A 
HETATM    9  C9  UNL     1     -32.754  18.937   5.007  1.00 20.00     0.088 A 
HETATM   10  O13 UNL     1     -34.994  18.138   4.472  1.00 20.00    -0.292 OA
ENDROOT
BRANCH   5  11
HETATM   11  C12 UNL     1     -34.217  17.996  -0.903  1.00 20.00     0.018 A 
HETATM   12  C10 UNL     1     -34.857  16.640  -1.040  1.00 20.00     0.010 A 
HETATM   13  C11 UNL     1     -33.625  16.965  -1.827  1.00 20.00     0.010 A 
ENDBRANCH   5  11
TORSDOF 1
ENDMDL
MODEL 6
REMARK VINA RESULT:      -5.3     11.531     13.208
REMARK  1 active torsions:
REMARK  status: ('A' for Active; 'I' for Inactive)
REMARK    1  A    between atoms: C5_5  and  C12_12 
ROOT
HETATM    1  C1  UNL     1     -34.475  15.010  -2.761  1.00 20.00     0.008 A 
HETATM    2  C2  UNL     1     -34.754  14.252  -3.904  1.00 20.00     0.009 A 
HETATM    3  C3  UNL     1     -34.055  16.987  -4.115  1.00 20.00     0.023 A 
HETATM    4  C4  UNL     1     -34.337  16.212  -5.224  1.00 20.00     0.017 A 
HETATM    5  C5  UNL     1     -34.129  16.368  -2.867  1.00 20.00    -0.053 A 
HETATM    6  C6  UNL     1     -34.681  14.868  -5.143  1.00 20.00    -0.044 A 
HETATM    7  C7  UNL     1     -34.336  16.596  -6.627  1.00 20.00     0.160 A 
HETATM    8  C8  UNL     1     -34.937  14.252  -6.480  1.00 20.00     0.047 A 
HETATM    9  C9  UNL     1     -34.707  15.402  -7.475  1.00 20.00     0.088 A 
HETATM   10  O13 UNL     1     -34.075  17.714  -7.032  1.00 20.00    -0.292 OA
ENDROOT
BRANCH   5  11
HETATM   11  C12 UNL     1     -33.835  17.153  -1.634  1.00 20.00     0.018 A 
HETATM   12  C10 UNL     1     -34.628  16.875  -0.384  1.00 20.00     0.010 A 
HETATM   13  C11 UNL     1     -34.850  18.149  -1.138  1.00 20.00     0.010 A 
ENDBRANCH   5  11
TORSDOF 1
ENDMDL
MODEL 7
REMARK VINA RESULT:      -5.3     11.359     12.915
REMARK  1 active torsions:
REMARK  status: ('A' for Active; 'I' for Inactive)
REMARK    1  A    between atoms: C5_5  and  C12_12 
ROOT
HETATM    1  C1  UNL     1     -34.583  14.531  -4.459  1.00 20.00     0.008 A 
HETATM    2  C2  UNL     1     -34.694  14.759  -3.083  1.00 20.00     0.009 A 
HETATM    3  C3  UNL     1     -33.831  16.815  -4.828  1.00 20.00     0.023 A 
HETATM    4  C4  UNL     1     -33.951  17.009  -3.465  1.00 20.00     0.017 A 
HETATM    5  C5  UNL     1     -34.154  15.552  -5.325  1.00 20.00    -0.053 A 
HETATM    6  C6  UNL     1     -34.373  16.015  -2.591  1.00 20.00    -0.044 A 
HETATM    7  C7  UNL     1     -33.683  18.210  -2.690  1.00 20.00     0.160 A 
HETATM    8  C8  UNL     1     -34.419  16.471  -1.169  1.00 20.00     0.047 A 
HETATM    9  C9  UNL     1     -33.960  17.939  -1.230  1.00 20.00     0.088 A 
HETATM   10  O13 UNL     1     -33.295  19.262  -3.166  1.00 20.00    -0.292 OA
ENDROOT
BRANCH   5  11
HETATM   11  C12 UNL     1     -34.046  15.282  -6.787  1.00 20.00     0.018 A 
HETATM   12  C10 UNL     1     -34.877  16.095  -7.744  1.00 20.00     0.010 A 
HETATM   13  C11 UNL     1     -35.212  14.655  -7.506  1.00 20.00     0.010 A 
ENDBRANCH   5  11
TORSDOF 1
ENDMDL
MODEL 8
REMARK VINA RESULT:      -5.2     11.401     12.884
REMARK  1 active torsions:
REMARK  status: ('A' for Active; 'I' for Inactive)
REMARK    1  A    between atoms: C5_5  and  C12_12 
ROOT
HETATM    1  C1  UNL     1     -33.932  14.707  -3.187  1.00 20.00     0.008 A 
HETATM    2  C2  UNL     1     -34.039  14.181  -4.480  1.00 20.00     0.009 A 
HETATM    3  C3  UNL     1     -35.788  16.225  -3.596  1.00 20.00     0.023 A 
HETATM    4  C4  UNL     1     -35.869  15.685  -4.866  1.00 20.00     0.017 A 
HETATM    5  C5  UNL     1     -34.800  15.721  -2.749  1.00 20.00    -0.053 A 
HETATM    6  C6  UNL     1     -35.021  14.682  -5.319  1.00 20.00    -0.044 A 
HETATM    7  C7  UNL     1     -36.792  16.019  -5.939  1.00 20.00     0.160 A 
HETATM    8  C8  UNL     1     -35.310  14.269  -6.726  1.00 20.00     0.047 A 
HETATM    9  C9  UNL     1     -36.493  15.160  -7.145  1.00 20.00     0.088 A 
HETATM   10  O13 UNL     1     -37.666  16.863  -5.855  1.00 20.00    -0.292 OA
ENDROOT
BRANCH   5  11
HETATM   11  C12 UNL     1     -34.662  16.264  -1.368  1.00 20.00     0.018 A 
HETATM   12  C10 UNL     1     -35.196  17.640  -1.066  1.00 20.00     0.010 A 
HETATM   13  C11 UNL     1     -33.717  17.411  -1.121  1.00 20.00     0.010 A 
ENDBRANCH   5  11
TORSDOF 1
ENDMDL
MODEL 9
REMARK VINA RESULT:      -5.1     10.908     12.525
REMARK  1 active torsions:
REMARK  status: ('A' for Active; 'I' for Inactive)
REMARK    1  A    between atoms: C5_5  and  C12_12 
ROOT
HETATM    1  C1  UNL     1     -37.211  16.749  -3.046  1.00 20.00     0.008 A 
HETATM    2  C2  UNL     1     -35.825  16.797  -2.857  1.00 20.00     0.009 A 
HETATM    3  C3  UNL     1     -37.053  14.523  -4.014  1.00 20.00     0.023 A 
HETATM    4  C4  UNL     1     -35.687  14.600  -3.815  1.00 20.00     0.017 A 
HETATM    5  C5  UNL     1     -37.820  15.620  -3.620  1.00 20.00    -0.053 A 
HETATM    6  C6  UNL     1     -35.065  15.707  -3.249  1.00 20.00    -0.044 A 
HETATM    7  C7  UNL     1     -34.665  13.615  -4.127  1.00 20.00     0.160 A 
HETATM    8  C8  UNL     1     -33.583  15.548  -3.140  1.00 20.00     0.047 A 
HETATM    9  C9  UNL     1     -33.310  14.151  -3.727  1.00 20.00     0.088 A 
HETATM   10  O13 UNL     1     -34.889  12.530  -4.633  1.00 20.00    -0.292 OA
ENDROOT
BRANCH   5  11
HETATM   11  C12 UNL     1     -39.298  15.595  -3.811  1.00 20.00     0.018 A 
HETATM   12  C10 UNL     1     -39.915  14.477  -4.609  1.00 20.00     0.010 A 
HETATM   13  C11 UNL     1     -39.866  15.859  -5.181  1.00 20.00     0.010 A 
ENDBRANCH   5  11
TORSDOF 1
ENDMDL
