MODEL 1
REMARK VINA RESULT:      -3.0      0.000      0.000
REMARK  6 active torsions:
REMARK  status: ('A' for Active; 'I' for Inactive)
REMARK    1  A    between atoms: C2_2  and  C3_3 
REMARK    2  A    between atoms: C2_2  and  O6_6 
REMARK    3  A    between atoms: C3_3  and  S8_8 
REMARK    4  A    between atoms: C4_4  and  C5_5 
REMARK    5  A    between atoms: C4_4  and  S7_7 
REMARK    6  A    between atoms: C5_5  and  S8_8 
ROOT
HETATM    1  S8  UNL     1     -34.018   5.923   3.727  1.00 20.00    -0.166 SA
ENDROOT
BRANCH   1   2
HETATM    2  C3  UNL     1     -32.346   6.211   3.072  1.00 20.00     0.100 C 
BRANCH   2   3
HETATM    3  C2  UNL     1     -32.008   7.693   3.045  1.00 20.00     0.177 C 
BRANCH   3   4
HETATM    4  O6  UNL     1     -31.852   8.132   1.701  1.00 20.00    -0.395 OA
HETATM    5  C1  UNL     1     -32.401   9.428   1.509  1.00 20.00     0.201 C 
ENDBRANCH   3   4
ENDBRANCH   2   3
ENDBRANCH   1   2
BRANCH   1   6
HETATM    6  C5  UNL     1     -33.758   6.568   5.394  1.00 20.00     0.084 C 
BRANCH   6   7
HETATM    7  C4  UNL     1     -34.455   5.679   6.414  1.00 20.00     0.081 C 
BRANCH   7   8
HETATM    8  S7  UNL     1     -35.000   4.132   5.630  1.00 20.00    -0.181 SA
HETATM    9  H20 UNL     1     -35.663   4.713   4.621  1.00 20.00     0.101 HD
ENDBRANCH   7   8
ENDBRANCH   6   7
ENDBRANCH   1   6
TORSDOF 6
ENDMDL
MODEL 2
REMARK VINA RESULT:      -2.9      1.306      1.306
REMARK  6 active torsions:
REMARK  status: ('A' for Active; 'I' for Inactive)
REMARK    1  A    between atoms: C2_2  and  C3_3 
REMARK    2  A    between atoms: C2_2  and  O6_6 
REMARK    3  A    between atoms: C3_3  and  S8_8 
REMARK    4  A    between atoms: C4_4  and  C5_5 
REMARK    5  A    between atoms: C4_4  and  S7_7 
REMARK    6  A    between atoms: C5_5  and  S8_8 
ROOT
HETATM    1  S8  UNL     1     -33.668   6.489   4.324  1.00 20.00    -0.166 SA
ENDROOT
BRANCH   1   2
HETATM    2  C3  UNL     1     -32.533   6.504   2.903  1.00 20.00     0.100 C 
BRANCH   2   3
HETATM    3  C2  UNL     1     -31.811   7.837   2.784  1.00 20.00     0.177 C 
BRANCH   3   4
HETATM    4  O6  UNL     1     -31.844   8.290   1.436  1.00 20.00    -0.395 OA
HETATM    5  C1  UNL     1     -32.401   9.593   1.339  1.00 20.00     0.201 C 
ENDBRANCH   3   4
ENDBRANCH   2   3
ENDBRANCH   1   2
BRANCH   1   6
HETATM    6  C5  UNL     1     -34.909   5.360   3.653  1.00 20.00     0.084 C 
BRANCH   6   7
HETATM    7  C4  UNL     1     -35.267   4.301   4.685  1.00 20.00     0.081 C 
BRANCH   7   8
HETATM    8  S7  UNL     1     -34.708   4.819   6.335  1.00 20.00    -0.181 SA
HETATM    9  H20 UNL     1     -34.851   3.620   6.915  1.00 20.00     0.101 HD
ENDBRANCH   7   8
ENDBRANCH   6   7
ENDBRANCH   1   6
TORSDOF 6
ENDMDL
MODEL 3
REMARK VINA RESULT:      -2.9     11.476     11.684
REMARK  6 active torsions:
REMARK  status: ('A' for Active; 'I' for Inactive)
REMARK    1  A    between atoms: C2_2  and  C3_3 
REMARK    2  A    between atoms: C2_2  and  O6_6 
REMARK    3  A    between atoms: C3_3  and  S8_8 
REMARK    4  A    between atoms: C4_4  and  C5_5 
REMARK    5  A    between atoms: C4_4  and  S7_7 
REMARK    6  A    between atoms: C5_5  and  S8_8 
ROOT
HETATM    1  S8  UNL     1     -34.021  17.051  -3.304  1.00 20.00    -0.166 SA
ENDROOT
BRANCH   1   2
HETATM    2  C3  UNL     1     -33.443  15.692  -4.365  1.00 20.00     0.100 C 
BRANCH   2   3
HETATM    3  C2  UNL     1     -32.694  14.640  -3.561  1.00 20.00     0.177 C 
BRANCH   3   4
HETATM    4  O6  UNL     1     -33.244  13.353  -3.812  1.00 20.00    -0.395 OA
HETATM    5  C1  UNL     1     -34.323  13.418  -4.734  1.00 20.00     0.201 C 
ENDBRANCH   3   4
ENDBRANCH   2   3
ENDBRANCH   1   2
BRANCH   1   6
HETATM    6  C5  UNL     1     -34.610  16.061  -1.913  1.00 20.00     0.084 C 
BRANCH   6   7
HETATM    7  C4  UNL     1     -34.636  16.902  -0.644  1.00 20.00     0.081 C 
BRANCH   7   8
HETATM    8  S7  UNL     1     -33.395  18.226  -0.746  1.00 20.00    -0.181 SA
HETATM    9  H20 UNL     1     -33.107  18.049  -2.042  1.00 20.00     0.101 HD
ENDBRANCH   7   8
ENDBRANCH   6   7
ENDBRANCH   1   6
TORSDOF 6
ENDMDL
MODEL 4
REMARK VINA RESULT:      -2.8      2.988      5.083
REMARK  6 active torsions:
REMARK  status: ('A' for Active; 'I' for Inactive)
REMARK    1  A    between atoms: C2_2  and  C3_3 
REMARK    2  A    between atoms: C2_2  and  O6_6 
REMARK    3  A    between atoms: C3_3  and  S8_8 
REMARK    4  A    between atoms: C4_4  and  C5_5 
REMARK    5  A    between atoms: C4_4  and  S7_7 
REMARK    6  A    between atoms: C5_5  and  S8_8 
ROOT
HETATM    1  S8  UNL     1     -32.588   6.022   3.119  1.00 20.00    -0.166 SA
ENDROOT
BRANCH   1   2
HETATM    2  C3  UNL     1     -34.080   6.366   4.099  1.00 20.00     0.100 C 
BRANCH   2   3
HETATM    3  C2  UNL     1     -35.050   5.195   4.063  1.00 20.00     0.177 C 
BRANCH   3   4
HETATM    4  O6  UNL     1     -35.248   4.685   5.375  1.00 20.00    -0.395 OA
HETATM    5  C1  UNL     1     -34.566   5.466   6.346  1.00 20.00     0.201 C 
ENDBRANCH   3   4
ENDBRANCH   2   3
ENDBRANCH   1   2
BRANCH   1   6
HETATM    6  C5  UNL     1     -31.940   7.706   3.034  1.00 20.00     0.084 C 
BRANCH   6   7
HETATM    7  C4  UNL     1     -31.851   8.161   1.584  1.00 20.00     0.081 C 
BRANCH   7   8
HETATM    8  S7  UNL     1     -32.518   9.844   1.415  1.00 20.00    -0.181 SA
HETATM    9  H20 UNL     1     -33.171   9.621   0.266  1.00 20.00     0.101 HD
ENDBRANCH   7   8
ENDBRANCH   6   7
ENDBRANCH   1   6
TORSDOF 6
ENDMDL
MODEL 5
REMARK VINA RESULT:      -2.8     11.238     12.357
REMARK  6 active torsions:
REMARK  status: ('A' for Active; 'I' for Inactive)
REMARK    1  A    between atoms: C2_2  and  C3_3 
REMARK    2  A    between atoms: C2_2  and  O6_6 
REMARK    3  A    between atoms: C3_3  and  S8_8 
REMARK    4  A    between atoms: C4_4  and  C5_5 
REMARK    5  A    between atoms: C4_4  and  S7_7 
REMARK    6  A    between atoms: C5_5  and  S8_8 
ROOT
HETATM    1  S8  UNL     1     -35.027  14.811  -5.816  1.00 20.00    -0.166 SA
ENDROOT
BRANCH   1   2
HETATM    2  C3  UNL     1     -36.774  15.086  -5.391  1.00 20.00     0.100 C 
BRANCH   2   3
HETATM    3  C2  UNL     1     -37.021  14.888  -3.904  1.00 20.00     0.177 C 
BRANCH   3   4
HETATM    4  O6  UNL     1     -38.236  14.177  -3.702  1.00 20.00    -0.395 OA
HETATM    5  C1  UNL     1     -39.277  14.680  -4.528  1.00 20.00     0.201 C 
ENDBRANCH   3   4
ENDBRANCH   2   3
ENDBRANCH   1   2
BRANCH   1   6
HETATM    6  C5  UNL     1     -34.740  13.348  -4.796  1.00 20.00     0.084 C 
BRANCH   6   7
HETATM    7  C4  UNL     1     -33.566  13.586  -3.856  1.00 20.00     0.081 C 
BRANCH   7   8
HETATM    8  S7  UNL     1     -33.174  15.360  -3.781  1.00 20.00    -0.181 SA
HETATM    9  H20 UNL     1     -33.171  15.446  -2.444  1.00 20.00     0.101 HD
ENDBRANCH   7   8
ENDBRANCH   6   7
ENDBRANCH   1   6
TORSDOF 6
ENDMDL
MODEL 6
REMARK VINA RESULT:      -2.8      2.930      5.099
REMARK  6 active torsions:
REMARK  status: ('A' for Active; 'I' for Inactive)
REMARK    1  A    between atoms: C2_2  and  C3_3 
REMARK    2  A    between atoms: C2_2  and  O6_6 
REMARK    3  A    between atoms: C3_3  and  S8_8 
REMARK    4  A    between atoms: C4_4  and  C5_5 
REMARK    5  A    between atoms: C4_4  and  S7_7 
REMARK    6  A    between atoms: C5_5  and  S8_8 
ROOT
HETATM    1  S8  UNL     1     -32.599   5.991   3.235  1.00 20.00    -0.166 SA
ENDROOT
BRANCH   1   2
HETATM    2  C3  UNL     1     -34.126   6.318   4.166  1.00 20.00     0.100 C 
BRANCH   2   3
HETATM    3  C2  UNL     1     -33.871   6.328   5.665  1.00 20.00     0.177 C 
BRANCH   3   4
HETATM    4  O6  UNL     1     -34.823   5.504   6.327  1.00 20.00    -0.395 OA
HETATM    5  C1  UNL     1     -34.885   4.209   5.744  1.00 20.00     0.201 C 
ENDBRANCH   3   4
ENDBRANCH   2   3
ENDBRANCH   1   2
BRANCH   1   6
HETATM    6  C5  UNL     1     -32.000   7.691   3.114  1.00 20.00     0.084 C 
BRANCH   6   7
HETATM    7  C4  UNL     1     -31.892   8.107   1.654  1.00 20.00     0.081 C 
BRANCH   7   8
HETATM    8  S7  UNL     1     -32.494   9.809   1.442  1.00 20.00    -0.181 SA
HETATM    9  H20 UNL     1     -32.805  10.009   2.730  1.00 20.00     0.101 HD
ENDBRANCH   7   8
ENDBRANCH   6   7
ENDBRANCH   1   6
TORSDOF 6
ENDMDL
MODEL 7
REMARK VINA RESULT:      -2.8     11.571     12.794
REMARK  6 active torsions:
REMARK  status: ('A' for Active; 'I' for Inactive)
REMARK    1  A    between atoms: C2_2  and  C3_3 
REMARK    2  A    between atoms: C2_2  and  O6_6 
REMARK    3  A    between atoms: C3_3  and  S8_8 
REMARK    4  A    between atoms: C4_4  and  C5_5 
REMARK    5  A    between atoms: C4_4  and  S7_7 
REMARK    6  A    between atoms: C5_5  and  S8_8 
ROOT
HETATM    1  S8  UNL     1     -33.896  17.144  -3.820  1.00 20.00    -0.166 SA
ENDROOT
BRANCH   1   2
HETATM    2  C3  UNL     1     -34.021  15.543  -2.967  1.00 20.00     0.100 C 
BRANCH   2   3
HETATM    3  C2  UNL     1     -33.188  14.477  -3.662  1.00 20.00     0.177 C 
BRANCH   3   4
HETATM    4  O6  UNL     1     -33.873  13.232  -3.638  1.00 20.00    -0.395 OA
HETATM    5  C1  UNL     1     -35.163  13.335  -4.224  1.00 20.00     0.201 C 
ENDBRANCH   3   4
ENDBRANCH   2   3
ENDBRANCH   1   2
BRANCH   1   6
HETATM    6  C5  UNL     1     -33.395  16.534  -5.445  1.00 20.00     0.084 C 
BRANCH   6   7
HETATM    7  C4  UNL     1     -34.556  16.637  -6.424  1.00 20.00     0.081 C 
BRANCH   7   8
HETATM    8  S7  UNL     1     -34.661  15.127  -7.431  1.00 20.00    -0.181 SA
HETATM    9  H20 UNL     1     -35.617  15.575  -8.256  1.00 20.00     0.101 HD
ENDBRANCH   7   8
ENDBRANCH   6   7
ENDBRANCH   1   6
TORSDOF 6
ENDMDL
MODEL 8
REMARK VINA RESULT:      -2.8     11.209     11.760
REMARK  6 active torsions:
REMARK  status: ('A' for Active; 'I' for Inactive)
REMARK    1  A    between atoms: C2_2  and  C3_3 
REMARK    2  A    between atoms: C2_2  and  O6_6 
REMARK    3  A    between atoms: C3_3  and  S8_8 
REMARK    4  A    between atoms: C4_4  and  C5_5 
REMARK    5  A    between atoms: C4_4  and  S7_7 
REMARK    6  A    between atoms: C5_5  and  S8_8 
ROOT
HETATM    1  S8  UNL     1     -33.453  15.675  -3.994  1.00 20.00    -0.166 SA
ENDROOT
BRANCH   1   2
HETATM    2  C3  UNL     1     -34.432  14.256  -3.418  1.00 20.00     0.100 C 
BRANCH   2   3
HETATM    3  C2  UNL     1     -35.481  13.853  -4.443  1.00 20.00     0.177 C 
BRANCH   3   4
HETATM    4  O6  UNL     1     -36.769  13.829  -3.839  1.00 20.00    -0.395 OA
HETATM    5  C1  UNL     1     -37.382  15.110  -3.869  1.00 20.00     0.201 C 
ENDBRANCH   3   4
ENDBRANCH   2   3
ENDBRANCH   1   2
BRANCH   1   6
HETATM    6  C5  UNL     1     -34.095  16.915  -2.847  1.00 20.00     0.084 C 
BRANCH   6   7
HETATM    7  C4  UNL     1     -34.658  16.240  -1.606  1.00 20.00     0.081 C 
BRANCH   7   8
HETATM    8  S7  UNL     1     -34.610  17.384  -0.194  1.00 20.00    -0.181 SA
HETATM    9  H20 UNL     1     -33.328  17.162   0.123  1.00 20.00     0.101 HD
ENDBRANCH   7   8
ENDBRANCH   6   7
ENDBRANCH   1   6
TORSDOF 6
ENDMDL
MODEL 9
REMARK VINA RESULT:      -2.7     11.199     12.352
REMARK  6 active torsions:
REMARK  status: ('A' for Active; 'I' for Inactive)
REMARK    1  A    between atoms: C2_2  and  C3_3 
REMARK    2  A    between atoms: C2_2  and  O6_6 
REMARK    3  A    between atoms: C3_3  and  S8_8 
REMARK    4  A    between atoms: C4_4  and  C5_5 
REMARK    5  A    between atoms: C4_4  and  S7_7 
REMARK    6  A    between atoms: C5_5  and  S8_8 
ROOT
HETATM    1  S8  UNL     1     -34.633  13.568  -5.044  1.00 20.00    -0.166 SA
ENDROOT
BRANCH   1   2
HETATM    2  C3  UNL     1     -33.392  13.976  -3.779  1.00 20.00     0.100 C 
BRANCH   2   3
HETATM    3  C2  UNL     1     -33.295  15.478  -3.561  1.00 20.00     0.177 C 
BRANCH   3   4
HETATM    4  O6  UNL     1     -32.740  16.102  -4.711  1.00 20.00    -0.395 OA
HETATM    5  C1  UNL     1     -33.448  17.284  -5.056  1.00 20.00     0.201 C 
ENDBRANCH   3   4
ENDBRANCH   2   3
ENDBRANCH   1   2
BRANCH   1   6
HETATM    6  C5  UNL     1     -36.095  14.187  -4.183  1.00 20.00     0.084 C 
BRANCH   6   7
HETATM    7  C4  UNL     1     -36.800  15.235  -5.031  1.00 20.00     0.081 C 
BRANCH   7   8
HETATM    8  S7  UNL     1     -36.194  15.165  -6.744  1.00 20.00    -0.181 SA
HETATM    9  H20 UNL     1     -35.732  13.909  -6.678  1.00 20.00     0.101 HD
ENDBRANCH   7   8
ENDBRANCH   6   7
ENDBRANCH   1   6
TORSDOF 6
ENDMDL
