MODEL 1
REMARK VINA RESULT:      -3.3      0.000      0.000
REMARK  5 active torsions:
REMARK  status: ('A' for Active; 'I' for Inactive)
REMARK    1  A    between atoms: C3_3  and  C6_6 
REMARK    2  A    between atoms: C4_4  and  C6_6 
REMARK    3  A    between atoms: C4_4  and  O7_7 
REMARK    4  A    between atoms: C5_5  and  C6_6 
REMARK    5  A    between atoms: C5_5  and  S8_8 
ROOT
HETATM    1  C6  UNL     1     -33.752  15.669  -3.798  1.00 20.00     0.018 C 
ENDROOT
BRANCH   1   2
HETATM    2  C3  UNL     1     -33.587  16.414  -2.459  1.00 20.00     0.003 C 
HETATM    3  C1  UNL     1     -34.778  16.266  -1.522  1.00 20.00     0.005 C 
ENDBRANCH   1   2
BRANCH   1   4
HETATM    4  C4  UNL     1     -33.105  14.277  -3.694  1.00 20.00     0.172 C 
BRANCH   4   5
HETATM    5  O7  UNL     1     -34.090  13.296  -3.399  1.00 20.00    -0.396 OA
HETATM    6  C2  UNL     1     -35.171  13.349  -4.319  1.00 20.00     0.201 C 
ENDBRANCH   4   5
ENDBRANCH   1   4
BRANCH   1   7
HETATM    7  C5  UNL     1     -33.281  16.461  -5.037  1.00 20.00     0.077 C 
BRANCH   7   8
HETATM    8  S8  UNL     1     -33.674  18.239  -5.021  1.00 20.00    -0.182 SA
HETATM    9  H22 UNL     1     -33.601  18.383  -3.691  1.00 20.00     0.101 HD
ENDBRANCH   7   8
ENDBRANCH   1   7
TORSDOF 5
ENDMDL
MODEL 2
REMARK VINA RESULT:      -3.2      2.108      2.259
REMARK  5 active torsions:
REMARK  status: ('A' for Active; 'I' for Inactive)
REMARK    1  A    between atoms: C3_3  and  C6_6 
REMARK    2  A    between atoms: C4_4  and  C6_6 
REMARK    3  A    between atoms: C4_4  and  O7_7 
REMARK    4  A    between atoms: C5_5  and  C6_6 
REMARK    5  A    between atoms: C5_5  and  S8_8 
ROOT
HETATM    1  C6  UNL     1     -34.787  15.611  -2.618  1.00 20.00     0.018 C 
ENDROOT
BRANCH   1   2
HETATM    2  C3  UNL     1     -34.023  16.605  -1.720  1.00 20.00     0.003 C 
HETATM    3  C1  UNL     1     -34.731  16.918  -0.409  1.00 20.00     0.005 C 
ENDBRANCH   1   2
BRANCH   1   4
HETATM    4  C4  UNL     1     -33.783  14.806  -3.461  1.00 20.00     0.172 C 
BRANCH   4   5
HETATM    5  O7  UNL     1     -34.191  13.447  -3.548  1.00 20.00    -0.396 OA
HETATM    6  C2  UNL     1     -34.518  13.084  -4.882  1.00 20.00     0.201 C 
ENDBRANCH   4   5
ENDBRANCH   1   4
BRANCH   1   7
HETATM    7  C5  UNL     1     -35.913  16.244  -3.464  1.00 20.00     0.077 C 
BRANCH   7   8
HETATM    8  S8  UNL     1     -37.396  15.213  -3.685  1.00 20.00    -0.182 SA
HETATM    9  H22 UNL     1     -37.576  15.506  -4.979  1.00 20.00     0.101 HD
ENDBRANCH   7   8
ENDBRANCH   1   7
TORSDOF 5
ENDMDL
MODEL 3
REMARK VINA RESULT:      -3.2      2.437      3.052
REMARK  5 active torsions:
REMARK  status: ('A' for Active; 'I' for Inactive)
REMARK    1  A    between atoms: C3_3  and  C6_6 
REMARK    2  A    between atoms: C4_4  and  C6_6 
REMARK    3  A    between atoms: C4_4  and  O7_7 
REMARK    4  A    between atoms: C5_5  and  C6_6 
REMARK    5  A    between atoms: C5_5  and  S8_8 
ROOT
HETATM    1  C6  UNL     1     -33.581  15.848  -3.035  1.00 20.00     0.018 C 
ENDROOT
BRANCH   1   2
HETATM    2  C3  UNL     1     -34.806  15.896  -2.099  1.00 20.00     0.003 C 
HETATM    3  C1  UNL     1     -34.569  16.682  -0.816  1.00 20.00     0.005 C 
ENDBRANCH   1   2
BRANCH   1   4
HETATM    4  C4  UNL     1     -33.639  17.032  -4.016  1.00 20.00     0.172 C 
BRANCH   4   5
HETATM    5  O7  UNL     1     -33.215  16.621  -5.309  1.00 20.00    -0.396 OA
HETATM    6  C2  UNL     1     -34.138  17.019  -6.312  1.00 20.00     0.201 C 
ENDBRANCH   4   5
ENDBRANCH   1   4
BRANCH   1   7
HETATM    7  C5  UNL     1     -33.364  14.491  -3.738  1.00 20.00     0.077 C 
BRANCH   7   8
HETATM    8  S8  UNL     1     -34.882  13.592  -4.184  1.00 20.00    -0.182 SA
HETATM    9  H22 UNL     1     -34.262  12.543  -4.740  1.00 20.00     0.101 HD
ENDBRANCH   7   8
ENDBRANCH   1   7
TORSDOF 5
ENDMDL
MODEL 4
REMARK VINA RESULT:      -3.1      1.421      2.920
REMARK  5 active torsions:
REMARK  status: ('A' for Active; 'I' for Inactive)
REMARK    1  A    between atoms: C3_3  and  C6_6 
REMARK    2  A    between atoms: C4_4  and  C6_6 
REMARK    3  A    between atoms: C4_4  and  O7_7 
REMARK    4  A    between atoms: C5_5  and  C6_6 
REMARK    5  A    between atoms: C5_5  and  S8_8 
ROOT
HETATM    1  C6  UNL     1     -33.544  15.455  -3.508  1.00 20.00     0.018 C 
ENDROOT
BRANCH   1   2
HETATM    2  C3  UNL     1     -33.583  13.926  -3.699  1.00 20.00     0.003 C 
HETATM    3  C1  UNL     1     -34.925  13.402  -4.192  1.00 20.00     0.005 C 
ENDBRANCH   1   2
BRANCH   1   4
HETATM    4  C4  UNL     1     -34.857  15.925  -2.857  1.00 20.00     0.172 C 
BRANCH   4   5
HETATM    5  O7  UNL     1     -34.700  16.022  -1.447  1.00 20.00    -0.396 OA
HETATM    6  C2  UNL     1     -33.959  17.177  -1.082  1.00 20.00     0.201 C 
ENDBRANCH   4   5
ENDBRANCH   1   4
BRANCH   1   7
HETATM    7  C5  UNL     1     -33.183  16.253  -4.780  1.00 20.00     0.077 C 
BRANCH   7   8
HETATM    8  S8  UNL     1     -33.755  17.981  -4.805  1.00 20.00    -0.182 SA
HETATM    9  H22 UNL     1     -33.391  18.228  -6.070  1.00 20.00     0.101 HD
ENDBRANCH   7   8
ENDBRANCH   1   7
TORSDOF 5
ENDMDL
MODEL 5
REMARK VINA RESULT:      -3.0     11.683     12.516
REMARK  5 active torsions:
REMARK  status: ('A' for Active; 'I' for Inactive)
REMARK    1  A    between atoms: C3_3  and  C6_6 
REMARK    2  A    between atoms: C4_4  and  C6_6 
REMARK    3  A    between atoms: C4_4  and  O7_7 
REMARK    4  A    between atoms: C5_5  and  C6_6 
REMARK    5  A    between atoms: C5_5  and  S8_8 
ROOT
HETATM    1  C6  UNL     1     -33.846   6.490   4.194  1.00 20.00     0.018 C 
ENDROOT
BRANCH   1   2
HETATM    2  C3  UNL     1     -34.873   5.695   3.364  1.00 20.00     0.003 C 
HETATM    3  C1  UNL     1     -34.270   4.969   2.169  1.00 20.00     0.005 C 
ENDBRANCH   1   2
BRANCH   1   4
HETATM    4  C4  UNL     1     -32.439   6.276   3.609  1.00 20.00     0.172 C 
BRANCH   4   5
HETATM    5  O7  UNL     1     -31.785   7.525   3.429  1.00 20.00    -0.396 OA
HETATM    6  C2  UNL     1     -32.090   8.096   2.165  1.00 20.00     0.201 C 
ENDBRANCH   4   5
ENDBRANCH   1   4
BRANCH   1   7
HETATM    7  C5  UNL     1     -33.912   6.233   5.715  1.00 20.00     0.077 C 
BRANCH   7   8
HETATM    8  S8  UNL     1     -34.785   4.715   6.212  1.00 20.00    -0.182 SA
HETATM    9  H22 UNL     1     -35.813   4.865   5.367  1.00 20.00     0.101 HD
ENDBRANCH   7   8
ENDBRANCH   1   7
TORSDOF 5
ENDMDL
MODEL 6
REMARK VINA RESULT:      -3.0      1.801      2.658
REMARK  5 active torsions:
REMARK  status: ('A' for Active; 'I' for Inactive)
REMARK    1  A    between atoms: C3_3  and  C6_6 
REMARK    2  A    between atoms: C4_4  and  C6_6 
REMARK    3  A    between atoms: C4_4  and  O7_7 
REMARK    4  A    between atoms: C5_5  and  C6_6 
REMARK    5  A    between atoms: C5_5  and  S8_8 
ROOT
HETATM    1  C6  UNL     1     -33.589  16.060  -2.992  1.00 20.00     0.018 C 
ENDROOT
BRANCH   1   2
HETATM    2  C3  UNL     1     -33.702  17.161  -4.065  1.00 20.00     0.003 C 
HETATM    3  C1  UNL     1     -33.443  16.668  -5.482  1.00 20.00     0.005 C 
ENDBRANCH   1   2
BRANCH   1   4
HETATM    4  C4  UNL     1     -33.271  14.715  -3.669  1.00 20.00     0.172 C 
BRANCH   4   5
HETATM    5  O7  UNL     1     -34.315  13.782  -3.426  1.00 20.00    -0.396 OA
HETATM    6  C2  UNL     1     -34.853  13.272  -4.637  1.00 20.00     0.201 C 
ENDBRANCH   4   5
ENDBRANCH   1   4
BRANCH   1   7
HETATM    7  C5  UNL     1     -34.790  15.979  -2.025  1.00 20.00     0.077 C 
BRANCH   7   8
HETATM    8  S8  UNL     1     -34.660  17.015  -0.534  1.00 20.00    -0.182 SA
HETATM    9  H22 UNL     1     -34.824  18.185  -1.164  1.00 20.00     0.101 HD
ENDBRANCH   7   8
ENDBRANCH   1   7
TORSDOF 5
ENDMDL
MODEL 7
REMARK VINA RESULT:      -3.0      2.393      3.440
REMARK  5 active torsions:
REMARK  status: ('A' for Active; 'I' for Inactive)
REMARK    1  A    between atoms: C3_3  and  C6_6 
REMARK    2  A    between atoms: C4_4  and  C6_6 
REMARK    3  A    between atoms: C4_4  and  O7_7 
REMARK    4  A    between atoms: C5_5  and  C6_6 
REMARK    5  A    between atoms: C5_5  and  S8_8 
ROOT
HETATM    1  C6  UNL     1     -34.918  14.195  -3.779  1.00 20.00     0.018 C 
ENDROOT
BRANCH   1   2
HETATM    2  C3  UNL     1     -34.897  13.586  -5.195  1.00 20.00     0.003 C 
HETATM    3  C1  UNL     1     -34.675  14.608  -6.301  1.00 20.00     0.005 C 
ENDBRANCH   1   2
BRANCH   1   4
HETATM    4  C4  UNL     1     -36.237  14.960  -3.570  1.00 20.00     0.172 C 
BRANCH   4   5
HETATM    5  O7  UNL     1     -37.346  14.096  -3.776  1.00 20.00    -0.396 OA
HETATM    6  C2  UNL     1     -38.550  14.827  -3.963  1.00 20.00     0.201 C 
ENDBRANCH   4   5
ENDBRANCH   1   4
BRANCH   1   7
HETATM    7  C5  UNL     1     -33.672  15.033  -3.421  1.00 20.00     0.077 C 
BRANCH   7   8
HETATM    8  S8  UNL     1     -34.013  16.659  -2.677  1.00 20.00    -0.182 SA
HETATM    9  H22 UNL     1     -35.097  16.924  -3.417  1.00 20.00     0.101 HD
ENDBRANCH   7   8
ENDBRANCH   1   7
TORSDOF 5
ENDMDL
MODEL 8
REMARK VINA RESULT:      -3.0      2.947      3.742
REMARK  5 active torsions:
REMARK  status: ('A' for Active; 'I' for Inactive)
REMARK    1  A    between atoms: C3_3  and  C6_6 
REMARK    2  A    between atoms: C4_4  and  C6_6 
REMARK    3  A    between atoms: C4_4  and  O7_7 
REMARK    4  A    between atoms: C5_5  and  C6_6 
REMARK    5  A    between atoms: C5_5  and  S8_8 
ROOT
HETATM    1  C6  UNL     1     -35.667  14.842  -4.632  1.00 20.00     0.018 C 
ENDROOT
BRANCH   1   2
HETATM    2  C3  UNL     1     -34.971  13.486  -4.400  1.00 20.00     0.003 C 
HETATM    3  C1  UNL     1     -33.551  13.608  -3.864  1.00 20.00     0.005 C 
ENDBRANCH   1   2
BRANCH   1   4
HETATM    4  C4  UNL     1     -36.723  15.070  -3.536  1.00 20.00     0.172 C 
BRANCH   4   5
HETATM    5  O7  UNL     1     -37.824  14.191  -3.721  1.00 20.00    -0.396 OA
HETATM    6  C2  UNL     1     -39.055  14.898  -3.766  1.00 20.00     0.201 C 
ENDBRANCH   4   5
ENDBRANCH   1   4
BRANCH   1   7
HETATM    7  C5  UNL     1     -36.225  15.041  -6.058  1.00 20.00     0.077 C 
BRANCH   7   8
HETATM    8  S8  UNL     1     -35.070  14.649  -7.409  1.00 20.00    -0.182 SA
HETATM    9  H22 UNL     1     -33.966  14.653  -6.651  1.00 20.00     0.101 HD
ENDBRANCH   7   8
ENDBRANCH   1   7
TORSDOF 5
ENDMDL
MODEL 9
REMARK VINA RESULT:      -2.9      1.882      3.160
REMARK  5 active torsions:
REMARK  status: ('A' for Active; 'I' for Inactive)
REMARK    1  A    between atoms: C3_3  and  C6_6 
REMARK    2  A    between atoms: C4_4  and  C6_6 
REMARK    3  A    between atoms: C4_4  and  O7_7 
REMARK    4  A    between atoms: C5_5  and  C6_6 
REMARK    5  A    between atoms: C5_5  and  S8_8 
ROOT
HETATM    1  C6  UNL     1     -34.610  15.623  -3.332  1.00 20.00     0.018 C 
ENDROOT
BRANCH   1   2
HETATM    2  C3  UNL     1     -35.629  14.510  -3.651  1.00 20.00     0.003 C 
HETATM    3  C1  UNL     1     -35.026  13.308  -4.363  1.00 20.00     0.005 C 
ENDBRANCH   1   2
BRANCH   1   4
HETATM    4  C4  UNL     1     -33.213  15.191  -3.812  1.00 20.00     0.172 C 
BRANCH   4   5
HETATM    5  O7  UNL     1     -32.639  16.201  -4.631  1.00 20.00    -0.396 OA
HETATM    6  C2  UNL     1     -33.613  16.814  -5.464  1.00 20.00     0.201 C 
ENDBRANCH   4   5
ENDBRANCH   1   4
BRANCH   1   7
HETATM    7  C5  UNL     1     -34.622  16.104  -1.866  1.00 20.00     0.077 C 
BRANCH   7   8
HETATM    8  S8  UNL     1     -33.860  17.731  -1.573  1.00 20.00    -0.182 SA
HETATM    9  H22 UNL     1     -32.717  17.466  -2.220  1.00 20.00     0.101 HD
ENDBRANCH   7   8
ENDBRANCH   1   7
TORSDOF 5
ENDMDL
