MODEL 1
REMARK VINA RESULT:      -3.7      0.000      0.000
REMARK  5 active torsions:
REMARK  status: ('A' for Active; 'I' for Inactive)
REMARK    1  A    between atoms: C1_1  and  C7_7 
REMARK    2  A    between atoms: C2_2  and  C8_8 
REMARK    3  A    between atoms: C5_5  and  N9_9 
REMARK    4  A    between atoms: C7_7  and  N9_9 
REMARK    5  A    between atoms: C8_8  and  S10_10 
ROOT
HETATM    1  C7  UNL     1     -34.044  16.252  -2.628  1.00 20.00     0.299 C 
ENDROOT
BRANCH   1   2
HETATM    2  C1  UNL     1     -34.695  16.385  -1.285  1.00 20.00    -0.000 C 
HETATM    3  C2  UNL     1     -34.401  17.354  -0.404  1.00 20.00    -0.019 C 
BRANCH   3   4
HETATM    4  C8  UNL     1     -35.056  17.486   0.933  1.00 20.00     0.097 C 
BRANCH   4   5
HETATM    5  S10 UNL     1     -34.195  18.731   1.930  1.00 20.00    -0.178 SA
HETATM    6  H25 UNL     1     -32.957  18.400   1.539  1.00 20.00     0.101 HD
ENDBRANCH   4   5
ENDBRANCH   3   4
ENDBRANCH   1   2
BRANCH   1   7
HETATM    7  N9  UNL     1     -34.929  15.605  -3.592  1.00 20.00     0.092 N 
HETATM    8  C6  UNL     1     -36.327  15.931  -3.304  1.00 20.00     0.310 C 
BRANCH   7   9
HETATM    9  C5  UNL     1     -34.731  14.156  -3.578  1.00 20.00     0.223 A 
HETATM   10  C3  UNL     1     -34.378  13.425  -4.845  1.00 20.00     0.038 A 
HETATM   11  C4  UNL     1     -33.356  13.571  -3.754  1.00 20.00     0.038 A 
ENDBRANCH   7   9
ENDBRANCH   1   7
TORSDOF 5
ENDMDL
MODEL 2
REMARK VINA RESULT:      -3.7     10.920     11.731
REMARK  5 active torsions:
REMARK  status: ('A' for Active; 'I' for Inactive)
REMARK    1  A    between atoms: C1_1  and  C7_7 
REMARK    2  A    between atoms: C2_2  and  C8_8 
REMARK    3  A    between atoms: C5_5  and  N9_9 
REMARK    4  A    between atoms: C7_7  and  N9_9 
REMARK    5  A    between atoms: C8_8  and  S10_10 
ROOT
HETATM    1  C7  UNL     1     -32.974   6.497   4.119  1.00 20.00     0.299 C 
ENDROOT
BRANCH   1   2
HETATM    2  C1  UNL     1     -32.359   6.918   2.819  1.00 20.00    -0.000 C 
HETATM    3  C2  UNL     1     -32.135   8.196   2.478  1.00 20.00    -0.019 C 
BRANCH   3   4
HETATM    4  C8  UNL     1     -31.518   8.612   1.181  1.00 20.00     0.097 C 
BRANCH   4   5
HETATM    5  S10 UNL     1     -32.800   9.180   0.032  1.00 20.00    -0.178 SA
HETATM    6  H25 UNL     1     -33.823   8.563   0.641  1.00 20.00     0.101 HD
ENDBRANCH   4   5
ENDBRANCH   3   4
ENDBRANCH   1   2
BRANCH   1   7
HETATM    7  N9  UNL     1     -33.845   5.338   3.951  1.00 20.00     0.092 N 
HETATM    8  C6  UNL     1     -34.444   5.335   2.615  1.00 20.00     0.310 C 
BRANCH   7   9
HETATM    9  C5  UNL     1     -34.888   5.326   4.977  1.00 20.00     0.223 A 
HETATM   10  C3  UNL     1     -34.964   4.199   5.970  1.00 20.00     0.038 A 
HETATM   11  C4  UNL     1     -34.543   5.568   6.420  1.00 20.00     0.038 A 
ENDBRANCH   7   9
ENDBRANCH   1   7
TORSDOF 5
ENDMDL
MODEL 3
REMARK VINA RESULT:      -3.7      1.911      2.376
REMARK  5 active torsions:
REMARK  status: ('A' for Active; 'I' for Inactive)
REMARK    1  A    between atoms: C1_1  and  C7_7 
REMARK    2  A    between atoms: C2_2  and  C8_8 
REMARK    3  A    between atoms: C5_5  and  N9_9 
REMARK    4  A    between atoms: C7_7  and  N9_9 
REMARK    5  A    between atoms: C8_8  and  S10_10 
ROOT
HETATM    1  C7  UNL     1     -33.344  15.540  -3.744  1.00 20.00     0.299 C 
ENDROOT
BRANCH   1   2
HETATM    2  C1  UNL     1     -33.664  16.475  -2.618  1.00 20.00    -0.000 C 
HETATM    3  C2  UNL     1     -34.517  16.182  -1.624  1.00 20.00    -0.019 C 
BRANCH   3   4
HETATM    4  C8  UNL     1     -34.831  17.117  -0.499  1.00 20.00     0.097 C 
BRANCH   4   5
HETATM    5  S10 UNL     1     -33.482  18.309  -0.283  1.00 20.00    -0.178 SA
HETATM    6  H25 UNL     1     -34.123  19.353  -0.826  1.00 20.00     0.101 HD
ENDBRANCH   4   5
ENDBRANCH   3   4
ENDBRANCH   1   2
BRANCH   1   7
HETATM    7  N9  UNL     1     -33.428  16.210  -5.038  1.00 20.00     0.092 N 
HETATM    8  C6  UNL     1     -33.501  17.661  -4.862  1.00 20.00     0.310 C 
BRANCH   7   9
HETATM    9  C5  UNL     1     -34.588  15.729  -5.790  1.00 20.00     0.223 A 
HETATM   10  C3  UNL     1     -34.403  15.039  -7.114  1.00 20.00     0.038 A 
HETATM   11  C4  UNL     1     -34.860  14.255  -5.917  1.00 20.00     0.038 A 
ENDBRANCH   7   9
ENDBRANCH   1   7
TORSDOF 5
ENDMDL
MODEL 4
REMARK VINA RESULT:      -3.5      1.252      1.674
REMARK  5 active torsions:
REMARK  status: ('A' for Active; 'I' for Inactive)
REMARK    1  A    between atoms: C1_1  and  C7_7 
REMARK    2  A    between atoms: C2_2  and  C8_8 
REMARK    3  A    between atoms: C5_5  and  N9_9 
REMARK    4  A    between atoms: C7_7  and  N9_9 
REMARK    5  A    between atoms: C8_8  and  S10_10 
ROOT
HETATM    1  C7  UNL     1     -35.354  16.376  -3.484  1.00 20.00     0.299 C 
ENDROOT
BRANCH   1   2
HETATM    2  C1  UNL     1     -35.397  17.051  -2.147  1.00 20.00    -0.000 C 
HETATM    3  C2  UNL     1     -34.738  16.609  -1.065  1.00 20.00    -0.019 C 
BRANCH   3   4
HETATM    4  C8  UNL     1     -34.780  17.288   0.267  1.00 20.00     0.097 C 
BRANCH   4   5
HETATM    5  S10 UNL     1     -33.482  18.550   0.366  1.00 20.00    -0.178 SA
HETATM    6  H25 UNL     1     -34.266  19.589   0.044  1.00 20.00     0.101 HD
ENDBRANCH   4   5
ENDBRANCH   3   4
ENDBRANCH   1   2
BRANCH   1   7
HETATM    7  N9  UNL     1     -33.985  16.058  -3.880  1.00 20.00     0.092 N 
HETATM    8  C6  UNL     1     -33.477  17.057  -4.821  1.00 20.00     0.310 C 
BRANCH   7   9
HETATM    9  C5  UNL     1     -33.920  14.721  -4.472  1.00 20.00     0.223 A 
HETATM   10  C3  UNL     1     -33.318  13.578  -3.702  1.00 20.00     0.038 A 
HETATM   11  C4  UNL     1     -34.797  13.613  -3.956  1.00 20.00     0.038 A 
ENDBRANCH   7   9
ENDBRANCH   1   7
TORSDOF 5
ENDMDL
MODEL 5
REMARK VINA RESULT:      -3.4      1.762      2.455
REMARK  5 active torsions:
REMARK  status: ('A' for Active; 'I' for Inactive)
REMARK    1  A    between atoms: C1_1  and  C7_7 
REMARK    2  A    between atoms: C2_2  and  C8_8 
REMARK    3  A    between atoms: C5_5  and  N9_9 
REMARK    4  A    between atoms: C7_7  and  N9_9 
REMARK    5  A    between atoms: C8_8  and  S10_10 
ROOT
HETATM    1  C7  UNL     1     -35.503  15.106  -3.519  1.00 20.00     0.299 C 
ENDROOT
BRANCH   1   2
HETATM    2  C1  UNL     1     -34.674  15.649  -2.395  1.00 20.00    -0.000 C 
HETATM    3  C2  UNL     1     -34.976  16.766  -1.715  1.00 20.00    -0.019 C 
BRANCH   3   4
HETATM    4  C8  UNL     1     -34.148  17.302  -0.591  1.00 20.00     0.097 C 
BRANCH   4   5
HETATM    5  S10 UNL     1     -35.198  17.657   0.843  1.00 20.00    -0.178 SA
HETATM    6  H25 UNL     1     -34.583  16.814   1.685  1.00 20.00     0.101 HD
ENDBRANCH   4   5
ENDBRANCH   3   4
ENDBRANCH   1   2
BRANCH   1   7
HETATM    7  N9  UNL     1     -34.675  14.458  -4.532  1.00 20.00     0.092 N 
HETATM    8  C6  UNL     1     -33.591  13.703  -3.902  1.00 20.00     0.310 C 
BRANCH   7   9
HETATM    9  C5  UNL     1     -34.133  15.448  -5.462  1.00 20.00     0.223 A 
HETATM   10  C3  UNL     1     -34.358  15.303  -6.943  1.00 20.00     0.038 A 
HETATM   11  C4  UNL     1     -35.047  16.400  -6.184  1.00 20.00     0.038 A 
ENDBRANCH   7   9
ENDBRANCH   1   7
TORSDOF 5
ENDMDL
MODEL 6
REMARK VINA RESULT:      -3.3      3.760      5.684
REMARK  5 active torsions:
REMARK  status: ('A' for Active; 'I' for Inactive)
REMARK    1  A    between atoms: C1_1  and  C7_7 
REMARK    2  A    between atoms: C2_2  and  C8_8 
REMARK    3  A    between atoms: C5_5  and  N9_9 
REMARK    4  A    between atoms: C7_7  and  N9_9 
REMARK    5  A    between atoms: C8_8  and  S10_10 
ROOT
HETATM    1  C7  UNL     1     -33.443  16.085  -4.836  1.00 20.00     0.299 C 
ENDROOT
BRANCH   1   2
HETATM    2  C1  UNL     1     -34.511  15.564  -5.748  1.00 20.00    -0.000 C 
HETATM    3  C2  UNL     1     -34.288  15.166  -7.010  1.00 20.00    -0.019 C 
BRANCH   3   4
HETATM    4  C8  UNL     1     -35.357  14.643  -7.916  1.00 20.00     0.097 C 
BRANCH   4   5
HETATM    5  S10 UNL     1     -36.986  15.188  -7.339  1.00 20.00    -0.178 SA
HETATM    6  H25 UNL     1     -36.743  15.013  -6.032  1.00 20.00     0.101 HD
ENDBRANCH   4   5
ENDBRANCH   3   4
ENDBRANCH   1   2
BRANCH   1   7
HETATM    7  N9  UNL     1     -33.474  15.420  -3.537  1.00 20.00     0.092 N 
HETATM    8  C6  UNL     1     -33.405  13.967  -3.702  1.00 20.00     0.310 C 
BRANCH   7   9
HETATM    9  C5  UNL     1     -34.682  15.791  -2.800  1.00 20.00     0.223 A 
HETATM   10  C3  UNL     1     -34.581  16.333  -1.400  1.00 20.00     0.038 A 
HETATM   11  C4  UNL     1     -34.996  17.236  -2.525  1.00 20.00     0.038 A 
ENDBRANCH   7   9
ENDBRANCH   1   7
TORSDOF 5
ENDMDL
MODEL 7
REMARK VINA RESULT:      -3.3     11.195     11.978
REMARK  5 active torsions:
REMARK  status: ('A' for Active; 'I' for Inactive)
REMARK    1  A    between atoms: C1_1  and  C7_7 
REMARK    2  A    between atoms: C2_2  and  C8_8 
REMARK    3  A    between atoms: C5_5  and  N9_9 
REMARK    4  A    between atoms: C7_7  and  N9_9 
REMARK    5  A    between atoms: C8_8  and  S10_10 
ROOT
HETATM    1  C7  UNL     1     -32.995   6.018   4.526  1.00 20.00     0.299 C 
ENDROOT
BRANCH   1   2
HETATM    2  C1  UNL     1     -32.981   6.757   3.223  1.00 20.00    -0.000 C 
HETATM    3  C2  UNL     1     -31.928   7.456   2.771  1.00 20.00    -0.019 C 
BRANCH   3   4
HETATM    4  C8  UNL     1     -31.917   8.189   1.468  1.00 20.00     0.097 C 
BRANCH   4   5
HETATM    5  S10 UNL     1     -32.585   9.860   1.686  1.00 20.00    -0.178 SA
HETATM    6  H25 UNL     1     -31.432  10.430   2.060  1.00 20.00     0.101 HD
ENDBRANCH   4   5
ENDBRANCH   3   4
ENDBRANCH   1   2
BRANCH   1   7
HETATM    7  N9  UNL     1     -34.109   6.440   5.370  1.00 20.00     0.092 N 
HETATM    8  C6  UNL     1     -33.617   7.136   6.560  1.00 20.00     0.310 C 
BRANCH   7   9
HETATM    9  C5  UNL     1     -34.926   5.289   5.755  1.00 20.00     0.223 A 
HETATM   10  C3  UNL     1     -35.488   4.370   4.704  1.00 20.00     0.038 A 
HETATM   11  C4  UNL     1     -34.392   3.890   5.611  1.00 20.00     0.038 A 
ENDBRANCH   7   9
ENDBRANCH   1   7
TORSDOF 5
ENDMDL
MODEL 8
REMARK VINA RESULT:      -3.1     10.191     11.067
REMARK  5 active torsions:
REMARK  status: ('A' for Active; 'I' for Inactive)
REMARK    1  A    between atoms: C1_1  and  C7_7 
REMARK    2  A    between atoms: C2_2  and  C8_8 
REMARK    3  A    between atoms: C5_5  and  N9_9 
REMARK    4  A    between atoms: C7_7  and  N9_9 
REMARK    5  A    between atoms: C8_8  and  S10_10 
ROOT
HETATM    1  C7  UNL     1     -32.213   6.258   2.645  1.00 20.00     0.299 C 
ENDROOT
BRANCH   1   2
HETATM    2  C1  UNL     1     -33.309   6.037   3.643  1.00 20.00    -0.000 C 
HETATM    3  C2  UNL     1     -34.436   5.359   3.376  1.00 20.00    -0.019 C 
BRANCH   3   4
HETATM    4  C8  UNL     1     -35.526   5.137   4.375  1.00 20.00     0.097 C 
BRANCH   4   5
HETATM    5  S10 UNL     1     -34.830   4.516   5.930  1.00 20.00    -0.178 SA
HETATM    6  H25 UNL     1     -34.566   5.719   6.460  1.00 20.00     0.101 HD
ENDBRANCH   4   5
ENDBRANCH   3   4
ENDBRANCH   1   2
BRANCH   1   7
HETATM    7  N9  UNL     1     -31.717   7.631   2.689  1.00 20.00     0.092 N 
HETATM    8  C6  UNL     1     -31.548   8.072   4.074  1.00 20.00     0.310 C 
BRANCH   7   9
HETATM    9  C5  UNL     1     -32.627   8.528   1.976  1.00 20.00     0.223 A 
HETATM   10  C3  UNL     1     -32.177   9.907   1.578  1.00 20.00     0.038 A 
HETATM   11  C4  UNL     1     -32.395   8.858   0.527  1.00 20.00     0.038 A 
ENDBRANCH   7   9
ENDBRANCH   1   7
TORSDOF 5
ENDMDL
MODEL 9
REMARK VINA RESULT:      -3.1      1.930      2.410
REMARK  5 active torsions:
REMARK  status: ('A' for Active; 'I' for Inactive)
REMARK    1  A    between atoms: C1_1  and  C7_7 
REMARK    2  A    between atoms: C2_2  and  C8_8 
REMARK    3  A    between atoms: C5_5  and  N9_9 
REMARK    4  A    between atoms: C7_7  and  N9_9 
REMARK    5  A    between atoms: C8_8  and  S10_10 
ROOT
HETATM    1  C7  UNL     1     -36.369  15.350  -3.479  1.00 20.00     0.299 C 
ENDROOT
BRANCH   1   2
HETATM    2  C1  UNL     1     -35.695  16.392  -2.638  1.00 20.00    -0.000 C 
HETATM    3  C2  UNL     1     -34.643  16.143  -1.842  1.00 20.00    -0.019 C 
BRANCH   3   4
HETATM    4  C8  UNL     1     -33.970  17.186  -1.008  1.00 20.00     0.097 C 
BRANCH   4   5
HETATM    5  S10 UNL     1     -33.672  18.678  -1.995  1.00 20.00    -0.178 SA
HETATM    6  H25 UNL     1     -34.835  18.647  -2.659  1.00 20.00     0.101 HD
ENDBRANCH   4   5
ENDBRANCH   3   4
ENDBRANCH   1   2
BRANCH   1   7
HETATM    7  N9  UNL     1     -36.345  15.705  -4.895  1.00 20.00     0.092 N 
HETATM    8  C6  UNL     1     -37.695  16.008  -5.371  1.00 20.00     0.310 C 
BRANCH   7   9
HETATM    9  C5  UNL     1     -35.757  14.623  -5.685  1.00 20.00     0.223 A 
HETATM   10  C3  UNL     1     -34.507  14.860  -6.487  1.00 20.00     0.038 A 
HETATM   11  C4  UNL     1     -34.459  13.988  -5.266  1.00 20.00     0.038 A 
ENDBRANCH   7   9
ENDBRANCH   1   7
TORSDOF 5
ENDMDL
