MODEL 1
REMARK VINA RESULT:      -4.5      0.000      0.000
REMARK  4 active torsions:
REMARK  status: ('A' for Active; 'I' for Inactive)
REMARK    1  A    between atoms: C1_1  and  C9_9 
REMARK    2  A    between atoms: C2_2  and  C10_10 
REMARK    3  A    between atoms: C9_9  and  N11_11 
REMARK    4  A    between atoms: C10_10  and  S12_12 
ROOT
HETATM    1  C3  UNL     1     -34.957  13.791  -4.531  1.00 20.00     0.002 C 
HETATM    2  C4  UNL     1     -33.614  13.619  -3.827  1.00 20.00     0.002 C 
HETATM    3  C5  UNL     1     -35.946  14.740  -3.839  1.00 20.00     0.030 C 
HETATM    4  C6  UNL     1     -32.718  14.861  -3.852  1.00 20.00     0.030 C 
HETATM    5  C7  UNL     1     -35.405  15.554  -2.658  1.00 20.00     0.272 C 
HETATM    6  C8  UNL     1     -33.430  16.209  -4.012  1.00 20.00     0.272 C 
HETATM    7  N11 UNL     1     -34.408  16.576  -2.989  1.00 20.00     0.091 N 
ENDROOT
BRANCH   7   8
HETATM    8  C9  UNL     1     -33.770  17.083  -1.775  1.00 20.00     0.299 C 
BRANCH   8   9
HETATM    9  C1  UNL     1     -34.675  16.964  -0.587  1.00 20.00    -0.000 C 
HETATM   10  C2  UNL     1     -34.590  17.752   0.497  1.00 20.00    -0.019 C 
BRANCH  10  11
HETATM   11  C10 UNL     1     -35.498  17.635   1.680  1.00 20.00     0.097 C 
BRANCH  11  12
HETATM   12  S12 UNL     1     -34.647  18.201   3.178  1.00 20.00    -0.178 SA
HETATM   13  H31 UNL     1     -33.443  17.711   2.853  1.00 20.00     0.101 HD
ENDBRANCH  11  12
ENDBRANCH  10  11
ENDBRANCH   8   9
ENDBRANCH   7   8
TORSDOF 4
ENDMDL
MODEL 2
REMARK VINA RESULT:      -4.4      1.550      1.780
REMARK  4 active torsions:
REMARK  status: ('A' for Active; 'I' for Inactive)
REMARK    1  A    between atoms: C1_1  and  C9_9 
REMARK    2  A    between atoms: C2_2  and  C10_10 
REMARK    3  A    between atoms: C9_9  and  N11_11 
REMARK    4  A    between atoms: C10_10  and  S12_12 
ROOT
HETATM    1  C3  UNL     1     -34.738  14.324  -6.024  1.00 20.00     0.002 C 
HETATM    2  C4  UNL     1     -34.574  13.305  -4.899  1.00 20.00     0.002 C 
HETATM    3  C5  UNL     1     -35.412  15.644  -5.622  1.00 20.00     0.030 C 
HETATM    4  C6  UNL     1     -33.561  13.704  -3.822  1.00 20.00     0.030 C 
HETATM    5  C7  UNL     1     -35.646  15.868  -4.124  1.00 20.00     0.272 C 
HETATM    6  C8  UNL     1     -33.300  15.204  -3.655  1.00 20.00     0.272 C 
HETATM    7  N11 UNL     1     -34.442  16.048  -3.308  1.00 20.00     0.091 N 
ENDROOT
BRANCH   7   8
HETATM    8  C9  UNL     1     -34.770  15.972  -1.885  1.00 20.00     0.299 C 
BRANCH   8   9
HETATM    9  C1  UNL     1     -34.113  17.073  -1.109  1.00 20.00    -0.000 C 
HETATM   10  C2  UNL     1     -34.512  17.466   0.111  1.00 20.00    -0.019 C 
BRANCH  10  11
HETATM   11  C10 UNL     1     -33.851  18.562   0.886  1.00 20.00     0.097 C 
BRANCH  11  12
HETATM   12  S12 UNL     1     -32.304  19.051   0.078  1.00 20.00    -0.178 SA
HETATM   13  H31 UNL     1     -32.732  18.867  -1.178  1.00 20.00     0.101 HD
ENDBRANCH  11  12
ENDBRANCH  10  11
ENDBRANCH   8   9
ENDBRANCH   7   8
TORSDOF 4
ENDMDL
MODEL 3
REMARK VINA RESULT:      -4.3      1.519      1.965
REMARK  4 active torsions:
REMARK  status: ('A' for Active; 'I' for Inactive)
REMARK    1  A    between atoms: C1_1  and  C9_9 
REMARK    2  A    between atoms: C2_2  and  C10_10 
REMARK    3  A    between atoms: C9_9  and  N11_11 
REMARK    4  A    between atoms: C10_10  and  S12_12 
ROOT
HETATM    1  C3  UNL     1     -35.001  14.099  -5.977  1.00 20.00     0.002 C 
HETATM    2  C4  UNL     1     -34.296  15.443  -6.141  1.00 20.00     0.002 C 
HETATM    3  C5  UNL     1     -34.819  13.423  -4.610  1.00 20.00     0.030 C 
HETATM    4  C6  UNL     1     -34.886  16.578  -5.299  1.00 20.00     0.030 C 
HETATM    5  C7  UNL     1     -34.141  14.256  -3.517  1.00 20.00     0.272 C 
HETATM    6  C8  UNL     1     -35.643  16.163  -4.034  1.00 20.00     0.272 C 
HETATM    7  N11 UNL     1     -34.901  15.408  -3.025  1.00 20.00     0.091 N 
ENDROOT
BRANCH   7   8
HETATM    8  C9  UNL     1     -34.053  16.272  -2.206  1.00 20.00     0.299 C 
BRANCH   8   9
HETATM    9  C1  UNL     1     -34.697  16.588  -0.890  1.00 20.00    -0.000 C 
HETATM   10  C2  UNL     1     -34.285  17.572  -0.075  1.00 20.00    -0.019 C 
BRANCH  10  11
HETATM   11  C10 UNL     1     -34.933  17.888   1.236  1.00 20.00     0.097 C 
BRANCH  11  12
HETATM   12  S12 UNL     1     -36.663  18.367   0.977  1.00 20.00    -0.178 SA
HETATM   13  H31 UNL     1     -36.773  17.849  -0.254  1.00 20.00     0.101 HD
ENDBRANCH  11  12
ENDBRANCH  10  11
ENDBRANCH   8   9
ENDBRANCH   7   8
TORSDOF 4
ENDMDL
MODEL 4
REMARK VINA RESULT:      -4.1      1.890      3.149
REMARK  4 active torsions:
REMARK  status: ('A' for Active; 'I' for Inactive)
REMARK    1  A    between atoms: C1_1  and  C9_9 
REMARK    2  A    between atoms: C2_2  and  C10_10 
REMARK    3  A    between atoms: C9_9  and  N11_11 
REMARK    4  A    between atoms: C10_10  and  S12_12 
ROOT
HETATM    1  C3  UNL     1     -36.450  15.187  -6.584  1.00 20.00     0.002 C 
HETATM    2  C4  UNL     1     -36.921  15.345  -5.142  1.00 20.00     0.002 C 
HETATM    3  C5  UNL     1     -34.947  15.408  -6.814  1.00 20.00     0.030 C 
HETATM    4  C6  UNL     1     -36.431  14.251  -4.188  1.00 20.00     0.030 C 
HETATM    5  C7  UNL     1     -34.075  15.549  -5.561  1.00 20.00     0.272 C 
HETATM    6  C8  UNL     1     -35.140  13.529  -4.588  1.00 20.00     0.272 C 
HETATM    7  N11 UNL     1     -33.936  14.344  -4.739  1.00 20.00     0.091 N 
ENDROOT
BRANCH   7   8
HETATM    8  C9  UNL     1     -33.327  14.670  -3.450  1.00 20.00     0.299 C 
BRANCH   8   9
HETATM    9  C1  UNL     1     -33.746  16.026  -2.970  1.00 20.00    -0.000 C 
HETATM   10  C2  UNL     1     -34.407  16.240  -1.821  1.00 20.00    -0.019 C 
BRANCH  10  11
HETATM   11  C10 UNL     1     -34.819  17.595  -1.342  1.00 20.00     0.097 C 
BRANCH  11  12
HETATM   12  S12 UNL     1     -35.041  17.580   0.458  1.00 20.00    -0.178 SA
HETATM   13  H31 UNL     1     -35.990  18.525   0.494  1.00 20.00     0.101 HD
ENDBRANCH  11  12
ENDBRANCH  10  11
ENDBRANCH   8   9
ENDBRANCH   7   8
TORSDOF 4
ENDMDL
MODEL 5
REMARK VINA RESULT:      -4.1      1.125      1.325
REMARK  4 active torsions:
REMARK  status: ('A' for Active; 'I' for Inactive)
REMARK    1  A    between atoms: C1_1  and  C9_9 
REMARK    2  A    between atoms: C2_2  and  C10_10 
REMARK    3  A    between atoms: C9_9  and  N11_11 
REMARK    4  A    between atoms: C10_10  and  S12_12 
ROOT
HETATM    1  C3  UNL     1     -35.013  13.649  -4.621  1.00 20.00     0.002 C 
HETATM    2  C4  UNL     1     -34.029  13.811  -3.466  1.00 20.00     0.002 C 
HETATM    3  C5  UNL     1     -35.931  14.854  -4.877  1.00 20.00     0.030 C 
HETATM    4  C6  UNL     1     -32.916  14.834  -3.716  1.00 20.00     0.030 C 
HETATM    5  C7  UNL     1     -35.615  16.135  -4.098  1.00 20.00     0.272 C 
HETATM    6  C8  UNL     1     -33.224  15.937  -4.734  1.00 20.00     0.272 C 
HETATM    7  N11 UNL     1     -34.363  16.809  -4.453  1.00 20.00     0.091 N 
ENDROOT
BRANCH   7   8
HETATM    8  C9  UNL     1     -34.037  17.840  -3.469  1.00 20.00     0.299 C 
BRANCH   8   9
HETATM    9  C1  UNL     1     -34.766  17.619  -2.178  1.00 20.00    -0.000 C 
HETATM   10  C2  UNL     1     -34.155  17.479  -0.992  1.00 20.00    -0.019 C 
BRANCH  10  11
HETATM   11  C10 UNL     1     -34.885  17.263   0.296  1.00 20.00     0.097 C 
BRANCH  11  12
HETATM   12  S12 UNL     1     -34.329  18.463   1.537  1.00 20.00    -0.178 SA
HETATM   13  H31 UNL     1     -33.358  17.696   2.053  1.00 20.00     0.101 HD
ENDBRANCH  11  12
ENDBRANCH  10  11
ENDBRANCH   8   9
ENDBRANCH   7   8
TORSDOF 4
ENDMDL
MODEL 6
REMARK VINA RESULT:      -4.1      3.536      5.563
REMARK  4 active torsions:
REMARK  status: ('A' for Active; 'I' for Inactive)
REMARK    1  A    between atoms: C1_1  and  C9_9 
REMARK    2  A    between atoms: C2_2  and  C10_10 
REMARK    3  A    between atoms: C9_9  and  N11_11 
REMARK    4  A    between atoms: C10_10  and  S12_12 
ROOT
HETATM    1  C3  UNL     1     -34.003  17.334  -2.601  1.00 20.00     0.002 C 
HETATM    2  C4  UNL     1     -33.830  17.319  -4.117  1.00 20.00     0.002 C 
HETATM    3  C5  UNL     1     -34.827  16.173  -2.022  1.00 20.00     0.030 C 
HETATM    4  C6  UNL     1     -32.943  16.188  -4.646  1.00 20.00     0.030 C 
HETATM    5  C7  UNL     1     -35.194  15.042  -2.989  1.00 20.00     0.272 C 
HETATM    6  C8  UNL     1     -32.838  14.939  -3.765  1.00 20.00     0.272 C 
HETATM    7  N11 UNL     1     -34.077  14.223  -3.468  1.00 20.00     0.091 N 
ENDROOT
BRANCH   7   8
HETATM    8  C9  UNL     1     -34.502  13.374  -4.580  1.00 20.00     0.299 C 
BRANCH   8   9
HETATM    9  C1  UNL     1     -35.552  14.045  -5.414  1.00 20.00    -0.000 C 
HETATM   10  C2  UNL     1     -35.393  14.347  -6.712  1.00 20.00    -0.019 C 
BRANCH  10  11
HETATM   11  C10 UNL     1     -36.444  15.012  -7.543  1.00 20.00     0.097 C 
BRANCH  11  12
HETATM   12  S12 UNL     1     -37.845  15.502  -6.502  1.00 20.00    -0.178 SA
HETATM   13  H31 UNL     1     -38.388  16.353  -7.383  1.00 20.00     0.101 HD
ENDBRANCH  11  12
ENDBRANCH  10  11
ENDBRANCH   8   9
ENDBRANCH   7   8
TORSDOF 4
ENDMDL
MODEL 7
REMARK VINA RESULT:      -4.1     13.463     15.218
REMARK  4 active torsions:
REMARK  status: ('A' for Active; 'I' for Inactive)
REMARK    1  A    between atoms: C1_1  and  C9_9 
REMARK    2  A    between atoms: C2_2  and  C10_10 
REMARK    3  A    between atoms: C9_9  and  N11_11 
REMARK    4  A    between atoms: C10_10  and  S12_12 
ROOT
HETATM    1  C3  UNL     1     -41.209   7.284  -1.097  1.00 20.00     0.002 C 
HETATM    2  C4  UNL     1     -40.777   6.121  -0.208  1.00 20.00     0.002 C 
HETATM    3  C5  UNL     1     -41.923   6.888  -2.398  1.00 20.00     0.030 C 
HETATM    4  C6  UNL     1     -41.933   5.357   0.446  1.00 20.00     0.030 C 
HETATM    5  C7  UNL     1     -42.302   5.411  -2.551  1.00 20.00     0.272 C 
HETATM    6  C8  UNL     1     -43.284   5.424  -0.271  1.00 20.00     0.272 C 
HETATM    7  N11 UNL     1     -43.342   4.920  -1.642  1.00 20.00     0.091 N 
ENDROOT
BRANCH   7   8
HETATM    8  C9  UNL     1     -43.416   3.460  -1.688  1.00 20.00     0.299 C 
BRANCH   8   9
HETATM    9  C1  UNL     1     -42.395   2.886  -2.623  1.00 20.00    -0.000 C 
HETATM   10  C2  UNL     1     -42.474   1.652  -3.146  1.00 20.00    -0.019 C 
BRANCH  10  11
HETATM   11  C10 UNL     1     -41.456   1.082  -4.083  1.00 20.00     0.097 C 
BRANCH  11  12
HETATM   12  S12 UNL     1     -41.553  -0.728  -4.084  1.00 20.00    -0.178 SA
HETATM   13  H31 UNL     1     -40.235  -0.943  -4.187  1.00 20.00     0.101 HD
ENDBRANCH  11  12
ENDBRANCH  10  11
ENDBRANCH   8   9
ENDBRANCH   7   8
TORSDOF 4
ENDMDL
MODEL 8
REMARK VINA RESULT:      -4.0     11.085     12.047
REMARK  4 active torsions:
REMARK  status: ('A' for Active; 'I' for Inactive)
REMARK    1  A    between atoms: C1_1  and  C9_9 
REMARK    2  A    between atoms: C2_2  and  C10_10 
REMARK    3  A    between atoms: C9_9  and  N11_11 
REMARK    4  A    between atoms: C10_10  and  S12_12 
ROOT
HETATM    1  C3  UNL     1     -35.146   5.258   6.622  1.00 20.00     0.002 C 
HETATM    2  C4  UNL     1     -34.696   4.055   5.799  1.00 20.00     0.002 C 
HETATM    3  C5  UNL     1     -34.247   6.499   6.519  1.00 20.00     0.030 C 
HETATM    4  C6  UNL     1     -34.816   4.238   4.283  1.00 20.00     0.030 C 
HETATM    5  C7  UNL     1     -33.141   6.459   5.459  1.00 20.00     0.272 C 
HETATM    6  C8  UNL     1     -34.784   5.681   3.769  1.00 20.00     0.272 C 
HETATM    7  N11 UNL     1     -33.590   6.471   4.064  1.00 20.00     0.091 N 
ENDROOT
BRANCH   7   8
HETATM    8  C9  UNL     1     -32.483   6.151   3.164  1.00 20.00     0.299 C 
BRANCH   8   9
HETATM    9  C1  UNL     1     -32.196   7.280   2.221  1.00 20.00    -0.000 C 
HETATM   10  C2  UNL     1     -32.566   8.551   2.445  1.00 20.00    -0.019 C 
BRANCH  10  11
HETATM   11  C10 UNL     1     -32.274   9.676   1.504  1.00 20.00     0.097 C 
BRANCH  11  12
HETATM   12  S12 UNL     1     -32.498   9.130  -0.211  1.00 20.00    -0.178 SA
HETATM   13  H31 UNL     1     -31.300   9.540  -0.650  1.00 20.00     0.101 HD
ENDBRANCH  11  12
ENDBRANCH  10  11
ENDBRANCH   8   9
ENDBRANCH   7   8
TORSDOF 4
ENDMDL
MODEL 9
REMARK VINA RESULT:      -3.9      1.817      2.814
REMARK  4 active torsions:
REMARK  status: ('A' for Active; 'I' for Inactive)
REMARK    1  A    between atoms: C1_1  and  C9_9 
REMARK    2  A    between atoms: C2_2  and  C10_10 
REMARK    3  A    between atoms: C9_9  and  N11_11 
REMARK    4  A    between atoms: C10_10  and  S12_12 
ROOT
HETATM    1  C3  UNL     1     -37.436  15.214  -5.478  1.00 20.00     0.002 C 
HETATM    2  C4  UNL     1     -37.040  14.575  -4.151  1.00 20.00     0.002 C 
HETATM    3  C5  UNL     1     -36.618  16.450  -5.884  1.00 20.00     0.030 C 
HETATM    4  C6  UNL     1     -35.670  13.890  -4.158  1.00 20.00     0.030 C 
HETATM    5  C7  UNL     1     -35.385  16.767  -5.031  1.00 20.00     0.272 C 
HETATM    6  C8  UNL     1     -34.661  14.398  -5.192  1.00 20.00     0.272 C 
HETATM    7  N11 UNL     1     -34.281  15.808  -5.121  1.00 20.00     0.091 N 
ENDROOT
BRANCH   7   8
HETATM    8  C9  UNL     1     -33.295  16.059  -4.071  1.00 20.00     0.299 C 
BRANCH   8   9
HETATM    9  C1  UNL     1     -33.887  16.837  -2.935  1.00 20.00    -0.000 C 
HETATM   10  C2  UNL     1     -34.196  16.300  -1.744  1.00 20.00    -0.019 C 
BRANCH  10  11
HETATM   11  C10 UNL     1     -34.782  17.080  -0.610  1.00 20.00     0.097 C 
BRANCH  11  12
HETATM   12  S12 UNL     1     -33.600  18.327  -0.034  1.00 20.00    -0.178 SA
HETATM   13  H31 UNL     1     -34.021  18.348   1.238  1.00 20.00     0.101 HD
ENDBRANCH  11  12
ENDBRANCH  10  11
ENDBRANCH   8   9
ENDBRANCH   7   8
TORSDOF 4
ENDMDL
