MODEL 1
REMARK VINA RESULT:      -3.5      0.000      0.000
REMARK  6 active torsions:
REMARK  status: ('A' for Active; 'I' for Inactive)
REMARK    1  A    between atoms: C4_4  and  C5_5 
REMARK    2  A    between atoms: C5_5  and  S10_10 
REMARK    3  A    between atoms: C6_6  and  C8_8 
REMARK    4  A    between atoms: C6_6  and  S9_9 
REMARK    5  A    between atoms: C7_7  and  C8_8 
REMARK    6  A    between atoms: C7_7  and  S10_10 
ROOT
HETATM    1  C2  UNL     1     -34.860  13.447  -4.893  1.00 20.00     0.016 C 
HETATM    2  C3  UNL     1     -34.461  14.820  -6.926  1.00 20.00     0.016 C 
HETATM    3  C8  UNL     1     -34.780  14.900  -5.415  1.00 20.00    -0.031 C 
ENDROOT
BRANCH   3   4
HETATM    4  C6  UNL     1     -36.172  15.556  -5.195  1.00 20.00     0.080 C 
BRANCH   4   5
HETATM    5  S9  UNL     1     -37.064  15.061  -3.685  1.00 20.00    -0.181 SA
HETATM    6  H28 UNL     1     -36.466  13.868  -3.561  1.00 20.00     0.101 HD
ENDBRANCH   4   5
ENDBRANCH   3   4
BRANCH   3   7
HETATM    7  C7  UNL     1     -33.608  15.654  -4.727  1.00 20.00     0.083 C 
BRANCH   7   8
HETATM    8  S10 UNL     1     -33.666  17.473  -4.803  1.00 20.00    -0.168 SA
BRANCH   8   9
HETATM    9  C5  UNL     1     -33.887  17.796  -3.040  1.00 20.00     0.073 C 
BRANCH   9  10
HETATM   10  C4  UNL     1     -33.787  16.501  -2.243  1.00 20.00     0.006 C 
HETATM   11  C1  UNL     1     -34.667  16.551  -1.002  1.00 20.00     0.006 C 
ENDBRANCH   9  10
ENDBRANCH   8   9
ENDBRANCH   7   8
ENDBRANCH   3   7
TORSDOF 6
ENDMDL
MODEL 2
REMARK VINA RESULT:      -3.4      0.963      2.679
REMARK  6 active torsions:
REMARK  status: ('A' for Active; 'I' for Inactive)
REMARK    1  A    between atoms: C4_4  and  C5_5 
REMARK    2  A    between atoms: C5_5  and  S10_10 
REMARK    3  A    between atoms: C6_6  and  C8_8 
REMARK    4  A    between atoms: C6_6  and  S9_9 
REMARK    5  A    between atoms: C7_7  and  C8_8 
REMARK    6  A    between atoms: C7_7  and  S10_10 
ROOT
HETATM    1  C2  UNL     1     -34.417  14.925  -7.048  1.00 20.00     0.016 C 
HETATM    2  C3  UNL     1     -34.264  13.945  -4.768  1.00 20.00     0.016 C 
HETATM    3  C8  UNL     1     -34.472  15.269  -5.541  1.00 20.00    -0.031 C 
ENDROOT
BRANCH   3   4
HETATM    4  C6  UNL     1     -33.309  16.254  -5.241  1.00 20.00     0.080 C 
BRANCH   4   5
HETATM    5  S9  UNL     1     -33.713  18.028  -5.336  1.00 20.00    -0.181 SA
HETATM    6  H28 UNL     1     -35.033  17.857  -5.491  1.00 20.00     0.101 HD
ENDBRANCH   4   5
ENDBRANCH   3   4
BRANCH   3   7
HETATM    7  C7  UNL     1     -35.879  15.815  -5.167  1.00 20.00     0.083 C 
BRANCH   7   8
HETATM    8  S10 UNL     1     -36.553  15.272  -3.564  1.00 20.00    -0.168 SA
BRANCH   8   9
HETATM    9  C5  UNL     1     -35.940  16.638  -2.553  1.00 20.00     0.073 C 
BRANCH   9  10
HETATM   10  C4  UNL     1     -34.721  16.202  -1.750  1.00 20.00     0.006 C 
HETATM   11  C1  UNL     1     -34.651  16.935  -0.417  1.00 20.00     0.006 C 
ENDBRANCH   9  10
ENDBRANCH   8   9
ENDBRANCH   7   8
ENDBRANCH   3   7
TORSDOF 6
ENDMDL
MODEL 3
REMARK VINA RESULT:      -3.4      1.586      2.099
REMARK  6 active torsions:
REMARK  status: ('A' for Active; 'I' for Inactive)
REMARK    1  A    between atoms: C4_4  and  C5_5 
REMARK    2  A    between atoms: C5_5  and  S10_10 
REMARK    3  A    between atoms: C6_6  and  C8_8 
REMARK    4  A    between atoms: C6_6  and  S9_9 
REMARK    5  A    between atoms: C7_7  and  C8_8 
REMARK    6  A    between atoms: C7_7  and  S10_10 
ROOT
HETATM    1  C2  UNL     1     -36.017  14.613  -3.744  1.00 20.00     0.016 C 
HETATM    2  C3  UNL     1     -33.701  13.711  -3.775  1.00 20.00     0.016 C 
HETATM    3  C8  UNL     1     -34.698  14.605  -4.550  1.00 20.00    -0.031 C 
ENDROOT
BRANCH   3   4
HETATM    4  C6  UNL     1     -35.002  13.986  -5.943  1.00 20.00     0.080 C 
BRANCH   4   5
HETATM    5  S9  UNL     1     -34.718  15.068  -7.382  1.00 20.00    -0.181 SA
HETATM    6  H28 UNL     1     -35.949  15.598  -7.395  1.00 20.00     0.101 HD
ENDBRANCH   4   5
ENDBRANCH   3   4
BRANCH   3   7
HETATM    7  C7  UNL     1     -34.097  16.037  -4.610  1.00 20.00     0.083 C 
BRANCH   7   8
HETATM    8  S10 UNL     1     -35.192  17.392  -4.074  1.00 20.00    -0.168 SA
BRANCH   8   9
HETATM    9  C5  UNL     1     -34.137  18.075  -2.776  1.00 20.00     0.073 C 
BRANCH   9  10
HETATM   10  C4  UNL     1     -33.653  16.970  -1.845  1.00 20.00     0.006 C 
HETATM   11  C1  UNL     1     -34.716  16.617  -0.814  1.00 20.00     0.006 C 
ENDBRANCH   9  10
ENDBRANCH   8   9
ENDBRANCH   7   8
ENDBRANCH   3   7
TORSDOF 6
ENDMDL
MODEL 4
REMARK VINA RESULT:      -3.4      1.779      2.430
REMARK  6 active torsions:
REMARK  status: ('A' for Active; 'I' for Inactive)
REMARK    1  A    between atoms: C4_4  and  C5_5 
REMARK    2  A    between atoms: C5_5  and  S10_10 
REMARK    3  A    between atoms: C6_6  and  C8_8 
REMARK    4  A    between atoms: C6_6  and  S9_9 
REMARK    5  A    between atoms: C7_7  and  C8_8 
REMARK    6  A    between atoms: C7_7  and  S10_10 
ROOT
HETATM    1  C2  UNL     1     -33.289  13.660  -3.701  1.00 20.00     0.016 C 
HETATM    2  C3  UNL     1     -33.341  15.980  -4.592  1.00 20.00     0.016 C 
HETATM    3  C8  UNL     1     -34.219  14.742  -4.294  1.00 20.00    -0.031 C 
ENDROOT
BRANCH   3   4
HETATM    4  C6  UNL     1     -34.815  14.178  -5.614  1.00 20.00     0.080 C 
BRANCH   4   5
HETATM    5  S9  UNL     1     -34.490  15.146  -7.122  1.00 20.00    -0.181 SA
HETATM    6  H28 UNL     1     -33.902  16.175  -6.497  1.00 20.00     0.101 HD
ENDBRANCH   4   5
ENDBRANCH   3   4
BRANCH   3   7
HETATM    7  C7  UNL     1     -35.287  15.166  -3.247  1.00 20.00     0.083 C 
BRANCH   7   8
HETATM    8  S10 UNL     1     -36.102  16.770  -3.532  1.00 20.00    -0.168 SA
BRANCH   8   9
HETATM    9  C5  UNL     1     -35.843  17.483  -1.893  1.00 20.00     0.073 C 
BRANCH   9  10
HETATM   10  C4  UNL     1     -34.760  16.717  -1.142  1.00 20.00     0.006 C 
HETATM   11  C1  UNL     1     -33.528  17.583  -0.922  1.00 20.00     0.006 C 
ENDBRANCH   9  10
ENDBRANCH   8   9
ENDBRANCH   7   8
ENDBRANCH   3   7
TORSDOF 6
ENDMDL
MODEL 5
REMARK VINA RESULT:      -3.3      1.575      4.378
REMARK  6 active torsions:
REMARK  status: ('A' for Active; 'I' for Inactive)
REMARK    1  A    between atoms: C4_4  and  C5_5 
REMARK    2  A    between atoms: C5_5  and  S10_10 
REMARK    3  A    between atoms: C6_6  and  C8_8 
REMARK    4  A    between atoms: C6_6  and  S9_9 
REMARK    5  A    between atoms: C7_7  and  C8_8 
REMARK    6  A    between atoms: C7_7  and  S10_10 
ROOT
HETATM    1  C2  UNL     1     -33.109  15.661  -3.620  1.00 20.00     0.016 C 
HETATM    2  C3  UNL     1     -34.677  16.110  -1.745  1.00 20.00     0.016 C 
HETATM    3  C8  UNL     1     -34.596  15.907  -3.276  1.00 20.00    -0.031 C 
ENDROOT
BRANCH   3   4
HETATM    4  C6  UNL     1     -35.042  17.200  -4.013  1.00 20.00     0.080 C 
BRANCH   4   5
HETATM    5  S9  UNL     1     -33.715  18.194  -4.767  1.00 20.00    -0.181 SA
HETATM    6  H28 UNL     1     -33.313  18.769  -3.626  1.00 20.00     0.101 HD
ENDBRANCH   4   5
ENDBRANCH   3   4
BRANCH   3   7
HETATM    7  C7  UNL     1     -35.443  14.652  -3.629  1.00 20.00     0.083 C 
BRANCH   7   8
HETATM    8  S10 UNL     1     -34.718  13.510  -4.850  1.00 20.00    -0.168 SA
BRANCH   8   9
HETATM    9  C5  UNL     1     -35.424  14.247  -6.340  1.00 20.00     0.073 C 
BRANCH   9  10
HETATM   10  C4  UNL     1     -34.361  15.026  -7.105  1.00 20.00     0.006 C 
HETATM   11  C1  UNL     1     -34.956  16.259  -7.770  1.00 20.00     0.006 C 
ENDBRANCH   9  10
ENDBRANCH   8   9
ENDBRANCH   7   8
ENDBRANCH   3   7
TORSDOF 6
ENDMDL
MODEL 6
REMARK VINA RESULT:      -3.3      1.328      3.656
REMARK  6 active torsions:
REMARK  status: ('A' for Active; 'I' for Inactive)
REMARK    1  A    between atoms: C4_4  and  C5_5 
REMARK    2  A    between atoms: C5_5  and  S10_10 
REMARK    3  A    between atoms: C6_6  and  C8_8 
REMARK    4  A    between atoms: C6_6  and  S9_9 
REMARK    5  A    between atoms: C7_7  and  C8_8 
REMARK    6  A    between atoms: C7_7  and  S10_10 
ROOT
HETATM    1  C2  UNL     1     -34.652  16.167  -1.711  1.00 20.00     0.016 C 
HETATM    2  C3  UNL     1     -33.127  15.399  -3.518  1.00 20.00     0.016 C 
HETATM    3  C8  UNL     1     -34.573  15.864  -3.224  1.00 20.00    -0.031 C 
ENDROOT
BRANCH   3   4
HETATM    4  C6  UNL     1     -35.577  14.716  -3.527  1.00 20.00     0.080 C 
BRANCH   4   5
HETATM    5  S9  UNL     1     -37.234  15.225  -4.088  1.00 20.00    -0.181 SA
HETATM    6  H28 UNL     1     -37.895  14.240  -3.464  1.00 20.00     0.101 HD
ENDBRANCH   4   5
ENDBRANCH   3   4
BRANCH   3   7
HETATM    7  C7  UNL     1     -34.826  17.160  -4.045  1.00 20.00     0.083 C 
BRANCH   7   8
HETATM    8  S10 UNL     1     -33.712  17.447  -5.459  1.00 20.00    -0.168 SA
BRANCH   8   9
HETATM    9  C5  UNL     1     -34.744  16.717  -6.749  1.00 20.00     0.073 C 
BRANCH   9  10
HETATM   10  C4  UNL     1     -34.297  15.290  -7.047  1.00 20.00     0.006 C 
HETATM   11  C1  UNL     1     -35.468  14.433  -7.505  1.00 20.00     0.006 C 
ENDBRANCH   9  10
ENDBRANCH   8   9
ENDBRANCH   7   8
ENDBRANCH   3   7
TORSDOF 6
ENDMDL
MODEL 7
REMARK VINA RESULT:      -3.3      1.833      3.964
REMARK  6 active torsions:
REMARK  status: ('A' for Active; 'I' for Inactive)
REMARK    1  A    between atoms: C4_4  and  C5_5 
REMARK    2  A    between atoms: C5_5  and  S10_10 
REMARK    3  A    between atoms: C6_6  and  C8_8 
REMARK    4  A    between atoms: C6_6  and  S9_9 
REMARK    5  A    between atoms: C7_7  and  C8_8 
REMARK    6  A    between atoms: C7_7  and  S10_10 
ROOT
HETATM    1  C2  UNL     1     -35.865  15.248  -3.195  1.00 20.00     0.016 C 
HETATM    2  C3  UNL     1     -34.568  16.437  -1.439  1.00 20.00     0.016 C 
HETATM    3  C8  UNL     1     -34.609  16.115  -2.951  1.00 20.00    -0.031 C 
ENDROOT
BRANCH   3   4
HETATM    4  C6  UNL     1     -33.369  15.268  -3.352  1.00 20.00     0.080 C 
BRANCH   4   5
HETATM    5  S9  UNL     1     -33.700  13.555  -3.874  1.00 20.00    -0.181 SA
HETATM    6  H28 UNL     1     -32.939  12.978  -2.934  1.00 20.00     0.101 HD
ENDBRANCH   4   5
ENDBRANCH   3   4
BRANCH   3   7
HETATM    7  C7  UNL     1     -34.730  17.463  -3.716  1.00 20.00     0.083 C 
BRANCH   7   8
HETATM    8  S10 UNL     1     -33.692  17.641  -5.203  1.00 20.00    -0.168 SA
BRANCH   8   9
HETATM    9  C5  UNL     1     -34.833  16.914  -6.399  1.00 20.00     0.073 C 
BRANCH   9  10
HETATM   10  C4  UNL     1     -34.243  15.641  -6.995  1.00 20.00     0.006 C 
HETATM   11  C1  UNL     1     -35.313  14.574  -7.178  1.00 20.00     0.006 C 
ENDBRANCH   9  10
ENDBRANCH   8   9
ENDBRANCH   7   8
ENDBRANCH   3   7
TORSDOF 6
ENDMDL
MODEL 8
REMARK VINA RESULT:      -3.3      1.952      3.937
REMARK  6 active torsions:
REMARK  status: ('A' for Active; 'I' for Inactive)
REMARK    1  A    between atoms: C4_4  and  C5_5 
REMARK    2  A    between atoms: C5_5  and  S10_10 
REMARK    3  A    between atoms: C6_6  and  C8_8 
REMARK    4  A    between atoms: C6_6  and  S9_9 
REMARK    5  A    between atoms: C7_7  and  C8_8 
REMARK    6  A    between atoms: C7_7  and  S10_10 
ROOT
HETATM    1  C2  UNL     1     -33.183  15.268  -3.500  1.00 20.00     0.016 C 
HETATM    2  C3  UNL     1     -35.577  14.607  -3.608  1.00 20.00     0.016 C 
HETATM    3  C8  UNL     1     -34.624  15.773  -3.255  1.00 20.00    -0.031 C 
ENDROOT
BRANCH   3   4
HETATM    4  C6  UNL     1     -34.747  16.129  -1.748  1.00 20.00     0.080 C 
BRANCH   4   5
HETATM    5  S9  UNL     1     -33.748  17.539  -1.170  1.00 20.00    -0.181 SA
HETATM    6  H28 UNL     1     -33.219  17.828  -2.367  1.00 20.00     0.101 HD
ENDBRANCH   4   5
ENDBRANCH   3   4
BRANCH   3   7
HETATM    7  C7  UNL     1     -34.949  16.953  -4.214  1.00 20.00     0.083 C 
BRANCH   7   8
HETATM    8  S10 UNL     1     -33.675  17.359  -5.452  1.00 20.00    -0.168 SA
BRANCH   8   9
HETATM    9  C5  UNL     1     -34.525  16.722  -6.913  1.00 20.00     0.073 C 
BRANCH   9  10
HETATM   10  C4  UNL     1     -34.250  15.233  -7.085  1.00 20.00     0.006 C 
HETATM   11  C1  UNL     1     -35.535  14.465  -7.353  1.00 20.00     0.006 C 
ENDBRANCH   9  10
ENDBRANCH   8   9
ENDBRANCH   7   8
ENDBRANCH   3   7
TORSDOF 6
ENDMDL
MODEL 9
REMARK VINA RESULT:      -3.2      1.618      2.182
REMARK  6 active torsions:
REMARK  status: ('A' for Active; 'I' for Inactive)
REMARK    1  A    between atoms: C4_4  and  C5_5 
REMARK    2  A    between atoms: C5_5  and  S10_10 
REMARK    3  A    between atoms: C6_6  and  C8_8 
REMARK    4  A    between atoms: C6_6  and  S9_9 
REMARK    5  A    between atoms: C7_7  and  C8_8 
REMARK    6  A    between atoms: C7_7  and  S10_10 
ROOT
HETATM    1  C2  UNL     1     -33.209  16.374  -5.155  1.00 20.00     0.016 C 
HETATM    2  C3  UNL     1     -34.505  16.237  -7.272  1.00 20.00     0.016 C 
HETATM    3  C8  UNL     1     -34.536  15.872  -5.770  1.00 20.00    -0.031 C 
ENDROOT
BRANCH   3   4
HETATM    4  C6  UNL     1     -34.581  14.328  -5.594  1.00 20.00     0.080 C 
BRANCH   4   5
HETATM    5  S9  UNL     1     -33.927  13.679  -4.022  1.00 20.00    -0.181 SA
HETATM    6  H28 UNL     1     -34.560  14.562  -3.238  1.00 20.00     0.101 HD
ENDBRANCH   4   5
ENDBRANCH   3   4
BRANCH   3   7
HETATM    7  C7  UNL     1     -35.740  16.618  -5.129  1.00 20.00     0.083 C 
BRANCH   7   8
HETATM    8  S10 UNL     1     -35.342  17.777  -3.780  1.00 20.00    -0.168 SA
BRANCH   8   9
HETATM    9  C5  UNL     1     -35.760  16.703  -2.389  1.00 20.00     0.073 C 
BRANCH   9  10
HETATM   10  C4  UNL     1     -34.543  16.485  -1.498  1.00 20.00     0.006 C 
HETATM   11  C1  UNL     1     -34.757  17.090  -0.118  1.00 20.00     0.006 C 
ENDBRANCH   9  10
ENDBRANCH   8   9
ENDBRANCH   7   8
ENDBRANCH   3   7
TORSDOF 6
ENDMDL
