MODEL 1
REMARK VINA RESULT:      -4.7      0.000      0.000
REMARK  2 active torsions:
REMARK  status: ('A' for Active; 'I' for Inactive)
REMARK    1  A    between atoms: C5_5  and  C10_10 
REMARK    2  A    between atoms: C6_6  and  C11_11 
ROOT
HETATM    1  C1  UNL     1     -34.880  15.145  -2.725  1.00 20.00     0.008 A 
HETATM    2  C2  UNL     1     -33.485  16.687  -3.957  1.00 20.00     0.008 A 
HETATM    3  C3  UNL     1     -35.156  14.453  -3.904  1.00 20.00     0.010 A 
HETATM    4  C4  UNL     1     -33.762  15.995  -5.136  1.00 20.00     0.010 A 
HETATM    5  C5  UNL     1     -34.045  16.261  -2.751  1.00 20.00    -0.054 A 
HETATM    6  C6  UNL     1     -34.597  14.878  -5.110  1.00 20.00    -0.027 A 
ENDROOT
BRANCH   5   7
HETATM    7  C10 UNL     1     -33.750  17.001  -1.492  1.00 20.00     0.018 A 
HETATM    8  C7  UNL     1     -34.720  16.907  -0.343  1.00 20.00     0.010 A 
HETATM    9  C8  UNL     1     -34.605  18.183  -1.116  1.00 20.00     0.010 A 
ENDBRANCH   5   7
BRANCH   6  10
HETATM   10  C11 UNL     1     -34.892  14.138  -6.370  1.00 20.00     0.178 A 
HETATM   11  C9  UNL     1     -35.916  14.684  -7.328  1.00 20.00     0.205 A 
HETATM   12  O12 UNL     1     -34.516  14.782  -7.596  1.00 20.00    -0.376 OA
ENDBRANCH   6  10
TORSDOF 2
ENDMDL
MODEL 2
REMARK VINA RESULT:      -4.7      0.083      1.397
REMARK  2 active torsions:
REMARK  status: ('A' for Active; 'I' for Inactive)
REMARK    1  A    between atoms: C5_5  and  C10_10 
REMARK    2  A    between atoms: C6_6  and  C11_11 
ROOT
HETATM    1  C1  UNL     1     -33.514  16.762  -3.906  1.00 20.00     0.008 A 
HETATM    2  C2  UNL     1     -34.815  15.147  -2.666  1.00 20.00     0.008 A 
HETATM    3  C3  UNL     1     -33.769  16.062  -5.085  1.00 20.00     0.010 A 
HETATM    4  C4  UNL     1     -35.070  14.447  -3.845  1.00 20.00     0.010 A 
HETATM    5  C5  UNL     1     -34.037  16.305  -2.697  1.00 20.00    -0.054 A 
HETATM    6  C6  UNL     1     -34.548  14.904  -5.055  1.00 20.00    -0.027 A 
ENDROOT
BRANCH   5   7
HETATM    7  C10 UNL     1     -33.764  17.052  -1.438  1.00 20.00     0.018 A 
HETATM    8  C7  UNL     1     -34.748  16.956  -0.301  1.00 20.00     0.010 A 
HETATM    9  C8  UNL     1     -34.633  18.230  -1.078  1.00 20.00     0.010 A 
ENDBRANCH   5   7
BRANCH   6  10
HETATM   10  C11 UNL     1     -34.820  14.156  -6.315  1.00 20.00     0.178 A 
HETATM   11  C9  UNL     1     -35.866  14.666  -7.269  1.00 20.00     0.205 A 
HETATM   12  O12 UNL     1     -34.470  14.814  -7.541  1.00 20.00    -0.376 OA
ENDBRANCH   6  10
TORSDOF 2
ENDMDL
MODEL 3
REMARK VINA RESULT:      -4.6      1.694      2.145
REMARK  2 active torsions:
REMARK  status: ('A' for Active; 'I' for Inactive)
REMARK    1  A    between atoms: C5_5  and  C10_10 
REMARK    2  A    between atoms: C6_6  and  C11_11 
ROOT
HETATM    1  C1  UNL     1     -35.978  16.944  -2.296  1.00 20.00     0.008 A 
HETATM    2  C2  UNL     1     -33.673  16.222  -2.234  1.00 20.00     0.008 A 
HETATM    3  C3  UNL     1     -36.298  15.853  -3.104  1.00 20.00     0.010 A 
HETATM    4  C4  UNL     1     -33.993  15.131  -3.041  1.00 20.00     0.010 A 
HETATM    5  C5  UNL     1     -34.666  17.129  -1.861  1.00 20.00    -0.054 A 
HETATM    6  C6  UNL     1     -35.305  14.946  -3.476  1.00 20.00    -0.027 A 
ENDROOT
BRANCH   5   7
HETATM    7  C10 UNL     1     -34.325  18.295  -1.000  1.00 20.00     0.018 A 
HETATM    8  C7  UNL     1     -32.961  18.361  -0.362  1.00 20.00     0.010 A 
HETATM    9  C8  UNL     1     -34.165  18.091   0.485  1.00 20.00     0.010 A 
ENDBRANCH   5   7
BRANCH   6  10
HETATM   10  C11 UNL     1     -35.647  13.780  -4.339  1.00 20.00     0.178 A 
HETATM   11  C9  UNL     1     -34.958  13.611  -5.666  1.00 20.00     0.205 A 
HETATM   12  O12 UNL     1     -34.615  12.803  -4.537  1.00 20.00    -0.376 OA
ENDBRANCH   6  10
TORSDOF 2
ENDMDL
MODEL 4
REMARK VINA RESULT:      -4.6      1.688      2.280
REMARK  2 active torsions:
REMARK  status: ('A' for Active; 'I' for Inactive)
REMARK    1  A    between atoms: C5_5  and  C10_10 
REMARK    2  A    between atoms: C6_6  and  C11_11 
ROOT
HETATM    1  C1  UNL     1     -33.672  16.216  -2.262  1.00 20.00     0.008 A 
HETATM    2  C2  UNL     1     -35.972  16.952  -2.335  1.00 20.00     0.008 A 
HETATM    3  C3  UNL     1     -33.997  15.120  -3.061  1.00 20.00     0.010 A 
HETATM    4  C4  UNL     1     -36.298  15.857  -3.135  1.00 20.00     0.010 A 
HETATM    5  C5  UNL     1     -34.659  17.131  -1.899  1.00 20.00    -0.054 A 
HETATM    6  C6  UNL     1     -35.310  14.941  -3.498  1.00 20.00    -0.027 A 
ENDROOT
BRANCH   5   7
HETATM    7  C10 UNL     1     -34.311  18.301  -1.044  1.00 20.00     0.018 A 
HETATM    8  C7  UNL     1     -32.963  18.344  -0.374  1.00 20.00     0.010 A 
HETATM    9  C8  UNL     1     -34.193  18.114   0.447  1.00 20.00     0.010 A 
ENDBRANCH   5   7
BRANCH   6  10
HETATM   10  C11 UNL     1     -35.658  13.770  -4.352  1.00 20.00     0.178 A 
HETATM   11  C9  UNL     1     -34.980  13.596  -5.685  1.00 20.00     0.205 A 
HETATM   12  O12 UNL     1     -34.626  12.794  -4.556  1.00 20.00    -0.376 OA
ENDBRANCH   6  10
TORSDOF 2
ENDMDL
MODEL 5
REMARK VINA RESULT:      -4.6      4.171      7.162
REMARK  2 active torsions:
REMARK  status: ('A' for Active; 'I' for Inactive)
REMARK    1  A    between atoms: C5_5  and  C10_10 
REMARK    2  A    between atoms: C6_6  and  C11_11 
ROOT
HETATM    1  C1  UNL     1     -32.976  18.312  -0.651  1.00 20.00     0.008 A 
HETATM    2  C2  UNL     1     -35.041  17.229  -0.016  1.00 20.00     0.008 A 
HETATM    3  C3  UNL     1     -32.822  18.782   0.654  1.00 20.00     0.010 A 
HETATM    4  C4  UNL     1     -34.887  17.699   1.289  1.00 20.00     0.010 A 
HETATM    5  C5  UNL     1     -34.085  17.535  -0.985  1.00 20.00    -0.054 A 
HETATM    6  C6  UNL     1     -33.777  18.475   1.623  1.00 20.00    -0.027 A 
ENDROOT
BRANCH   5   7
HETATM    7  C10 UNL     1     -34.250  17.034  -2.378  1.00 20.00     0.018 A 
HETATM    8  C7  UNL     1     -35.054  15.782  -2.616  1.00 20.00     0.010 A 
HETATM    9  C8  UNL     1     -33.567  15.754  -2.785  1.00 20.00     0.010 A 
ENDBRANCH   5   7
BRANCH   6  10
HETATM   10  C11 UNL     1     -33.612  18.977   3.017  1.00 20.00     0.178 A 
HETATM   11  C9  UNL     1     -33.696  18.012   4.168  1.00 20.00     0.205 A 
HETATM   12  O12 UNL     1     -32.443  18.539   3.724  1.00 20.00    -0.376 OA
ENDBRANCH   6  10
TORSDOF 2
ENDMDL
MODEL 6
REMARK VINA RESULT:      -4.5      2.215      5.265
REMARK  2 active torsions:
REMARK  status: ('A' for Active; 'I' for Inactive)
REMARK    1  A    between atoms: C5_5  and  C10_10 
REMARK    2  A    between atoms: C6_6  and  C11_11 
ROOT
HETATM    1  C1  UNL     1     -33.799  16.225  -5.130  1.00 20.00     0.008 A 
HETATM    2  C2  UNL     1     -34.998  14.504  -3.930  1.00 20.00     0.008 A 
HETATM    3  C3  UNL     1     -33.559  16.894  -3.930  1.00 20.00     0.010 A 
HETATM    4  C4  UNL     1     -34.758  15.172  -2.730  1.00 20.00     0.010 A 
HETATM    5  C5  UNL     1     -34.519  15.031  -5.130  1.00 20.00    -0.054 A 
HETATM    6  C6  UNL     1     -34.038  16.367  -2.729  1.00 20.00    -0.027 A 
ENDROOT
BRANCH   5   7
HETATM    7  C10 UNL     1     -34.776  14.317  -6.412  1.00 20.00     0.018 A 
HETATM    8  C7  UNL     1     -34.607  15.060  -7.712  1.00 20.00     0.010 A 
HETATM    9  C8  UNL     1     -35.979  14.697  -7.237  1.00 20.00     0.010 A 
ENDBRANCH   5   7
BRANCH   6  10
HETATM   10  C11 UNL     1     -33.780  17.082  -1.447  1.00 20.00     0.178 A 
HETATM   11  C9  UNL     1     -34.812  18.036  -0.910  1.00 20.00     0.205 A 
HETATM   12  O12 UNL     1     -34.625  16.738  -0.340  1.00 20.00    -0.376 OA
ENDBRANCH   6  10
TORSDOF 2
ENDMDL
MODEL 7
REMARK VINA RESULT:      -4.4      3.043      4.967
REMARK  2 active torsions:
REMARK  status: ('A' for Active; 'I' for Inactive)
REMARK    1  A    between atoms: C5_5  and  C10_10 
REMARK    2  A    between atoms: C6_6  and  C11_11 
ROOT
HETATM    1  C1  UNL     1     -34.861  17.686   1.230  1.00 20.00     0.008 A 
HETATM    2  C2  UNL     1     -32.811  18.784   0.572  1.00 20.00     0.008 A 
HETATM    3  C3  UNL     1     -35.025  17.215  -0.073  1.00 20.00     0.010 A 
HETATM    4  C4  UNL     1     -32.976  18.313  -0.730  1.00 20.00     0.010 A 
HETATM    5  C5  UNL     1     -33.754  18.470   1.552  1.00 20.00    -0.054 A 
HETATM    6  C6  UNL     1     -34.083  17.528  -1.053  1.00 20.00    -0.027 A 
ENDROOT
BRANCH   5   7
HETATM    7  C10 UNL     1     -33.578  18.974   2.943  1.00 20.00     0.018 A 
HETATM    8  C7  UNL     1     -32.313  18.638   3.690  1.00 20.00     0.010 A 
HETATM    9  C8  UNL     1     -33.604  17.995   4.089  1.00 20.00     0.010 A 
ENDBRANCH   5   7
BRANCH   6  10
HETATM   10  C11 UNL     1     -34.260  17.025  -2.444  1.00 20.00     0.178 A 
HETATM   11  C9  UNL     1     -33.577  15.752  -2.865  1.00 20.00     0.205 A 
HETATM   12  O12 UNL     1     -34.980  15.794  -2.596  1.00 20.00    -0.376 OA
ENDBRANCH   6  10
TORSDOF 2
ENDMDL
MODEL 8
REMARK VINA RESULT:      -4.3      2.373      3.500
REMARK  2 active torsions:
REMARK  status: ('A' for Active; 'I' for Inactive)
REMARK    1  A    between atoms: C5_5  and  C10_10 
REMARK    2  A    between atoms: C6_6  and  C11_11 
ROOT
HETATM    1  C1  UNL     1     -34.689  16.735  -0.419  1.00 20.00     0.008 A 
HETATM    2  C2  UNL     1     -33.623  18.866  -0.822  1.00 20.00     0.008 A 
HETATM    3  C3  UNL     1     -34.506  16.391  -1.758  1.00 20.00     0.010 A 
HETATM    4  C4  UNL     1     -33.440  18.522  -2.161  1.00 20.00     0.010 A 
HETATM    5  C5  UNL     1     -34.247  17.973   0.049  1.00 20.00    -0.054 A 
HETATM    6  C6  UNL     1     -33.881  17.284  -2.629  1.00 20.00    -0.027 A 
ENDROOT
BRANCH   5   7
HETATM    7  C10 UNL     1     -34.443  18.341   1.479  1.00 20.00     0.018 A 
HETATM    8  C7  UNL     1     -35.405  17.539   2.318  1.00 20.00     0.010 A 
HETATM    9  C8  UNL     1     -35.758  18.936   1.912  1.00 20.00     0.010 A 
ENDBRANCH   5   7
BRANCH   6  10
HETATM   10  C11 UNL     1     -33.686  16.916  -4.060  1.00 20.00     0.178 A 
HETATM   11  C9  UNL     1     -34.667  17.403  -5.092  1.00 20.00     0.205 A 
HETATM   12  O12 UNL     1     -33.368  17.986  -4.961  1.00 20.00    -0.376 OA
ENDBRANCH   6  10
TORSDOF 2
ENDMDL
MODEL 9
REMARK VINA RESULT:      -4.3      1.878      3.044
REMARK  2 active torsions:
REMARK  status: ('A' for Active; 'I' for Inactive)
REMARK    1  A    between atoms: C5_5  and  C10_10 
REMARK    2  A    between atoms: C6_6  and  C11_11 
ROOT
HETATM    1  C1  UNL     1     -33.635  18.229  -2.650  1.00 20.00     0.008 A 
HETATM    2  C2  UNL     1     -34.465  16.729  -0.947  1.00 20.00     0.008 A 
HETATM    3  C3  UNL     1     -33.892  17.264  -3.624  1.00 20.00     0.010 A 
HETATM    4  C4  UNL     1     -34.721  15.764  -1.921  1.00 20.00     0.010 A 
HETATM    5  C5  UNL     1     -33.922  17.961  -1.312  1.00 20.00    -0.054 A 
HETATM    6  C6  UNL     1     -34.435  16.031  -3.260  1.00 20.00    -0.027 A 
ENDROOT
BRANCH   5   7
HETATM    7  C10 UNL     1     -33.647  18.991  -0.271  1.00 20.00     0.018 A 
HETATM    8  C7  UNL     1     -32.222  19.263   0.133  1.00 20.00     0.010 A 
HETATM    9  C8  UNL     1     -33.141  18.556   1.080  1.00 20.00     0.010 A 
ENDBRANCH   5   7
BRANCH   6  10
HETATM   10  C11 UNL     1     -34.709  15.001  -4.301  1.00 20.00     0.178 A 
HETATM   11  C9  UNL     1     -33.930  13.713  -4.293  1.00 20.00     0.205 A 
HETATM   12  O12 UNL     1     -35.287  13.768  -3.848  1.00 20.00    -0.376 OA
ENDBRANCH   6  10
TORSDOF 2
ENDMDL
