MODEL 1
REMARK VINA RESULT:      -4.1      0.000      0.000
REMARK  6 active torsions:
REMARK  status: ('A' for Active; 'I' for Inactive)
REMARK    1  A    between atoms: C5_5  and  C7_7 
REMARK    2  A    between atoms: C6_6  and  C11_11 
REMARK    3  A    between atoms: C7_7  and  C8_8 
REMARK    4  A    between atoms: C8_8  and  C11_11 
REMARK    5  A    between atoms: C9_9  and  C11_11 
REMARK    6  A    between atoms: C10_10  and  C11_11 
ROOT
HETATM    1  C11 UNL     1     -34.077  16.154  -3.181  1.00 20.00    -0.025 C 
ENDROOT
BRANCH   1   2
HETATM    2  C6  UNL     1     -35.340  15.243  -2.941  1.00 20.00     0.006 C 
HETATM    3  C2  UNL     1     -36.554  15.519  -3.823  1.00 20.00     0.006 C 
ENDBRANCH   1   2
BRANCH   1   4
HETATM    4  C8  UNL     1     -34.425  17.146  -4.345  1.00 20.00     0.011 C 
BRANCH   4   5
HETATM    5  C7  UNL     1     -33.579  17.017  -5.624  1.00 20.00     0.000 C 
BRANCH   5   6
HETATM    6  C5  UNL     1     -34.442  16.567  -6.806  1.00 20.00    -0.005 C 
HETATM    7  C1  UNL     1     -34.406  15.057  -6.980  1.00 20.00     0.005 C 
ENDBRANCH   5   6
ENDBRANCH   4   5
ENDBRANCH   1   4
BRANCH   1   8
HETATM    8  C9  UNL     1     -32.901  15.193  -3.563  1.00 20.00     0.124 C 
HETATM    9 CL12 UNL     1     -33.334  13.483  -3.831  1.00 20.00    -0.130 Cl
ENDBRANCH   1   8
BRANCH   1  10
HETATM   10  C10 UNL     1     -33.729  16.956  -1.852  1.00 20.00    -0.013 C 
HETATM   11  C3  UNL     1     -33.628  18.478  -2.053  1.00 20.00     0.010 C 
HETATM   12  C4  UNL     1     -34.664  16.707  -0.659  1.00 20.00     0.010 C 
ENDBRANCH   1  10
TORSDOF 6
ENDMDL
MODEL 2
REMARK VINA RESULT:      -4.1      1.620      4.420
REMARK  6 active torsions:
REMARK  status: ('A' for Active; 'I' for Inactive)
REMARK    1  A    between atoms: C5_5  and  C7_7 
REMARK    2  A    between atoms: C6_6  and  C11_11 
REMARK    3  A    between atoms: C7_7  and  C8_8 
REMARK    4  A    between atoms: C8_8  and  C11_11 
REMARK    5  A    between atoms: C9_9  and  C11_11 
REMARK    6  A    between atoms: C10_10  and  C11_11 
ROOT
HETATM    1  C11 UNL     1     -34.519  15.436  -5.179  1.00 20.00    -0.025 C 
ENDROOT
BRANCH   1   2
HETATM    2  C6  UNL     1     -34.342  13.941  -4.717  1.00 20.00     0.006 C 
HETATM    3  C2  UNL     1     -33.254  13.673  -3.682  1.00 20.00     0.006 C 
ENDBRANCH   1   2
BRANCH   1   4
HETATM    4  C8  UNL     1     -33.448  16.294  -4.419  1.00 20.00     0.011 C 
BRANCH   4   5
HETATM    5  C7  UNL     1     -33.992  17.379  -3.472  1.00 20.00     0.000 C 
BRANCH   5   6
HETATM    6  C5  UNL     1     -33.616  17.076  -2.019  1.00 20.00    -0.005 C 
HETATM    7  C1  UNL     1     -34.736  16.350  -1.293  1.00 20.00     0.005 C 
ENDBRANCH   5   6
ENDBRANCH   4   5
ENDBRANCH   1   4
BRANCH   1   8
HETATM    8  C9  UNL     1     -35.979  15.851  -4.796  1.00 20.00     0.124 C 
HETATM    9 CL12 UNL     1     -36.889  14.695  -3.786  1.00 20.00    -0.130 Cl
ENDBRANCH   1   8
BRANCH   1  10
HETATM   10  C10 UNL     1     -34.304  15.545  -6.752  1.00 20.00    -0.013 C 
HETATM   11  C3  UNL     1     -35.151  14.550  -7.565  1.00 20.00     0.010 C 
HETATM   12  C4  UNL     1     -34.516  16.940  -7.359  1.00 20.00     0.010 C 
ENDBRANCH   1  10
TORSDOF 6
ENDMDL
MODEL 3
REMARK VINA RESULT:      -4.1      1.838      4.320
REMARK  6 active torsions:
REMARK  status: ('A' for Active; 'I' for Inactive)
REMARK    1  A    between atoms: C5_5  and  C7_7 
REMARK    2  A    between atoms: C6_6  and  C11_11 
REMARK    3  A    between atoms: C7_7  and  C8_8 
REMARK    4  A    between atoms: C8_8  and  C11_11 
REMARK    5  A    between atoms: C9_9  and  C11_11 
REMARK    6  A    between atoms: C10_10  and  C11_11 
ROOT
HETATM    1  C11 UNL     1     -34.287  16.123  -3.552  1.00 20.00    -0.025 C 
ENDROOT
BRANCH   1   2
HETATM    2  C6  UNL     1     -35.569  16.954  -3.935  1.00 20.00     0.006 C 
HETATM    3  C2  UNL     1     -35.413  18.472  -3.959  1.00 20.00     0.006 C 
ENDBRANCH   1   2
BRANCH   1   4
HETATM    4  C8  UNL     1     -33.750  16.685  -2.189  1.00 20.00     0.011 C 
BRANCH   4   5
HETATM    5  C7  UNL     1     -34.665  16.491  -0.967  1.00 20.00     0.000 C 
BRANCH   5   6
HETATM    6  C5  UNL     1     -34.446  17.605   0.061  1.00 20.00    -0.005 C 
HETATM    7  C1  UNL     1     -33.180  18.393  -0.232  1.00 20.00     0.005 C 
ENDBRANCH   5   6
ENDBRANCH   4   5
ENDBRANCH   1   4
BRANCH   1   8
HETATM    8  C9  UNL     1     -33.260  16.326  -4.715  1.00 20.00     0.124 C 
HETATM    9 CL12 UNL     1     -33.902  16.167  -6.372  1.00 20.00    -0.130 Cl
ENDBRANCH   1   8
BRANCH   1  10
HETATM   10  C10 UNL     1     -34.665  14.584  -3.408  1.00 20.00    -0.013 C 
HETATM   11  C3  UNL     1     -35.985  14.200  -4.101  1.00 20.00     0.010 C 
HETATM   12  C4  UNL     1     -33.592  13.587  -3.870  1.00 20.00     0.010 C 
ENDBRANCH   1  10
TORSDOF 6
ENDMDL
MODEL 4
REMARK VINA RESULT:      -4.0      1.774      2.748
REMARK  6 active torsions:
REMARK  status: ('A' for Active; 'I' for Inactive)
REMARK    1  A    between atoms: C5_5  and  C7_7 
REMARK    2  A    between atoms: C6_6  and  C11_11 
REMARK    3  A    between atoms: C7_7  and  C8_8 
REMARK    4  A    between atoms: C8_8  and  C11_11 
REMARK    5  A    between atoms: C9_9  and  C11_11 
REMARK    6  A    between atoms: C10_10  and  C11_11 
ROOT
HETATM    1  C11 UNL     1     -34.290  16.325  -3.189  1.00 20.00    -0.025 C 
ENDROOT
BRANCH   1   2
HETATM    2  C6  UNL     1     -33.215  16.557  -4.317  1.00 20.00     0.006 C 
HETATM    3  C2  UNL     1     -33.638  17.438  -5.488  1.00 20.00     0.006 C 
ENDBRANCH   1   2
BRANCH   1   4
HETATM    4  C8  UNL     1     -34.452  14.775  -3.003  1.00 20.00     0.011 C 
BRANCH   4   5
HETATM    5  C7  UNL     1     -33.784  13.890  -4.070  1.00 20.00     0.000 C 
BRANCH   5   6
HETATM    6  C5  UNL     1     -34.834  13.231  -4.969  1.00 20.00    -0.005 C 
HETATM    7  C1  UNL     1     -35.122  14.074  -6.200  1.00 20.00     0.005 C 
ENDBRANCH   5   6
ENDBRANCH   4   5
ENDBRANCH   1   4
BRANCH   1   8
HETATM    8  C9  UNL     1     -35.613  16.996  -3.689  1.00 20.00     0.124 C 
HETATM    9 CL12 UNL     1     -37.083  15.988  -3.623  1.00 20.00    -0.130 Cl
ENDBRANCH   1   8
BRANCH   1  10
HETATM   10  C10 UNL     1     -33.803  16.999  -1.832  1.00 20.00    -0.013 C 
HETATM   11  C3  UNL     1     -33.608  18.523  -1.931  1.00 20.00     0.010 C 
HETATM   12  C4  UNL     1     -34.676  16.722  -0.599  1.00 20.00     0.010 C 
ENDBRANCH   1  10
TORSDOF 6
ENDMDL
MODEL 5
REMARK VINA RESULT:      -4.0      1.940      3.264
REMARK  6 active torsions:
REMARK  status: ('A' for Active; 'I' for Inactive)
REMARK    1  A    between atoms: C5_5  and  C7_7 
REMARK    2  A    between atoms: C6_6  and  C11_11 
REMARK    3  A    between atoms: C7_7  and  C8_8 
REMARK    4  A    between atoms: C8_8  and  C11_11 
REMARK    5  A    between atoms: C9_9  and  C11_11 
REMARK    6  A    between atoms: C10_10  and  C11_11 
ROOT
HETATM    1  C11 UNL     1     -34.470  16.031  -3.735  1.00 20.00    -0.025 C 
ENDROOT
BRANCH   1   2
HETATM    2  C6  UNL     1     -33.893  16.803  -2.488  1.00 20.00     0.006 C 
HETATM    3  C2  UNL     1     -34.556  16.516  -1.145  1.00 20.00     0.006 C 
ENDBRANCH   1   2
BRANCH   1   4
HETATM    4  C8  UNL     1     -33.501  16.291  -4.941  1.00 20.00     0.011 C 
BRANCH   4   5
HETATM    5  C7  UNL     1     -34.164  16.474  -6.318  1.00 20.00     0.000 C 
BRANCH   5   6
HETATM    6  C5  UNL     1     -34.188  15.152  -7.092  1.00 20.00    -0.005 C 
HETATM    7  C1  UNL     1     -35.584  14.827  -7.597  1.00 20.00     0.005 C 
ENDBRANCH   5   6
ENDBRANCH   4   5
ENDBRANCH   1   4
BRANCH   1   8
HETATM    8  C9  UNL     1     -35.900  16.614  -3.996  1.00 20.00     0.124 C 
HETATM    9 CL12 UNL     1     -36.060  18.388  -3.895  1.00 20.00    -0.130 Cl
ENDBRANCH   1   8
BRANCH   1  10
HETATM   10  C10 UNL     1     -34.554  14.475  -3.415  1.00 20.00    -0.013 C 
HETATM   11  C3  UNL     1     -35.758  13.771  -4.065  1.00 20.00     0.010 C 
HETATM   12  C4  UNL     1     -33.300  13.656  -3.753  1.00 20.00     0.010 C 
ENDBRANCH   1  10
TORSDOF 6
ENDMDL
MODEL 6
REMARK VINA RESULT:      -4.0      1.577      4.342
REMARK  6 active torsions:
REMARK  status: ('A' for Active; 'I' for Inactive)
REMARK    1  A    between atoms: C5_5  and  C7_7 
REMARK    2  A    between atoms: C6_6  and  C11_11 
REMARK    3  A    between atoms: C7_7  and  C8_8 
REMARK    4  A    between atoms: C8_8  and  C11_11 
REMARK    5  A    between atoms: C9_9  and  C11_11 
REMARK    6  A    between atoms: C10_10  and  C11_11 
ROOT
HETATM    1  C11 UNL     1     -34.489  15.763  -3.853  1.00 20.00    -0.025 C 
ENDROOT
BRANCH   1   2
HETATM    2  C6  UNL     1     -34.442  14.190  -3.774  1.00 20.00     0.006 C 
HETATM    3  C2  UNL     1     -33.063  13.560  -3.600  1.00 20.00     0.006 C 
ENDBRANCH   1   2
BRANCH   1   4
HETATM    4  C8  UNL     1     -33.870  16.321  -2.524  1.00 20.00     0.011 C 
BRANCH   4   5
HETATM    5  C7  UNL     1     -34.787  16.307  -1.288  1.00 20.00     0.000 C 
BRANCH   5   6
HETATM    6  C5  UNL     1     -34.359  17.375  -0.278  1.00 20.00    -0.005 C 
HETATM    7  C1  UNL     1     -33.300  18.298  -0.857  1.00 20.00     0.005 C 
ENDBRANCH   5   6
ENDBRANCH   4   5
ENDBRANCH   1   4
BRANCH   1   8
HETATM    8  C9  UNL     1     -35.997  16.156  -4.006  1.00 20.00     0.124 C 
HETATM    9 CL12 UNL     1     -37.183  14.848  -3.750  1.00 20.00    -0.130 Cl
ENDBRANCH   1   8
BRANCH   1  10
HETATM   10  C10 UNL     1     -33.653  16.266  -5.110  1.00 20.00    -0.013 C 
HETATM   11  C3  UNL     1     -34.176  15.736  -6.457  1.00 20.00     0.010 C 
HETATM   12  C4  UNL     1     -33.496  17.788  -5.240  1.00 20.00     0.010 C 
ENDBRANCH   1  10
TORSDOF 6
ENDMDL
MODEL 7
REMARK VINA RESULT:      -4.0      1.117      4.284
REMARK  6 active torsions:
REMARK  status: ('A' for Active; 'I' for Inactive)
REMARK    1  A    between atoms: C5_5  and  C7_7 
REMARK    2  A    between atoms: C6_6  and  C11_11 
REMARK    3  A    between atoms: C7_7  and  C8_8 
REMARK    4  A    between atoms: C8_8  and  C11_11 
REMARK    5  A    between atoms: C9_9  and  C11_11 
REMARK    6  A    between atoms: C10_10  and  C11_11 
ROOT
HETATM    1  C11 UNL     1     -34.044  16.036  -4.378  1.00 20.00    -0.025 C 
ENDROOT
BRANCH   1   2
HETATM    2  C6  UNL     1     -33.383  17.266  -5.108  1.00 20.00     0.006 C 
HETATM    3  C2  UNL     1     -33.689  18.644  -4.529  1.00 20.00     0.006 C 
ENDBRANCH   1   2
BRANCH   1   4
HETATM    4  C8  UNL     1     -35.003  16.603  -3.273  1.00 20.00     0.011 C 
BRANCH   4   5
HETATM    5  C7  UNL     1     -34.855  15.993  -1.867  1.00 20.00     0.000 C 
BRANCH   5   6
HETATM    6  C5  UNL     1     -34.772  17.090  -0.802  1.00 20.00    -0.005 C 
HETATM    7  C1  UNL     1     -33.425  17.794  -0.830  1.00 20.00     0.005 C 
ENDBRANCH   5   6
ENDBRANCH   4   5
ENDBRANCH   1   4
BRANCH   1   8
HETATM    8  C9  UNL     1     -32.871  15.201  -3.763  1.00 20.00     0.124 C 
HETATM    9 CL12 UNL     1     -33.109  13.433  -3.702  1.00 20.00    -0.130 Cl
ENDBRANCH   1   8
BRANCH   1  10
HETATM   10  C10 UNL     1     -34.860  15.161  -5.426  1.00 20.00    -0.013 C 
HETATM   11  C3  UNL     1     -36.374  15.437  -5.421  1.00 20.00     0.010 C 
HETATM   12  C4  UNL     1     -34.379  15.243  -6.882  1.00 20.00     0.010 C 
ENDBRANCH   1  10
TORSDOF 6
ENDMDL
MODEL 8
REMARK VINA RESULT:      -4.0      1.884      4.308
REMARK  6 active torsions:
REMARK  status: ('A' for Active; 'I' for Inactive)
REMARK    1  A    between atoms: C5_5  and  C7_7 
REMARK    2  A    between atoms: C6_6  and  C11_11 
REMARK    3  A    between atoms: C7_7  and  C8_8 
REMARK    4  A    between atoms: C8_8  and  C11_11 
REMARK    5  A    between atoms: C9_9  and  C11_11 
REMARK    6  A    between atoms: C10_10  and  C11_11 
ROOT
HETATM    1  C11 UNL     1     -34.705  15.717  -3.253  1.00 20.00    -0.025 C 
ENDROOT
BRANCH   1   2
HETATM    2  C6  UNL     1     -36.125  16.024  -3.861  1.00 20.00     0.006 C 
HETATM    3  C2  UNL     1     -36.669  17.432  -3.641  1.00 20.00     0.006 C 
ENDBRANCH   1   2
BRANCH   1   4
HETATM    4  C8  UNL     1     -34.717  16.197  -1.760  1.00 20.00     0.011 C 
BRANCH   4   5
HETATM    5  C7  UNL     1     -33.586  17.155  -1.344  1.00 20.00     0.000 C 
BRANCH   5   6
HETATM    6  C5  UNL     1     -34.015  18.025  -0.159  1.00 20.00    -0.005 C 
HETATM    7  C1  UNL     1     -35.148  17.382   0.623  1.00 20.00     0.005 C 
ENDBRANCH   5   6
ENDBRANCH   4   5
ENDBRANCH   1   4
BRANCH   1   8
HETATM    8  C9  UNL     1     -33.669  16.514  -4.116  1.00 20.00     0.124 C 
HETATM    9 CL12 UNL     1     -33.860  16.396  -5.886  1.00 20.00    -0.130 Cl
ENDBRANCH   1   8
BRANCH   1  10
HETATM   10  C10 UNL     1     -34.409  14.155  -3.333  1.00 20.00    -0.013 C 
HETATM   11  C3  UNL     1     -35.281  13.410  -4.359  1.00 20.00     0.010 C 
HETATM   12  C4  UNL     1     -32.947  13.766  -3.595  1.00 20.00     0.010 C 
ENDBRANCH   1  10
TORSDOF 6
ENDMDL
MODEL 9
REMARK VINA RESULT:      -4.0      1.681      2.782
REMARK  6 active torsions:
REMARK  status: ('A' for Active; 'I' for Inactive)
REMARK    1  A    between atoms: C5_5  and  C7_7 
REMARK    2  A    between atoms: C6_6  and  C11_11 
REMARK    3  A    between atoms: C7_7  and  C8_8 
REMARK    4  A    between atoms: C8_8  and  C11_11 
REMARK    5  A    between atoms: C9_9  and  C11_11 
REMARK    6  A    between atoms: C10_10  and  C11_11 
ROOT
HETATM    1  C11 UNL     1     -34.470  16.088  -3.699  1.00 20.00    -0.025 C 
ENDROOT
BRANCH   1   2
HETATM    2  C6  UNL     1     -34.470  14.587  -3.220  1.00 20.00     0.006 C 
HETATM    3  C2  UNL     1     -33.381  13.689  -3.799  1.00 20.00     0.006 C 
ENDBRANCH   1   2
BRANCH   1   4
HETATM    4  C8  UNL     1     -33.521  16.186  -4.944  1.00 20.00     0.011 C 
BRANCH   4   5
HETATM    5  C7  UNL     1     -34.204  16.422  -6.303  1.00 20.00     0.000 C 
BRANCH   5   6
HETATM    6  C5  UNL     1     -34.201  15.143  -7.145  1.00 20.00    -0.005 C 
HETATM    7  C1  UNL     1     -35.530  14.412  -7.054  1.00 20.00     0.005 C 
ENDBRANCH   5   6
ENDBRANCH   4   5
ENDBRANCH   1   4
BRANCH   1   8
HETATM    8  C9  UNL     1     -33.947  16.940  -2.495  1.00 20.00     0.124 C 
HETATM    9 CL12 UNL     1     -34.561  16.488  -0.882  1.00 20.00    -0.130 Cl
ENDBRANCH   1   8
BRANCH   1  10
HETATM   10  C10 UNL     1     -35.948  16.529  -4.091  1.00 20.00    -0.013 C 
HETATM   11  C3  UNL     1     -37.033  15.531  -3.649  1.00 20.00     0.010 C 
HETATM   12  C4  UNL     1     -36.378  17.923  -3.610  1.00 20.00     0.010 C 
ENDBRANCH   1  10
TORSDOF 6
ENDMDL
