MODEL 1
REMARK VINA RESULT:      -4.3      0.000      0.000
REMARK  5 active torsions:
REMARK  status: ('A' for Active; 'I' for Inactive)
REMARK    1  A    between atoms: C5_5  and  C7_7 
REMARK    2  A    between atoms: C6_6  and  C9_9 
REMARK    3  A    between atoms: C7_7  and  C10_10 
REMARK    4  A    between atoms: C8_8  and  C10_10 
REMARK    5  A    between atoms: C9_9  and  C10_10 
ROOT
HETATM    1  C4  UNL     1     -32.602  14.579  -3.595  1.00 20.00     0.016 C 
HETATM    2  C10 UNL     1     -33.750  15.613  -3.696  1.00 20.00    -0.028 C 
ENDROOT
BRANCH   2   3
HETATM    3  C7  UNL     1     -33.646  16.534  -2.432  1.00 20.00     0.010 C 
BRANCH   3   4
HETATM    4  C5  UNL     1     -34.741  16.338  -1.377  1.00 20.00    -0.004 C 
HETATM    5  C1  UNL     1     -34.548  17.286  -0.202  1.00 20.00     0.005 C 
ENDBRANCH   3   4
ENDBRANCH   2   3
BRANCH   2   6
HETATM    6  C8  UNL     1     -35.113  14.851  -3.711  1.00 20.00     0.124 C 
HETATM    7 CL11 UNL     1     -35.009  13.134  -4.195  1.00 20.00    -0.130 Cl
ENDBRANCH   2   6
BRANCH   2   8
HETATM    8  C9  UNL     1     -33.623  16.456  -5.044  1.00 20.00    -0.010 C 
HETATM    9  C3  UNL     1     -33.540  17.977  -4.809  1.00 20.00     0.011 C 
BRANCH   8  10
HETATM   10  C6  UNL     1     -34.748  16.151  -6.071  1.00 20.00     0.000 C 
HETATM   11  C2  UNL     1     -34.327  15.200  -7.188  1.00 20.00     0.005 C 
ENDBRANCH   8  10
ENDBRANCH   2   8
TORSDOF 5
ENDMDL
MODEL 2
REMARK VINA RESULT:      -4.3      1.898      4.505
REMARK  5 active torsions:
REMARK  status: ('A' for Active; 'I' for Inactive)
REMARK    1  A    between atoms: C5_5  and  C7_7 
REMARK    2  A    between atoms: C6_6  and  C9_9 
REMARK    3  A    between atoms: C7_7  and  C10_10 
REMARK    4  A    between atoms: C8_8  and  C10_10 
REMARK    5  A    between atoms: C9_9  and  C10_10 
ROOT
HETATM    1  C4  UNL     1     -33.968  13.728  -3.752  1.00 20.00     0.016 C 
HETATM    2  C10 UNL     1     -34.406  15.198  -3.970  1.00 20.00    -0.028 C 
ENDROOT
BRANCH   2   3
HETATM    3  C7  UNL     1     -35.410  15.200  -5.174  1.00 20.00     0.010 C 
BRANCH   3   4
HETATM    4  C5  UNL     1     -35.107  14.196  -6.292  1.00 20.00    -0.004 C 
HETATM    5  C1  UNL     1     -34.719  14.909  -7.579  1.00 20.00     0.005 C 
ENDBRANCH   3   4
ENDBRANCH   2   3
BRANCH   2   6
HETATM    6  C8  UNL     1     -33.143  16.053  -4.306  1.00 20.00     0.124 C 
HETATM    7 CL11 UNL     1     -33.460  17.506  -5.296  1.00 20.00    -0.130 Cl
ENDBRANCH   2   6
BRANCH   2   8
HETATM    8  C9  UNL     1     -35.078  15.781  -2.648  1.00 20.00    -0.010 C 
HETATM    9  C3  UNL     1     -36.326  16.642  -2.924  1.00 20.00     0.011 C 
BRANCH   8  10
HETATM   10  C6  UNL     1     -34.090  16.574  -1.750  1.00 20.00     0.000 C 
HETATM   11  C2  UNL     1     -34.665  16.967  -0.391  1.00 20.00     0.005 C 
ENDBRANCH   8  10
ENDBRANCH   2   8
TORSDOF 5
ENDMDL
MODEL 3
REMARK VINA RESULT:      -4.3      1.790      2.735
REMARK  5 active torsions:
REMARK  status: ('A' for Active; 'I' for Inactive)
REMARK    1  A    between atoms: C5_5  and  C7_7 
REMARK    2  A    between atoms: C6_6  and  C9_9 
REMARK    3  A    between atoms: C7_7  and  C10_10 
REMARK    4  A    between atoms: C8_8  and  C10_10 
REMARK    5  A    between atoms: C9_9  and  C10_10 
ROOT
HETATM    1  C4  UNL     1     -35.680  16.763  -3.666  1.00 20.00     0.016 C 
HETATM    2  C10 UNL     1     -34.266  16.213  -3.354  1.00 20.00    -0.028 C 
ENDROOT
BRANCH   2   3
HETATM    3  C7  UNL     1     -33.806  16.878  -2.011  1.00 20.00     0.010 C 
BRANCH   3   4
HETATM    4  C5  UNL     1     -34.697  16.600  -0.794  1.00 20.00    -0.004 C 
HETATM    5  C1  UNL     1     -34.511  17.666   0.276  1.00 20.00     0.005 C 
ENDBRANCH   3   4
ENDBRANCH   2   3
BRANCH   2   6
HETATM    6  C8  UNL     1     -33.305  16.607  -4.521  1.00 20.00     0.124 C 
HETATM    7 CL11 UNL     1     -34.071  16.680  -6.133  1.00 20.00    -0.130 Cl
ENDBRANCH   2   6
BRANCH   2   8
HETATM    8  C9  UNL     1     -34.300  14.624  -3.236  1.00 20.00    -0.010 C 
HETATM    9  C3  UNL     1     -32.952  13.956  -3.572  1.00 20.00     0.011 C 
BRANCH   8  10
HETATM   10  C6  UNL     1     -35.427  13.966  -4.078  1.00 20.00     0.000 C 
HETATM   11  C2  UNL     1     -34.928  13.245  -5.328  1.00 20.00     0.005 C 
ENDBRANCH   8  10
ENDBRANCH   2   8
TORSDOF 5
ENDMDL
MODEL 4
REMARK VINA RESULT:      -4.2      1.490      2.377
REMARK  5 active torsions:
REMARK  status: ('A' for Active; 'I' for Inactive)
REMARK    1  A    between atoms: C5_5  and  C7_7 
REMARK    2  A    between atoms: C6_6  and  C9_9 
REMARK    3  A    between atoms: C7_7  and  C10_10 
REMARK    4  A    between atoms: C8_8  and  C10_10 
REMARK    5  A    between atoms: C9_9  and  C10_10 
ROOT
HETATM    1  C4  UNL     1     -34.544  13.255  -4.629  1.00 20.00     0.016 C 
HETATM    2  C10 UNL     1     -34.916  14.716  -4.275  1.00 20.00    -0.028 C 
ENDROOT
BRANCH   2   3
HETATM    3  C7  UNL     1     -34.089  15.102  -3.001  1.00 20.00     0.010 C 
BRANCH   3   4
HETATM    4  C5  UNL     1     -34.821  15.976  -1.975  1.00 20.00    -0.004 C 
HETATM    5  C1  UNL     1     -33.904  17.058  -1.423  1.00 20.00     0.005 C 
ENDBRANCH   3   4
ENDBRANCH   2   3
BRANCH   2   6
HETATM    6  C8  UNL     1     -36.448  14.787  -3.979  1.00 20.00     0.124 C 
HETATM    7 CL11 UNL     1     -37.289  16.192  -4.694  1.00 20.00    -0.130 Cl
ENDBRANCH   2   6
BRANCH   2   8
HETATM    8  C9  UNL     1     -34.590  15.686  -5.498  1.00 20.00    -0.010 C 
HETATM    9  C3  UNL     1     -34.493  14.954  -6.851  1.00 20.00     0.011 C 
BRANCH   8  10
HETATM   10  C6  UNL     1     -33.314  16.544  -5.282  1.00 20.00     0.000 C 
HETATM   11  C2  UNL     1     -33.582  18.045  -5.207  1.00 20.00     0.005 C 
ENDBRANCH   8  10
ENDBRANCH   2   8
TORSDOF 5
ENDMDL
MODEL 5
REMARK VINA RESULT:      -4.2      2.039      2.888
REMARK  5 active torsions:
REMARK  status: ('A' for Active; 'I' for Inactive)
REMARK    1  A    between atoms: C5_5  and  C7_7 
REMARK    2  A    between atoms: C6_6  and  C9_9 
REMARK    3  A    between atoms: C7_7  and  C10_10 
REMARK    4  A    between atoms: C8_8  and  C10_10 
REMARK    5  A    between atoms: C9_9  and  C10_10 
ROOT
HETATM    1  C4  UNL     1     -35.760  16.940  -4.444  1.00 20.00     0.016 C 
HETATM    2  C10 UNL     1     -34.648  15.864  -4.374  1.00 20.00    -0.028 C 
ENDROOT
BRANCH   2   3
HETATM    3  C7  UNL     1     -34.471  15.490  -2.862  1.00 20.00     0.010 C 
BRANCH   3   4
HETATM    4  C5  UNL     1     -33.861  16.583  -1.976  1.00 20.00    -0.004 C 
HETATM    5  C1  UNL     1     -34.629  16.722  -0.670  1.00 20.00     0.005 C 
ENDBRANCH   3   4
ENDBRANCH   2   3
BRANCH   2   6
HETATM    6  C8  UNL     1     -33.328  16.469  -4.950  1.00 20.00     0.124 C 
HETATM    7 CL11 UNL     1     -33.508  18.070  -5.722  1.00 20.00    -0.130 Cl
ENDBRANCH   2   6
BRANCH   2   8
HETATM    8  C9  UNL     1     -35.048  14.592  -5.247  1.00 20.00    -0.010 C 
HETATM    9  C3  UNL     1     -34.613  13.255  -4.616  1.00 20.00     0.011 C 
BRANCH   8  10
HETATM   10  C6  UNL     1     -34.538  14.663  -6.713  1.00 20.00     0.000 C 
HETATM   11  C2  UNL     1     -35.647  14.594  -7.759  1.00 20.00     0.005 C 
ENDBRANCH   8  10
ENDBRANCH   2   8
TORSDOF 5
ENDMDL
MODEL 6
REMARK VINA RESULT:      -4.0      1.188      2.157
REMARK  5 active torsions:
REMARK  status: ('A' for Active; 'I' for Inactive)
REMARK    1  A    between atoms: C5_5  and  C7_7 
REMARK    2  A    between atoms: C6_6  and  C9_9 
REMARK    3  A    between atoms: C7_7  and  C10_10 
REMARK    4  A    between atoms: C8_8  and  C10_10 
REMARK    5  A    between atoms: C9_9  and  C10_10 
ROOT
HETATM    1  C4  UNL     1     -33.999  17.539  -4.078  1.00 20.00     0.016 C 
HETATM    2  C10 UNL     1     -34.218  16.032  -3.794  1.00 20.00    -0.028 C 
ENDROOT
BRANCH   2   3
HETATM    3  C7  UNL     1     -34.656  15.911  -2.294  1.00 20.00     0.010 C 
BRANCH   3   4
HETATM    4  C5  UNL     1     -33.988  16.894  -1.326  1.00 20.00    -0.004 C 
HETATM    5  C1  UNL     1     -34.850  17.123  -0.093  1.00 20.00     0.005 C 
ENDBRANCH   3   4
ENDBRANCH   2   3
BRANCH   2   6
HETATM    6  C8  UNL     1     -32.873  15.275  -4.037  1.00 20.00     0.124 C 
HETATM    7 CL11 UNL     1     -32.851  13.581  -3.472  1.00 20.00    -0.130 Cl
ENDBRANCH   2   6
BRANCH   2   8
HETATM    8  C9  UNL     1     -35.323  15.435  -4.775  1.00 20.00    -0.010 C 
HETATM    9  C3  UNL     1     -36.331  14.507  -4.070  1.00 20.00     0.011 C 
BRANCH   8  10
HETATM   10  C6  UNL     1     -34.724  14.707  -6.010  1.00 20.00     0.000 C 
HETATM   11  C2  UNL     1     -34.639  15.577  -7.261  1.00 20.00     0.005 C 
ENDBRANCH   8  10
ENDBRANCH   2   8
TORSDOF 5
ENDMDL
MODEL 7
REMARK VINA RESULT:      -4.0      2.042      3.259
REMARK  5 active torsions:
REMARK  status: ('A' for Active; 'I' for Inactive)
REMARK    1  A    between atoms: C5_5  and  C7_7 
REMARK    2  A    between atoms: C6_6  and  C9_9 
REMARK    3  A    between atoms: C7_7  and  C10_10 
REMARK    4  A    between atoms: C8_8  and  C10_10 
REMARK    5  A    between atoms: C9_9  and  C10_10 
ROOT
HETATM    1  C4  UNL     1     -35.776  15.848  -2.817  1.00 20.00     0.016 C 
HETATM    2  C10 UNL     1     -34.319  16.286  -3.105  1.00 20.00    -0.028 C 
ENDROOT
BRANCH   2   3
HETATM    3  C7  UNL     1     -33.517  14.989  -3.470  1.00 20.00     0.010 C 
BRANCH   3   4
HETATM    4  C5  UNL     1     -34.343  13.699  -3.549  1.00 20.00    -0.004 C 
HETATM    5  C1  UNL     1     -34.510  13.243  -4.991  1.00 20.00     0.005 C 
ENDBRANCH   3   4
ENDBRANCH   2   3
BRANCH   2   6
HETATM    6  C8  UNL     1     -33.732  16.953  -1.821  1.00 20.00     0.124 C 
HETATM    7 CL11 UNL     1     -34.735  16.771  -0.353  1.00 20.00    -0.130 Cl
ENDBRANCH   2   6
BRANCH   2   8
HETATM    8  C9  UNL     1     -34.282  17.349  -4.292  1.00 20.00    -0.010 C 
HETATM    9  C3  UNL     1     -35.680  17.828  -4.729  1.00 20.00     0.011 C 
BRANCH   8  10
HETATM   10  C6  UNL     1     -33.491  16.858  -5.536  1.00 20.00     0.000 C 
HETATM   11  C2  UNL     1     -34.367  16.559  -6.750  1.00 20.00     0.005 C 
ENDBRANCH   8  10
ENDBRANCH   2   8
TORSDOF 5
ENDMDL
MODEL 8
REMARK VINA RESULT:      -4.0      2.070      3.921
REMARK  5 active torsions:
REMARK  status: ('A' for Active; 'I' for Inactive)
REMARK    1  A    between atoms: C5_5  and  C7_7 
REMARK    2  A    between atoms: C6_6  and  C9_9 
REMARK    3  A    between atoms: C7_7  and  C10_10 
REMARK    4  A    between atoms: C8_8  and  C10_10 
REMARK    5  A    between atoms: C9_9  and  C10_10 
ROOT
HETATM    1  C4  UNL     1     -33.042  15.076  -3.550  1.00 20.00     0.016 C 
HETATM    2  C10 UNL     1     -34.512  15.553  -3.451  1.00 20.00    -0.028 C 
ENDROOT
BRANCH   2   3
HETATM    3  C7  UNL     1     -34.663  16.767  -4.431  1.00 20.00     0.010 C 
BRANCH   3   4
HETATM    4  C5  UNL     1     -33.645  16.824  -5.577  1.00 20.00    -0.004 C 
HETATM    5  C1  UNL     1     -34.264  16.353  -6.885  1.00 20.00     0.005 C 
ENDBRANCH   3   4
ENDBRANCH   2   3
BRANCH   2   6
HETATM    6  C8  UNL     1     -34.798  15.995  -1.980  1.00 20.00     0.124 C 
HETATM    7 CL11 UNL     1     -33.643  17.184  -1.313  1.00 20.00    -0.130 Cl
ENDBRANCH   2   6
BRANCH   2   8
HETATM    8  C9  UNL     1     -35.509  14.369  -3.829  1.00 20.00    -0.010 C 
HETATM    9  C3  UNL     1     -34.830  13.220  -4.601  1.00 20.00     0.011 C 
BRANCH   8  10
HETATM   10  C6  UNL     1     -36.766  14.844  -4.608  1.00 20.00     0.000 C 
HETATM   11  C2  UNL     1     -38.046  14.846  -3.777  1.00 20.00     0.005 C 
ENDBRANCH   8  10
ENDBRANCH   2   8
TORSDOF 5
ENDMDL
MODEL 9
REMARK VINA RESULT:      -4.0      0.963      1.956
REMARK  5 active torsions:
REMARK  status: ('A' for Active; 'I' for Inactive)
REMARK    1  A    between atoms: C5_5  and  C7_7 
REMARK    2  A    between atoms: C6_6  and  C9_9 
REMARK    3  A    between atoms: C7_7  and  C10_10 
REMARK    4  A    between atoms: C8_8  and  C10_10 
REMARK    5  A    between atoms: C9_9  and  C10_10 
ROOT
HETATM    1  C4  UNL     1     -33.156  15.233  -3.545  1.00 20.00     0.016 C 
HETATM    2  C10 UNL     1     -34.656  15.585  -3.698  1.00 20.00    -0.028 C 
ENDROOT
BRANCH   2   3
HETATM    3  C7  UNL     1     -35.164  16.039  -2.286  1.00 20.00     0.010 C 
BRANCH   3   4
HETATM    4  C5  UNL     1     -34.138  16.779  -1.419  1.00 20.00    -0.004 C 
HETATM    5  C1  UNL     1     -34.734  17.166  -0.073  1.00 20.00     0.005 C 
ENDBRANCH   3   4
ENDBRANCH   2   3
BRANCH   2   6
HETATM    6  C8  UNL     1     -35.425  14.313  -4.177  1.00 20.00     0.124 C 
HETATM    7 CL11 UNL     1     -34.392  13.017  -4.846  1.00 20.00    -0.130 Cl
ENDBRANCH   2   6
BRANCH   2   8
HETATM    8  C9  UNL     1     -34.850  16.735  -4.785  1.00 20.00    -0.010 C 
HETATM    9  C3  UNL     1     -35.482  16.236  -6.099  1.00 20.00     0.011 C 
BRANCH   8  10
HETATM   10  C6  UNL     1     -33.543  17.513  -5.102  1.00 20.00     0.000 C 
HETATM   11  C2  UNL     1     -33.522  18.938  -4.556  1.00 20.00     0.005 C 
ENDBRANCH   8  10
ENDBRANCH   2   8
TORSDOF 5
ENDMDL
