MODEL 1
REMARK VINA RESULT:      -4.0      0.000      0.000
REMARK  4 active torsions:
REMARK  status: ('A' for Active; 'I' for Inactive)
REMARK    1  A    between atoms: C5_5  and  C8_8 
REMARK    2  A    between atoms: C6_6  and  C8_8 
REMARK    3  A    between atoms: C7_7  and  C8_8 
REMARK    4  A    between atoms: C7_7  and  S10_10 
ROOT
HETATM    1  C1  UNL     1     -37.249  14.871  -3.859  1.00 20.00     0.074 C 
HETATM    2  C7  UNL     1     -35.922  15.442  -4.170  1.00 20.00     0.157 C 
HETATM    3  N9  UNL     1     -38.289  14.416  -3.619  1.00 20.00    -0.196 NA
ENDROOT
BRANCH   2   4
HETATM    4  C8  UNL     1     -34.866  15.048  -3.093  1.00 20.00     0.012 C 
BRANCH   4   5
HETATM    5  C5  UNL     1     -34.199  16.281  -2.426  1.00 20.00     0.002 C 
HETATM    6  C2  UNL     1     -34.627  16.498  -0.979  1.00 20.00     0.005 C 
ENDBRANCH   4   5
BRANCH   4   7
HETATM    7  C6  UNL     1     -33.785  14.072  -3.624  1.00 20.00     0.002 C 
HETATM    8  C3  UNL     1     -34.250  13.176  -4.765  1.00 20.00     0.005 C 
ENDBRANCH   4   7
ENDBRANCH   2   4
BRANCH   2   9
HETATM    9  S10 UNL     1     -36.059  17.246  -4.460  1.00 20.00    -0.154 SA
HETATM   10  C4  UNL     1     -34.970  17.347  -5.896  1.00 20.00     0.091 C 
ENDBRANCH   2   9
TORSDOF 4
ENDMDL
MODEL 2
REMARK VINA RESULT:      -4.0      1.933      3.259
REMARK  4 active torsions:
REMARK  status: ('A' for Active; 'I' for Inactive)
REMARK    1  A    between atoms: C5_5  and  C8_8 
REMARK    2  A    between atoms: C6_6  and  C8_8 
REMARK    3  A    between atoms: C7_7  and  C8_8 
REMARK    4  A    between atoms: C7_7  and  S10_10 
ROOT
HETATM    1  C1  UNL     1     -34.261  13.678  -4.283  1.00 20.00     0.074 C 
HETATM    2  C7  UNL     1     -33.770  14.887  -3.591  1.00 20.00     0.157 C 
HETATM    3  N9  UNL     1     -34.644  12.724  -4.821  1.00 20.00    -0.196 NA
ENDROOT
BRANCH   2   4
HETATM    4  C8  UNL     1     -34.814  15.419  -2.563  1.00 20.00     0.012 C 
BRANCH   4   5
HETATM    5  C5  UNL     1     -36.252  15.479  -3.144  1.00 20.00     0.002 C 
HETATM    6  C2  UNL     1     -36.702  16.888  -3.514  1.00 20.00     0.005 C 
ENDBRANCH   4   5
BRANCH   4   7
HETATM    7  C6  UNL     1     -34.425  16.787  -1.946  1.00 20.00     0.002 C 
HETATM    8  C3  UNL     1     -34.643  16.884  -0.442  1.00 20.00     0.005 C 
ENDBRANCH   4   7
ENDBRANCH   2   4
BRANCH   2   9
HETATM    9  S10 UNL     1     -33.217  16.137  -4.811  1.00 20.00    -0.154 SA
HETATM   10  C4  UNL     1     -34.276  15.627  -6.181  1.00 20.00     0.091 C 
ENDBRANCH   2   9
TORSDOF 4
ENDMDL
MODEL 3
REMARK VINA RESULT:      -3.9      1.873      2.543
REMARK  4 active torsions:
REMARK  status: ('A' for Active; 'I' for Inactive)
REMARK    1  A    between atoms: C5_5  and  C8_8 
REMARK    2  A    between atoms: C6_6  and  C8_8 
REMARK    3  A    between atoms: C7_7  and  C8_8 
REMARK    4  A    between atoms: C7_7  and  S10_10 
ROOT
HETATM    1  C1  UNL     1     -35.013  13.758  -4.427  1.00 20.00     0.074 C 
HETATM    2  C7  UNL     1     -35.288  15.190  -4.189  1.00 20.00     0.157 C 
HETATM    3  N9  UNL     1     -34.792  12.635  -4.621  1.00 20.00    -0.196 NA
ENDROOT
BRANCH   2   4
HETATM    4  C8  UNL     1     -34.236  15.818  -3.225  1.00 20.00     0.012 C 
BRANCH   4   5
HETATM    5  C5  UNL     1     -34.802  16.072  -1.801  1.00 20.00     0.002 C 
HETATM    6  C2  UNL     1     -34.044  17.145  -1.026  1.00 20.00     0.005 C 
ENDBRANCH   4   5
BRANCH   4   7
HETATM    7  C6  UNL     1     -33.587  17.110  -3.784  1.00 20.00     0.002 C 
HETATM    8  C3  UNL     1     -33.516  17.172  -5.305  1.00 20.00     0.005 C 
ENDBRANCH   4   7
ENDBRANCH   2   4
BRANCH   2   9
HETATM    9  S10 UNL     1     -37.025  15.423  -3.656  1.00 20.00    -0.154 SA
HETATM   10  C4  UNL     1     -37.437  16.793  -4.757  1.00 20.00     0.091 C 
ENDBRANCH   2   9
TORSDOF 4
ENDMDL
MODEL 4
REMARK VINA RESULT:      -3.9      1.387      2.598
REMARK  4 active torsions:
REMARK  status: ('A' for Active; 'I' for Inactive)
REMARK    1  A    between atoms: C5_5  and  C8_8 
REMARK    2  A    between atoms: C6_6  and  C8_8 
REMARK    3  A    between atoms: C7_7  and  C8_8 
REMARK    4  A    between atoms: C7_7  and  S10_10 
ROOT
HETATM    1  C1  UNL     1     -36.979  14.621  -4.101  1.00 20.00     0.074 C 
HETATM    2  C7  UNL     1     -35.671  14.935  -4.714  1.00 20.00     0.157 C 
HETATM    3  N9  UNL     1     -38.002  14.368  -3.617  1.00 20.00    -0.196 NA
ENDROOT
BRANCH   2   4
HETATM    4  C8  UNL     1     -34.782  15.783  -3.755  1.00 20.00     0.012 C 
BRANCH   4   5
HETATM    5  C5  UNL     1     -33.354  15.198  -3.584  1.00 20.00     0.002 C 
HETATM    6  C2  UNL     1     -33.294  13.682  -3.736  1.00 20.00     0.005 C 
ENDBRANCH   4   5
BRANCH   4   7
HETATM    7  C6  UNL     1     -35.434  16.025  -2.369  1.00 20.00     0.002 C 
HETATM    8  C3  UNL     1     -34.470  16.521  -1.298  1.00 20.00     0.005 C 
ENDBRANCH   4   7
ENDBRANCH   2   4
BRANCH   2   9
HETATM    9  S10 UNL     1     -35.908  15.680  -6.370  1.00 20.00    -0.154 SA
HETATM   10  C4  UNL     1     -34.461  14.959  -7.173  1.00 20.00     0.091 C 
ENDBRANCH   2   9
TORSDOF 4
ENDMDL
MODEL 5
REMARK VINA RESULT:      -3.9      1.937      3.149
REMARK  4 active torsions:
REMARK  status: ('A' for Active; 'I' for Inactive)
REMARK    1  A    between atoms: C5_5  and  C8_8 
REMARK    2  A    between atoms: C6_6  and  C8_8 
REMARK    3  A    between atoms: C7_7  and  C8_8 
REMARK    4  A    between atoms: C7_7  and  S10_10 
ROOT
HETATM    1  C1  UNL     1     -35.265  13.793  -4.465  1.00 20.00     0.074 C 
HETATM    2  C7  UNL     1     -35.772  15.179  -4.417  1.00 20.00     0.157 C 
HETATM    3  N9  UNL     1     -34.863  12.705  -4.511  1.00 20.00    -0.196 NA
ENDROOT
BRANCH   2   4
HETATM    4  C8  UNL     1     -34.781  16.122  -3.670  1.00 20.00     0.012 C 
BRANCH   4   5
HETATM    5  C5  UNL     1     -33.474  16.376  -4.470  1.00 20.00     0.002 C 
HETATM    6  C2  UNL     1     -33.571  17.549  -5.439  1.00 20.00     0.005 C 
ENDBRANCH   4   5
BRANCH   4   7
HETATM    7  C6  UNL     1     -34.448  15.646  -2.232  1.00 20.00     0.002 C 
HETATM    8  C3  UNL     1     -34.639  16.709  -1.157  1.00 20.00     0.005 C 
ENDBRANCH   4   7
ENDBRANCH   2   4
BRANCH   2   9
HETATM    9  S10 UNL     1     -37.479  15.208  -3.751  1.00 20.00    -0.154 SA
HETATM   10  C4  UNL     1     -37.656  16.999  -3.607  1.00 20.00     0.091 C 
ENDBRANCH   2   9
TORSDOF 4
ENDMDL
MODEL 6
REMARK VINA RESULT:      -3.9      1.826      2.605
REMARK  4 active torsions:
REMARK  status: ('A' for Active; 'I' for Inactive)
REMARK    1  A    between atoms: C5_5  and  C8_8 
REMARK    2  A    between atoms: C6_6  and  C8_8 
REMARK    3  A    between atoms: C7_7  and  C8_8 
REMARK    4  A    between atoms: C7_7  and  S10_10 
ROOT
HETATM    1  C1  UNL     1     -34.460  13.801  -4.664  1.00 20.00     0.074 C 
HETATM    2  C7  UNL     1     -34.017  15.210  -4.700  1.00 20.00     0.157 C 
HETATM    3  N9  UNL     1     -34.802  12.693  -4.630  1.00 20.00    -0.196 NA
ENDROOT
BRANCH   2   4
HETATM    4  C8  UNL     1     -34.717  16.055  -3.592  1.00 20.00     0.012 C 
BRANCH   4   5
HETATM    5  C5  UNL     1     -33.822  16.266  -2.341  1.00 20.00     0.002 C 
HETATM    6  C2  UNL     1     -34.611  16.551  -1.068  1.00 20.00     0.005 C 
ENDBRANCH   4   5
BRANCH   4   7
HETATM    7  C6  UNL     1     -36.101  15.494  -3.176  1.00 20.00     0.002 C 
HETATM    8  C3  UNL     1     -37.286  16.180  -3.843  1.00 20.00     0.005 C 
ENDBRANCH   4   7
ENDBRANCH   2   4
BRANCH   2   9
HETATM    9  S10 UNL     1     -34.203  15.891  -6.390  1.00 20.00    -0.154 SA
HETATM   10  C4  UNL     1     -33.996  17.636  -5.976  1.00 20.00     0.091 C 
ENDBRANCH   2   9
TORSDOF 4
ENDMDL
MODEL 7
REMARK VINA RESULT:      -3.8      2.145      2.952
REMARK  4 active torsions:
REMARK  status: ('A' for Active; 'I' for Inactive)
REMARK    1  A    between atoms: C5_5  and  C8_8 
REMARK    2  A    between atoms: C6_6  and  C8_8 
REMARK    3  A    between atoms: C7_7  and  C8_8 
REMARK    4  A    between atoms: C7_7  and  S10_10 
ROOT
HETATM    1  C1  UNL     1     -33.364  14.467  -3.816  1.00 20.00     0.074 C 
HETATM    2  C7  UNL     1     -33.364  15.942  -3.899  1.00 20.00     0.157 C 
HETATM    3  N9  UNL     1     -33.359  13.309  -3.745  1.00 20.00    -0.196 NA
ENDROOT
BRANCH   2   4
HETATM    4  C8  UNL     1     -34.382  16.568  -2.898  1.00 20.00     0.012 C 
BRANCH   4   5
HETATM    5  C5  UNL     1     -33.748  16.889  -1.518  1.00 20.00     0.002 C 
HETATM    6  C2  UNL     1     -34.763  16.957  -0.381  1.00 20.00     0.005 C 
ENDBRANCH   4   5
BRANCH   4   7
HETATM    7  C6  UNL     1     -35.665  15.718  -2.716  1.00 20.00     0.002 C 
HETATM    8  C3  UNL     1     -36.828  16.134  -3.608  1.00 20.00     0.005 C 
ENDBRANCH   4   7
ENDBRANCH   2   4
BRANCH   2   9
HETATM    9  S10 UNL     1     -33.592  16.480  -5.634  1.00 20.00    -0.154 SA
HETATM   10  C4  UNL     1     -33.577  18.262  -5.343  1.00 20.00     0.091 C 
ENDBRANCH   2   9
TORSDOF 4
ENDMDL
MODEL 8
REMARK VINA RESULT:      -3.8      1.765      2.789
REMARK  4 active torsions:
REMARK  status: ('A' for Active; 'I' for Inactive)
REMARK    1  A    between atoms: C5_5  and  C8_8 
REMARK    2  A    between atoms: C6_6  and  C8_8 
REMARK    3  A    between atoms: C7_7  and  C8_8 
REMARK    4  A    between atoms: C7_7  and  S10_10 
ROOT
HETATM    1  C1  UNL     1     -36.554  14.421  -4.131  1.00 20.00     0.074 C 
HETATM    2  C7  UNL     1     -35.177  14.554  -4.649  1.00 20.00     0.157 C 
HETATM    3  N9  UNL     1     -37.633  14.313  -3.718  1.00 20.00    -0.196 NA
ENDROOT
BRANCH   2   4
HETATM    4  C8  UNL     1     -34.479  15.831  -4.090  1.00 20.00     0.012 C 
BRANCH   4   5
HETATM    5  C5  UNL     1     -33.369  16.370  -5.033  1.00 20.00     0.002 C 
HETATM    6  C2  UNL     1     -33.560  17.831  -5.428  1.00 20.00     0.005 C 
ENDBRANCH   4   5
BRANCH   4   7
HETATM    7  C6  UNL     1     -33.925  15.649  -2.654  1.00 20.00     0.002 C 
HETATM    8  C3  UNL     1     -34.723  16.370  -1.575  1.00 20.00     0.005 C 
ENDBRANCH   4   7
ENDBRANCH   2   4
BRANCH   2   9
HETATM    9  S10 UNL     1     -35.171  14.436  -6.477  1.00 20.00    -0.154 SA
HETATM   10  C4  UNL     1     -36.513  15.600  -6.802  1.00 20.00     0.091 C 
ENDBRANCH   2   9
TORSDOF 4
ENDMDL
MODEL 9
REMARK VINA RESULT:      -3.8      2.293      2.941
REMARK  4 active torsions:
REMARK  status: ('A' for Active; 'I' for Inactive)
REMARK    1  A    between atoms: C5_5  and  C8_8 
REMARK    2  A    between atoms: C6_6  and  C8_8 
REMARK    3  A    between atoms: C7_7  and  C8_8 
REMARK    4  A    between atoms: C7_7  and  S10_10 
ROOT
HETATM    1  C1  UNL     1     -34.175  17.698  -4.855  1.00 20.00     0.074 C 
HETATM    2  C7  UNL     1     -35.084  16.938  -3.973  1.00 20.00     0.157 C 
HETATM    3  N9  UNL     1     -33.460  18.300  -5.542  1.00 20.00    -0.196 NA
ENDROOT
BRANCH   2   4
HETATM    4  C8  UNL     1     -34.291  16.041  -2.974  1.00 20.00     0.012 C 
BRANCH   4   5
HETATM    5  C5  UNL     1     -33.765  16.832  -1.745  1.00 20.00     0.002 C 
HETATM    6  C2  UNL     1     -34.699  16.778  -0.541  1.00 20.00     0.005 C 
ENDBRANCH   4   5
BRANCH   4   7
HETATM    7  C6  UNL     1     -33.135  15.254  -3.642  1.00 20.00     0.002 C 
HETATM    8  C3  UNL     1     -33.370  13.752  -3.739  1.00 20.00     0.005 C 
ENDBRANCH   4   7
ENDBRANCH   2   4
BRANCH   2   9
HETATM    9  S10 UNL     1     -36.325  16.031  -4.970  1.00 20.00    -0.154 SA
HETATM   10  C4  UNL     1     -36.962  14.965  -3.659  1.00 20.00     0.091 C 
ENDBRANCH   2   9
TORSDOF 4
ENDMDL
