MODEL 1
REMARK VINA RESULT:      -4.3      0.000      0.000
REMARK  3 active torsions:
REMARK  status: ('A' for Active; 'I' for Inactive)
REMARK    1  A    between atoms: C4_4  and  C10_10 
REMARK    2  A    between atoms: C8_8  and  C10_10 
REMARK    3  A    between atoms: C9_9  and  C10_10 
ROOT
HETATM    1  C1  UNL     1     -34.906  13.666  -3.787  1.00 20.00     0.006 C 
HETATM    2  C2  UNL     1     -34.680  13.366  -5.262  1.00 20.00     0.020 C 
HETATM    3  C3  UNL     1     -34.400  15.740  -4.992  1.00 20.00     0.025 C 
HETATM    4  C4  UNL     1     -34.342  15.079  -3.602  1.00 20.00    -0.009 C 
HETATM    5  C5  UNL     1     -35.032  14.695  -5.910  1.00 20.00     0.082 C 
HETATM    6 CL11 UNL     1     -34.442  14.808  -7.575  1.00 20.00    -0.125 Cl
ENDROOT
BRANCH   4   7
HETATM    7  C10 UNL     1     -35.088  15.868  -2.537  1.00 20.00    -0.011 C 
BRANCH   7   8
HETATM    8  C8  UNL     1     -36.054  16.896  -3.163  1.00 20.00     0.000 C 
HETATM    9  C6  UNL     1     -37.489  16.401  -3.278  1.00 20.00     0.005 C 
ENDBRANCH   7   8
BRANCH   7  10
HETATM   10  C9  UNL     1     -34.116  16.602  -1.590  1.00 20.00     0.000 C 
HETATM   11  C7  UNL     1     -34.742  17.019  -0.266  1.00 20.00     0.005 C 
ENDBRANCH   7  10
ENDBRANCH   4   7
TORSDOF 3
ENDMDL
MODEL 2
REMARK VINA RESULT:      -4.3      1.811      2.895
REMARK  3 active torsions:
REMARK  status: ('A' for Active; 'I' for Inactive)
REMARK    1  A    between atoms: C4_4  and  C10_10 
REMARK    2  A    between atoms: C8_8  and  C10_10 
REMARK    3  A    between atoms: C9_9  and  C10_10 
ROOT
HETATM    1  C1  UNL     1     -33.401  16.598  -5.577  1.00 20.00     0.006 C 
HETATM    2  C2  UNL     1     -34.433  17.056  -6.598  1.00 20.00     0.020 C 
HETATM    3  C3  UNL     1     -35.517  17.116  -4.452  1.00 20.00     0.025 C 
HETATM    4  C4  UNL     1     -33.997  17.022  -4.229  1.00 20.00    -0.009 C 
HETATM    5  C5  UNL     1     -35.739  16.702  -5.906  1.00 20.00     0.082 C 
HETATM    6 CL11 UNL     1     -37.130  17.515  -6.639  1.00 20.00    -0.125 Cl
ENDROOT
BRANCH   4   7
HETATM    7  C10 UNL     1     -33.618  16.074  -3.102  1.00 20.00    -0.011 C 
BRANCH   7   8
HETATM    8  C8  UNL     1     -33.203  14.689  -3.640  1.00 20.00     0.000 C 
HETATM    9  C6  UNL     1     -34.328  13.664  -3.631  1.00 20.00     0.005 C 
ENDBRANCH   7   8
BRANCH   7  10
HETATM   10  C9  UNL     1     -34.775  15.897  -2.096  1.00 20.00     0.000 C 
HETATM   11  C7  UNL     1     -34.590  16.677  -0.801  1.00 20.00     0.005 C 
ENDBRANCH   7  10
ENDBRANCH   4   7
TORSDOF 3
ENDMDL
MODEL 3
REMARK VINA RESULT:      -4.2      2.660      4.489
REMARK  3 active torsions:
REMARK  status: ('A' for Active; 'I' for Inactive)
REMARK    1  A    between atoms: C4_4  and  C10_10 
REMARK    2  A    between atoms: C8_8  and  C10_10 
REMARK    3  A    between atoms: C9_9  and  C10_10 
ROOT
HETATM    1  C1  UNL     1     -35.320  17.215  -3.977  1.00 20.00     0.006 C 
HETATM    2  C2  UNL     1     -35.574  17.721  -2.565  1.00 20.00     0.020 C 
HETATM    3  C3  UNL     1     -33.733  16.180  -2.421  1.00 20.00     0.025 C 
HETATM    4  C4  UNL     1     -33.932  16.568  -3.898  1.00 20.00    -0.009 C 
HETATM    5  C5  UNL     1     -35.030  16.581  -1.719  1.00 20.00     0.082 C 
HETATM    6 CL11 UNL     1     -34.771  17.058  -0.035  1.00 20.00    -0.125 Cl
ENDROOT
BRANCH   4   7
HETATM    7  C10 UNL     1     -33.785  15.389  -4.848  1.00 20.00    -0.011 C 
BRANCH   7   8
HETATM    8  C8  UNL     1     -34.898  15.378  -5.916  1.00 20.00     0.000 C 
HETATM    9  C6  UNL     1     -34.395  15.094  -7.325  1.00 20.00     0.005 C 
ENDBRANCH   7   8
BRANCH   7  10
HETATM   10  C9  UNL     1     -33.801  14.045  -4.090  1.00 20.00     0.000 C 
HETATM   11  C7  UNL     1     -35.104  13.272  -4.234  1.00 20.00     0.005 C 
ENDBRANCH   7  10
ENDBRANCH   4   7
TORSDOF 3
ENDMDL
MODEL 4
REMARK VINA RESULT:      -4.2      3.238      5.190
REMARK  3 active torsions:
REMARK  status: ('A' for Active; 'I' for Inactive)
REMARK    1  A    between atoms: C4_4  and  C10_10 
REMARK    2  A    between atoms: C8_8  and  C10_10 
REMARK    3  A    between atoms: C9_9  and  C10_10 
ROOT
HETATM    1  C1  UNL     1     -33.674  18.196  -2.274  1.00 20.00     0.006 C 
HETATM    2  C2  UNL     1     -33.934  18.579  -0.824  1.00 20.00     0.020 C 
HETATM    3  C3  UNL     1     -34.673  16.304  -1.075  1.00 20.00     0.025 C 
HETATM    4  C4  UNL     1     -33.786  16.666  -2.281  1.00 20.00    -0.009 C 
HETATM    5  C5  UNL     1     -35.069  17.640  -0.449  1.00 20.00     0.082 C 
HETATM    6 CL11 UNL     1     -35.297  17.528   1.303  1.00 20.00    -0.125 Cl
ENDROOT
BRANCH   4   7
HETATM    7  C10 UNL     1     -34.323  16.129  -3.598  1.00 20.00    -0.011 C 
BRANCH   7   8
HETATM    8  C8  UNL     1     -34.625  14.618  -3.515  1.00 20.00     0.000 C 
HETATM    9  C6  UNL     1     -33.407  13.734  -3.742  1.00 20.00     0.005 C 
ENDBRANCH   7   8
BRANCH   7  10
HETATM   10  C9  UNL     1     -33.338  16.382  -4.758  1.00 20.00     0.000 C 
HETATM   11  C7  UNL     1     -34.011  16.539  -6.115  1.00 20.00     0.005 C 
ENDBRANCH   7  10
ENDBRANCH   4   7
TORSDOF 3
ENDMDL
MODEL 5
REMARK VINA RESULT:      -4.2      2.397      4.427
REMARK  3 active torsions:
REMARK  status: ('A' for Active; 'I' for Inactive)
REMARK    1  A    between atoms: C4_4  and  C10_10 
REMARK    2  A    between atoms: C8_8  and  C10_10 
REMARK    3  A    between atoms: C9_9  and  C10_10 
ROOT
HETATM    1  C1  UNL     1     -34.033  16.708  -1.507  1.00 20.00     0.006 C 
HETATM    2  C2  UNL     1     -35.253  17.469  -1.008  1.00 20.00     0.020 C 
HETATM    3  C3  UNL     1     -35.963  16.221  -2.938  1.00 20.00     0.025 C 
HETATM    4  C4  UNL     1     -34.613  15.656  -2.460  1.00 20.00    -0.009 C 
HETATM    5  C5  UNL     1     -36.086  17.592  -2.274  1.00 20.00     0.082 C 
HETATM    6 CL11 UNL     1     -37.766  18.032  -1.933  1.00 20.00    -0.125 Cl
ENDROOT
BRANCH   4   7
HETATM    7  C10 UNL     1     -33.668  15.325  -3.604  1.00 20.00    -0.011 C 
BRANCH   7   8
HETATM    8  C8  UNL     1     -34.133  15.964  -4.930  1.00 20.00     0.000 C 
HETATM    9  C6  UNL     1     -33.405  17.255  -5.279  1.00 20.00     0.005 C 
ENDBRANCH   7   8
BRANCH   7  10
HETATM   10  C9  UNL     1     -33.528  13.801  -3.802  1.00 20.00     0.000 C 
HETATM   11  C7  UNL     1     -34.539  13.211  -4.775  1.00 20.00     0.005 C 
ENDBRANCH   7  10
ENDBRANCH   4   7
TORSDOF 3
ENDMDL
MODEL 6
REMARK VINA RESULT:      -4.1      2.264      3.569
REMARK  3 active torsions:
REMARK  status: ('A' for Active; 'I' for Inactive)
REMARK    1  A    between atoms: C4_4  and  C10_10 
REMARK    2  A    between atoms: C8_8  and  C10_10 
REMARK    3  A    between atoms: C9_9  and  C10_10 
ROOT
HETATM    1  C1  UNL     1     -33.747  17.751  -3.743  1.00 20.00     0.006 C 
HETATM    2  C2  UNL     1     -33.460  16.448  -4.476  1.00 20.00     0.020 C 
HETATM    3  C3  UNL     1     -34.403  15.846  -2.346  1.00 20.00     0.025 C 
HETATM    4  C4  UNL     1     -34.682  17.338  -2.600  1.00 20.00    -0.009 C 
HETATM    5  C5  UNL     1     -33.290  15.470  -3.324  1.00 20.00     0.082 C 
HETATM    6 CL11 UNL     1     -33.391  13.785  -3.853  1.00 20.00    -0.125 Cl
ENDROOT
BRANCH   4   7
HETATM    7  C10 UNL     1     -34.497  18.198  -1.359  1.00 20.00    -0.011 C 
BRANCH   7   8
HETATM    8  C8  UNL     1     -33.216  19.053  -1.445  1.00 20.00     0.000 C 
HETATM    9  C6  UNL     1     -32.350  18.991  -0.194  1.00 20.00     0.005 C 
ENDBRANCH   7   8
BRANCH   7  10
HETATM   10  C9  UNL     1     -34.444  17.340  -0.077  1.00 20.00     0.000 C 
HETATM   11  C7  UNL     1     -35.508  17.700   0.950  1.00 20.00     0.005 C 
ENDBRANCH   7  10
ENDBRANCH   4   7
TORSDOF 3
ENDMDL
MODEL 7
REMARK VINA RESULT:      -4.1      3.004      4.630
REMARK  3 active torsions:
REMARK  status: ('A' for Active; 'I' for Inactive)
REMARK    1  A    between atoms: C4_4  and  C10_10 
REMARK    2  A    between atoms: C8_8  and  C10_10 
REMARK    3  A    between atoms: C9_9  and  C10_10 
ROOT
HETATM    1  C1  UNL     1     -34.719  15.889  -1.855  1.00 20.00     0.006 C 
HETATM    2  C2  UNL     1     -34.779  16.863  -0.687  1.00 20.00     0.020 C 
HETATM    3  C3  UNL     1     -33.577  17.976  -2.448  1.00 20.00     0.025 C 
HETATM    4  C4  UNL     1     -34.309  16.762  -3.048  1.00 20.00    -0.009 C 
HETATM    5  C5  UNL     1     -33.559  17.733  -0.940  1.00 20.00     0.082 C 
HETATM    6 CL11 UNL     1     -33.602  19.238  -0.009  1.00 20.00    -0.125 Cl
ENDROOT
BRANCH   4   7
HETATM    7  C10 UNL     1     -33.469  16.002  -4.063  1.00 20.00    -0.011 C 
BRANCH   7   8
HETATM    8  C8  UNL     1     -34.076  16.084  -5.479  1.00 20.00     0.000 C 
HETATM    9  C6  UNL     1     -35.318  16.960  -5.566  1.00 20.00     0.005 C 
ENDBRANCH   7   8
BRANCH   7  10
HETATM   10  C9  UNL     1     -33.309  14.518  -3.669  1.00 20.00     0.000 C 
HETATM   11  C7  UNL     1     -34.122  13.561  -4.529  1.00 20.00     0.005 C 
ENDBRANCH   7  10
ENDBRANCH   4   7
TORSDOF 3
ENDMDL
MODEL 8
REMARK VINA RESULT:      -4.1      2.712      4.438
REMARK  3 active torsions:
REMARK  status: ('A' for Active; 'I' for Inactive)
REMARK    1  A    between atoms: C4_4  and  C10_10 
REMARK    2  A    between atoms: C8_8  and  C10_10 
REMARK    3  A    between atoms: C9_9  and  C10_10 
ROOT
HETATM    1  C1  UNL     1     -34.417  16.453  -1.277  1.00 20.00     0.006 C 
HETATM    2  C2  UNL     1     -34.176  16.322  -2.775  1.00 20.00     0.020 C 
HETATM    3  C3  UNL     1     -33.487  18.543  -2.160  1.00 20.00     0.025 C 
HETATM    4  C4  UNL     1     -33.617  17.699  -0.879  1.00 20.00    -0.009 C 
HETATM    5  C5  UNL     1     -34.251  17.769  -3.233  1.00 20.00     0.082 C 
HETATM    6 CL11 UNL     1     -33.570  17.998  -4.850  1.00 20.00    -0.125 Cl
ENDROOT
BRANCH   4   7
HETATM    7  C10 UNL     1     -34.260  18.458   0.271  1.00 20.00    -0.011 C 
BRANCH   7   8
HETATM    8  C8  UNL     1     -33.228  18.828   1.357  1.00 20.00     0.000 C 
HETATM    9  C6  UNL     1     -31.796  18.903   0.844  1.00 20.00     0.005 C 
ENDBRANCH   7   8
BRANCH   7  10
HETATM   10  C9  UNL     1     -35.402  17.647   0.919  1.00 20.00     0.000 C 
HETATM   11  C7  UNL     1     -35.322  17.574   2.437  1.00 20.00     0.005 C 
ENDBRANCH   7  10
ENDBRANCH   4   7
TORSDOF 3
ENDMDL
MODEL 9
REMARK VINA RESULT:      -4.1      1.600      2.900
REMARK  3 active torsions:
REMARK  status: ('A' for Active; 'I' for Inactive)
REMARK    1  A    between atoms: C4_4  and  C10_10 
REMARK    2  A    between atoms: C8_8  and  C10_10 
REMARK    3  A    between atoms: C9_9  and  C10_10 
ROOT
HETATM    1  C1  UNL     1     -33.826  16.437  -5.592  1.00 20.00     0.006 C 
HETATM    2  C2  UNL     1     -34.681  16.264  -6.839  1.00 20.00     0.020 C 
HETATM    3  C3  UNL     1     -36.013  15.514  -4.982  1.00 20.00     0.025 C 
HETATM    4  C4  UNL     1     -34.826  16.327  -4.435  1.00 20.00    -0.009 C 
HETATM    5  C5  UNL     1     -35.631  15.155  -6.417  1.00 20.00     0.082 C 
HETATM    6 CL11 UNL     1     -37.037  15.032  -7.484  1.00 20.00    -0.125 Cl
ENDROOT
BRANCH   4   7
HETATM    7  C10 UNL     1     -34.207  15.713  -3.189  1.00 20.00    -0.011 C 
BRANCH   7   8
HETATM    8  C8  UNL     1     -33.847  16.788  -2.143  1.00 20.00     0.000 C 
HETATM    9  C6  UNL     1     -34.606  16.647  -0.830  1.00 20.00     0.005 C 
ENDBRANCH   7   8
BRANCH   7  10
HETATM   10  C9  UNL     1     -32.942  14.897  -3.528  1.00 20.00     0.000 C 
HETATM   11  C7  UNL     1     -33.196  13.405  -3.690  1.00 20.00     0.005 C 
ENDBRANCH   7  10
ENDBRANCH   4   7
TORSDOF 3
ENDMDL
