MODEL 1
REMARK VINA RESULT:      -5.4      0.000      0.000
REMARK  4 active torsions:
REMARK  status: ('A' for Active; 'I' for Inactive)
REMARK    1  A    between atoms: C2_2  and  C6_6 
REMARK    2  A    between atoms: C2_2  and  C7_7 
REMARK    3  A    between atoms: C7_7  and  C8_8 
REMARK    4  A    between atoms: C8_8  and  C9_9 
ROOT
HETATM    1  C7  UNL     1     -32.932   6.102   3.081  1.00 20.00     0.039 C 
ENDROOT
BRANCH   1   2
HETATM    2  C2  UNL     1     -32.084   7.353   2.949  1.00 20.00    -0.089 C 
HETATM    3  C1  UNL     1     -31.367   7.810   3.989  1.00 20.00     0.014 C 
BRANCH   2   4
HETATM    4  C6  UNL     1     -32.058   8.072   1.619  1.00 20.00     0.029 C 
HETATM    5  C3  UNL     1     -32.472   9.533   1.719  1.00 20.00     0.010 C 
ENDBRANCH   2   4
ENDBRANCH   1   2
BRANCH   1   6
HETATM    6  C8  UNL     1     -34.146   6.235   4.034  1.00 20.00     0.003 C 
HETATM    7  C4  UNL     1     -35.402   5.586   3.431  1.00 20.00     0.011 C 
BRANCH   6   8
HETATM    8  C9  UNL     1     -33.870   5.685   5.459  1.00 20.00     0.082 C 
HETATM    9  C5  UNL     1     -33.908   6.762   6.539  1.00 20.00     0.027 C 
HETATM   10 CL10 UNL     1     -34.989   4.364   5.917  1.00 20.00    -0.125 Cl
ENDBRANCH   6   8
ENDBRANCH   1   6
TORSDOF 4
ENDMDL
MODEL 2
REMARK VINA RESULT:      -4.7      1.988      4.328
REMARK  4 active torsions:
REMARK  status: ('A' for Active; 'I' for Inactive)
REMARK    1  A    between atoms: C2_2  and  C6_6 
REMARK    2  A    between atoms: C2_2  and  C7_7 
REMARK    3  A    between atoms: C7_7  and  C8_8 
REMARK    4  A    between atoms: C8_8  and  C9_9 
ROOT
HETATM    1  C7  UNL     1     -34.074   6.633   4.304  1.00 20.00     0.039 C 
ENDROOT
BRANCH   1   2
HETATM    2  C2  UNL     1     -34.035   6.254   5.772  1.00 20.00    -0.089 C 
HETATM    3  C1  UNL     1     -33.648   7.145   6.701  1.00 20.00     0.014 C 
BRANCH   2   4
HETATM    4  C6  UNL     1     -34.447   4.855   6.169  1.00 20.00     0.029 C 
HETATM    5  C3  UNL     1     -35.313   4.166   5.123  1.00 20.00     0.010 C 
ENDBRANCH   2   4
ENDBRANCH   1   2
BRANCH   1   6
HETATM    6  C8  UNL     1     -32.931   6.038   3.445  1.00 20.00     0.003 C 
HETATM    7  C4  UNL     1     -33.484   5.264   2.238  1.00 20.00     0.011 C 
BRANCH   6   8
HETATM    8  C9  UNL     1     -31.888   7.096   2.993  1.00 20.00     0.082 C 
HETATM    9  C5  UNL     1     -32.478   8.178   2.094  1.00 20.00     0.027 C 
HETATM   10 CL10 UNL     1     -31.057   7.878   4.374  1.00 20.00    -0.125 Cl
ENDBRANCH   6   8
ENDBRANCH   1   6
TORSDOF 4
ENDMDL
MODEL 3
REMARK VINA RESULT:      -4.6      1.297      2.063
REMARK  4 active torsions:
REMARK  status: ('A' for Active; 'I' for Inactive)
REMARK    1  A    between atoms: C2_2  and  C6_6 
REMARK    2  A    between atoms: C2_2  and  C7_7 
REMARK    3  A    between atoms: C7_7  and  C8_8 
REMARK    4  A    between atoms: C8_8  and  C9_9 
ROOT
HETATM    1  C7  UNL     1     -33.603   7.166   4.019  1.00 20.00     0.039 C 
ENDROOT
BRANCH   1   2
HETATM    2  C2  UNL     1     -32.490   6.996   3.003  1.00 20.00    -0.089 C 
HETATM    3  C1  UNL     1     -32.198   5.785   2.500  1.00 20.00     0.014 C 
BRANCH   2   4
HETATM    4  C6  UNL     1     -31.720   8.221   2.563  1.00 20.00     0.029 C 
HETATM    5  C3  UNL     1     -32.111   8.707   1.174  1.00 20.00     0.010 C 
ENDBRANCH   2   4
ENDBRANCH   1   2
BRANCH   1   6
HETATM    6  C8  UNL     1     -33.639   6.090   5.133  1.00 20.00     0.003 C 
HETATM    7  C4  UNL     1     -33.940   6.715   6.504  1.00 20.00     0.011 C 
BRANCH   6   8
HETATM    8  C9  UNL     1     -34.621   4.926   4.829  1.00 20.00     0.082 C 
HETATM    9  C5  UNL     1     -35.202   4.284   6.085  1.00 20.00     0.027 C 
HETATM   10 CL10 UNL     1     -35.966   5.421   3.754  1.00 20.00    -0.125 Cl
ENDBRANCH   6   8
ENDBRANCH   1   6
TORSDOF 4
ENDMDL
MODEL 4
REMARK VINA RESULT:      -4.4      1.955      4.320
REMARK  4 active torsions:
REMARK  status: ('A' for Active; 'I' for Inactive)
REMARK    1  A    between atoms: C2_2  and  C6_6 
REMARK    2  A    between atoms: C2_2  and  C7_7 
REMARK    3  A    between atoms: C7_7  and  C8_8 
REMARK    4  A    between atoms: C8_8  and  C9_9 
ROOT
HETATM    1  C7  UNL     1     -34.053   6.529   4.035  1.00 20.00     0.039 C 
ENDROOT
BRANCH   1   2
HETATM    2  C2  UNL     1     -34.583   5.569   5.085  1.00 20.00    -0.089 C 
HETATM    3  C1  UNL     1     -35.254   4.462   4.726  1.00 20.00     0.014 C 
BRANCH   2   4
HETATM    4  C6  UNL     1     -34.333   5.882   6.543  1.00 20.00     0.029 C 
HETATM    5  C3  UNL     1     -33.613   7.206   6.756  1.00 20.00     0.010 C 
ENDBRANCH   2   4
ENDBRANCH   1   2
BRANCH   1   6
HETATM    6  C8  UNL     1     -32.812   6.025   3.258  1.00 20.00     0.003 C 
HETATM    7  C4  UNL     1     -33.221   5.254   1.993  1.00 20.00     0.011 C 
BRANCH   6   8
HETATM    8  C9  UNL     1     -31.803   7.154   2.915  1.00 20.00     0.082 C 
HETATM    9  C5  UNL     1     -32.401   8.251   2.040  1.00 20.00     0.027 C 
HETATM   10 CL10 UNL     1     -31.085   7.903   4.375  1.00 20.00    -0.125 Cl
ENDBRANCH   6   8
ENDBRANCH   1   6
TORSDOF 4
ENDMDL
MODEL 5
REMARK VINA RESULT:      -4.3      2.456      4.868
REMARK  4 active torsions:
REMARK  status: ('A' for Active; 'I' for Inactive)
REMARK    1  A    between atoms: C2_2  and  C6_6 
REMARK    2  A    between atoms: C2_2  and  C7_7 
REMARK    3  A    between atoms: C7_7  and  C8_8 
REMARK    4  A    between atoms: C8_8  and  C9_9 
ROOT
HETATM    1  C7  UNL     1     -33.010   6.277   3.039  1.00 20.00     0.039 C 
ENDROOT
BRANCH   1   2
HETATM    2  C2  UNL     1     -34.137   5.966   4.006  1.00 20.00    -0.089 C 
HETATM    3  C1  UNL     1     -35.295   5.446   3.565  1.00 20.00     0.014 C 
BRANCH   2   4
HETATM    4  C6  UNL     1     -33.927   6.247   5.476  1.00 20.00     0.029 C 
HETATM    5  C3  UNL     1     -34.609   5.232   6.383  1.00 20.00     0.010 C 
ENDBRANCH   2   4
ENDBRANCH   1   2
BRANCH   1   6
HETATM    6  C8  UNL     1     -32.454   7.721   3.129  1.00 20.00     0.003 C 
HETATM    7  C4  UNL     1     -30.997   7.728   3.616  1.00 20.00     0.011 C 
BRANCH   6   8
HETATM    8  C9  UNL     1     -32.598   8.516   1.804  1.00 20.00     0.082 C 
HETATM    9  C5  UNL     1     -32.789  10.015   2.018  1.00 20.00     0.027 C 
HETATM   10 CL10 UNL     1     -31.215   8.261   0.694  1.00 20.00    -0.125 Cl
ENDBRANCH   6   8
ENDBRANCH   1   6
TORSDOF 4
ENDMDL
MODEL 6
REMARK VINA RESULT:      -4.1     11.103     12.070
REMARK  4 active torsions:
REMARK  status: ('A' for Active; 'I' for Inactive)
REMARK    1  A    between atoms: C2_2  and  C6_6 
REMARK    2  A    between atoms: C2_2  and  C7_7 
REMARK    3  A    between atoms: C7_7  and  C8_8 
REMARK    4  A    between atoms: C8_8  and  C9_9 
ROOT
HETATM    1  C7  UNL     1     -33.853  17.381  -2.154  1.00 20.00     0.039 C 
ENDROOT
BRANCH   1   2
HETATM    2  C2  UNL     1     -33.798  17.717  -0.675  1.00 20.00    -0.089 C 
HETATM    3  C1  UNL     1     -32.807  18.477  -0.180  1.00 20.00     0.014 C 
BRANCH   2   4
HETATM    4  C6  UNL     1     -34.887  17.184   0.228  1.00 20.00     0.029 C 
HETATM    5  C3  UNL     1     -34.986  17.930   1.551  1.00 20.00     0.010 C 
ENDBRANCH   2   4
ENDBRANCH   1   2
BRANCH   1   6
HETATM    6  C8  UNL     1     -34.169  15.899  -2.474  1.00 20.00     0.003 C 
HETATM    7  C4  UNL     1     -35.629  15.724  -2.921  1.00 20.00     0.011 C 
BRANCH   6   8
HETATM    8  C9  UNL     1     -33.197  15.274  -3.510  1.00 20.00     0.082 C 
HETATM    9  C5  UNL     1     -33.552  13.838  -3.882  1.00 20.00     0.027 C 
HETATM   10 CL10 UNL     1     -33.069  16.246  -5.009  1.00 20.00    -0.125 Cl
ENDBRANCH   6   8
ENDBRANCH   1   6
TORSDOF 4
ENDMDL
MODEL 7
REMARK VINA RESULT:      -4.1     10.713     11.794
REMARK  4 active torsions:
REMARK  status: ('A' for Active; 'I' for Inactive)
REMARK    1  A    between atoms: C2_2  and  C6_6 
REMARK    2  A    between atoms: C2_2  and  C7_7 
REMARK    3  A    between atoms: C7_7  and  C8_8 
REMARK    4  A    between atoms: C8_8  and  C9_9 
ROOT
HETATM    1  C7  UNL     1     -33.966  16.704  -2.631  1.00 20.00     0.039 C 
ENDROOT
BRANCH   1   2
HETATM    2  C2  UNL     1     -33.998  17.433  -1.301  1.00 20.00    -0.089 C 
HETATM    3  C1  UNL     1     -34.717  16.954  -0.272  1.00 20.00     0.014 C 
BRANCH   2   4
HETATM    4  C6  UNL     1     -33.196  18.707  -1.155  1.00 20.00     0.029 C 
HETATM    5  C3  UNL     1     -32.377  18.756   0.127  1.00 20.00     0.010 C 
ENDBRANCH   2   4
ENDBRANCH   1   2
BRANCH   1   6
HETATM    6  C8  UNL     1     -34.849  15.433  -2.700  1.00 20.00     0.003 C 
HETATM    7  C4  UNL     1     -36.133  15.689  -3.505  1.00 20.00     0.011 C 
BRANCH   6   8
HETATM    8  C9  UNL     1     -34.095  14.190  -3.243  1.00 20.00     0.082 C 
HETATM    9  C5  UNL     1     -34.764  13.564  -4.463  1.00 20.00     0.027 C 
HETATM   10 CL10 UNL     1     -32.383  14.541  -3.636  1.00 20.00    -0.125 Cl
ENDBRANCH   6   8
ENDBRANCH   1   6
TORSDOF 4
ENDMDL
MODEL 8
REMARK VINA RESULT:      -4.0     10.950     12.377
REMARK  4 active torsions:
REMARK  status: ('A' for Active; 'I' for Inactive)
REMARK    1  A    between atoms: C2_2  and  C6_6 
REMARK    2  A    between atoms: C2_2  and  C7_7 
REMARK    3  A    between atoms: C7_7  and  C8_8 
REMARK    4  A    between atoms: C8_8  and  C9_9 
ROOT
HETATM    1  C7  UNL     1     -34.714  15.679  -2.432  1.00 20.00     0.039 C 
ENDROOT
BRANCH   1   2
HETATM    2  C2  UNL     1     -34.329  16.887  -1.599  1.00 20.00    -0.089 C 
HETATM    3  C1  UNL     1     -33.600  17.883  -2.130  1.00 20.00     0.014 C 
BRANCH   2   4
HETATM    4  C6  UNL     1     -34.787  16.949  -0.159  1.00 20.00     0.029 C 
HETATM    5  C3  UNL     1     -34.164  18.099   0.619  1.00 20.00     0.010 C 
ENDBRANCH   2   4
ENDBRANCH   1   2
BRANCH   1   6
HETATM    6  C8  UNL     1     -33.784  15.395  -3.638  1.00 20.00     0.003 C 
HETATM    7  C4  UNL     1     -33.340  13.924  -3.666  1.00 20.00     0.011 C 
BRANCH   6   8
HETATM    8  C9  UNL     1     -34.402  15.811  -5.000  1.00 20.00     0.082 C 
HETATM    9  C5  UNL     1     -33.636  16.935  -5.691  1.00 20.00     0.027 C 
HETATM   10 CL10 UNL     1     -34.562  14.434  -6.134  1.00 20.00    -0.125 Cl
ENDBRANCH   6   8
ENDBRANCH   1   6
TORSDOF 4
ENDMDL
MODEL 9
REMARK VINA RESULT:      -4.0     10.938     12.185
REMARK  4 active torsions:
REMARK  status: ('A' for Active; 'I' for Inactive)
REMARK    1  A    between atoms: C2_2  and  C6_6 
REMARK    2  A    between atoms: C2_2  and  C7_7 
REMARK    3  A    between atoms: C7_7  and  C8_8 
REMARK    4  A    between atoms: C8_8  and  C9_9 
ROOT
HETATM    1  C7  UNL     1     -33.650  16.378  -2.778  1.00 20.00     0.039 C 
ENDROOT
BRANCH   1   2
HETATM    2  C2  UNL     1     -33.653  15.440  -3.971  1.00 20.00    -0.089 C 
HETATM    3  C1  UNL     1     -33.577  15.922  -5.223  1.00 20.00     0.014 C 
BRANCH   2   4
HETATM    4  C6  UNL     1     -33.735  13.952  -3.720  1.00 20.00     0.029 C 
HETATM    5  C3  UNL     1     -34.982  13.312  -4.315  1.00 20.00     0.010 C 
ENDBRANCH   2   4
ENDBRANCH   1   2
BRANCH   1   6
HETATM    6  C8  UNL     1     -34.937  16.342  -1.917  1.00 20.00     0.003 C 
HETATM    7  C4  UNL     1     -34.657  16.789  -0.474  1.00 20.00     0.011 C 
BRANCH   6   8
HETATM    8  C9  UNL     1     -36.108  17.156  -2.530  1.00 20.00     0.082 C 
HETATM    9  C5  UNL     1     -35.649  18.408  -3.272  1.00 20.00     0.027 C 
HETATM   10 CL10 UNL     1     -37.131  16.175  -3.626  1.00 20.00    -0.125 Cl
ENDBRANCH   6   8
ENDBRANCH   1   6
TORSDOF 4
ENDMDL
