MODEL 1
REMARK VINA RESULT:      -5.7      0.000      0.000
REMARK  3 active torsions:
REMARK  status: ('A' for Active; 'I' for Inactive)
REMARK    1  A    between atoms: C5_5  and  C6_6 
REMARK    2  A    between atoms: C6_6  and  C7_7 
REMARK    3  A    between atoms: C7_7  and  C8_8 
ROOT
HETATM    1  C1  UNL     1     -32.127   8.859   1.225  1.00 20.00     0.012 C 
HETATM    2  C2  UNL     1     -32.035   8.106   2.155  1.00 20.00    -0.117 C 
HETATM    3  C5  UNL     1     -31.918   7.184   3.296  1.00 20.00     0.093 C 
ENDROOT
BRANCH   3   4
HETATM    4  C6  UNL     1     -32.922   6.033   3.177  1.00 20.00     0.018 C 
BRANCH   4   5
HETATM    5  C7  UNL     1     -34.175   6.213   4.068  1.00 20.00     0.000 C 
HETATM    6  C3  UNL     1     -35.419   5.586   3.424  1.00 20.00     0.011 C 
BRANCH   5   7
HETATM    7  C8  UNL     1     -33.892   5.694   5.502  1.00 20.00     0.082 C 
HETATM    8  C4  UNL     1     -33.911   6.794   6.561  1.00 20.00     0.027 C 
HETATM    9 CL9  UNL     1     -35.030   4.399   5.991  1.00 20.00    -0.125 Cl
ENDBRANCH   5   7
ENDBRANCH   4   5
ENDBRANCH   3   4
TORSDOF 3
ENDMDL
MODEL 2
REMARK VINA RESULT:      -5.3      1.231      1.503
REMARK  3 active torsions:
REMARK  status: ('A' for Active; 'I' for Inactive)
REMARK    1  A    between atoms: C5_5  and  C6_6 
REMARK    2  A    between atoms: C6_6  and  C7_7 
REMARK    3  A    between atoms: C7_7  and  C8_8 
ROOT
HETATM    1  C1  UNL     1     -32.138   8.955   1.625  1.00 20.00     0.012 C 
HETATM    2  C2  UNL     1     -32.121   7.922   2.234  1.00 20.00    -0.117 C 
HETATM    3  C5  UNL     1     -32.098   6.652   2.976  1.00 20.00     0.093 C 
ENDROOT
BRANCH   3   4
HETATM    4  C6  UNL     1     -33.043   6.704   4.181  1.00 20.00     0.018 C 
BRANCH   4   5
HETATM    5  C7  UNL     1     -34.424   6.058   3.911  1.00 20.00     0.000 C 
HETATM    6  C3  UNL     1     -34.365   5.080   2.729  1.00 20.00     0.011 C 
BRANCH   5   7
HETATM    7  C8  UNL     1     -34.984   5.425   5.212  1.00 20.00     0.082 C 
HETATM    8  C4  UNL     1     -34.803   3.911   5.276  1.00 20.00     0.027 C 
HETATM    9 CL9  UNL     1     -34.273   6.158   6.684  1.00 20.00    -0.125 Cl
ENDBRANCH   5   7
ENDBRANCH   4   5
ENDBRANCH   3   4
TORSDOF 3
ENDMDL
MODEL 3
REMARK VINA RESULT:      -5.2      1.274      1.912
REMARK  3 active torsions:
REMARK  status: ('A' for Active; 'I' for Inactive)
REMARK    1  A    between atoms: C5_5  and  C6_6 
REMARK    2  A    between atoms: C6_6  and  C7_7 
REMARK    3  A    between atoms: C7_7  and  C8_8 
ROOT
HETATM    1  C1  UNL     1     -32.053   8.939   1.244  1.00 20.00     0.012 C 
HETATM    2  C2  UNL     1     -32.087   8.092   2.093  1.00 20.00    -0.117 C 
HETATM    3  C5  UNL     1     -32.126   7.051   3.132  1.00 20.00     0.093 C 
ENDROOT
BRANCH   3   4
HETATM    4  C6  UNL     1     -33.485   7.031   3.839  1.00 20.00     0.018 C 
BRANCH   4   5
HETATM    5  C7  UNL     1     -33.549   6.041   5.027  1.00 20.00     0.000 C 
HETATM    6  C3  UNL     1     -33.800   6.770   6.354  1.00 20.00     0.011 C 
BRANCH   5   7
HETATM    7  C8  UNL     1     -34.577   4.917   4.734  1.00 20.00     0.082 C 
HETATM    8  C4  UNL     1     -35.169   4.293   5.996  1.00 20.00     0.027 C 
HETATM    9 CL9  UNL     1     -35.914   5.477   3.681  1.00 20.00    -0.125 Cl
ENDBRANCH   5   7
ENDBRANCH   4   5
ENDBRANCH   3   4
TORSDOF 3
ENDMDL
MODEL 4
REMARK VINA RESULT:      -5.0      0.700      1.950
REMARK  3 active torsions:
REMARK  status: ('A' for Active; 'I' for Inactive)
REMARK    1  A    between atoms: C5_5  and  C6_6 
REMARK    2  A    between atoms: C6_6  and  C7_7 
REMARK    3  A    between atoms: C7_7  and  C8_8 
ROOT
HETATM    1  C1  UNL     1     -31.938   8.715   1.333  1.00 20.00     0.012 C 
HETATM    2  C2  UNL     1     -32.083   7.891   2.193  1.00 20.00    -0.117 C 
HETATM    3  C5  UNL     1     -32.258   6.877   3.246  1.00 20.00     0.093 C 
ENDROOT
BRANCH   3   4
HETATM    4  C6  UNL     1     -33.589   7.073   3.979  1.00 20.00     0.018 C 
BRANCH   4   5
HETATM    5  C7  UNL     1     -33.733   6.190   5.242  1.00 20.00     0.000 C 
HETATM    6  C3  UNL     1     -33.642   7.025   6.526  1.00 20.00     0.011 C 
BRANCH   5   7
HETATM    7  C8  UNL     1     -35.022   5.331   5.153  1.00 20.00     0.082 C 
HETATM    8  C4  UNL     1     -35.648   5.321   3.760  1.00 20.00     0.027 C 
HETATM    9 CL9  UNL     1     -34.748   3.640   5.678  1.00 20.00    -0.125 Cl
ENDBRANCH   5   7
ENDBRANCH   4   5
ENDBRANCH   3   4
TORSDOF 3
ENDMDL
MODEL 5
REMARK VINA RESULT:      -4.5      2.127      4.406
REMARK  3 active torsions:
REMARK  status: ('A' for Active; 'I' for Inactive)
REMARK    1  A    between atoms: C5_5  and  C6_6 
REMARK    2  A    between atoms: C6_6  and  C7_7 
REMARK    3  A    between atoms: C7_7  and  C8_8 
ROOT
HETATM    1  C1  UNL     1     -35.139   3.958   5.967  1.00 20.00     0.012 C 
HETATM    2  C2  UNL     1     -34.613   5.036   6.008  1.00 20.00    -0.117 C 
HETATM    3  C5  UNL     1     -33.969   6.358   6.064  1.00 20.00     0.093 C 
ENDROOT
BRANCH   3   4
HETATM    4  C6  UNL     1     -33.878   6.982   4.668  1.00 20.00     0.018 C 
BRANCH   4   5
HETATM    5  C7  UNL     1     -33.021   6.157   3.678  1.00 20.00     0.000 C 
HETATM    6  C3  UNL     1     -33.887   5.500   2.596  1.00 20.00     0.011 C 
BRANCH   5   7
HETATM    7  C8  UNL     1     -31.873   7.031   3.105  1.00 20.00     0.082 C 
HETATM    8  C4  UNL     1     -32.343   8.045   2.066  1.00 20.00     0.027 C 
HETATM    9 CL9  UNL     1     -30.971   7.893   4.391  1.00 20.00    -0.125 Cl
ENDBRANCH   5   7
ENDBRANCH   4   5
ENDBRANCH   3   4
TORSDOF 3
ENDMDL
MODEL 6
REMARK VINA RESULT:      -4.2     11.327     12.659
REMARK  3 active torsions:
REMARK  status: ('A' for Active; 'I' for Inactive)
REMARK    1  A    between atoms: C5_5  and  C6_6 
REMARK    2  A    between atoms: C6_6  and  C7_7 
REMARK    3  A    between atoms: C7_7  and  C8_8 
ROOT
HETATM    1  C1  UNL     1     -34.763  17.366   0.251  1.00 20.00     0.012 C 
HETATM    2  C2  UNL     1     -34.770  16.709  -0.753  1.00 20.00    -0.117 C 
HETATM    3  C5  UNL     1     -34.781  15.901  -1.982  1.00 20.00     0.093 C 
ENDROOT
BRANCH   3   4
HETATM    4  C6  UNL     1     -33.487  16.096  -2.779  1.00 20.00     0.018 C 
BRANCH   4   5
HETATM    5  C7  UNL     1     -33.428  15.252  -4.075  1.00 20.00     0.000 C 
HETATM    6  C3  UNL     1     -33.889  13.809  -3.828  1.00 20.00     0.011 C 
BRANCH   5   7
HETATM    7  C8  UNL     1     -34.204  15.963  -5.215  1.00 20.00     0.082 C 
HETATM    8  C4  UNL     1     -33.627  17.328  -5.581  1.00 20.00     0.027 C 
HETATM    9 CL9  UNL     1     -34.304  14.960  -6.696  1.00 20.00    -0.125 Cl
ENDBRANCH   5   7
ENDBRANCH   4   5
ENDBRANCH   3   4
TORSDOF 3
ENDMDL
MODEL 7
REMARK VINA RESULT:      -4.1     11.083     12.216
REMARK  3 active torsions:
REMARK  status: ('A' for Active; 'I' for Inactive)
REMARK    1  A    between atoms: C5_5  and  C6_6 
REMARK    2  A    between atoms: C6_6  and  C7_7 
REMARK    3  A    between atoms: C7_7  and  C8_8 
ROOT
HETATM    1  C1  UNL     1     -34.688  17.384   0.241  1.00 20.00     0.012 C 
HETATM    2  C2  UNL     1     -34.723  16.751  -0.777  1.00 20.00    -0.117 C 
HETATM    3  C5  UNL     1     -34.768  15.970  -2.023  1.00 20.00     0.093 C 
ENDROOT
BRANCH   3   4
HETATM    4  C6  UNL     1     -33.821  16.559  -3.074  1.00 20.00     0.018 C 
BRANCH   4   5
HETATM    5  C7  UNL     1     -33.356  15.530  -4.132  1.00 20.00     0.000 C 
HETATM    6  C3  UNL     1     -32.456  14.453  -3.512  1.00 20.00     0.011 C 
BRANCH   5   7
HETATM    7  C8  UNL     1     -34.580  14.952  -4.892  1.00 20.00     0.082 C 
HETATM    8  C4  UNL     1     -34.447  15.040  -6.410  1.00 20.00     0.027 C 
HETATM    9 CL9  UNL     1     -34.920  13.253  -4.437  1.00 20.00    -0.125 Cl
ENDBRANCH   5   7
ENDBRANCH   4   5
ENDBRANCH   3   4
TORSDOF 3
ENDMDL
MODEL 8
REMARK VINA RESULT:      -4.1     11.622     12.737
REMARK  3 active torsions:
REMARK  status: ('A' for Active; 'I' for Inactive)
REMARK    1  A    between atoms: C5_5  and  C6_6 
REMARK    2  A    between atoms: C6_6  and  C7_7 
REMARK    3  A    between atoms: C7_7  and  C8_8 
ROOT
HETATM    1  C1  UNL     1     -34.773  17.721   0.733  1.00 20.00     0.012 C 
HETATM    2  C2  UNL     1     -34.773  17.049  -0.261  1.00 20.00    -0.117 C 
HETATM    3  C5  UNL     1     -34.777  16.221  -1.478  1.00 20.00     0.093 C 
ENDROOT
BRANCH   3   4
HETATM    4  C6  UNL     1     -33.582  16.561  -2.375  1.00 20.00     0.018 C 
BRANCH   4   5
HETATM    5  C7  UNL     1     -33.336  15.520  -3.494  1.00 20.00     0.000 C 
HETATM    6  C3  UNL     1     -34.385  14.400  -3.462  1.00 20.00     0.011 C 
BRANCH   5   7
HETATM    7  C8  UNL     1     -33.228  16.227  -4.871  1.00 20.00     0.082 C 
HETATM    8  C4  UNL     1     -34.150  15.632  -5.932  1.00 20.00     0.027 C 
HETATM    9 CL9  UNL     1     -33.538  17.988  -4.755  1.00 20.00    -0.125 Cl
ENDBRANCH   5   7
ENDBRANCH   4   5
ENDBRANCH   3   4
TORSDOF 3
ENDMDL
MODEL 9
REMARK VINA RESULT:      -4.1     11.297     12.532
REMARK  3 active torsions:
REMARK  status: ('A' for Active; 'I' for Inactive)
REMARK    1  A    between atoms: C5_5  and  C6_6 
REMARK    2  A    between atoms: C6_6  and  C7_7 
REMARK    3  A    between atoms: C7_7  and  C8_8 
ROOT
HETATM    1  C1  UNL     1     -34.610  16.576  -0.891  1.00 20.00     0.012 C 
HETATM    2  C2  UNL     1     -34.156  16.480  -1.998  1.00 20.00    -0.117 C 
HETATM    3  C5  UNL     1     -33.601  16.366  -3.356  1.00 20.00     0.093 C 
ENDROOT
BRANCH   3   4
HETATM    4  C6  UNL     1     -33.206  14.919  -3.667  1.00 20.00     0.018 C 
BRANCH   4   5
HETATM    5  C7  UNL     1     -34.087  14.260  -4.756  1.00 20.00     0.000 C 
HETATM    6  C3  UNL     1     -35.147  13.337  -4.139  1.00 20.00     0.011 C 
BRANCH   5   7
HETATM    7  C8  UNL     1     -34.680  15.343  -5.695  1.00 20.00     0.082 C 
HETATM    8  C4  UNL     1     -34.403  15.081  -7.173  1.00 20.00     0.027 C 
HETATM    9 CL9  UNL     1     -36.444  15.550  -5.462  1.00 20.00    -0.125 Cl
ENDBRANCH   5   7
ENDBRANCH   4   5
ENDBRANCH   3   4
TORSDOF 3
ENDMDL
