MODEL 1
REMARK VINA RESULT:      -4.1      0.000      0.000
REMARK  6 active torsions:
REMARK  status: ('A' for Active; 'I' for Inactive)
REMARK    1  A    between atoms: C4_4  and  C7_7 
REMARK    2  A    between atoms: C5_5  and  C9_9 
REMARK    3  A    between atoms: C6_6  and  C9_9 
REMARK    4  A    between atoms: C7_7  and  C10_10 
REMARK    5  A    between atoms: C8_8  and  C10_10 
REMARK    6  A    between atoms: C9_9  and  C10_10 
ROOT
HETATM    1  C10 UNL     1     -33.578  16.304  -3.224  1.00 20.00     0.003 C 
ENDROOT
BRANCH   1   2
HETATM    2  C7  UNL     1     -32.978  14.970  -3.750  1.00 20.00     0.005 C 
BRANCH   2   3
HETATM    3  C4  UNL     1     -33.859  13.735  -3.527  1.00 20.00    -0.004 C 
HETATM    4  C1  UNL     1     -34.481  13.254  -4.831  1.00 20.00     0.005 C 
ENDBRANCH   2   3
ENDBRANCH   1   2
BRANCH   1   5
HETATM    5  C8  UNL     1     -33.852  17.313  -4.362  1.00 20.00     0.119 C 
HETATM    6 CL11 UNL     1     -33.809  16.574  -5.982  1.00 20.00    -0.130 Cl
ENDBRANCH   1   5
BRANCH   1   7
HETATM    7  C9  UNL     1     -34.843  16.053  -2.315  1.00 20.00    -0.010 C 
BRANCH   7   8
HETATM    8  C5  UNL     1     -34.665  16.569  -0.863  1.00 20.00     0.000 C 
HETATM    9  C2  UNL     1     -33.639  17.683  -0.699  1.00 20.00     0.005 C 
ENDBRANCH   7   8
BRANCH   7  10
HETATM   10  C6  UNL     1     -36.136  16.607  -2.971  1.00 20.00     0.000 C 
HETATM   11  C3  UNL     1     -37.088  15.545  -3.507  1.00 20.00     0.005 C 
ENDBRANCH   7  10
ENDBRANCH   1   7
TORSDOF 6
ENDMDL
MODEL 2
REMARK VINA RESULT:      -3.9      0.961      3.548
REMARK  6 active torsions:
REMARK  status: ('A' for Active; 'I' for Inactive)
REMARK    1  A    between atoms: C4_4  and  C7_7 
REMARK    2  A    between atoms: C5_5  and  C9_9 
REMARK    3  A    between atoms: C6_6  and  C9_9 
REMARK    4  A    between atoms: C7_7  and  C10_10 
REMARK    5  A    between atoms: C8_8  and  C10_10 
REMARK    6  A    between atoms: C9_9  and  C10_10 
ROOT
HETATM    1  C10 UNL     1     -34.313  16.391  -3.272  1.00 20.00     0.003 C 
ENDROOT
BRANCH   1   2
HETATM    2  C7  UNL     1     -33.766  16.936  -1.922  1.00 20.00     0.005 C 
BRANCH   2   3
HETATM    3  C4  UNL     1     -34.652  16.644  -0.705  1.00 20.00    -0.004 C 
HETATM    4  C1  UNL     1     -34.525  17.737   0.348  1.00 20.00     0.005 C 
ENDBRANCH   2   3
ENDBRANCH   1   2
BRANCH   1   5
HETATM    5  C8  UNL     1     -33.243  16.405  -4.386  1.00 20.00     0.119 C 
HETATM    6 CL11 UNL     1     -33.928  16.616  -6.016  1.00 20.00    -0.130 Cl
ENDBRANCH   1   5
BRANCH   1   7
HETATM    7  C9  UNL     1     -34.992  14.978  -3.096  1.00 20.00    -0.010 C 
BRANCH   7   8
HETATM    8  C5  UNL     1     -36.443  14.923  -3.641  1.00 20.00     0.000 C 
HETATM    9  C2  UNL     1     -37.101  16.281  -3.851  1.00 20.00     0.005 C 
ENDBRANCH   7   8
BRANCH   7  10
HETATM   10  C6  UNL     1     -34.110  13.845  -3.686  1.00 20.00     0.000 C 
HETATM   11  C3  UNL     1     -34.713  13.121  -4.884  1.00 20.00     0.005 C 
ENDBRANCH   7  10
ENDBRANCH   1   7
TORSDOF 6
ENDMDL
MODEL 3
REMARK VINA RESULT:      -3.9      1.607      4.305
REMARK  6 active torsions:
REMARK  status: ('A' for Active; 'I' for Inactive)
REMARK    1  A    between atoms: C4_4  and  C7_7 
REMARK    2  A    between atoms: C5_5  and  C9_9 
REMARK    3  A    between atoms: C6_6  and  C9_9 
REMARK    4  A    between atoms: C7_7  and  C10_10 
REMARK    5  A    between atoms: C8_8  and  C10_10 
REMARK    6  A    between atoms: C9_9  and  C10_10 
ROOT
HETATM    1  C10 UNL     1     -34.732  15.762  -2.483  1.00 20.00     0.003 C 
ENDROOT
BRANCH   1   2
HETATM    2  C7  UNL     1     -34.043  16.773  -1.524  1.00 20.00     0.005 C 
BRANCH   2   3
HETATM    3  C4  UNL     1     -34.791  17.024  -0.209  1.00 20.00    -0.004 C 
HETATM    4  C1  UNL     1     -34.127  18.127   0.604  1.00 20.00     0.005 C 
ENDBRANCH   2   3
ENDBRANCH   1   2
BRANCH   1   5
HETATM    5  C8  UNL     1     -36.090  16.281  -3.006  1.00 20.00     0.119 C 
HETATM    6 CL11 UNL     1     -37.210  14.978  -3.473  1.00 20.00    -0.130 Cl
ENDBRANCH   1   5
BRANCH   1   7
HETATM    7  C9  UNL     1     -33.764  15.311  -3.645  1.00 20.00    -0.010 C 
BRANCH   7   8
HETATM    8  C5  UNL     1     -33.657  13.771  -3.789  1.00 20.00     0.000 C 
HETATM    9  C2  UNL     1     -34.526  13.167  -4.885  1.00 20.00     0.005 C 
ENDBRANCH   7   8
BRANCH   7  10
HETATM   10  C6  UNL     1     -34.132  15.994  -4.990  1.00 20.00     0.000 C 
HETATM   11  C3  UNL     1     -33.391  17.295  -5.271  1.00 20.00     0.005 C 
ENDBRANCH   7  10
ENDBRANCH   1   7
TORSDOF 6
ENDMDL
MODEL 4
REMARK VINA RESULT:      -3.9     11.637     12.748
REMARK  6 active torsions:
REMARK  status: ('A' for Active; 'I' for Inactive)
REMARK    1  A    between atoms: C4_4  and  C7_7 
REMARK    2  A    between atoms: C5_5  and  C9_9 
REMARK    3  A    between atoms: C6_6  and  C9_9 
REMARK    4  A    between atoms: C7_7  and  C10_10 
REMARK    5  A    between atoms: C8_8  and  C10_10 
REMARK    6  A    between atoms: C9_9  and  C10_10 
ROOT
HETATM    1  C10 UNL     1     -33.695   6.162   3.870  1.00 20.00     0.003 C 
ENDROOT
BRANCH   1   2
HETATM    2  C7  UNL     1     -32.286   6.216   3.215  1.00 20.00     0.005 C 
BRANCH   2   3
HETATM    3  C4  UNL     1     -31.660   7.614   3.148  1.00 20.00    -0.004 C 
HETATM    4  C1  UNL     1     -32.104   8.361   1.898  1.00 20.00     0.005 C 
ENDBRANCH   2   3
ENDBRANCH   1   2
BRANCH   1   5
HETATM    5  C8  UNL     1     -34.719   5.403   2.996  1.00 20.00     0.119 C 
HETATM    6 CL11 UNL     1     -36.402   5.905   3.289  1.00 20.00    -0.130 Cl
ENDBRANCH   1   5
BRANCH   1   7
HETATM    7  C9  UNL     1     -33.628   5.612   5.347  1.00 20.00    -0.010 C 
BRANCH   7   8
HETATM    8  C5  UNL     1     -34.184   6.609   6.397  1.00 20.00     0.000 C 
HETATM    9  C2  UNL     1     -33.154   7.567   6.981  1.00 20.00     0.005 C 
ENDBRANCH   7   8
BRANCH   7  10
HETATM   10  C6  UNL     1     -34.295   4.216   5.466  1.00 20.00     0.000 C 
HETATM   11  C3  UNL     1     -35.431   4.132   6.479  1.00 20.00     0.005 C 
ENDBRANCH   7  10
ENDBRANCH   1   7
TORSDOF 6
ENDMDL
MODEL 5
REMARK VINA RESULT:      -3.9      1.832      3.273
REMARK  6 active torsions:
REMARK  status: ('A' for Active; 'I' for Inactive)
REMARK    1  A    between atoms: C4_4  and  C7_7 
REMARK    2  A    between atoms: C5_5  and  C9_9 
REMARK    3  A    between atoms: C6_6  and  C9_9 
REMARK    4  A    between atoms: C7_7  and  C10_10 
REMARK    5  A    between atoms: C8_8  and  C10_10 
REMARK    6  A    between atoms: C9_9  and  C10_10 
ROOT
HETATM    1  C10 UNL     1     -34.452  17.145  -4.291  1.00 20.00     0.003 C 
ENDROOT
BRANCH   1   2
HETATM    2  C7  UNL     1     -33.641  16.902  -5.595  1.00 20.00     0.005 C 
BRANCH   2   3
HETATM    3  C4  UNL     1     -34.487  16.530  -6.819  1.00 20.00    -0.004 C 
HETATM    4  C1  UNL     1     -34.374  15.047  -7.142  1.00 20.00     0.005 C 
ENDBRANCH   2   3
ENDBRANCH   1   2
BRANCH   1   5
HETATM    5  C8  UNL     1     -35.973  17.213  -4.551  1.00 20.00     0.119 C 
HETATM    6 CL11 UNL     1     -36.844  15.753  -4.024  1.00 20.00    -0.130 Cl
ENDBRANCH   1   5
BRANCH   1   7
HETATM    7  C9  UNL     1     -34.072  16.104  -3.168  1.00 20.00    -0.010 C 
BRANCH   7   8
HETATM    8  C5  UNL     1     -32.993  15.085  -3.618  1.00 20.00     0.000 C 
HETATM    9  C2  UNL     1     -33.491  13.654  -3.783  1.00 20.00     0.005 C 
ENDBRANCH   7   8
BRANCH   7  10
HETATM   10  C6  UNL     1     -33.681  16.812  -1.844  1.00 20.00     0.000 C 
HETATM   11  C3  UNL     1     -34.704  16.684  -0.722  1.00 20.00     0.005 C 
ENDBRANCH   7  10
ENDBRANCH   1   7
TORSDOF 6
ENDMDL
MODEL 6
REMARK VINA RESULT:      -3.8      1.822      2.722
REMARK  6 active torsions:
REMARK  status: ('A' for Active; 'I' for Inactive)
REMARK    1  A    between atoms: C4_4  and  C7_7 
REMARK    2  A    between atoms: C5_5  and  C9_9 
REMARK    3  A    between atoms: C6_6  and  C9_9 
REMARK    4  A    between atoms: C7_7  and  C10_10 
REMARK    5  A    between atoms: C8_8  and  C10_10 
REMARK    6  A    between atoms: C9_9  and  C10_10 
ROOT
HETATM    1  C10 UNL     1     -33.974  17.079  -4.191  1.00 20.00     0.003 C 
ENDROOT
BRANCH   1   2
HETATM    2  C7  UNL     1     -33.363  16.639  -5.552  1.00 20.00     0.005 C 
BRANCH   2   3
HETATM    3  C4  UNL     1     -34.377  16.473  -6.690  1.00 20.00    -0.004 C 
HETATM    4  C1  UNL     1     -34.422  15.034  -7.186  1.00 20.00     0.005 C 
ENDBRANCH   2   3
ENDBRANCH   1   2
BRANCH   1   5
HETATM    5  C8  UNL     1     -35.482  17.399  -4.303  1.00 20.00     0.119 C 
HETATM    6 CL11 UNL     1     -35.909  19.004  -3.661  1.00 20.00    -0.130 Cl
ENDBRANCH   1   5
BRANCH   1   7
HETATM    7  C9  UNL     1     -33.654  16.039  -3.048  1.00 20.00    -0.010 C 
BRANCH   7   8
HETATM    8  C5  UNL     1     -34.784  15.923  -1.993  1.00 20.00     0.000 C 
HETATM    9  C2  UNL     1     -34.563  16.738  -0.725  1.00 20.00     0.005 C 
ENDBRANCH   7   8
BRANCH   7  10
HETATM   10  C6  UNL     1     -33.262  14.655  -3.631  1.00 20.00     0.000 C 
HETATM   11  C3  UNL     1     -34.398  13.640  -3.690  1.00 20.00     0.005 C 
ENDBRANCH   7  10
ENDBRANCH   1   7
TORSDOF 6
ENDMDL
MODEL 7
REMARK VINA RESULT:      -3.8      1.575      3.133
REMARK  6 active torsions:
REMARK  status: ('A' for Active; 'I' for Inactive)
REMARK    1  A    between atoms: C4_4  and  C7_7 
REMARK    2  A    between atoms: C5_5  and  C9_9 
REMARK    3  A    between atoms: C6_6  and  C9_9 
REMARK    4  A    between atoms: C7_7  and  C10_10 
REMARK    5  A    between atoms: C8_8  and  C10_10 
REMARK    6  A    between atoms: C9_9  and  C10_10 
ROOT
HETATM    1  C10 UNL     1     -34.950  14.895  -3.032  1.00 20.00     0.003 C 
ENDROOT
BRANCH   1   2
HETATM    2  C7  UNL     1     -36.420  14.876  -3.539  1.00 20.00     0.005 C 
BRANCH   2   3
HETATM    3  C4  UNL     1     -36.891  16.180  -4.194  1.00 20.00    -0.004 C 
HETATM    4  C1  UNL     1     -37.113  16.001  -5.689  1.00 20.00     0.005 C 
ENDBRANCH   2   3
ENDBRANCH   1   2
BRANCH   1   5
HETATM    5  C8  UNL     1     -34.099  13.768  -3.659  1.00 20.00     0.119 C 
HETATM    6 CL11 UNL     1     -34.768  13.151  -5.190  1.00 20.00    -0.130 Cl
ENDBRANCH   1   5
BRANCH   1   7
HETATM    7  C9  UNL     1     -34.295  16.320  -3.202  1.00 20.00    -0.010 C 
BRANCH   7   8
HETATM    8  C5  UNL     1     -33.755  16.908  -1.873  1.00 20.00     0.000 C 
HETATM    9  C2  UNL     1     -34.671  16.722  -0.670  1.00 20.00     0.005 C 
ENDBRANCH   7   8
BRANCH   7  10
HETATM   10  C6  UNL     1     -33.213  16.320  -4.316  1.00 20.00     0.000 C 
HETATM   11  C3  UNL     1     -33.534  17.198  -5.520  1.00 20.00     0.005 C 
ENDBRANCH   7  10
ENDBRANCH   1   7
TORSDOF 6
ENDMDL
MODEL 8
REMARK VINA RESULT:      -3.8      2.052      3.156
REMARK  6 active torsions:
REMARK  status: ('A' for Active; 'I' for Inactive)
REMARK    1  A    between atoms: C4_4  and  C7_7 
REMARK    2  A    between atoms: C5_5  and  C9_9 
REMARK    3  A    between atoms: C6_6  and  C9_9 
REMARK    4  A    between atoms: C7_7  and  C10_10 
REMARK    5  A    between atoms: C8_8  and  C10_10 
REMARK    6  A    between atoms: C9_9  and  C10_10 
ROOT
HETATM    1  C10 UNL     1     -34.115  16.085  -3.198  1.00 20.00     0.003 C 
ENDROOT
BRANCH   1   2
HETATM    2  C7  UNL     1     -32.993  15.127  -3.688  1.00 20.00     0.005 C 
BRANCH   2   3
HETATM    3  C4  UNL     1     -33.366  13.640  -3.677  1.00 20.00    -0.004 C 
HETATM    4  C1  UNL     1     -34.393  13.318  -4.754  1.00 20.00     0.005 C 
ENDBRANCH   2   3
ENDBRANCH   1   2
BRANCH   1   5
HETATM    5  C8  UNL     1     -33.685  16.909  -1.964  1.00 20.00     0.119 C 
HETATM    6 CL11 UNL     1     -34.712  16.626  -0.537  1.00 20.00    -0.130 Cl
ENDBRANCH   1   5
BRANCH   1   7
HETATM    7  C9  UNL     1     -34.662  16.986  -4.372  1.00 20.00    -0.010 C 
BRANCH   7   8
HETATM    8  C5  UNL     1     -33.755  16.971  -5.630  1.00 20.00     0.000 C 
HETATM    9  C2  UNL     1     -34.404  16.394  -6.882  1.00 20.00     0.005 C 
ENDBRANCH   7   8
BRANCH   7  10
HETATM   10  C6  UNL     1     -36.135  16.639  -4.717  1.00 20.00     0.000 C 
HETATM   11  C3  UNL     1     -36.890  15.889  -3.626  1.00 20.00     0.005 C 
ENDBRANCH   7  10
ENDBRANCH   1   7
TORSDOF 6
ENDMDL
MODEL 9
REMARK VINA RESULT:      -3.8      2.054      3.635
REMARK  6 active torsions:
REMARK  status: ('A' for Active; 'I' for Inactive)
REMARK    1  A    between atoms: C4_4  and  C7_7 
REMARK    2  A    between atoms: C5_5  and  C9_9 
REMARK    3  A    between atoms: C6_6  and  C9_9 
REMARK    4  A    between atoms: C7_7  and  C10_10 
REMARK    5  A    between atoms: C8_8  and  C10_10 
REMARK    6  A    between atoms: C9_9  and  C10_10 
ROOT
HETATM    1  C10 UNL     1     -34.030  16.410  -3.176  1.00 20.00     0.003 C 
ENDROOT
BRANCH   1   2
HETATM    2  C7  UNL     1     -34.362  17.229  -4.456  1.00 20.00     0.005 C 
BRANCH   2   3
HETATM    3  C4  UNL     1     -33.501  16.889  -5.678  1.00 20.00    -0.004 C 
HETATM    4  C1  UNL     1     -34.241  15.971  -6.640  1.00 20.00     0.005 C 
ENDBRANCH   2   3
ENDBRANCH   1   2
BRANCH   1   5
HETATM    5  C8  UNL     1     -33.839  17.311  -1.936  1.00 20.00     0.119 C 
HETATM    6 CL11 UNL     1     -34.653  16.687  -0.481  1.00 20.00    -0.130 Cl
ENDBRANCH   1   5
BRANCH   1   7
HETATM    7  C9  UNL     1     -35.081  15.257  -2.936  1.00 20.00    -0.010 C 
BRANCH   7   8
HETATM    8  C5  UNL     1     -36.522  15.645  -3.356  1.00 20.00     0.000 C 
HETATM    9  C2  UNL     1     -37.210  14.651  -4.282  1.00 20.00     0.005 C 
ENDBRANCH   7   8
BRANCH   7  10
HETATM   10  C6  UNL     1     -34.626  13.926  -3.593  1.00 20.00     0.000 C 
HETATM   11  C3  UNL     1     -33.116  13.733  -3.671  1.00 20.00     0.005 C 
ENDBRANCH   7  10
ENDBRANCH   1   7
TORSDOF 6
ENDMDL
