MODEL 1
REMARK VINA RESULT:      -4.2      0.000      0.000
REMARK  2 active torsions:
REMARK  status: ('A' for Active; 'I' for Inactive)
REMARK    1  A    between atoms: C4_4  and  C7_7 
REMARK    2  A    between atoms: C4_4  and  C8_8 
ROOT
HETATM    1  C1  UNL     1     -35.408  15.007  -4.970  1.00 20.00     0.039 C 
HETATM    2  C2  UNL     1     -34.952  13.776  -5.729  1.00 20.00     0.168 C 
HETATM    3  C3  UNL     1     -34.340  13.530  -3.492  1.00 20.00     0.178 C 
HETATM    4  C4  UNL     1     -34.487  15.026  -3.758  1.00 20.00    -0.001 C 
HETATM    5  O9  UNL     1     -34.379  12.876  -4.770  1.00 20.00    -0.390 OA
ENDROOT
BRANCH   4   6
HETATM    6  C7  UNL     1     -33.128  15.654  -4.108  1.00 20.00     0.126 C 
HETATM    7 CL10 UNL     1     -33.338  16.918  -5.332  1.00 20.00    -0.130 Cl
ENDBRANCH   4   6
BRANCH   4   8
HETATM    8  C8  UNL     1     -35.099  15.767  -2.570  1.00 20.00    -0.011 C 
HETATM    9  C5  UNL     1     -34.024  16.553  -1.830  1.00 20.00     0.010 C 
HETATM   10  C6  UNL     1     -36.219  16.684  -3.042  1.00 20.00     0.010 C 
ENDBRANCH   4   8
TORSDOF 2
ENDMDL
MODEL 2
REMARK VINA RESULT:      -4.1      1.652      2.259
REMARK  2 active torsions:
REMARK  status: ('A' for Active; 'I' for Inactive)
REMARK    1  A    between atoms: C4_4  and  C7_7 
REMARK    2  A    between atoms: C4_4  and  C8_8 
ROOT
HETATM    1  C1  UNL     1     -34.144  13.803  -3.524  1.00 20.00     0.039 C 
HETATM    2  C2  UNL     1     -34.516  13.214  -4.871  1.00 20.00     0.168 C 
HETATM    3  C3  UNL     1     -34.410  15.534  -5.086  1.00 20.00     0.178 C 
HETATM    4  C4  UNL     1     -34.671  15.229  -3.613  1.00 20.00    -0.001 C 
HETATM    5  O9  UNL     1     -34.588  14.303  -5.803  1.00 20.00    -0.390 OA
ENDROOT
BRANCH   4   6
HETATM    6  C7  UNL     1     -36.176  15.281  -3.304  1.00 20.00     0.126 C 
HETATM    7 CL10 UNL     1     -37.002  16.325  -4.475  1.00 20.00    -0.130 Cl
ENDBRANCH   4   6
BRANCH   4   8
HETATM    8  C8  UNL     1     -33.927  16.186  -2.684  1.00 20.00    -0.011 C 
HETATM    9  C5  UNL     1     -33.738  17.537  -3.361  1.00 20.00     0.010 C 
HETATM   10  C6  UNL     1     -34.681  16.335  -1.369  1.00 20.00     0.010 C 
ENDBRANCH   4   8
TORSDOF 2
ENDMDL
MODEL 3
REMARK VINA RESULT:      -4.0      2.227      3.084
REMARK  2 active torsions:
REMARK  status: ('A' for Active; 'I' for Inactive)
REMARK    1  A    between atoms: C4_4  and  C7_7 
REMARK    2  A    between atoms: C4_4  and  C8_8 
ROOT
HETATM    1  C1  UNL     1     -35.037  16.288  -5.321  1.00 20.00     0.039 C 
HETATM    2  C2  UNL     1     -33.759  17.039  -5.639  1.00 20.00     0.168 C 
HETATM    3  C3  UNL     1     -33.296  15.475  -3.973  1.00 20.00     0.178 C 
HETATM    4  C4  UNL     1     -34.791  15.774  -3.908  1.00 20.00    -0.001 C 
HETATM    5  O9  UNL     1     -32.715  16.453  -4.849  1.00 20.00    -0.390 OA
ENDROOT
BRANCH   4   6
HETATM    6  C7  UNL     1     -35.084  16.865  -2.865  1.00 20.00     0.126 C 
HETATM    7 CL10 UNL     1     -34.631  16.299  -1.248  1.00 20.00    -0.130 Cl
ENDBRANCH   4   6
BRANCH   4   8
HETATM    8  C8  UNL     1     -35.617  14.529  -3.588  1.00 20.00    -0.011 C 
HETATM    9  C5  UNL     1     -37.078  14.759  -3.952  1.00 20.00     0.010 C 
HETATM   10  C6  UNL     1     -35.055  13.321  -4.325  1.00 20.00     0.010 C 
ENDBRANCH   4   8
TORSDOF 2
ENDMDL
MODEL 4
REMARK VINA RESULT:      -4.0      2.426      3.422
REMARK  2 active torsions:
REMARK  status: ('A' for Active; 'I' for Inactive)
REMARK    1  A    between atoms: C4_4  and  C7_7 
REMARK    2  A    between atoms: C4_4  and  C8_8 
ROOT
HETATM    1  C1  UNL     1     -35.401  16.820  -4.090  1.00 20.00     0.039 C 
HETATM    2  C2  UNL     1     -34.783  17.983  -4.841  1.00 20.00     0.168 C 
HETATM    3  C3  UNL     1     -33.214  16.262  -4.730  1.00 20.00     0.178 C 
HETATM    4  C4  UNL     1     -34.188  16.059  -3.572  1.00 20.00    -0.001 C 
HETATM    5  O9  UNL     1     -33.483  17.562  -5.276  1.00 20.00    -0.390 OA
ENDROOT
BRANCH   4   6
HETATM    6  C7  UNL     1     -33.644  16.700  -2.284  1.00 20.00     0.126 C 
HETATM    7 CL10 UNL     1     -34.764  16.411  -0.941  1.00 20.00    -0.130 Cl
ENDBRANCH   4   6
BRANCH   4   8
HETATM    8  C8  UNL     1     -34.488  14.583  -3.320  1.00 20.00    -0.011 C 
HETATM    9  C5  UNL     1     -35.737  14.163  -4.082  1.00 20.00     0.010 C 
HETATM   10  C6  UNL     1     -33.292  13.727  -3.717  1.00 20.00     0.010 C 
ENDBRANCH   4   8
TORSDOF 2
ENDMDL
MODEL 5
REMARK VINA RESULT:      -4.0      1.801      2.787
REMARK  2 active torsions:
REMARK  status: ('A' for Active; 'I' for Inactive)
REMARK    1  A    between atoms: C4_4  and  C7_7 
REMARK    2  A    between atoms: C4_4  and  C8_8 
ROOT
HETATM    1  C1  UNL     1     -33.074  15.119  -3.837  1.00 20.00     0.039 C 
HETATM    2  C2  UNL     1     -33.028  13.633  -3.539  1.00 20.00     0.168 C 
HETATM    3  C3  UNL     1     -34.642  14.004  -5.181  1.00 20.00     0.178 C 
HETATM    4  C4  UNL     1     -34.471  15.312  -4.413  1.00 20.00    -0.001 C 
HETATM    5  O9  UNL     1     -33.944  12.993  -4.439  1.00 20.00    -0.390 OA
ENDROOT
BRANCH   4   6
HETATM    6  C7  UNL     1     -35.518  15.428  -3.293  1.00 20.00     0.126 C 
HETATM    7 CL10 UNL     1     -34.771  16.088  -1.828  1.00 20.00    -0.130 Cl
ENDBRANCH   4   6
BRANCH   4   8
HETATM    8  C8  UNL     1     -34.563  16.534  -5.325  1.00 20.00    -0.011 C 
HETATM    9  C5  UNL     1     -33.525  17.572  -4.919  1.00 20.00     0.010 C 
HETATM   10  C6  UNL     1     -34.382  16.121  -6.780  1.00 20.00     0.010 C 
ENDBRANCH   4   8
TORSDOF 2
ENDMDL
MODEL 6
REMARK VINA RESULT:      -3.9      1.814      2.679
REMARK  2 active torsions:
REMARK  status: ('A' for Active; 'I' for Inactive)
REMARK    1  A    between atoms: C4_4  and  C7_7 
REMARK    2  A    between atoms: C4_4  and  C8_8 
ROOT
HETATM    1  C1  UNL     1     -36.254  16.031  -3.347  1.00 20.00     0.039 C 
HETATM    2  C2  UNL     1     -37.565  15.301  -3.562  1.00 20.00     0.168 C 
HETATM    3  C3  UNL     1     -35.820  13.859  -4.120  1.00 20.00     0.178 C 
HETATM    4  C4  UNL     1     -35.289  15.283  -4.257  1.00 20.00    -0.001 C 
HETATM    5  O9  UNL     1     -37.242  13.960  -3.957  1.00 20.00    -0.390 OA
ENDROOT
BRANCH   4   6
HETATM    6  C7  UNL     1     -35.409  15.773  -5.710  1.00 20.00     0.126 C 
HETATM    7 CL10 UNL     1     -35.127  14.429  -6.830  1.00 20.00    -0.130 Cl
ENDBRANCH   4   6
BRANCH   4   8
HETATM    8  C8  UNL     1     -33.838  15.406  -3.797  1.00 20.00    -0.011 C 
HETATM    9  C5  UNL     1     -33.767  16.164  -2.477  1.00 20.00     0.010 C 
HETATM   10  C6  UNL     1     -33.207  14.026  -3.668  1.00 20.00     0.010 C 
ENDBRANCH   4   8
TORSDOF 2
ENDMDL
MODEL 7
REMARK VINA RESULT:      -3.9      2.210      3.380
REMARK  2 active torsions:
REMARK  status: ('A' for Active; 'I' for Inactive)
REMARK    1  A    between atoms: C4_4  and  C7_7 
REMARK    2  A    between atoms: C4_4  and  C8_8 
ROOT
HETATM    1  C1  UNL     1     -36.369  15.370  -3.205  1.00 20.00     0.039 C 
HETATM    2  C2  UNL     1     -37.001  16.552  -3.912  1.00 20.00     0.168 C 
HETATM    3  C3  UNL     1     -35.054  15.967  -5.054  1.00 20.00     0.178 C 
HETATM    4  C4  UNL     1     -34.907  15.459  -3.623  1.00 20.00    -0.001 C 
HETATM    5  O9  UNL     1     -36.205  16.825  -5.074  1.00 20.00    -0.390 OA
ENDROOT
BRANCH   4   6
HETATM    6  C7  UNL     1     -34.147  16.478  -2.758  1.00 20.00     0.126 C 
HETATM    7 CL10 UNL     1     -34.671  16.354  -1.069  1.00 20.00    -0.130 Cl
ENDBRANCH   4   6
BRANCH   4   8
HETATM    8  C8  UNL     1     -34.197  14.108  -3.559  1.00 20.00    -0.011 C 
HETATM    9  C5  UNL     1     -34.639  13.226  -4.719  1.00 20.00     0.010 C 
HETATM   10  C6  UNL     1     -32.687  14.305  -3.568  1.00 20.00     0.010 C 
ENDBRANCH   4   8
TORSDOF 2
ENDMDL
MODEL 8
REMARK VINA RESULT:      -3.9      2.015      3.400
REMARK  2 active torsions:
REMARK  status: ('A' for Active; 'I' for Inactive)
REMARK    1  A    between atoms: C4_4  and  C7_7 
REMARK    2  A    between atoms: C4_4  and  C8_8 
ROOT
HETATM    1  C1  UNL     1     -33.536  14.828  -4.243  1.00 20.00     0.039 C 
HETATM    2  C2  UNL     1     -34.031  13.675  -3.392  1.00 20.00     0.168 C 
HETATM    3  C3  UNL     1     -35.062  13.544  -5.479  1.00 20.00     0.178 C 
HETATM    4  C4  UNL     1     -34.645  14.997  -5.273  1.00 20.00    -0.001 C 
HETATM    5  O9  UNL     1     -34.895  12.881  -4.217  1.00 20.00    -0.390 OA
ENDROOT
BRANCH   4   6
HETATM    6  C7  UNL     1     -35.808  15.823  -4.699  1.00 20.00     0.126 C 
HETATM    7 CL10 UNL     1     -37.357  15.138  -5.223  1.00 20.00    -0.130 Cl
ENDBRANCH   4   6
BRANCH   4   8
HETATM    8  C8  UNL     1     -34.149  15.645  -6.564  1.00 20.00    -0.011 C 
HETATM    9  C5  UNL     1     -34.737  14.928  -7.772  1.00 20.00     0.010 C 
HETATM   10  C6  UNL     1     -34.505  17.126  -6.581  1.00 20.00     0.010 C 
ENDBRANCH   4   8
TORSDOF 2
ENDMDL
MODEL 9
REMARK VINA RESULT:      -3.8      2.242      2.987
REMARK  2 active torsions:
REMARK  status: ('A' for Active; 'I' for Inactive)
REMARK    1  A    between atoms: C4_4  and  C7_7 
REMARK    2  A    between atoms: C4_4  and  C8_8 
ROOT
HETATM    1  C1  UNL     1     -34.792  14.140  -5.959  1.00 20.00     0.039 C 
HETATM    2  C2  UNL     1     -34.674  14.933  -7.245  1.00 20.00     0.168 C 
HETATM    3  C3  UNL     1     -33.972  16.286  -5.480  1.00 20.00     0.178 C 
HETATM    4  C4  UNL     1     -34.897  15.223  -4.893  1.00 20.00    -0.001 C 
HETATM    5  O9  UNL     1     -34.097  16.203  -6.907  1.00 20.00    -0.390 OA
ENDROOT
BRANCH   4   6
HETATM    6  C7  UNL     1     -36.337  15.753  -4.786  1.00 20.00     0.126 C 
HETATM    7 CL10 UNL     1     -37.347  14.595  -3.903  1.00 20.00    -0.130 Cl
ENDBRANCH   4   6
BRANCH   4   8
HETATM    8  C8  UNL     1     -34.429  14.741  -3.521  1.00 20.00    -0.011 C 
HETATM    9  C5  UNL     1     -33.322  13.707  -3.678  1.00 20.00     0.010 C 
HETATM   10  C6  UNL     1     -33.958  15.921  -2.681  1.00 20.00     0.010 C 
ENDBRANCH   4   8
TORSDOF 2
ENDMDL
