MODEL 1
REMARK VINA RESULT:      -4.6      0.000      0.000
REMARK  2 active torsions:
REMARK  status: ('A' for Active; 'I' for Inactive)
REMARK    1  A    between atoms: C3_3  and  C8_8 
REMARK    2  A    between atoms: C8_8  and  C9_9 
ROOT
HETATM    1  C1  UNL     1     -33.399  17.126  -4.401  1.00 20.00     0.302 C 
HETATM    2  C2  UNL     1     -34.655  15.489  -5.722  1.00 20.00     0.244 C 
HETATM    3  C3  UNL     1     -34.271  16.548  -3.288  1.00 20.00     0.150 C 
HETATM    4  C4  UNL     1     -34.119  14.546  -4.627  1.00 20.00     0.150 C 
HETATM    5  C5  UNL     1     -34.582  14.897  -7.127  1.00 20.00     0.045 C 
HETATM    6  C6  UNL     1     -34.824  13.194  -4.592  1.00 20.00     0.042 C 
HETATM    7  N10 UNL     1     -33.894  16.751  -5.726  1.00 20.00     0.092 N 
HETATM    8  O11 UNL     1     -34.277  15.118  -3.319  1.00 20.00    -0.377 OA
HETATM    9  H30 UNL     1     -34.490  17.509  -6.092  1.00 20.00     0.316 HD
ENDROOT
BRANCH   3  10
HETATM   10  C8  UNL     1     -33.773  16.976  -1.914  1.00 20.00     0.033 C 
BRANCH  10  11
HETATM   11  C9  UNL     1     -34.742  16.545  -0.818  1.00 20.00    -0.002 C 
HETATM   12  C7  UNL     1     -34.729  17.526   0.343  1.00 20.00     0.005 C 
ENDBRANCH  10  11
ENDBRANCH   3  10
TORSDOF 2
ENDMDL
MODEL 2
REMARK VINA RESULT:      -4.5      1.422      1.446
REMARK  2 active torsions:
REMARK  status: ('A' for Active; 'I' for Inactive)
REMARK    1  A    between atoms: C3_3  and  C8_8 
REMARK    2  A    between atoms: C8_8  and  C9_9 
ROOT
HETATM    1  C1  UNL     1     -33.085  15.563  -3.580  1.00 20.00     0.302 C 
HETATM    2  C2  UNL     1     -34.919  15.098  -5.134  1.00 20.00     0.244 C 
HETATM    3  C3  UNL     1     -34.136  16.499  -2.986  1.00 20.00     0.150 C 
HETATM    4  C4  UNL     1     -35.656  14.815  -3.811  1.00 20.00     0.150 C 
HETATM    5  C5  UNL     1     -35.221  14.080  -6.230  1.00 20.00     0.045 C 
HETATM    6  C6  UNL     1     -37.172  14.743  -3.963  1.00 20.00     0.042 C 
HETATM    7  N10 UNL     1     -33.462  15.104  -4.917  1.00 20.00     0.092 N 
HETATM    8  O11 UNL     1     -35.397  15.840  -2.838  1.00 20.00    -0.377 OA
HETATM    9  H30 UNL     1     -33.013  15.708  -5.622  1.00 20.00     0.316 HD
ENDROOT
BRANCH   3  10
HETATM   10  C8  UNL     1     -33.717  17.005  -1.612  1.00 20.00     0.033 C 
BRANCH  10  11
HETATM   11  C9  UNL     1     -34.771  16.678  -0.560  1.00 20.00    -0.002 C 
HETATM   12  C7  UNL     1     -34.756  17.697   0.568  1.00 20.00     0.005 C 
ENDBRANCH  10  11
ENDBRANCH   3  10
TORSDOF 2
ENDMDL
MODEL 3
REMARK VINA RESULT:      -4.4     11.106     12.364
REMARK  2 active torsions:
REMARK  status: ('A' for Active; 'I' for Inactive)
REMARK    1  A    between atoms: C3_3  and  C8_8 
REMARK    2  A    between atoms: C8_8  and  C9_9 
ROOT
HETATM    1  C1  UNL     1     -32.929   5.749   2.515  1.00 20.00     0.302 C 
HETATM    2  C2  UNL     1     -34.659   5.570   4.239  1.00 20.00     0.244 C 
HETATM    3  C3  UNL     1     -32.845   7.167   3.077  1.00 20.00     0.150 C 
HETATM    4  C4  UNL     1     -33.499   6.066   5.123  1.00 20.00     0.150 C 
HETATM    5  C5  UNL     1     -35.484   4.458   4.881  1.00 20.00     0.045 C 
HETATM    6  C6  UNL     1     -33.947   6.561   6.493  1.00 20.00     0.042 C 
HETATM    7  N10 UNL     1     -34.144   5.063   2.955  1.00 20.00     0.092 N 
HETATM    8  O11 UNL     1     -32.800   7.159   4.507  1.00 20.00    -0.377 OA
HETATM    9  H30 UNL     1     -34.871   5.165   2.230  1.00 20.00     0.316 HD
ENDROOT
BRANCH   3  10
HETATM   10  C8  UNL     1     -31.598   7.888   2.582  1.00 20.00     0.033 C 
BRANCH  10  11
HETATM   11  C9  UNL     1     -31.843   8.548   1.230  1.00 20.00    -0.002 C 
HETATM   12  C7  UNL     1     -32.512   9.904   1.393  1.00 20.00     0.005 C 
ENDBRANCH  10  11
ENDBRANCH   3  10
TORSDOF 2
ENDMDL
MODEL 4
REMARK VINA RESULT:      -4.3      2.102      2.891
REMARK  2 active torsions:
REMARK  status: ('A' for Active; 'I' for Inactive)
REMARK    1  A    between atoms: C3_3  and  C8_8 
REMARK    2  A    between atoms: C8_8  and  C9_9 
ROOT
HETATM    1  C1  UNL     1     -35.874  17.373  -1.684  1.00 20.00     0.302 C 
HETATM    2  C2  UNL     1     -35.436  15.408  -3.078  1.00 20.00     0.244 C 
HETATM    3  C3  UNL     1     -34.654  16.830  -0.944  1.00 20.00     0.150 C 
HETATM    4  C4  UNL     1     -34.041  16.060  -3.147  1.00 20.00     0.150 C 
HETATM    5  C5  UNL     1     -35.920  14.859  -4.417  1.00 20.00     0.045 C 
HETATM    6  C6  UNL     1     -32.959  15.126  -3.678  1.00 20.00     0.042 C 
HETATM    7  N10 UNL     1     -36.434  16.383  -2.605  1.00 20.00     0.092 N 
HETATM    8  O11 UNL     1     -33.600  16.493  -1.851  1.00 20.00    -0.377 OA
HETATM    9  H30 UNL     1     -37.205  15.884  -2.137  1.00 20.00     0.316 HD
ENDROOT
BRANCH   3  10
HETATM   10  C8  UNL     1     -34.102  17.852   0.042  1.00 20.00     0.033 C 
BRANCH  10  11
HETATM   11  C9  UNL     1     -32.946  18.638  -0.567  1.00 20.00    -0.002 C 
HETATM   12  C7  UNL     1     -31.874  18.931   0.469  1.00 20.00     0.005 C 
ENDBRANCH  10  11
ENDBRANCH   3  10
TORSDOF 2
ENDMDL
MODEL 5
REMARK VINA RESULT:      -4.2      1.436      2.065
REMARK  2 active torsions:
REMARK  status: ('A' for Active; 'I' for Inactive)
REMARK    1  A    between atoms: C3_3  and  C8_8 
REMARK    2  A    between atoms: C8_8  and  C9_9 
ROOT
HETATM    1  C1  UNL     1     -33.941  14.558  -3.943  1.00 20.00     0.302 C 
HETATM    2  C2  UNL     1     -34.777  15.179  -6.159  1.00 20.00     0.244 C 
HETATM    3  C3  UNL     1     -33.861  16.076  -3.804  1.00 20.00     0.150 C 
HETATM    4  C4  UNL     1     -35.753  16.006  -5.300  1.00 20.00     0.150 C 
HETATM    5  C5  UNL     1     -35.446  14.476  -7.337  1.00 20.00     0.045 C 
HETATM    6  C6  UNL     1     -36.515  17.063  -6.092  1.00 20.00     0.042 C 
HETATM    7  N10 UNL     1     -34.118  14.149  -5.336  1.00 20.00     0.092 N 
HETATM    8  O11 UNL     1     -35.065  16.706  -4.251  1.00 20.00    -0.377 OA
HETATM    9  H30 UNL     1     -33.198  13.924  -5.743  1.00 20.00     0.316 HD
ENDROOT
BRANCH   3  10
HETATM   10  C8  UNL     1     -33.635  16.491  -2.356  1.00 20.00     0.033 C 
BRANCH  10  11
HETATM   11  C9  UNL     1     -34.925  16.397  -1.548  1.00 20.00    -0.002 C 
HETATM   12  C7  UNL     1     -34.772  17.059  -0.188  1.00 20.00     0.005 C 
ENDBRANCH  10  11
ENDBRANCH   3  10
TORSDOF 2
ENDMDL
MODEL 6
REMARK VINA RESULT:      -4.1      2.065      4.844
REMARK  2 active torsions:
REMARK  status: ('A' for Active; 'I' for Inactive)
REMARK    1  A    between atoms: C3_3  and  C8_8 
REMARK    2  A    between atoms: C8_8  and  C9_9 
ROOT
HETATM    1  C1  UNL     1     -35.788  15.852  -2.840  1.00 20.00     0.302 C 
HETATM    2  C2  UNL     1     -35.824  17.858  -1.436  1.00 20.00     0.244 C 
HETATM    3  C3  UNL     1     -34.326  16.266  -2.988  1.00 20.00     0.150 C 
HETATM    4  C4  UNL     1     -34.659  17.115  -0.754  1.00 20.00     0.150 C 
HETATM    5  C5  UNL     1     -36.789  18.514  -0.452  1.00 20.00     0.045 C 
HETATM    6  C6  UNL     1     -33.834  18.000   0.175  1.00 20.00     0.042 C 
HETATM    7  N10 UNL     1     -36.601  16.929  -2.275  1.00 20.00     0.092 N 
HETATM    8  O11 UNL     1     -33.741  16.580  -1.720  1.00 20.00    -0.377 OA
HETATM    9  H30 UNL     1     -37.049  17.454  -3.042  1.00 20.00     0.316 HD
ENDROOT
BRANCH   3  10
HETATM   10  C8  UNL     1     -33.494  15.154  -3.615  1.00 20.00     0.033 C 
BRANCH  10  11
HETATM   11  C9  UNL     1     -34.210  13.811  -3.523  1.00 20.00    -0.002 C 
HETATM   12  C7  UNL     1     -34.471  13.231  -4.903  1.00 20.00     0.005 C 
ENDBRANCH  10  11
ENDBRANCH   3  10
TORSDOF 2
ENDMDL
MODEL 7
REMARK VINA RESULT:      -3.9     12.356     14.639
REMARK  2 active torsions:
REMARK  status: ('A' for Active; 'I' for Inactive)
REMARK    1  A    between atoms: C3_3  and  C8_8 
REMARK    2  A    between atoms: C8_8  and  C9_9 
ROOT
HETATM    1  C1  UNL     1     -43.321   4.465  -3.146  1.00 20.00     0.302 C 
HETATM    2  C2  UNL     1     -42.022   6.371  -2.324  1.00 20.00     0.244 C 
HETATM    3  C3  UNL     1     -42.010   3.741  -2.846  1.00 20.00     0.150 C 
HETATM    4  C4  UNL     1     -41.830   5.423  -1.124  1.00 20.00     0.150 C 
HETATM    5  C5  UNL     1     -42.296   7.817  -1.921  1.00 20.00     0.045 C 
HETATM    6  C6  UNL     1     -40.713   5.854  -0.180  1.00 20.00     0.042 C 
HETATM    7  N10 UNL     1     -43.147   5.918  -3.160  1.00 20.00     0.092 N 
HETATM    8  O11 UNL     1     -41.503   4.092  -1.555  1.00 20.00    -0.377 OA
HETATM    9  H30 UNL     1     -42.999   6.231  -4.132  1.00 20.00     0.316 HD
ENDROOT
BRANCH   3  10
HETATM   10  C8  UNL     1     -42.191   2.229  -2.873  1.00 20.00     0.033 C 
BRANCH  10  11
HETATM   11  C9  UNL     1     -41.379   1.596  -3.998  1.00 20.00    -0.002 C 
HETATM   12  C7  UNL     1     -41.633   0.100  -4.085  1.00 20.00     0.005 C 
ENDBRANCH  10  11
ENDBRANCH   3  10
TORSDOF 2
ENDMDL
MODEL 8
REMARK VINA RESULT:      -3.8      2.102      2.184
REMARK  2 active torsions:
REMARK  status: ('A' for Active; 'I' for Inactive)
REMARK    1  A    between atoms: C3_3  and  C8_8 
REMARK    2  A    between atoms: C8_8  and  C9_9 
ROOT
HETATM    1  C1  UNL     1     -34.423  15.620  -4.928  1.00 20.00     0.302 C 
HETATM    2  C2  UNL     1     -36.771  15.756  -5.611  1.00 20.00     0.244 C 
HETATM    3  C3  UNL     1     -35.008  16.188  -3.637  1.00 20.00     0.150 C 
HETATM    4  C4  UNL     1     -36.949  14.928  -4.324  1.00 20.00     0.150 C 
HETATM    5  C5  UNL     1     -37.624  15.263  -6.776  1.00 20.00     0.045 C 
HETATM    6  C6  UNL     1     -38.393  14.862  -3.838  1.00 20.00     0.042 C 
HETATM    7  N10 UNL     1     -35.363  15.732  -6.044  1.00 20.00     0.092 N 
HETATM    8  O11 UNL     1     -36.182  15.475  -3.239  1.00 20.00    -0.377 OA
HETATM    9  H30 UNL     1     -35.154  16.589  -6.578  1.00 20.00     0.316 HD
ENDROOT
BRANCH   3  10
HETATM   10  C8  UNL     1     -34.009  16.105  -2.490  1.00 20.00     0.033 C 
BRANCH  10  11
HETATM   11  C9  UNL     1     -34.662  16.471  -1.162  1.00 20.00    -0.002 C 
HETATM   12  C7  UNL     1     -33.887  17.568  -0.451  1.00 20.00     0.005 C 
ENDBRANCH  10  11
ENDBRANCH   3  10
TORSDOF 2
ENDMDL
MODEL 9
REMARK VINA RESULT:      -3.8      1.947      4.745
REMARK  2 active torsions:
REMARK  status: ('A' for Active; 'I' for Inactive)
REMARK    1  A    between atoms: C3_3  and  C8_8 
REMARK    2  A    between atoms: C8_8  and  C9_9 
ROOT
HETATM    1  C1  UNL     1     -36.813  15.215  -3.945  1.00 20.00     0.302 C 
HETATM    2  C2  UNL     1     -34.942  16.182  -2.694  1.00 20.00     0.244 C 
HETATM    3  C3  UNL     1     -35.859  15.467  -5.111  1.00 20.00     0.150 C 
HETATM    4  C4  UNL     1     -34.180  15.060  -3.426  1.00 20.00     0.150 C 
HETATM    5  C5  UNL     1     -34.541  16.338  -1.230  1.00 20.00     0.045 C 
HETATM    6  C6  UNL     1     -32.665  15.226  -3.381  1.00 20.00     0.042 C 
HETATM    7  N10 UNL     1     -36.393  15.927  -2.737  1.00 20.00     0.092 N 
HETATM    8  O11 UNL     1     -34.539  15.002  -4.815  1.00 20.00    -0.377 OA
HETATM    9  H30 UNL     1     -36.900  16.823  -2.679  1.00 20.00     0.316 HD
ENDROOT
BRANCH   3  10
HETATM   10  C8  UNL     1     -36.325  14.756  -6.374  1.00 20.00     0.033 C 
BRANCH  10  11
HETATM   11  C9  UNL     1     -35.258  14.809  -7.462  1.00 20.00    -0.002 C 
HETATM   12  C7  UNL     1     -34.988  16.240  -7.898  1.00 20.00     0.005 C 
ENDBRANCH  10  11
ENDBRANCH   3  10
TORSDOF 2
ENDMDL
