MODEL 1
REMARK VINA RESULT:      -4.2      0.000      0.000
REMARK  2 active torsions:
REMARK  status: ('A' for Active; 'I' for Inactive)
REMARK    1  A    between atoms: C4_4  and  C7_7 
REMARK    2  A    between atoms: C7_7  and  C8_8 
ROOT
HETATM    1  C1  UNL     1     -34.546  14.999  -5.391  1.00 20.00     0.033 C 
HETATM    2  C2  UNL     1     -34.763  13.540  -5.737  1.00 20.00     0.168 C 
HETATM    3  C3  UNL     1     -34.352  13.695  -3.450  1.00 20.00     0.172 C 
HETATM    4  C4  UNL     1     -33.713  14.894  -4.132  1.00 20.00     0.016 C 
HETATM    5  O9  UNL     1     -34.795  12.819  -4.497  1.00 20.00    -0.391 OA
ENDROOT
BRANCH   4   6
HETATM    6  C7  UNL     1     -33.707  16.150  -3.283  1.00 20.00     0.002 C 
HETATM    7  C5  UNL     1     -33.683  17.370  -4.175  1.00 20.00     0.011 C 
BRANCH   6   8
HETATM    8  C8  UNL     1     -34.875  16.133  -2.277  1.00 20.00     0.058 C 
HETATM    9  C6  UNL     1     -34.554  16.617  -0.871  1.00 20.00     0.022 C 
HETATM   10 BR10 UNL     1     -36.378  17.196  -2.972  1.00 20.00    -0.091 Br
ENDBRANCH   6   8
ENDBRANCH   4   6
TORSDOF 2
ENDMDL
MODEL 2
REMARK VINA RESULT:      -4.0      1.714      1.927
REMARK  2 active torsions:
REMARK  status: ('A' for Active; 'I' for Inactive)
REMARK    1  A    between atoms: C4_4  and  C7_7 
REMARK    2  A    between atoms: C7_7  and  C8_8 
ROOT
HETATM    1  C1  UNL     1     -33.680  14.365  -3.747  1.00 20.00     0.033 C 
HETATM    2  C2  UNL     1     -34.779  13.371  -4.060  1.00 20.00     0.168 C 
HETATM    3  C3  UNL     1     -35.763  15.439  -3.637  1.00 20.00     0.172 C 
HETATM    4  C4  UNL     1     -34.424  15.393  -2.921  1.00 20.00     0.016 C 
HETATM    5  O9  UNL     1     -36.003  14.115  -4.137  1.00 20.00    -0.391 OA
ENDROOT
BRANCH   4   6
HETATM    6  C7  UNL     1     -33.731  16.738  -2.831  1.00 20.00     0.002 C 
HETATM    7  C5  UNL     1     -33.704  17.392  -4.193  1.00 20.00     0.011 C 
BRANCH   6   8
HETATM    8  C8  UNL     1     -34.372  17.608  -1.732  1.00 20.00     0.058 C 
HETATM    9  C6  UNL     1     -34.658  16.911  -0.410  1.00 20.00     0.022 C 
HETATM   10 BR10 UNL     1     -33.246  19.181  -1.374  1.00 20.00    -0.091 Br
ENDBRANCH   6   8
ENDBRANCH   4   6
TORSDOF 2
ENDMDL
MODEL 3
REMARK VINA RESULT:      -4.0      2.941      4.694
REMARK  2 active torsions:
REMARK  status: ('A' for Active; 'I' for Inactive)
REMARK    1  A    between atoms: C4_4  and  C7_7 
REMARK    2  A    between atoms: C7_7  and  C8_8 
ROOT
HETATM    1  C1  UNL     1     -34.751  16.952  -0.225  1.00 20.00     0.033 C 
HETATM    2  C2  UNL     1     -34.216  18.243   0.358  1.00 20.00     0.168 C 
HETATM    3  C3  UNL     1     -33.818  18.258  -1.936  1.00 20.00     0.172 C 
HETATM    4  C4  UNL     1     -33.914  16.813  -1.478  1.00 20.00     0.016 C 
HETATM    5  O9  UNL     1     -33.810  19.062  -0.747  1.00 20.00    -0.391 OA
ENDROOT
BRANCH   4   6
HETATM    6  C7  UNL     1     -34.501  15.878  -2.518  1.00 20.00     0.002 C 
HETATM    7  C5  UNL     1     -35.669  16.546  -3.205  1.00 20.00     0.011 C 
BRANCH   6   8
HETATM    8  C8  UNL     1     -33.406  15.384  -3.484  1.00 20.00     0.058 C 
HETATM    9  C6  UNL     1     -33.405  13.892  -3.786  1.00 20.00     0.022 C 
HETATM   10 BR10 UNL     1     -33.519  16.362  -5.187  1.00 20.00    -0.091 Br
ENDBRANCH   6   8
ENDBRANCH   4   6
TORSDOF 2
ENDMDL
MODEL 4
REMARK VINA RESULT:      -3.9      2.144      4.052
REMARK  2 active torsions:
REMARK  status: ('A' for Active; 'I' for Inactive)
REMARK    1  A    between atoms: C4_4  and  C7_7 
REMARK    2  A    between atoms: C7_7  and  C8_8 
ROOT
HETATM    1  C1  UNL     1     -34.702  15.503  -2.411  1.00 20.00     0.033 C 
HETATM    2  C2  UNL     1     -34.243  16.758  -1.698  1.00 20.00     0.168 C 
HETATM    3  C3  UNL     1     -33.529  16.872  -3.912  1.00 20.00     0.172 C 
HETATM    4  C4  UNL     1     -33.700  15.409  -3.541  1.00 20.00     0.016 C 
HETATM    5  O9  UNL     1     -33.680  17.621  -2.696  1.00 20.00    -0.391 OA
ENDROOT
BRANCH   4   6
HETATM    6  C7  UNL     1     -34.144  14.532  -4.695  1.00 20.00     0.002 C 
HETATM    7  C5  UNL     1     -35.009  13.405  -4.178  1.00 20.00     0.011 C 
BRANCH   6   8
HETATM    8  C8  UNL     1     -34.813  15.379  -5.796  1.00 20.00     0.058 C 
HETATM    9  C6  UNL     1     -34.445  15.024  -7.229  1.00 20.00     0.022 C 
HETATM   10 BR10 UNL     1     -36.770  15.293  -5.618  1.00 20.00    -0.091 Br
ENDBRANCH   6   8
ENDBRANCH   4   6
TORSDOF 2
ENDMDL
MODEL 5
REMARK VINA RESULT:      -3.9      3.033      4.425
REMARK  2 active torsions:
REMARK  status: ('A' for Active; 'I' for Inactive)
REMARK    1  A    between atoms: C4_4  and  C7_7 
REMARK    2  A    between atoms: C7_7  and  C8_8 
ROOT
HETATM    1  C1  UNL     1     -34.739  16.621  -0.941  1.00 20.00     0.033 C 
HETATM    2  C2  UNL     1     -34.240  17.645   0.057  1.00 20.00     0.168 C 
HETATM    3  C3  UNL     1     -33.701  18.387  -2.084  1.00 20.00     0.172 C 
HETATM    4  C4  UNL     1     -33.826  16.874  -2.121  1.00 20.00     0.016 C 
HETATM    5  O9  UNL     1     -33.766  18.767  -0.701  1.00 20.00    -0.391 OA
ENDROOT
BRANCH   4   6
HETATM    6  C7  UNL     1     -34.349  16.335  -3.439  1.00 20.00     0.002 C 
HETATM    7  C5  UNL     1     -33.236  16.317  -4.461  1.00 20.00     0.011 C 
BRANCH   6   8
HETATM    8  C8  UNL     1     -35.033  14.968  -3.235  1.00 20.00     0.058 C 
HETATM    9  C6  UNL     1     -36.463  14.855  -3.742  1.00 20.00     0.022 C 
HETATM   10 BR10 UNL     1     -33.962  13.547  -4.073  1.00 20.00    -0.091 Br
ENDBRANCH   6   8
ENDBRANCH   4   6
TORSDOF 2
ENDMDL
MODEL 6
REMARK VINA RESULT:      -3.8      1.746      2.556
REMARK  2 active torsions:
REMARK  status: ('A' for Active; 'I' for Inactive)
REMARK    1  A    between atoms: C4_4  and  C7_7 
REMARK    2  A    between atoms: C7_7  and  C8_8 
ROOT
HETATM    1  C1  UNL     1     -36.574  15.278  -4.864  1.00 20.00     0.033 C 
HETATM    2  C2  UNL     1     -36.902  15.202  -6.340  1.00 20.00     0.168 C 
HETATM    3  C3  UNL     1     -34.779  14.302  -6.016  1.00 20.00     0.172 C 
HETATM    4  C4  UNL     1     -35.061  15.278  -4.886  1.00 20.00     0.016 C 
HETATM    5  O9  UNL     1     -35.847  14.455  -6.962  1.00 20.00    -0.391 OA
ENDROOT
BRANCH   4   6
HETATM    6  C7  UNL     1     -34.419  14.891  -3.568  1.00 20.00     0.002 C 
HETATM    7  C5  UNL     1     -33.495  13.713  -3.775  1.00 20.00     0.011 C 
BRANCH   6   8
HETATM    8  C8  UNL     1     -33.740  16.111  -2.915  1.00 20.00     0.058 C 
HETATM    9  C6  UNL     1     -33.660  17.368  -3.768  1.00 20.00     0.022 C 
HETATM   10 BR10 UNL     1     -34.644  16.562  -1.227  1.00 20.00    -0.091 Br
ENDBRANCH   6   8
ENDBRANCH   4   6
TORSDOF 2
ENDMDL
MODEL 7
REMARK VINA RESULT:      -3.8      1.636      2.114
REMARK  2 active torsions:
REMARK  status: ('A' for Active; 'I' for Inactive)
REMARK    1  A    between atoms: C4_4  and  C7_7 
REMARK    2  A    between atoms: C7_7  and  C8_8 
ROOT
HETATM    1  C1  UNL     1     -35.602  14.306  -4.360  1.00 20.00     0.033 C 
HETATM    2  C2  UNL     1     -34.754  13.136  -4.814  1.00 20.00     0.168 C 
HETATM    3  C3  UNL     1     -33.467  14.468  -3.401  1.00 20.00     0.172 C 
HETATM    4  C4  UNL     1     -34.547  15.337  -4.024  1.00 20.00     0.016 C 
HETATM    5  O9  UNL     1     -33.527  13.201  -4.073  1.00 20.00    -0.391 OA
ENDROOT
BRANCH   4   6
HETATM    6  C7  UNL     1     -35.032  16.453  -3.119  1.00 20.00     0.002 C 
HETATM    7  C5  UNL     1     -34.587  16.190  -1.699  1.00 20.00     0.011 C 
BRANCH   6   8
HETATM    8  C8  UNL     1     -34.597  17.826  -3.667  1.00 20.00     0.058 C 
HETATM    9  C6  UNL     1     -33.698  18.653  -2.760  1.00 20.00     0.022 C 
HETATM   10 BR10 UNL     1     -33.695  17.605  -5.401  1.00 20.00    -0.091 Br
ENDBRANCH   6   8
ENDBRANCH   4   6
TORSDOF 2
ENDMDL
MODEL 8
REMARK VINA RESULT:      -3.8      2.181      3.272
REMARK  2 active torsions:
REMARK  status: ('A' for Active; 'I' for Inactive)
REMARK    1  A    between atoms: C4_4  and  C7_7 
REMARK    2  A    between atoms: C7_7  and  C8_8 
ROOT
HETATM    1  C1  UNL     1     -33.588  14.829  -4.212  1.00 20.00     0.033 C 
HETATM    2  C2  UNL     1     -34.076  13.662  -3.379  1.00 20.00     0.168 C 
HETATM    3  C3  UNL     1     -35.047  13.510  -5.491  1.00 20.00     0.172 C 
HETATM    4  C4  UNL     1     -34.700  14.966  -5.228  1.00 20.00     0.016 C 
HETATM    5  O9  UNL     1     -34.826  12.811  -4.256  1.00 20.00    -0.391 OA
ENDROOT
BRANCH   4   6
HETATM    6  C7  UNL     1     -34.313  15.738  -6.475  1.00 20.00     0.002 C 
HETATM    7  C5  UNL     1     -34.662  14.931  -7.705  1.00 20.00     0.011 C 
BRANCH   6   8
HETATM    8  C8  UNL     1     -34.933  17.149  -6.456  1.00 20.00     0.058 C 
HETATM    9  C6  UNL     1     -36.283  17.277  -5.764  1.00 20.00     0.022 C 
HETATM   10 BR10 UNL     1     -33.686  18.422  -5.623  1.00 20.00    -0.091 Br
ENDBRANCH   6   8
ENDBRANCH   4   6
TORSDOF 2
ENDMDL
MODEL 9
REMARK VINA RESULT:      -3.7      2.324      3.059
REMARK  2 active torsions:
REMARK  status: ('A' for Active; 'I' for Inactive)
REMARK    1  A    between atoms: C4_4  and  C7_7 
REMARK    2  A    between atoms: C7_7  and  C8_8 
ROOT
HETATM    1  C1  UNL     1     -36.878  15.699  -5.493  1.00 20.00     0.033 C 
HETATM    2  C2  UNL     1     -38.096  15.145  -4.783  1.00 20.00     0.168 C 
HETATM    3  C3  UNL     1     -36.223  13.976  -4.041  1.00 20.00     0.172 C 
HETATM    4  C4  UNL     1     -35.925  14.526  -5.426  1.00 20.00     0.016 C 
HETATM    5  O9  UNL     1     -37.617  14.217  -3.799  1.00 20.00    -0.391 OA
ENDROOT
BRANCH   4   6
HETATM    6  C7  UNL     1     -34.469  14.893  -5.639  1.00 20.00     0.002 C 
HETATM    7  C5  UNL     1     -34.284  15.468  -7.024  1.00 20.00     0.011 C 
BRANCH   6   8
HETATM    8  C8  UNL     1     -33.969  15.814  -4.508  1.00 20.00     0.058 C 
HETATM    9  C6  UNL     1     -32.767  15.315  -3.721  1.00 20.00     0.022 C 
HETATM   10 BR10 UNL     1     -33.545  17.595  -5.227  1.00 20.00    -0.091 Br
ENDBRANCH   6   8
ENDBRANCH   4   6
TORSDOF 2
ENDMDL
