MODEL 1
REMARK VINA RESULT:      -4.2      0.000      0.000
REMARK  3 active torsions:
REMARK  status: ('A' for Active; 'I' for Inactive)
REMARK    1  A    between atoms: C4_4  and  C7_7 
REMARK    2  A    between atoms: C4_4  and  C9_9 
REMARK    3  A    between atoms: C8_8  and  C9_9 
ROOT
HETATM    1  C1  UNL     1     -34.223  13.190  -4.559  1.00 20.00     0.002 C 
HETATM    2  C2  UNL     1     -33.579  14.298  -3.704  1.00 20.00     0.011 C 
HETATM    3  C3  UNL     1     -35.598  13.792  -4.211  1.00 20.00     0.011 C 
HETATM    4  C4  UNL     1     -34.878  15.135  -3.893  1.00 20.00    -0.025 C 
ENDROOT
BRANCH   4   5
HETATM    5  C7  UNL     1     -34.828  16.113  -5.067  1.00 20.00     0.124 C 
HETATM    6 CL10 UNL     1     -33.296  17.004  -5.058  1.00 20.00    -0.130 Cl
ENDBRANCH   4   5
BRANCH   4   7
HETATM    7  C9  UNL     1     -35.369  15.816  -2.619  1.00 20.00    -0.010 C 
HETATM    8  C6  UNL     1     -36.355  16.932  -2.976  1.00 20.00     0.011 C 
BRANCH   7   9
HETATM    9  C8  UNL     1     -34.216  16.392  -1.779  1.00 20.00     0.000 C 
HETATM   10  C5  UNL     1     -34.659  16.935  -0.428  1.00 20.00     0.005 C 
ENDBRANCH   7   9
ENDBRANCH   4   7
TORSDOF 3
ENDMDL
MODEL 2
REMARK VINA RESULT:      -4.0      1.787      3.746
REMARK  3 active torsions:
REMARK  status: ('A' for Active; 'I' for Inactive)
REMARK    1  A    between atoms: C4_4  and  C7_7 
REMARK    2  A    between atoms: C4_4  and  C9_9 
REMARK    3  A    between atoms: C8_8  and  C9_9 
ROOT
HETATM    1  C1  UNL     1     -34.281  16.654  -1.464  1.00 20.00     0.002 C 
HETATM    2  C2  UNL     1     -33.857  17.389  -2.751  1.00 20.00     0.011 C 
HETATM    3  C3  UNL     1     -35.027  15.638  -2.351  1.00 20.00     0.011 C 
HETATM    4  C4  UNL     1     -34.108  16.067  -3.533  1.00 20.00    -0.025 C 
ENDROOT
BRANCH   4   5
HETATM    5  C7  UNL     1     -32.865  15.195  -3.708  1.00 20.00     0.124 C 
HETATM    6 CL10 UNL     1     -33.322  13.484  -3.782  1.00 20.00    -0.130 Cl
ENDBRANCH   4   5
BRANCH   4   7
HETATM    7  C9  UNL     1     -34.847  16.259  -4.855  1.00 20.00    -0.010 C 
HETATM    8  C6  UNL     1     -35.999  15.255  -4.955  1.00 20.00     0.011 C 
BRANCH   7   9
HETATM    9  C8  UNL     1     -33.920  16.106  -6.073  1.00 20.00     0.000 C 
HETATM   10  C5  UNL     1     -34.421  15.098  -7.097  1.00 20.00     0.005 C 
ENDBRANCH   7   9
ENDBRANCH   4   7
TORSDOF 3
ENDMDL
MODEL 3
REMARK VINA RESULT:      -3.9      1.625      3.890
REMARK  3 active torsions:
REMARK  status: ('A' for Active; 'I' for Inactive)
REMARK    1  A    between atoms: C4_4  and  C7_7 
REMARK    2  A    between atoms: C4_4  and  C9_9 
REMARK    3  A    between atoms: C8_8  and  C9_9 
ROOT
HETATM    1  C1  UNL     1     -34.366  17.545  -0.434  1.00 20.00     0.002 C 
HETATM    2  C2  UNL     1     -34.856  16.283  -1.170  1.00 20.00     0.011 C 
HETATM    3  C3  UNL     1     -33.309  17.719  -1.542  1.00 20.00     0.011 C 
HETATM    4  C4  UNL     1     -34.205  16.843  -2.468  1.00 20.00    -0.025 C 
ENDROOT
BRANCH   4   5
HETATM    5  C7  UNL     1     -35.159  17.643  -3.355  1.00 20.00     0.124 C 
HETATM    6 CL10 UNL     1     -36.660  16.735  -3.613  1.00 20.00    -0.130 Cl
ENDBRANCH   4   5
BRANCH   4   7
HETATM    7  C9  UNL     1     -33.432  15.803  -3.274  1.00 20.00    -0.010 C 
HETATM    8  C6  UNL     1     -33.216  16.311  -4.702  1.00 20.00     0.011 C 
BRANCH   7   9
HETATM    9  C8  UNL     1     -34.146  14.441  -3.311  1.00 20.00     0.000 C 
HETATM   10  C5  UNL     1     -34.339  13.893  -4.718  1.00 20.00     0.005 C 
ENDBRANCH   7   9
ENDBRANCH   4   7
TORSDOF 3
ENDMDL
MODEL 4
REMARK VINA RESULT:      -3.9      1.864      2.643
REMARK  3 active torsions:
REMARK  status: ('A' for Active; 'I' for Inactive)
REMARK    1  A    between atoms: C4_4  and  C7_7 
REMARK    2  A    between atoms: C4_4  and  C9_9 
REMARK    3  A    between atoms: C8_8  and  C9_9 
ROOT
HETATM    1  C1  UNL     1     -35.521  14.510  -7.111  1.00 20.00     0.002 C 
HETATM    2  C2  UNL     1     -36.417  15.006  -5.960  1.00 20.00     0.011 C 
HETATM    3  C3  UNL     1     -34.307  15.051  -6.331  1.00 20.00     0.011 C 
HETATM    4  C4  UNL     1     -35.166  14.974  -5.034  1.00 20.00    -0.025 C 
ENDROOT
BRANCH   4   5
HETATM    5  C7  UNL     1     -34.999  13.674  -4.248  1.00 20.00     0.124 C 
HETATM    6 CL10 UNL     1     -33.297  13.433  -3.817  1.00 20.00    -0.130 Cl
ENDBRANCH   4   5
BRANCH   4   7
HETATM    7  C9  UNL     1     -35.032  16.196  -4.129  1.00 20.00    -0.010 C 
HETATM    8  C6  UNL     1     -33.575  16.664  -4.103  1.00 20.00     0.011 C 
BRANCH   7   9
HETATM    9  C8  UNL     1     -35.514  15.919  -2.695  1.00 20.00     0.000 C 
HETATM   10  C5  UNL     1     -34.511  16.329  -1.626  1.00 20.00     0.005 C 
ENDBRANCH   7   9
ENDBRANCH   4   7
TORSDOF 3
ENDMDL
MODEL 5
REMARK VINA RESULT:      -3.8      1.889      2.751
REMARK  3 active torsions:
REMARK  status: ('A' for Active; 'I' for Inactive)
REMARK    1  A    between atoms: C4_4  and  C7_7 
REMARK    2  A    between atoms: C4_4  and  C9_9 
REMARK    3  A    between atoms: C8_8  and  C9_9 
ROOT
HETATM    1  C1  UNL     1     -34.366  15.707  -7.061  1.00 20.00     0.002 C 
HETATM    2  C2  UNL     1     -33.910  16.529  -5.840  1.00 20.00     0.011 C 
HETATM    3  C3  UNL     1     -34.649  14.534  -6.102  1.00 20.00     0.011 C 
HETATM    4  C4  UNL     1     -34.742  15.568  -4.941  1.00 20.00    -0.025 C 
ENDROOT
BRANCH   4   5
HETATM    5  C7  UNL     1     -36.161  16.055  -4.648  1.00 20.00     0.124 C 
HETATM    6 CL10 UNL     1     -37.238  14.674  -4.374  1.00 20.00    -0.130 Cl
ENDBRANCH   4   5
BRANCH   4   7
HETATM    7  C9  UNL     1     -34.026  15.135  -3.665  1.00 20.00    -0.010 C 
HETATM    8  C6  UNL     1     -34.028  13.608  -3.564  1.00 20.00     0.011 C 
BRANCH   7   9
HETATM    9  C8  UNL     1     -34.660  15.740  -2.402  1.00 20.00     0.000 C 
HETATM   10  C5  UNL     1     -33.832  16.854  -1.777  1.00 20.00     0.005 C 
ENDBRANCH   7   9
ENDBRANCH   4   7
TORSDOF 3
ENDMDL
MODEL 6
REMARK VINA RESULT:      -3.8      1.087      3.683
REMARK  3 active torsions:
REMARK  status: ('A' for Active; 'I' for Inactive)
REMARK    1  A    between atoms: C4_4  and  C7_7 
REMARK    2  A    between atoms: C4_4  and  C9_9 
REMARK    3  A    between atoms: C8_8  and  C9_9 
ROOT
HETATM    1  C1  UNL     1     -35.557  17.492  -1.489  1.00 20.00     0.002 C 
HETATM    2  C2  UNL     1     -35.952  16.594  -2.677  1.00 20.00     0.011 C 
HETATM    3  C3  UNL     1     -34.287  16.634  -1.328  1.00 20.00     0.011 C 
HETATM    4  C4  UNL     1     -34.454  16.193  -2.812  1.00 20.00    -0.025 C 
ENDROOT
BRANCH   4   5
HETATM    5  C7  UNL     1     -33.665  17.041  -3.810  1.00 20.00     0.124 C 
HETATM    6 CL10 UNL     1     -34.546  17.162  -5.343  1.00 20.00    -0.130 Cl
ENDBRANCH   4   5
BRANCH   4   7
HETATM    7  C9  UNL     1     -34.229  14.702  -3.046  1.00 20.00    -0.010 C 
HETATM    8  C6  UNL     1     -32.854  14.479  -3.682  1.00 20.00     0.011 C 
BRANCH   7   9
HETATM    9  C8  UNL     1     -35.318  14.076  -3.933  1.00 20.00     0.000 C 
HETATM   10  C5  UNL     1     -34.765  13.322  -5.135  1.00 20.00     0.005 C 
ENDBRANCH   7   9
ENDBRANCH   4   7
TORSDOF 3
ENDMDL
MODEL 7
REMARK VINA RESULT:      -3.8      1.769      2.199
REMARK  3 active torsions:
REMARK  status: ('A' for Active; 'I' for Inactive)
REMARK    1  A    between atoms: C4_4  and  C7_7 
REMARK    2  A    between atoms: C4_4  and  C9_9 
REMARK    3  A    between atoms: C8_8  and  C9_9 
ROOT
HETATM    1  C1  UNL     1     -34.750  13.581  -5.231  1.00 20.00     0.002 C 
HETATM    2  C2  UNL     1     -34.624  15.116  -5.206  1.00 20.00     0.011 C 
HETATM    3  C3  UNL     1     -34.431  13.580  -3.723  1.00 20.00     0.011 C 
HETATM    4  C4  UNL     1     -34.894  15.067  -3.673  1.00 20.00    -0.025 C 
ENDROOT
BRANCH   4   5
HETATM    5  C7  UNL     1     -36.362  15.253  -3.289  1.00 20.00     0.124 C 
HETATM    6 CL10 UNL     1     -37.045  16.652  -4.138  1.00 20.00    -0.130 Cl
ENDBRANCH   4   5
BRANCH   4   7
HETATM    7  C9  UNL     1     -33.982  15.973  -2.852  1.00 20.00    -0.010 C 
HETATM    8  C6  UNL     1     -34.631  16.270  -1.497  1.00 20.00     0.011 C 
BRANCH   7   9
HETATM    9  C8  UNL     1     -33.662  17.293  -3.574  1.00 20.00     0.000 C 
HETATM   10  C5  UNL     1     -34.130  18.529  -2.819  1.00 20.00     0.005 C 
ENDBRANCH   7   9
ENDBRANCH   4   7
TORSDOF 3
ENDMDL
MODEL 8
REMARK VINA RESULT:      -3.7      1.825      3.037
REMARK  3 active torsions:
REMARK  status: ('A' for Active; 'I' for Inactive)
REMARK    1  A    between atoms: C4_4  and  C7_7 
REMARK    2  A    between atoms: C4_4  and  C9_9 
REMARK    3  A    between atoms: C8_8  and  C9_9 
ROOT
HETATM    1  C1  UNL     1     -35.820  16.868  -6.285  1.00 20.00     0.002 C 
HETATM    2  C2  UNL     1     -36.043  16.294  -4.872  1.00 20.00     0.011 C 
HETATM    3  C3  UNL     1     -34.304  16.814  -6.012  1.00 20.00     0.011 C 
HETATM    4  C4  UNL     1     -34.587  15.744  -4.916  1.00 20.00    -0.025 C 
ENDROOT
BRANCH   4   5
HETATM    5  C7  UNL     1     -34.476  14.301  -5.406  1.00 20.00     0.124 C 
HETATM    6 CL10 UNL     1     -35.410  13.222  -4.354  1.00 20.00    -0.130 Cl
ENDBRANCH   4   5
BRANCH   4   7
HETATM    7  C9  UNL     1     -33.804  15.958  -3.624  1.00 20.00    -0.010 C 
HETATM    8  C6  UNL     1     -32.601  15.011  -3.586  1.00 20.00     0.011 C 
BRANCH   7   9
HETATM    9  C8  UNL     1     -34.670  15.746  -2.371  1.00 20.00     0.000 C 
HETATM   10  C5  UNL     1     -34.332  16.695  -1.230  1.00 20.00     0.005 C 
ENDBRANCH   7   9
ENDBRANCH   4   7
TORSDOF 3
ENDMDL
MODEL 9
REMARK VINA RESULT:      -3.7      1.989      2.697
REMARK  3 active torsions:
REMARK  status: ('A' for Active; 'I' for Inactive)
REMARK    1  A    between atoms: C4_4  and  C7_7 
REMARK    2  A    between atoms: C4_4  and  C9_9 
REMARK    3  A    between atoms: C8_8  and  C9_9 
ROOT
HETATM    1  C1  UNL     1     -37.770  15.207  -4.846  1.00 20.00     0.002 C 
HETATM    2  C2  UNL     1     -36.731  14.774  -3.794  1.00 20.00     0.011 C 
HETATM    3  C3  UNL     1     -36.788  16.310  -5.288  1.00 20.00     0.011 C 
HETATM    4  C4  UNL     1     -35.638  15.473  -4.654  1.00 20.00    -0.025 C 
ENDROOT
BRANCH   4   5
HETATM    5  C7  UNL     1     -34.924  14.544  -5.637  1.00 20.00     0.124 C 
HETATM    6 CL10 UNL     1     -34.378  13.077  -4.806  1.00 20.00    -0.130 Cl
ENDBRANCH   4   5
BRANCH   4   7
HETATM    7  C9  UNL     1     -34.644  16.300  -3.844  1.00 20.00    -0.010 C 
HETATM    8  C6  UNL     1     -33.365  16.516  -4.658  1.00 20.00     0.011 C 
BRANCH   7   9
HETATM    9  C8  UNL     1     -34.296  15.644  -2.497  1.00 20.00     0.000 C 
HETATM   10  C5  UNL     1     -34.623  16.515  -1.293  1.00 20.00     0.005 C 
ENDBRANCH   7   9
ENDBRANCH   4   7
TORSDOF 3
ENDMDL
