MODEL 1
REMARK VINA RESULT:      -4.2      0.000      0.000
REMARK  4 active torsions:
REMARK  status: ('A' for Active; 'I' for Inactive)
REMARK    1  A    between atoms: C1_1  and  C9_9 
REMARK    2  A    between atoms: C1_1  and  C10_10 
REMARK    3  A    between atoms: C7_7  and  C9_9 
REMARK    4  A    between atoms: C8_8  and  C9_9 
ROOT
HETATM    1  C1  UNL     1     -33.749  16.131  -4.868  1.00 20.00     0.138 C 
HETATM    2  O11 UNL     1     -32.521  16.218  -4.961  1.00 20.00    -0.297 OA
ENDROOT
BRANCH   1   3
HETATM    3  C9  UNL     1     -34.383  15.617  -3.568  1.00 20.00     0.055 C 
BRANCH   3   4
HETATM    4  C7  UNL     1     -34.131  14.100  -3.482  1.00 20.00     0.007 C 
HETATM    5  C2  UNL     1     -35.157  13.277  -4.249  1.00 20.00     0.006 C 
ENDBRANCH   3   4
BRANCH   3   6
HETATM    6  C8  UNL     1     -33.800  16.358  -2.349  1.00 20.00     0.007 C 
HETATM    7  C3  UNL     1     -34.772  16.444  -1.180  1.00 20.00     0.006 C 
ENDBRANCH   3   6
ENDBRANCH   1   3
BRANCH   1   8
HETATM    8  C10 UNL     1     -34.672  16.518  -6.047  1.00 20.00     0.010 C 
HETATM    9  C4  UNL     1     -34.571  15.484  -7.175  1.00 20.00     0.022 C 
HETATM   10  C5  UNL     1     -36.122  16.632  -5.560  1.00 20.00     0.022 C 
HETATM   11  C6  UNL     1     -34.237  17.886  -6.606  1.00 20.00     0.022 C 
ENDBRANCH   1   8
TORSDOF 4
ENDMDL
MODEL 2
REMARK VINA RESULT:      -4.0      1.891      3.374
REMARK  4 active torsions:
REMARK  status: ('A' for Active; 'I' for Inactive)
REMARK    1  A    between atoms: C1_1  and  C9_9 
REMARK    2  A    between atoms: C1_1  and  C10_10 
REMARK    3  A    between atoms: C7_7  and  C9_9 
REMARK    4  A    between atoms: C8_8  and  C9_9 
ROOT
HETATM    1  C1  UNL     1     -35.012  15.582  -3.157  1.00 20.00     0.138 C 
HETATM    2  O11 UNL     1     -36.231  15.420  -3.039  1.00 20.00    -0.297 OA
ENDROOT
BRANCH   1   3
HETATM    3  C9  UNL     1     -34.305  16.679  -2.350  1.00 20.00     0.055 C 
BRANCH   3   4
HETATM    4  C7  UNL     1     -34.726  18.043  -2.929  1.00 20.00     0.007 C 
HETATM    5  C2  UNL     1     -33.721  18.609  -3.922  1.00 20.00     0.006 C 
ENDBRANCH   3   4
BRANCH   3   6
HETATM    6  C8  UNL     1     -34.656  16.565  -0.854  1.00 20.00     0.007 C 
HETATM    7  C3  UNL     1     -34.164  17.748  -0.032  1.00 20.00     0.006 C 
ENDBRANCH   3   6
ENDBRANCH   1   3
BRANCH   1   8
HETATM    8  C10 UNL     1     -34.176  14.705  -4.119  1.00 20.00     0.010 C 
HETATM    9  C4  UNL     1     -32.707  14.668  -3.679  1.00 20.00     0.022 C 
HETATM   10  C5  UNL     1     -34.751  13.284  -4.167  1.00 20.00     0.022 C 
HETATM   11  C6  UNL     1     -34.239  15.304  -5.538  1.00 20.00     0.022 C 
ENDBRANCH   1   8
TORSDOF 4
ENDMDL
MODEL 3
REMARK VINA RESULT:      -4.0      1.341      2.967
REMARK  4 active torsions:
REMARK  status: ('A' for Active; 'I' for Inactive)
REMARK    1  A    between atoms: C1_1  and  C9_9 
REMARK    2  A    between atoms: C1_1  and  C10_10 
REMARK    3  A    between atoms: C7_7  and  C9_9 
REMARK    4  A    between atoms: C8_8  and  C9_9 
ROOT
HETATM    1  C1  UNL     1     -33.938  15.440  -3.973  1.00 20.00     0.138 C 
HETATM    2  O11 UNL     1     -32.768  15.114  -3.746  1.00 20.00    -0.297 OA
ENDROOT
BRANCH   1   3
HETATM    3  C9  UNL     1     -34.580  16.584  -3.177  1.00 20.00     0.055 C 
BRANCH   3   4
HETATM    4  C7  UNL     1     -34.669  16.147  -1.703  1.00 20.00     0.007 C 
HETATM    5  C2  UNL     1     -34.185  17.213  -0.730  1.00 20.00     0.006 C 
ENDBRANCH   3   4
BRANCH   3   6
HETATM    6  C8  UNL     1     -33.766  17.882  -3.336  1.00 20.00     0.007 C 
HETATM    7  C3  UNL     1     -33.675  18.360  -4.778  1.00 20.00     0.006 C 
ENDBRANCH   3   6
ENDBRANCH   1   3
BRANCH   1   8
HETATM    8  C10 UNL     1     -34.782  14.706  -5.041  1.00 20.00     0.010 C 
HETATM    9  C4  UNL     1     -34.305  15.069  -6.452  1.00 20.00     0.022 C 
HETATM   10  C5  UNL     1     -34.696  13.190  -4.825  1.00 20.00     0.022 C 
HETATM   11  C6  UNL     1     -36.257  15.133  -4.905  1.00 20.00     0.022 C 
ENDBRANCH   1   8
TORSDOF 4
ENDMDL
MODEL 4
REMARK VINA RESULT:      -3.9      1.644      2.190
REMARK  4 active torsions:
REMARK  status: ('A' for Active; 'I' for Inactive)
REMARK    1  A    between atoms: C1_1  and  C9_9 
REMARK    2  A    between atoms: C1_1  and  C10_10 
REMARK    3  A    between atoms: C7_7  and  C9_9 
REMARK    4  A    between atoms: C8_8  and  C9_9 
ROOT
HETATM    1  C1  UNL     1     -35.223  16.020  -4.404  1.00 20.00     0.138 C 
HETATM    2  O11 UNL     1     -34.479  16.627  -5.180  1.00 20.00    -0.297 OA
ENDROOT
BRANCH   1   3
HETATM    3  C9  UNL     1     -34.626  15.252  -3.216  1.00 20.00     0.055 C 
BRANCH   3   4
HETATM    4  C7  UNL     1     -33.683  14.170  -3.774  1.00 20.00     0.007 C 
HETATM    5  C2  UNL     1     -34.386  13.169  -4.681  1.00 20.00     0.006 C 
ENDBRANCH   3   4
BRANCH   3   6
HETATM    6  C8  UNL     1     -33.888  16.212  -2.264  1.00 20.00     0.007 C 
HETATM    7  C3  UNL     1     -34.696  16.566  -1.024  1.00 20.00     0.006 C 
ENDBRANCH   3   6
ENDBRANCH   1   3
BRANCH   1   8
HETATM    8  C10 UNL     1     -36.756  16.002  -4.611  1.00 20.00     0.010 C 
HETATM    9  C4  UNL     1     -37.423  15.030  -3.629  1.00 20.00     0.022 C 
HETATM   10  C5  UNL     1     -37.325  17.414  -4.429  1.00 20.00     0.022 C 
HETATM   11  C6  UNL     1     -37.071  15.531  -6.044  1.00 20.00     0.022 C 
ENDBRANCH   1   8
TORSDOF 4
ENDMDL
MODEL 5
REMARK VINA RESULT:      -3.9      0.929      4.246
REMARK  4 active torsions:
REMARK  status: ('A' for Active; 'I' for Inactive)
REMARK    1  A    between atoms: C1_1  and  C9_9 
REMARK    2  A    between atoms: C1_1  and  C10_10 
REMARK    3  A    between atoms: C7_7  and  C9_9 
REMARK    4  A    between atoms: C8_8  and  C9_9 
ROOT
HETATM    1  C1  UNL     1     -33.960  15.921  -4.928  1.00 20.00     0.138 C 
HETATM    2  O11 UNL     1     -32.863  16.489  -4.918  1.00 20.00    -0.297 OA
ENDROOT
BRANCH   1   3
HETATM    3  C9  UNL     1     -34.910  16.113  -6.118  1.00 20.00     0.055 C 
BRANCH   3   4
HETATM    4  C7  UNL     1     -34.912  17.608  -6.490  1.00 20.00     0.007 C 
HETATM    5  C2  UNL     1     -34.437  17.874  -7.911  1.00 20.00     0.006 C 
ENDBRANCH   3   4
BRANCH   3   6
HETATM    6  C8  UNL     1     -34.478  15.233  -7.306  1.00 20.00     0.007 C 
HETATM    7  C3  UNL     1     -35.611  14.386  -7.868  1.00 20.00     0.006 C 
ENDBRANCH   3   6
ENDBRANCH   1   3
BRANCH   1   8
HETATM    8  C10 UNL     1     -34.408  15.023  -3.751  1.00 20.00     0.010 C 
HETATM    9  C4  UNL     1     -33.560  13.747  -3.690  1.00 20.00     0.022 C 
HETATM   10  C5  UNL     1     -34.299  15.797  -2.431  1.00 20.00     0.022 C 
HETATM   11  C6  UNL     1     -35.880  14.614  -3.954  1.00 20.00     0.022 C 
ENDBRANCH   1   8
TORSDOF 4
ENDMDL
MODEL 6
REMARK VINA RESULT:      -3.9      0.914      4.299
REMARK  4 active torsions:
REMARK  status: ('A' for Active; 'I' for Inactive)
REMARK    1  A    between atoms: C1_1  and  C9_9 
REMARK    2  A    between atoms: C1_1  and  C10_10 
REMARK    3  A    between atoms: C7_7  and  C9_9 
REMARK    4  A    between atoms: C8_8  and  C9_9 
ROOT
HETATM    1  C1  UNL     1     -33.921  15.894  -4.952  1.00 20.00     0.138 C 
HETATM    2  O11 UNL     1     -32.794  16.397  -4.951  1.00 20.00    -0.297 OA
ENDROOT
BRANCH   1   3
HETATM    3  C9  UNL     1     -34.874  16.155  -6.127  1.00 20.00     0.055 C 
BRANCH   3   4
HETATM    4  C7  UNL     1     -34.818  17.658  -6.460  1.00 20.00     0.007 C 
HETATM    5  C2  UNL     1     -34.458  17.938  -7.913  1.00 20.00     0.006 C 
ENDBRANCH   3   4
BRANCH   3   6
HETATM    6  C8  UNL     1     -34.491  15.290  -7.342  1.00 20.00     0.007 C 
HETATM    7  C3  UNL     1     -35.629  14.405  -7.832  1.00 20.00     0.006 C 
ENDBRANCH   3   6
ENDBRANCH   1   3
BRANCH   1   8
HETATM    8  C10 UNL     1     -34.406  15.008  -3.780  1.00 20.00     0.010 C 
HETATM    9  C4  UNL     1     -34.255  15.748  -2.445  1.00 20.00     0.022 C 
HETATM   10  C5  UNL     1     -35.868  14.603  -4.000  1.00 20.00     0.022 C 
HETATM   11  C6  UNL     1     -33.550  13.728  -3.722  1.00 20.00     0.022 C 
ENDBRANCH   1   8
TORSDOF 4
ENDMDL
MODEL 7
REMARK VINA RESULT:      -3.9      1.214      3.594
REMARK  4 active torsions:
REMARK  status: ('A' for Active; 'I' for Inactive)
REMARK    1  A    between atoms: C1_1  and  C9_9 
REMARK    2  A    between atoms: C1_1  and  C10_10 
REMARK    3  A    between atoms: C7_7  and  C9_9 
REMARK    4  A    between atoms: C8_8  and  C9_9 
ROOT
HETATM    1  C1  UNL     1     -33.806  16.119  -4.485  1.00 20.00     0.138 C 
HETATM    2  O11 UNL     1     -32.582  15.966  -4.542  1.00 20.00    -0.297 OA
ENDROOT
BRANCH   1   3
HETATM    3  C9  UNL     1     -34.707  15.478  -5.549  1.00 20.00     0.055 C 
BRANCH   3   4
HETATM    4  C7  UNL     1     -34.280  16.021  -6.926  1.00 20.00     0.007 C 
HETATM    5  C2  UNL     1     -34.556  17.509  -7.096  1.00 20.00     0.006 C 
ENDBRANCH   3   4
BRANCH   3   6
HETATM    6  C8  UNL     1     -34.610  13.942  -5.491  1.00 20.00     0.007 C 
HETATM    7  C3  UNL     1     -35.135  13.356  -4.188  1.00 20.00     0.006 C 
ENDBRANCH   3   6
ENDBRANCH   1   3
BRANCH   1   8
HETATM    8  C10 UNL     1     -34.458  16.962  -3.364  1.00 20.00     0.010 C 
HETATM    9  C4  UNL     1     -34.242  16.304  -1.996  1.00 20.00     0.022 C 
HETATM   10  C5  UNL     1     -33.873  18.380  -3.368  1.00 20.00     0.022 C 
HETATM   11  C6  UNL     1     -35.974  17.061  -3.618  1.00 20.00     0.022 C 
ENDBRANCH   1   8
TORSDOF 4
ENDMDL
MODEL 8
REMARK VINA RESULT:      -3.8      1.625      3.630
REMARK  4 active torsions:
REMARK  status: ('A' for Active; 'I' for Inactive)
REMARK    1  A    between atoms: C1_1  and  C9_9 
REMARK    2  A    between atoms: C1_1  and  C10_10 
REMARK    3  A    between atoms: C7_7  and  C9_9 
REMARK    4  A    between atoms: C8_8  and  C9_9 
ROOT
HETATM    1  C1  UNL     1     -34.905  16.294  -4.678  1.00 20.00     0.138 C 
HETATM    2  O11 UNL     1     -36.089  16.643  -4.710  1.00 20.00    -0.297 OA
ENDROOT
BRANCH   1   3
HETATM    3  C9  UNL     1     -33.927  16.811  -5.742  1.00 20.00     0.055 C 
BRANCH   3   4
HETATM    4  C7  UNL     1     -34.446  16.365  -7.122  1.00 20.00     0.007 C 
HETATM    5  C2  UNL     1     -34.472  14.853  -7.295  1.00 20.00     0.006 C 
ENDBRANCH   3   4
BRANCH   3   6
HETATM    6  C8  UNL     1     -33.789  18.343  -5.656  1.00 20.00     0.007 C 
HETATM    7  C3  UNL     1     -33.472  18.838  -4.252  1.00 20.00     0.006 C 
ENDBRANCH   3   6
ENDBRANCH   1   3
BRANCH   1   8
HETATM    8  C10 UNL     1     -34.382  15.329  -3.589  1.00 20.00     0.010 C 
HETATM    9  C4  UNL     1     -34.684  15.878  -2.189  1.00 20.00     0.022 C 
HETATM   10  C5  UNL     1     -35.020  13.946  -3.765  1.00 20.00     0.022 C 
HETATM   11  C6  UNL     1     -32.854  15.182  -3.730  1.00 20.00     0.022 C 
ENDBRANCH   1   8
TORSDOF 4
ENDMDL
MODEL 9
REMARK VINA RESULT:      -3.8      2.081      3.179
REMARK  4 active torsions:
REMARK  status: ('A' for Active; 'I' for Inactive)
REMARK    1  A    between atoms: C1_1  and  C9_9 
REMARK    2  A    between atoms: C1_1  and  C10_10 
REMARK    3  A    between atoms: C7_7  and  C9_9 
REMARK    4  A    between atoms: C8_8  and  C9_9 
ROOT
HETATM    1  C1  UNL     1     -35.286  15.355  -3.512  1.00 20.00     0.138 C 
HETATM    2  O11 UNL     1     -36.316  14.681  -3.422  1.00 20.00    -0.297 OA
ENDROOT
BRANCH   1   3
HETATM    3  C9  UNL     1     -35.166  16.674  -2.735  1.00 20.00     0.055 C 
BRANCH   3   4
HETATM    4  C7  UNL     1     -36.534  17.381  -2.783  1.00 20.00     0.007 C 
HETATM    5  C2  UNL     1     -36.770  18.146  -4.078  1.00 20.00     0.006 C 
ENDBRANCH   3   4
BRANCH   3   6
HETATM    6  C8  UNL     1     -34.713  16.413  -1.287  1.00 20.00     0.007 C 
HETATM    7  C3  UNL     1     -33.794  17.498  -0.741  1.00 20.00     0.006 C 
ENDBRANCH   3   6
ENDBRANCH   1   3
BRANCH   1   8
HETATM    8  C10 UNL     1     -34.108  14.906  -4.407  1.00 20.00     0.010 C 
HETATM    9  C4  UNL     1     -33.323  13.771  -3.739  1.00 20.00     0.022 C 
HETATM   10  C5  UNL     1     -34.633  14.454  -5.776  1.00 20.00     0.022 C 
HETATM   11  C6  UNL     1     -33.150  16.093  -4.622  1.00 20.00     0.022 C 
ENDBRANCH   1   8
TORSDOF 4
ENDMDL
