MODEL 1
REMARK VINA RESULT:      -4.2      0.000      0.000
REMARK  5 active torsions:
REMARK  status: ('A' for Active; 'I' for Inactive)
REMARK    1  A    between atoms: C1_1  and  C7_7 
REMARK    2  A    between atoms: C1_1  and  C11_11 
REMARK    3  A    between atoms: C7_7  and  C10_10 
REMARK    4  A    between atoms: C8_8  and  C10_10 
REMARK    5  A    between atoms: C9_9  and  C10_10 
ROOT
HETATM    1  C1  UNL     1     -36.470  15.089  -4.224  1.00 20.00     0.134 C 
HETATM    2  O12 UNL     1     -36.961  14.027  -3.835  1.00 20.00    -0.297 OA
ENDROOT
BRANCH   1   3
HETATM    3  C7  UNL     1     -35.994  16.145  -3.228  1.00 20.00     0.083 C 
BRANCH   3   4
HETATM    4  C10 UNL     1     -34.771  15.703  -2.397  1.00 20.00    -0.008 C 
BRANCH   4   5
HETATM    5  C8  UNL     1     -34.700  16.492  -1.071  1.00 20.00     0.000 C 
HETATM    6  C2  UNL     1     -33.604  17.547  -1.000  1.00 20.00     0.005 C 
ENDBRANCH   4   5
BRANCH   4   7
HETATM    7  C9  UNL     1     -33.484  15.798  -3.245  1.00 20.00     0.000 C 
HETATM    8  C3  UNL     1     -32.879  14.445  -3.594  1.00 20.00     0.005 C 
ENDBRANCH   4   7
ENDBRANCH   3   4
ENDBRANCH   1   3
BRANCH   1   9
HETATM    9  C11 UNL     1     -36.327  15.400  -5.729  1.00 20.00     0.009 C 
HETATM   10  C4  UNL     1     -35.730  16.802  -5.894  1.00 20.00     0.022 C 
HETATM   11  C5  UNL     1     -35.376  14.377  -6.376  1.00 20.00     0.022 C 
HETATM   12  C6  UNL     1     -37.687  15.311  -6.433  1.00 20.00     0.022 C 
ENDBRANCH   1   9
TORSDOF 5
ENDMDL
MODEL 2
REMARK VINA RESULT:      -4.2      1.890      2.834
REMARK  5 active torsions:
REMARK  status: ('A' for Active; 'I' for Inactive)
REMARK    1  A    between atoms: C1_1  and  C7_7 
REMARK    2  A    between atoms: C1_1  and  C11_11 
REMARK    3  A    between atoms: C7_7  and  C10_10 
REMARK    4  A    between atoms: C8_8  and  C10_10 
REMARK    5  A    between atoms: C9_9  and  C10_10 
ROOT
HETATM    1  C1  UNL     1     -33.898  15.060  -3.634  1.00 20.00     0.134 C 
HETATM    2  O12 UNL     1     -32.688  14.830  -3.581  1.00 20.00    -0.297 OA
ENDROOT
BRANCH   1   3
HETATM    3  C7  UNL     1     -34.655  15.560  -2.404  1.00 20.00     0.083 C 
BRANCH   3   4
HETATM    4  C10 UNL     1     -33.968  16.749  -1.697  1.00 20.00    -0.008 C 
BRANCH   4   5
HETATM    5  C8  UNL     1     -34.666  17.062  -0.356  1.00 20.00     0.000 C 
HETATM    6  C2  UNL     1     -33.997  18.137   0.491  1.00 20.00     0.005 C 
ENDBRANCH   4   5
BRANCH   4   7
HETATM    7  C9  UNL     1     -33.882  17.962  -2.650  1.00 20.00     0.000 C 
HETATM    8  C3  UNL     1     -35.239  18.522  -3.053  1.00 20.00     0.005 C 
ENDBRANCH   4   7
ENDBRANCH   3   4
ENDBRANCH   1   3
BRANCH   1   9
HETATM    9  C11 UNL     1     -34.699  14.844  -4.935  1.00 20.00     0.009 C 
HETATM   10  C4  UNL     1     -34.666  13.355  -5.299  1.00 20.00     0.022 C 
HETATM   11  C5  UNL     1     -36.162  15.268  -4.713  1.00 20.00     0.022 C 
HETATM   12  C6  UNL     1     -34.117  15.687  -6.076  1.00 20.00     0.022 C 
ENDBRANCH   1   9
TORSDOF 5
ENDMDL
MODEL 3
REMARK VINA RESULT:      -4.2      2.210      2.970
REMARK  5 active torsions:
REMARK  status: ('A' for Active; 'I' for Inactive)
REMARK    1  A    between atoms: C1_1  and  C7_7 
REMARK    2  A    between atoms: C1_1  and  C11_11 
REMARK    3  A    between atoms: C7_7  and  C10_10 
REMARK    4  A    between atoms: C8_8  and  C10_10 
REMARK    5  A    between atoms: C9_9  and  C10_10 
ROOT
HETATM    1  C1  UNL     1     -33.745  17.235  -5.564  1.00 20.00     0.134 C 
HETATM    2  O12 UNL     1     -33.490  18.432  -5.415  1.00 20.00    -0.297 OA
ENDROOT
BRANCH   1   3
HETATM    3  C7  UNL     1     -33.138  16.182  -4.638  1.00 20.00     0.083 C 
BRANCH   3   4
HETATM    4  C10 UNL     1     -34.077  15.753  -3.490  1.00 20.00    -0.008 C 
BRANCH   4   5
HETATM    5  C8  UNL     1     -33.681  16.454  -2.172  1.00 20.00     0.000 C 
HETATM    6  C2  UNL     1     -34.763  16.484  -1.100  1.00 20.00     0.005 C 
ENDBRANCH   4   5
BRANCH   4   7
HETATM    7  C9  UNL     1     -34.125  14.213  -3.384  1.00 20.00     0.000 C 
HETATM    8  C3  UNL     1     -35.304  13.585  -4.115  1.00 20.00     0.005 C 
ENDBRANCH   4   7
ENDBRANCH   3   4
ENDBRANCH   1   3
BRANCH   1   9
HETATM    9  C11 UNL     1     -34.677  16.749  -6.694  1.00 20.00     0.009 C 
HETATM   10  C4  UNL     1     -36.127  16.792  -6.198  1.00 20.00     0.022 C 
HETATM   11  C5  UNL     1     -34.541  17.685  -7.909  1.00 20.00     0.022 C 
HETATM   12  C6  UNL     1     -34.303  15.328  -7.132  1.00 20.00     0.022 C 
ENDBRANCH   1   9
TORSDOF 5
ENDMDL
MODEL 4
REMARK VINA RESULT:      -4.2      1.890      2.566
REMARK  5 active torsions:
REMARK  status: ('A' for Active; 'I' for Inactive)
REMARK    1  A    between atoms: C1_1  and  C7_7 
REMARK    2  A    between atoms: C1_1  and  C11_11 
REMARK    3  A    between atoms: C7_7  and  C10_10 
REMARK    4  A    between atoms: C8_8  and  C10_10 
REMARK    5  A    between atoms: C9_9  and  C10_10 
ROOT
HETATM    1  C1  UNL     1     -33.942  15.098  -3.572  1.00 20.00     0.134 C 
HETATM    2  O12 UNL     1     -32.725  14.909  -3.528  1.00 20.00    -0.297 OA
ENDROOT
BRANCH   1   3
HETATM    3  C7  UNL     1     -34.700  15.618  -2.352  1.00 20.00     0.083 C 
BRANCH   3   4
HETATM    4  C10 UNL     1     -33.993  16.793  -1.641  1.00 20.00    -0.008 C 
BRANCH   4   5
HETATM    5  C8  UNL     1     -34.664  17.090  -0.282  1.00 20.00     0.000 C 
HETATM    6  C2  UNL     1     -33.994  18.175   0.551  1.00 20.00     0.005 C 
ENDBRANCH   4   5
BRANCH   4   7
HETATM    7  C9  UNL     1     -33.920  18.019  -2.578  1.00 20.00     0.000 C 
HETATM    8  C3  UNL     1     -35.282  18.521  -3.038  1.00 20.00     0.005 C 
ENDBRANCH   4   7
ENDBRANCH   3   4
ENDBRANCH   1   3
BRANCH   1   9
HETATM    9  C11 UNL     1     -34.752  14.807  -4.854  1.00 20.00     0.009 C 
HETATM   10  C4  UNL     1     -34.123  15.569  -6.025  1.00 20.00     0.022 C 
HETATM   11  C5  UNL     1     -34.704  13.299  -5.160  1.00 20.00     0.022 C 
HETATM   12  C6  UNL     1     -36.219  15.218  -4.673  1.00 20.00     0.022 C 
ENDBRANCH   1   9
TORSDOF 5
ENDMDL
MODEL 5
REMARK VINA RESULT:      -4.1      1.957      2.992
REMARK  5 active torsions:
REMARK  status: ('A' for Active; 'I' for Inactive)
REMARK    1  A    between atoms: C1_1  and  C7_7 
REMARK    2  A    between atoms: C1_1  and  C11_11 
REMARK    3  A    between atoms: C7_7  and  C10_10 
REMARK    4  A    between atoms: C8_8  and  C10_10 
REMARK    5  A    between atoms: C9_9  and  C10_10 
ROOT
HETATM    1  C1  UNL     1     -34.098  16.772  -5.284  1.00 20.00     0.134 C 
HETATM    2  O12 UNL     1     -32.893  17.017  -5.359  1.00 20.00    -0.297 OA
ENDROOT
BRANCH   1   3
HETATM    3  C7  UNL     1     -34.829  16.837  -3.944  1.00 20.00     0.083 C 
BRANCH   3   4
HETATM    4  C10 UNL     1     -34.263  15.868  -2.883  1.00 20.00    -0.008 C 
BRANCH   4   5
HETATM    5  C8  UNL     1     -34.594  14.405  -3.250  1.00 20.00     0.000 C 
HETATM    6  C2  UNL     1     -33.424  13.586  -3.778  1.00 20.00     0.005 C 
ENDBRANCH   4   5
BRANCH   4   7
HETATM    7  C9  UNL     1     -34.741  16.279  -1.473  1.00 20.00     0.000 C 
HETATM    8  C3  UNL     1     -33.902  17.379  -0.837  1.00 20.00     0.005 C 
ENDBRANCH   4   7
ENDBRANCH   3   4
ENDBRANCH   1   3
BRANCH   1   9
HETATM    9  C11 UNL     1     -34.916  16.379  -6.533  1.00 20.00     0.009 C 
HETATM   10  C4  UNL     1     -34.747  17.466  -7.601  1.00 20.00     0.022 C 
HETATM   11  C5  UNL     1     -34.388  15.046  -7.093  1.00 20.00     0.022 C 
HETATM   12  C6  UNL     1     -36.398  16.204  -6.177  1.00 20.00     0.022 C 
ENDBRANCH   1   9
TORSDOF 5
ENDMDL
MODEL 6
REMARK VINA RESULT:      -4.1      1.959      3.197
REMARK  5 active torsions:
REMARK  status: ('A' for Active; 'I' for Inactive)
REMARK    1  A    between atoms: C1_1  and  C7_7 
REMARK    2  A    between atoms: C1_1  and  C11_11 
REMARK    3  A    between atoms: C7_7  and  C10_10 
REMARK    4  A    between atoms: C8_8  and  C10_10 
REMARK    5  A    between atoms: C9_9  and  C10_10 
ROOT
HETATM    1  C1  UNL     1     -34.111  16.821  -5.271  1.00 20.00     0.134 C 
HETATM    2  O12 UNL     1     -32.917  17.117  -5.350  1.00 20.00    -0.297 OA
ENDROOT
BRANCH   1   3
HETATM    3  C7  UNL     1     -34.841  16.857  -3.929  1.00 20.00     0.083 C 
BRANCH   3   4
HETATM    4  C10 UNL     1     -34.253  15.888  -2.880  1.00 20.00    -0.008 C 
BRANCH   4   5
HETATM    5  C8  UNL     1     -34.581  14.425  -3.246  1.00 20.00     0.000 C 
HETATM    6  C2  UNL     1     -33.409  13.606  -3.771  1.00 20.00     0.005 C 
ENDBRANCH   4   5
BRANCH   4   7
HETATM    7  C9  UNL     1     -34.712  16.292  -1.462  1.00 20.00     0.000 C 
HETATM    8  C3  UNL     1     -33.890  17.418  -0.849  1.00 20.00     0.005 C 
ENDBRANCH   4   7
ENDBRANCH   3   4
ENDBRANCH   1   3
BRANCH   1   9
HETATM    9  C11 UNL     1     -34.914  16.394  -6.518  1.00 20.00     0.009 C 
HETATM   10  C4  UNL     1     -36.391  16.249  -6.135  1.00 20.00     0.022 C 
HETATM   11  C5  UNL     1     -34.788  17.476  -7.606  1.00 20.00     0.022 C 
HETATM   12  C6  UNL     1     -34.375  15.073  -7.083  1.00 20.00     0.022 C 
ENDBRANCH   1   9
TORSDOF 5
ENDMDL
MODEL 7
REMARK VINA RESULT:      -4.0      2.045      3.096
REMARK  5 active torsions:
REMARK  status: ('A' for Active; 'I' for Inactive)
REMARK    1  A    between atoms: C1_1  and  C7_7 
REMARK    2  A    between atoms: C1_1  and  C11_11 
REMARK    3  A    between atoms: C7_7  and  C10_10 
REMARK    4  A    between atoms: C8_8  and  C10_10 
REMARK    5  A    between atoms: C9_9  and  C10_10 
ROOT
HETATM    1  C1  UNL     1     -33.624  15.758  -4.493  1.00 20.00     0.134 C 
HETATM    2  O12 UNL     1     -32.831  16.466  -5.118  1.00 20.00    -0.297 OA
ENDROOT
BRANCH   1   3
HETATM    3  C7  UNL     1     -33.619  15.736  -2.965  1.00 20.00     0.083 C 
BRANCH   3   4
HETATM    4  C10 UNL     1     -34.545  16.795  -2.329  1.00 20.00    -0.008 C 
BRANCH   4   5
HETATM    5  C8  UNL     1     -34.121  18.217  -2.759  1.00 20.00     0.000 C 
HETATM    6  C2  UNL     1     -35.183  19.015  -3.503  1.00 20.00     0.005 C 
ENDBRANCH   4   5
BRANCH   4   7
HETATM    7  C9  UNL     1     -34.606  16.603  -0.798  1.00 20.00     0.000 C 
HETATM    8  C3  UNL     1     -34.071  17.790  -0.008  1.00 20.00     0.005 C 
ENDBRANCH   4   7
ENDBRANCH   3   4
ENDBRANCH   1   3
BRANCH   1   9
HETATM    9  C11 UNL     1     -34.644  14.860  -5.224  1.00 20.00     0.009 C 
HETATM   10  C4  UNL     1     -36.057  15.395  -4.963  1.00 20.00     0.022 C 
HETATM   11  C5  UNL     1     -34.371  14.900  -6.738  1.00 20.00     0.022 C 
HETATM   12  C6  UNL     1     -34.526  13.406  -4.748  1.00 20.00     0.022 C 
ENDBRANCH   1   9
TORSDOF 5
ENDMDL
MODEL 8
REMARK VINA RESULT:      -4.0      1.901      3.235
REMARK  5 active torsions:
REMARK  status: ('A' for Active; 'I' for Inactive)
REMARK    1  A    between atoms: C1_1  and  C7_7 
REMARK    2  A    between atoms: C1_1  and  C11_11 
REMARK    3  A    between atoms: C7_7  and  C10_10 
REMARK    4  A    between atoms: C8_8  and  C10_10 
REMARK    5  A    between atoms: C9_9  and  C10_10 
ROOT
HETATM    1  C1  UNL     1     -33.781  15.736  -3.414  1.00 20.00     0.134 C 
HETATM    2  O12 UNL     1     -32.658  15.233  -3.338  1.00 20.00    -0.297 OA
ENDROOT
BRANCH   1   3
HETATM    3  C7  UNL     1     -34.050  17.139  -2.872  1.00 20.00     0.083 C 
BRANCH   3   4
HETATM    4  C10 UNL     1     -33.613  17.328  -1.403  1.00 20.00    -0.008 C 
BRANCH   4   5
HETATM    5  C8  UNL     1     -34.688  16.778  -0.440  1.00 20.00     0.000 C 
HETATM    6  C2  UNL     1     -35.515  17.833   0.283  1.00 20.00     0.005 C 
ENDBRANCH   4   5
BRANCH   4   7
HETATM    7  C9  UNL     1     -33.242  18.804  -1.140  1.00 20.00     0.000 C 
HETATM    8  C3  UNL     1     -32.195  18.988  -0.050  1.00 20.00     0.005 C 
ENDBRANCH   4   7
ENDBRANCH   3   4
ENDBRANCH   1   3
BRANCH   1   9
HETATM    9  C11 UNL     1     -34.961  14.969  -4.047  1.00 20.00     0.009 C 
HETATM   10  C4  UNL     1     -36.248  15.322  -3.292  1.00 20.00     0.022 C 
HETATM   11  C5  UNL     1     -35.117  15.391  -5.519  1.00 20.00     0.022 C 
HETATM   12  C6  UNL     1     -34.711  13.456  -4.000  1.00 20.00     0.022 C 
ENDBRANCH   1   9
TORSDOF 5
ENDMDL
MODEL 9
REMARK VINA RESULT:      -4.0      1.732      3.170
REMARK  5 active torsions:
REMARK  status: ('A' for Active; 'I' for Inactive)
REMARK    1  A    between atoms: C1_1  and  C7_7 
REMARK    2  A    between atoms: C1_1  and  C11_11 
REMARK    3  A    between atoms: C7_7  and  C10_10 
REMARK    4  A    between atoms: C8_8  and  C10_10 
REMARK    5  A    between atoms: C9_9  and  C10_10 
ROOT
HETATM    1  C1  UNL     1     -35.184  15.427  -3.164  1.00 20.00     0.134 C 
HETATM    2  O12 UNL     1     -36.383  15.621  -3.376  1.00 20.00    -0.297 OA
ENDROOT
BRANCH   1   3
HETATM    3  C7  UNL     1     -34.529  15.904  -1.869  1.00 20.00     0.083 C 
BRANCH   3   4
HETATM    4  C10 UNL     1     -34.568  17.437  -1.685  1.00 20.00    -0.008 C 
BRANCH   4   5
HETATM    5  C8  UNL     1     -33.776  18.140  -2.809  1.00 20.00     0.000 C 
HETATM    6  C2  UNL     1     -34.603  19.024  -3.732  1.00 20.00     0.005 C 
ENDBRANCH   4   5
BRANCH   4   7
HETATM    7  C9  UNL     1     -34.100  17.818  -0.264  1.00 20.00     0.000 C 
HETATM    8  C3  UNL     1     -35.105  17.472   0.826  1.00 20.00     0.005 C 
ENDBRANCH   4   7
ENDBRANCH   3   4
ENDBRANCH   1   3
BRANCH   1   9
HETATM    9  C11 UNL     1     -34.294  14.707  -4.200  1.00 20.00     0.009 C 
HETATM   10  C4  UNL     1     -32.876  14.574  -3.632  1.00 20.00     0.022 C 
HETATM   11  C5  UNL     1     -34.855  13.299  -4.468  1.00 20.00     0.022 C 
HETATM   12  C6  UNL     1     -34.270  15.480  -5.524  1.00 20.00     0.022 C 
ENDBRANCH   1   9
TORSDOF 5
ENDMDL
