MODEL 1
REMARK VINA RESULT:      -4.6      0.000      0.000
REMARK  4 active torsions:
REMARK  status: ('A' for Active; 'I' for Inactive)
REMARK    1  A    between atoms: C2_2  and  C6_6 
REMARK    2  A    between atoms: C2_2  and  C7_7 
REMARK    3  A    between atoms: C7_7  and  C8_8 
REMARK    4  A    between atoms: C8_8  and  C9_9 
ROOT
HETATM    1  C7  UNL     1     -33.791   6.979   3.898  1.00 20.00     0.039 C 
ENDROOT
BRANCH   1   2
HETATM    2  C2  UNL     1     -32.486   6.771   3.153  1.00 20.00    -0.089 C 
HETATM    3  C1  UNL     1     -32.058   5.534   2.851  1.00 20.00     0.014 C 
BRANCH   2   4
HETATM    4  C6  UNL     1     -31.681   7.987   2.751  1.00 20.00     0.029 C 
HETATM    5  C3  UNL     1     -32.063   8.531   1.381  1.00 20.00     0.010 C 
ENDBRANCH   2   4
ENDBRANCH   1   2
BRANCH   1   6
HETATM    6  C8  UNL     1     -34.596   5.686   4.177  1.00 20.00     0.003 C 
HETATM    7  C4  UNL     1     -35.923   5.678   3.403  1.00 20.00     0.011 C 
BRANCH   6   8
HETATM    8  C9  UNL     1     -34.838   5.419   5.686  1.00 20.00     0.082 C 
HETATM    9  C5  UNL     1     -34.455   4.006   6.117  1.00 20.00     0.027 C 
HETATM   10 CL10 UNL     1     -33.993   6.595   6.740  1.00 20.00    -0.125 Cl
ENDBRANCH   6   8
ENDBRANCH   1   6
TORSDOF 4
ENDMDL
MODEL 2
REMARK VINA RESULT:      -4.4      1.816      4.449
REMARK  4 active torsions:
REMARK  status: ('A' for Active; 'I' for Inactive)
REMARK    1  A    between atoms: C2_2  and  C6_6 
REMARK    2  A    between atoms: C2_2  and  C7_7 
REMARK    3  A    between atoms: C7_7  and  C8_8 
REMARK    4  A    between atoms: C8_8  and  C9_9 
ROOT
HETATM    1  C7  UNL     1     -33.055   5.765   4.803  1.00 20.00     0.039 C 
ENDROOT
BRANCH   1   2
HETATM    2  C2  UNL     1     -33.955   6.108   5.975  1.00 20.00    -0.089 C 
HETATM    3  C1  UNL     1     -33.757   7.231   6.686  1.00 20.00     0.014 C 
BRANCH   2   4
HETATM    4  C6  UNL     1     -35.084   5.163   6.321  1.00 20.00     0.029 C 
HETATM    5  C3  UNL     1     -35.028   3.855   5.543  1.00 20.00     0.010 C 
ENDBRANCH   2   4
ENDBRANCH   1   2
BRANCH   1   6
HETATM    6  C8  UNL     1     -33.356   6.545   3.499  1.00 20.00     0.003 C 
HETATM    7  C4  UNL     1     -34.052   5.651   2.462  1.00 20.00     0.011 C 
BRANCH   6   8
HETATM    8  C9  UNL     1     -32.107   7.230   2.884  1.00 20.00     0.082 C 
HETATM    9  C5  UNL     1     -32.452   8.378   1.939  1.00 20.00     0.027 C 
HETATM   10 CL10 UNL     1     -30.964   7.828   4.128  1.00 20.00    -0.125 Cl
ENDBRANCH   6   8
ENDBRANCH   1   6
TORSDOF 4
ENDMDL
MODEL 3
REMARK VINA RESULT:      -4.4      1.678      2.232
REMARK  4 active torsions:
REMARK  status: ('A' for Active; 'I' for Inactive)
REMARK    1  A    between atoms: C2_2  and  C6_6 
REMARK    2  A    between atoms: C2_2  and  C7_7 
REMARK    3  A    between atoms: C7_7  and  C8_8 
REMARK    4  A    between atoms: C8_8  and  C9_9 
ROOT
HETATM    1  C7  UNL     1     -32.599   6.180   3.421  1.00 20.00     0.039 C 
ENDROOT
BRANCH   1   2
HETATM    2  C2  UNL     1     -31.881   7.477   3.099  1.00 20.00    -0.089 C 
HETATM    3  C1  UNL     1     -31.109   8.081   4.018  1.00 20.00     0.014 C 
BRANCH   2   4
HETATM    4  C6  UNL     1     -32.048   8.072   1.719  1.00 20.00     0.029 C 
HETATM    5  C3  UNL     1     -32.467   9.536   1.746  1.00 20.00     0.010 C 
ENDBRANCH   2   4
ENDBRANCH   1   2
BRANCH   1   6
HETATM    6  C8  UNL     1     -33.940   6.347   4.178  1.00 20.00     0.003 C 
HETATM    7  C4  UNL     1     -33.713   6.476   5.692  1.00 20.00     0.011 C 
BRANCH   6   8
HETATM    8  C9  UNL     1     -34.969   5.228   3.870  1.00 20.00     0.082 C 
HETATM    9  C5  UNL     1     -35.191   4.275   5.041  1.00 20.00     0.027 C 
HETATM   10 CL10 UNL     1     -36.554   5.874   3.341  1.00 20.00    -0.125 Cl
ENDBRANCH   6   8
ENDBRANCH   1   6
TORSDOF 4
ENDMDL
MODEL 4
REMARK VINA RESULT:      -4.2     11.295     12.603
REMARK  4 active torsions:
REMARK  status: ('A' for Active; 'I' for Inactive)
REMARK    1  A    between atoms: C2_2  and  C6_6 
REMARK    2  A    between atoms: C2_2  and  C7_7 
REMARK    3  A    between atoms: C7_7  and  C8_8 
REMARK    4  A    between atoms: C8_8  and  C9_9 
ROOT
HETATM    1  C7  UNL     1     -34.955  15.034  -3.015  1.00 20.00     0.039 C 
ENDROOT
BRANCH   1   2
HETATM    2  C2  UNL     1     -34.134  14.026  -3.797  1.00 20.00    -0.089 C 
HETATM    3  C1  UNL     1     -32.854  13.782  -3.471  1.00 20.00     0.014 C 
BRANCH   2   4
HETATM    4  C6  UNL     1     -34.791  13.296  -4.947  1.00 20.00     0.029 C 
HETATM    5  C3  UNL     1     -35.133  14.209  -6.118  1.00 20.00     0.010 C 
ENDBRANCH   2   4
ENDBRANCH   1   2
BRANCH   1   6
HETATM    6  C8  UNL     1     -34.150  16.228  -2.445  1.00 20.00     0.003 C 
HETATM    7  C4  UNL     1     -34.587  16.560  -1.009  1.00 20.00     0.011 C 
BRANCH   6   8
HETATM    8  C9  UNL     1     -34.200  17.494  -3.340  1.00 20.00     0.082 C 
HETATM    9  C5  UNL     1     -33.645  18.739  -2.654  1.00 20.00     0.027 C 
HETATM   10 CL10 UNL     1     -33.354  17.268  -4.903  1.00 20.00    -0.125 Cl
ENDBRANCH   6   8
ENDBRANCH   1   6
TORSDOF 4
ENDMDL
MODEL 5
REMARK VINA RESULT:      -4.1     11.114     12.053
REMARK  4 active torsions:
REMARK  status: ('A' for Active; 'I' for Inactive)
REMARK    1  A    between atoms: C2_2  and  C6_6 
REMARK    2  A    between atoms: C2_2  and  C7_7 
REMARK    3  A    between atoms: C7_7  and  C8_8 
REMARK    4  A    between atoms: C8_8  and  C9_9 
ROOT
HETATM    1  C7  UNL     1     -34.868  15.851  -1.887  1.00 20.00     0.039 C 
ENDROOT
BRANCH   1   2
HETATM    2  C2  UNL     1     -34.107  17.164  -1.871  1.00 20.00    -0.089 C 
HETATM    3  C1  UNL     1     -33.758  17.768  -3.019  1.00 20.00     0.014 C 
BRANCH   2   4
HETATM    4  C6  UNL     1     -33.757  17.780  -0.535  1.00 20.00     0.029 C 
HETATM    5  C3  UNL     1     -34.810  17.525   0.536  1.00 20.00     0.010 C 
ENDBRANCH   2   4
ENDBRANCH   1   2
BRANCH   1   6
HETATM    6  C8  UNL     1     -35.077  15.235  -3.292  1.00 20.00     0.003 C 
HETATM    7  C4  UNL     1     -36.558  14.915  -3.546  1.00 20.00     0.011 C 
BRANCH   6   8
HETATM    8  C9  UNL     1     -34.192  13.990  -3.563  1.00 20.00     0.082 C 
HETATM    9  C5  UNL     1     -34.546  13.269  -4.860  1.00 20.00     0.027 C 
HETATM   10 CL10 UNL     1     -32.442  14.376  -3.573  1.00 20.00    -0.125 Cl
ENDBRANCH   6   8
ENDBRANCH   1   6
TORSDOF 4
ENDMDL
MODEL 6
REMARK VINA RESULT:      -4.0     11.306     12.320
REMARK  4 active torsions:
REMARK  status: ('A' for Active; 'I' for Inactive)
REMARK    1  A    between atoms: C2_2  and  C6_6 
REMARK    2  A    between atoms: C2_2  and  C7_7 
REMARK    3  A    between atoms: C7_7  and  C8_8 
REMARK    4  A    between atoms: C8_8  and  C9_9 
ROOT
HETATM    1  C7  UNL     1     -33.851  16.887  -2.978  1.00 20.00     0.039 C 
ENDROOT
BRANCH   1   2
HETATM    2  C2  UNL     1     -33.964  17.423  -1.563  1.00 20.00    -0.089 C 
HETATM    3  C1  UNL     1     -34.625  16.733  -0.619  1.00 20.00     0.014 C 
BRANCH   2   4
HETATM    4  C6  UNL     1     -33.311  18.748  -1.238  1.00 20.00     0.029 C 
HETATM    5  C3  UNL     1     -32.452  18.699   0.018  1.00 20.00     0.010 C 
ENDBRANCH   2   4
ENDBRANCH   1   2
BRANCH   1   6
HETATM    6  C8  UNL     1     -33.934  15.345  -3.100  1.00 20.00     0.003 C 
HETATM    7  C4  UNL     1     -32.601  14.751  -3.581  1.00 20.00     0.011 C 
BRANCH   6   8
HETATM    8  C9  UNL     1     -35.107  14.855  -3.990  1.00 20.00     0.082 C 
HETATM    9  C5  UNL     1     -35.049  13.361  -4.294  1.00 20.00     0.027 C 
HETATM   10 CL10 UNL     1     -36.711  15.243  -3.293  1.00 20.00    -0.125 Cl
ENDBRANCH   6   8
ENDBRANCH   1   6
TORSDOF 4
ENDMDL
MODEL 7
REMARK VINA RESULT:      -4.0      2.224      4.281
REMARK  4 active torsions:
REMARK  status: ('A' for Active; 'I' for Inactive)
REMARK    1  A    between atoms: C2_2  and  C6_6 
REMARK    2  A    between atoms: C2_2  and  C7_7 
REMARK    3  A    between atoms: C7_7  and  C8_8 
REMARK    4  A    between atoms: C8_8  and  C9_9 
ROOT
HETATM    1  C7  UNL     1     -34.439   6.589   3.895  1.00 20.00     0.039 C 
ENDROOT
BRANCH   1   2
HETATM    2  C2  UNL     1     -34.568   5.431   4.866  1.00 20.00    -0.089 C 
HETATM    3  C1  UNL     1     -35.086   4.257   4.469  1.00 20.00     0.014 C 
BRANCH   2   4
HETATM    4  C6  UNL     1     -34.094   5.626   6.289  1.00 20.00     0.029 C 
HETATM    5  C3  UNL     1     -33.702   7.065   6.598  1.00 20.00     0.010 C 
ENDBRANCH   2   4
ENDBRANCH   1   2
BRANCH   1   6
HETATM    6  C8  UNL     1     -33.192   6.535   2.977  1.00 20.00     0.003 C 
HETATM    7  C4  UNL     1     -32.291   5.342   3.330  1.00 20.00     0.011 C 
BRANCH   6   8
HETATM    8  C9  UNL     1     -32.376   7.854   2.960  1.00 20.00     0.082 C 
HETATM    9  C5  UNL     1     -31.171   7.829   3.896  1.00 20.00     0.027 C 
HETATM   10 CL10 UNL     1     -31.823   8.304   1.316  1.00 20.00    -0.125 Cl
ENDBRANCH   6   8
ENDBRANCH   1   6
TORSDOF 4
ENDMDL
MODEL 8
REMARK VINA RESULT:      -4.0     11.840     12.999
REMARK  4 active torsions:
REMARK  status: ('A' for Active; 'I' for Inactive)
REMARK    1  A    between atoms: C2_2  and  C6_6 
REMARK    2  A    between atoms: C2_2  and  C7_7 
REMARK    3  A    between atoms: C7_7  and  C8_8 
REMARK    4  A    between atoms: C8_8  and  C9_9 
ROOT
HETATM    1  C7  UNL     1     -33.205  15.461  -3.409  1.00 20.00     0.039 C 
ENDROOT
BRANCH   1   2
HETATM    2  C2  UNL     1     -34.245  16.072  -2.489  1.00 20.00    -0.089 C 
HETATM    3  C1  UNL     1     -35.541  15.732  -2.596  1.00 20.00     0.014 C 
BRANCH   2   4
HETATM    4  C6  UNL     1     -33.791  17.066  -1.444  1.00 20.00     0.029 C 
HETATM    5  C3  UNL     1     -34.698  17.104  -0.221  1.00 20.00     0.010 C 
ENDBRANCH   2   4
ENDBRANCH   1   2
BRANCH   1   6
HETATM    6  C8  UNL     1     -33.347  15.848  -4.902  1.00 20.00     0.003 C 
HETATM    7  C4  UNL     1     -33.537  17.363  -5.069  1.00 20.00     0.011 C 
BRANCH   6   8
HETATM    8  C9  UNL     1     -34.467  15.069  -5.641  1.00 20.00     0.082 C 
HETATM    9  C5  UNL     1     -34.332  15.118  -7.160  1.00 20.00     0.027 C 
HETATM   10 CL10 UNL     1     -34.575  13.357  -5.124  1.00 20.00    -0.125 Cl
ENDBRANCH   6   8
ENDBRANCH   1   6
TORSDOF 4
ENDMDL
MODEL 9
REMARK VINA RESULT:      -4.0     11.332     12.504
REMARK  4 active torsions:
REMARK  status: ('A' for Active; 'I' for Inactive)
REMARK    1  A    between atoms: C2_2  and  C6_6 
REMARK    2  A    between atoms: C2_2  and  C7_7 
REMARK    3  A    between atoms: C7_7  and  C8_8 
REMARK    4  A    between atoms: C8_8  and  C9_9 
ROOT
HETATM    1  C7  UNL     1     -33.675  16.172  -3.393  1.00 20.00     0.039 C 
ENDROOT
BRANCH   1   2
HETATM    2  C2  UNL     1     -33.995  17.054  -2.201  1.00 20.00    -0.089 C 
HETATM    3  C1  UNL     1     -33.670  18.358  -2.204  1.00 20.00     0.014 C 
BRANCH   2   4
HETATM    4  C6  UNL     1     -34.693  16.435  -1.010  1.00 20.00     0.029 C 
HETATM    5  C3  UNL     1     -34.777  17.372   0.187  1.00 20.00     0.010 C 
ENDBRANCH   2   4
ENDBRANCH   1   2
BRANCH   1   6
HETATM    6  C8  UNL     1     -34.401  14.804  -3.406  1.00 20.00     0.003 C 
HETATM    7  C4  UNL     1     -33.429  13.660  -3.732  1.00 20.00     0.011 C 
BRANCH   6   8
HETATM    8  C9  UNL     1     -35.633  14.765  -4.348  1.00 20.00     0.082 C 
HETATM    9  C5  UNL     1     -36.959  14.942  -3.614  1.00 20.00     0.027 C 
HETATM   10 CL10 UNL     1     -35.534  15.974  -5.666  1.00 20.00    -0.125 Cl
ENDBRANCH   6   8
ENDBRANCH   1   6
TORSDOF 4
ENDMDL
