MODEL 1
REMARK VINA RESULT:      -4.1      0.000      0.000
REMARK  4 active torsions:
REMARK  status: ('A' for Active; 'I' for Inactive)
REMARK    1  A    between atoms: C5_5  and  C6_6 
REMARK    2  A    between atoms: C6_6  and  C9_9 
REMARK    3  A    between atoms: C7_7  and  C9_9 
REMARK    4  A    between atoms: C8_8  and  C9_9 
ROOT
HETATM    1  C4  UNL     1     -32.558  14.528  -3.554  1.00 20.00     0.016 C 
HETATM    2  C9  UNL     1     -33.717  15.553  -3.729  1.00 20.00    -0.029 C 
ENDROOT
BRANCH   2   3
HETATM    3  C6  UNL     1     -33.668  16.456  -2.449  1.00 20.00     0.010 C 
BRANCH   3   4
HETATM    4  C5  UNL     1     -34.783  16.290  -1.414  1.00 20.00    -0.004 C 
HETATM    5  C1  UNL     1     -34.570  17.219  -0.225  1.00 20.00     0.005 C 
ENDBRANCH   3   4
ENDBRANCH   2   3
BRANCH   2   6
HETATM    6  C7  UNL     1     -33.353  16.377  -5.002  1.00 20.00     0.124 C 
HETATM    7 CL10 UNL     1     -33.486  18.146  -4.849  1.00 20.00    -0.130 Cl
ENDBRANCH   2   6
BRANCH   2   8
HETATM    8  C8  UNL     1     -35.096  14.801  -3.882  1.00 20.00    -0.014 C 
HETATM    9  C2  UNL     1     -34.956  13.316  -4.258  1.00 20.00     0.010 C 
HETATM   10  C3  UNL     1     -36.060  15.456  -4.882  1.00 20.00     0.010 C 
ENDBRANCH   2   8
TORSDOF 4
ENDMDL
MODEL 2
REMARK VINA RESULT:      -4.0      1.884      3.614
REMARK  4 active torsions:
REMARK  status: ('A' for Active; 'I' for Inactive)
REMARK    1  A    between atoms: C5_5  and  C6_6 
REMARK    2  A    between atoms: C6_6  and  C9_9 
REMARK    3  A    between atoms: C7_7  and  C9_9 
REMARK    4  A    between atoms: C8_8  and  C9_9 
ROOT
HETATM    1  C4  UNL     1     -35.730  16.817  -4.052  1.00 20.00     0.016 C 
HETATM    2  C9  UNL     1     -34.390  16.102  -3.712  1.00 20.00    -0.029 C 
ENDROOT
BRANCH   2   3
HETATM    3  C6  UNL     1     -33.472  16.328  -4.961  1.00 20.00     0.010 C 
BRANCH   3   4
HETATM    4  C5  UNL     1     -34.149  16.577  -6.311  1.00 20.00    -0.004 C 
HETATM    5  C1  UNL     1     -34.267  15.285  -7.112  1.00 20.00     0.005 C 
ENDBRANCH   3   4
ENDBRANCH   2   3
BRANCH   2   6
HETATM    6  C7  UNL     1     -33.825  16.852  -2.466  1.00 20.00     0.124 C 
HETATM    7 CL10 UNL     1     -34.603  16.471  -0.910  1.00 20.00    -0.130 Cl
ENDBRANCH   2   6
BRANCH   2   8
HETATM    8  C8  UNL     1     -34.644  14.572  -3.420  1.00 20.00    -0.014 C 
HETATM    9  C2  UNL     1     -33.466  13.662  -3.806  1.00 20.00     0.010 C 
HETATM   10  C3  UNL     1     -35.914  14.010  -4.076  1.00 20.00     0.010 C 
ENDBRANCH   2   8
TORSDOF 4
ENDMDL
MODEL 3
REMARK VINA RESULT:      -4.0      1.887      2.879
REMARK  4 active torsions:
REMARK  status: ('A' for Active; 'I' for Inactive)
REMARK    1  A    between atoms: C5_5  and  C6_6 
REMARK    2  A    between atoms: C6_6  and  C9_9 
REMARK    3  A    between atoms: C7_7  and  C9_9 
REMARK    4  A    between atoms: C8_8  and  C9_9 
ROOT
HETATM    1  C4  UNL     1     -35.591  15.645  -3.899  1.00 20.00     0.016 C 
HETATM    2  C9  UNL     1     -34.036  15.645  -3.829  1.00 20.00    -0.029 C 
ENDROOT
BRANCH   2   3
HETATM    3  C6  UNL     1     -33.684  16.299  -2.449  1.00 20.00     0.010 C 
BRANCH   3   4
HETATM    4  C5  UNL     1     -34.773  16.330  -1.374  1.00 20.00    -0.004 C 
HETATM    5  C1  UNL     1     -34.426  17.325  -0.272  1.00 20.00     0.005 C 
ENDBRANCH   3   4
ENDBRANCH   2   3
BRANCH   2   6
HETATM    6  C7  UNL     1     -33.620  14.142  -3.852  1.00 20.00     0.124 C 
HETATM    7 CL10 UNL     1     -34.780  13.025  -4.612  1.00 20.00    -0.130 Cl
ENDBRANCH   2   6
BRANCH   2   8
HETATM    8  C8  UNL     1     -33.432  16.447  -5.047  1.00 20.00    -0.014 C 
HETATM    9  C2  UNL     1     -33.542  17.974  -4.901  1.00 20.00     0.010 C 
HETATM   10  C3  UNL     1     -34.022  16.055  -6.410  1.00 20.00     0.010 C 
ENDBRANCH   2   8
TORSDOF 4
ENDMDL
MODEL 4
REMARK VINA RESULT:      -4.0      1.769      2.356
REMARK  4 active torsions:
REMARK  status: ('A' for Active; 'I' for Inactive)
REMARK    1  A    between atoms: C5_5  and  C6_6 
REMARK    2  A    between atoms: C6_6  and  C9_9 
REMARK    3  A    between atoms: C7_7  and  C9_9 
REMARK    4  A    between atoms: C8_8  and  C9_9 
ROOT
HETATM    1  C4  UNL     1     -33.324  16.736  -5.060  1.00 20.00     0.016 C 
HETATM    2  C9  UNL     1     -34.398  15.738  -4.538  1.00 20.00    -0.029 C 
ENDROOT
BRANCH   2   3
HETATM    3  C6  UNL     1     -34.027  15.475  -3.039  1.00 20.00     0.010 C 
BRANCH   3   4
HETATM    4  C5  UNL     1     -33.801  16.690  -2.135  1.00 20.00    -0.004 C 
HETATM    5  C1  UNL     1     -34.651  16.599  -0.873  1.00 20.00     0.005 C 
ENDBRANCH   3   4
ENDBRANCH   2   3
BRANCH   2   6
HETATM    6  C7  UNL     1     -35.757  16.498  -4.648  1.00 20.00     0.124 C 
HETATM    7 CL10 UNL     1     -37.088  15.857  -3.654  1.00 20.00    -0.130 Cl
ENDBRANCH   2   6
BRANCH   2   8
HETATM    8  C8  UNL     1     -34.385  14.417  -5.402  1.00 20.00    -0.014 C 
HETATM    9  C2  UNL     1     -35.200  14.517  -6.702  1.00 20.00     0.010 C 
HETATM   10  C3  UNL     1     -34.853  13.166  -4.642  1.00 20.00     0.010 C 
ENDBRANCH   2   8
TORSDOF 4
ENDMDL
MODEL 5
REMARK VINA RESULT:      -3.9      1.309      3.706
REMARK  4 active torsions:
REMARK  status: ('A' for Active; 'I' for Inactive)
REMARK    1  A    between atoms: C5_5  and  C6_6 
REMARK    2  A    between atoms: C6_6  and  C9_9 
REMARK    3  A    between atoms: C7_7  and  C9_9 
REMARK    4  A    between atoms: C8_8  and  C9_9 
ROOT
HETATM    1  C4  UNL     1     -35.775  16.095  -2.772  1.00 20.00     0.016 C 
HETATM    2  C9  UNL     1     -34.278  16.502  -2.889  1.00 20.00    -0.029 C 
ENDROOT
BRANCH   2   3
HETATM    3  C6  UNL     1     -33.524  15.196  -3.315  1.00 20.00     0.010 C 
BRANCH   3   4
HETATM    4  C5  UNL     1     -34.347  13.914  -3.468  1.00 20.00    -0.004 C 
HETATM    5  C1  UNL     1     -34.364  13.444  -4.918  1.00 20.00     0.005 C 
ENDBRANCH   3   4
ENDBRANCH   2   3
BRANCH   2   6
HETATM    6  C7  UNL     1     -34.225  17.568  -4.027  1.00 20.00     0.124 C 
HETATM    7 CL10 UNL     1     -33.395  17.070  -5.522  1.00 20.00    -0.130 Cl
ENDBRANCH   2   6
BRANCH   2   8
HETATM    8  C8  UNL     1     -33.756  17.076  -1.514  1.00 20.00    -0.014 C 
HETATM    9  C2  UNL     1     -34.737  16.879  -0.347  1.00 20.00     0.010 C 
HETATM   10  C3  UNL     1     -33.366  18.562  -1.562  1.00 20.00     0.010 C 
ENDBRANCH   2   8
TORSDOF 4
ENDMDL
MODEL 6
REMARK VINA RESULT:      -3.8      1.967      3.886
REMARK  4 active torsions:
REMARK  status: ('A' for Active; 'I' for Inactive)
REMARK    1  A    between atoms: C5_5  and  C6_6 
REMARK    2  A    between atoms: C6_6  and  C9_9 
REMARK    3  A    between atoms: C7_7  and  C9_9 
REMARK    4  A    between atoms: C8_8  and  C9_9 
ROOT
HETATM    1  C4  UNL     1     -32.654  14.527  -3.531  1.00 20.00     0.016 C 
HETATM    2  C9  UNL     1     -33.677  15.684  -3.726  1.00 20.00    -0.029 C 
ENDROOT
BRANCH   2   3
HETATM    3  C6  UNL     1     -33.257  16.388  -5.061  1.00 20.00     0.010 C 
BRANCH   3   4
HETATM    4  C5  UNL     1     -34.137  16.169  -6.294  1.00 20.00    -0.004 C 
HETATM    5  C1  UNL     1     -34.478  17.493  -6.967  1.00 20.00     0.005 C 
ENDBRANCH   3   4
ENDBRANCH   2   3
BRANCH   2   6
HETATM    6  C7  UNL     1     -35.065  14.987  -3.880  1.00 20.00     0.124 C 
HETATM    7 CL10 UNL     1     -35.025  13.242  -4.231  1.00 20.00    -0.130 Cl
ENDBRANCH   2   6
BRANCH   2   8
HETATM    8  C8  UNL     1     -33.639  16.664  -2.490  1.00 20.00    -0.014 C 
HETATM    9  C2  UNL     1     -34.669  16.329  -1.399  1.00 20.00     0.010 C 
HETATM   10  C3  UNL     1     -33.803  18.147  -2.860  1.00 20.00     0.010 C 
ENDBRANCH   2   8
TORSDOF 4
ENDMDL
MODEL 7
REMARK VINA RESULT:      -3.8      2.215      2.933
REMARK  4 active torsions:
REMARK  status: ('A' for Active; 'I' for Inactive)
REMARK    1  A    between atoms: C5_5  and  C6_6 
REMARK    2  A    between atoms: C6_6  and  C9_9 
REMARK    3  A    between atoms: C7_7  and  C9_9 
REMARK    4  A    between atoms: C8_8  and  C9_9 
ROOT
HETATM    1  C4  UNL     1     -34.925  17.155  -4.726  1.00 20.00     0.016 C 
HETATM    2  C9  UNL     1     -35.351  15.679  -4.474  1.00 20.00    -0.029 C 
ENDROOT
BRANCH   2   3
HETATM    3  C6  UNL     1     -35.247  15.477  -2.924  1.00 20.00     0.010 C 
BRANCH   3   4
HETATM    4  C5  UNL     1     -34.129  16.212  -2.180  1.00 20.00    -0.004 C 
HETATM    5  C1  UNL     1     -34.596  16.673  -0.804  1.00 20.00     0.005 C 
ENDBRANCH   3   4
ENDBRANCH   2   3
BRANCH   2   6
HETATM    6  C7  UNL     1     -36.834  15.589  -4.947  1.00 20.00     0.124 C 
HETATM    7 CL10 UNL     1     -37.944  14.712  -3.865  1.00 20.00    -0.130 Cl
ENDBRANCH   2   6
BRANCH   2   8
HETATM    8  C8  UNL     1     -34.412  14.693  -5.273  1.00 20.00    -0.014 C 
HETATM    9  C2  UNL     1     -34.691  14.659  -6.785  1.00 20.00     0.010 C 
HETATM   10  C3  UNL     1     -34.433  13.248  -4.753  1.00 20.00     0.010 C 
ENDBRANCH   2   8
TORSDOF 4
ENDMDL
MODEL 8
REMARK VINA RESULT:      -3.7      1.278      1.867
REMARK  4 active torsions:
REMARK  status: ('A' for Active; 'I' for Inactive)
REMARK    1  A    between atoms: C5_5  and  C6_6 
REMARK    2  A    between atoms: C6_6  and  C9_9 
REMARK    3  A    between atoms: C7_7  and  C9_9 
REMARK    4  A    between atoms: C8_8  and  C9_9 
ROOT
HETATM    1  C4  UNL     1     -35.280  13.585  -4.187  1.00 20.00     0.016 C 
HETATM    2  C9  UNL     1     -35.183  15.126  -3.996  1.00 20.00    -0.029 C 
ENDROOT
BRANCH   2   3
HETATM    3  C6  UNL     1     -34.216  15.333  -2.780  1.00 20.00     0.010 C 
BRANCH   3   4
HETATM    4  C5  UNL     1     -34.704  16.204  -1.619  1.00 20.00    -0.004 C 
HETATM    5  C1  UNL     1     -33.717  17.327  -1.323  1.00 20.00     0.005 C 
ENDBRANCH   3   4
ENDBRANCH   2   3
BRANCH   2   6
HETATM    6  C7  UNL     1     -34.542  15.667  -5.311  1.00 20.00     0.124 C 
HETATM    7 CL10 UNL     1     -33.284  16.911  -5.110  1.00 20.00    -0.130 Cl
ENDBRANCH   2   6
BRANCH   2   8
HETATM    8  C8  UNL     1     -36.615  15.738  -3.737  1.00 20.00    -0.014 C 
HETATM    9  C2  UNL     1     -37.765  14.744  -3.966  1.00 20.00     0.010 C 
HETATM   10  C3  UNL     1     -36.912  17.006  -4.553  1.00 20.00     0.010 C 
ENDBRANCH   2   8
TORSDOF 4
ENDMDL
MODEL 9
REMARK VINA RESULT:      -3.7      2.193      3.125
REMARK  4 active torsions:
REMARK  status: ('A' for Active; 'I' for Inactive)
REMARK    1  A    between atoms: C5_5  and  C6_6 
REMARK    2  A    between atoms: C6_6  and  C9_9 
REMARK    3  A    between atoms: C7_7  and  C9_9 
REMARK    4  A    between atoms: C8_8  and  C9_9 
ROOT
HETATM    1  C4  UNL     1     -36.489  14.756  -4.942  1.00 20.00     0.016 C 
HETATM    2  C9  UNL     1     -34.939  14.841  -5.053  1.00 20.00    -0.029 C 
ENDROOT
BRANCH   2   3
HETATM    3  C6  UNL     1     -34.517  15.997  -4.083  1.00 20.00     0.010 C 
BRANCH   3   4
HETATM    4  C5  UNL     1     -35.416  16.282  -2.877  1.00 20.00    -0.004 C 
HETATM    5  C1  UNL     1     -34.615  16.272  -1.581  1.00 20.00     0.005 C 
ENDBRANCH   3   4
ENDBRANCH   2   3
BRANCH   2   6
HETATM    6  C7  UNL     1     -34.411  13.466  -4.540  1.00 20.00     0.124 C 
HETATM    7 CL10 UNL     1     -32.916  13.518  -3.574  1.00 20.00    -0.130 Cl
ENDBRANCH   2   6
BRANCH   2   8
HETATM    8  C8  UNL     1     -34.511  15.122  -6.546  1.00 20.00    -0.014 C 
HETATM    9  C2  UNL     1     -34.383  16.617  -6.885  1.00 20.00     0.010 C 
HETATM   10  C3  UNL     1     -35.428  14.473  -7.595  1.00 20.00     0.010 C 
ENDBRANCH   2   8
TORSDOF 4
ENDMDL
