MODEL 1
REMARK VINA RESULT:      -4.2      0.000      0.000
REMARK  1 active torsions:
REMARK  status: ('A' for Active; 'I' for Inactive)
REMARK    1  A    between atoms: C4_4  and  C6_6 
ROOT
HETATM    1  C1  UNL     1     -34.632   5.485   6.378  1.00 20.00     0.029 C 
HETATM    2  C2  UNL     1     -34.058   6.162   5.157  1.00 20.00     0.041 C 
HETATM    3  C3  UNL     1     -34.719   4.045   5.924  1.00 20.00     0.169 C 
HETATM    4  C4  UNL     1     -34.713   5.392   4.009  1.00 20.00     0.070 C 
HETATM    5  C5  UNL     1     -36.053   6.007   3.599  1.00 20.00     0.047 C 
HETATM    6  O7  UNL     1     -34.974   4.067   4.512  1.00 20.00    -0.379 OA
ENDROOT
BRANCH   4   7
HETATM    7  C6  UNL     1     -33.790   5.281   2.798  1.00 20.00     0.152 C 
HETATM    8 CL8  UNL     1     -32.312   6.220   3.070  1.00 20.00    -0.127 Cl
ENDBRANCH   4   7
TORSDOF 1
ENDMDL
MODEL 2
REMARK VINA RESULT:      -3.6     12.131     12.994
REMARK  1 active torsions:
REMARK  status: ('A' for Active; 'I' for Inactive)
REMARK    1  A    between atoms: C4_4  and  C6_6 
ROOT
HETATM    1  C1  UNL     1     -34.733  13.706  -4.124  1.00 20.00     0.029 C 
HETATM    2  C2  UNL     1     -35.117  15.025  -3.497  1.00 20.00     0.041 C 
HETATM    3  C3  UNL     1     -33.289  13.567  -3.694  1.00 20.00     0.169 C 
HETATM    4  C4  UNL     1     -33.832  15.843  -3.625  1.00 20.00     0.070 C 
HETATM    5  C5  UNL     1     -33.767  16.605  -4.950  1.00 20.00     0.047 C 
HETATM    6  O7  UNL     1     -32.748  14.893  -3.612  1.00 20.00    -0.379 OA
ENDROOT
BRANCH   4   7
HETATM    7  C6  UNL     1     -33.651  16.806  -2.454  1.00 20.00     0.152 C 
HETATM    8 CL8  UNL     1     -34.709  16.338  -1.111  1.00 20.00    -0.127 Cl
ENDBRANCH   4   7
TORSDOF 1
ENDMDL
MODEL 3
REMARK VINA RESULT:      -3.6     12.203     13.016
REMARK  1 active torsions:
REMARK  status: ('A' for Active; 'I' for Inactive)
REMARK    1  A    between atoms: C4_4  and  C6_6 
ROOT
HETATM    1  C1  UNL     1     -34.729  13.223  -4.907  1.00 20.00     0.029 C 
HETATM    2  C2  UNL     1     -34.323  13.769  -3.560  1.00 20.00     0.041 C 
HETATM    3  C3  UNL     1     -34.504  14.416  -5.808  1.00 20.00     0.169 C 
HETATM    4  C4  UNL     1     -34.801  15.220  -3.630  1.00 20.00     0.070 C 
HETATM    5  C5  UNL     1     -36.244  15.371  -3.145  1.00 20.00     0.047 C 
HETATM    6  O7  UNL     1     -34.765  15.588  -5.023  1.00 20.00    -0.379 OA
ENDROOT
BRANCH   4   7
HETATM    7  C6  UNL     1     -33.883  16.161  -2.853  1.00 20.00     0.152 C 
HETATM    8 CL8  UNL     1     -34.501  16.397  -1.209  1.00 20.00    -0.127 Cl
ENDBRANCH   4   7
TORSDOF 1
ENDMDL
MODEL 4
REMARK VINA RESULT:      -3.5     12.433     13.205
REMARK  1 active torsions:
REMARK  status: ('A' for Active; 'I' for Inactive)
REMARK    1  A    between atoms: C4_4  and  C6_6 
ROOT
HETATM    1  C1  UNL     1     -33.426  13.709  -3.668  1.00 20.00     0.029 C 
HETATM    2  C2  UNL     1     -33.120  15.182  -3.782  1.00 20.00     0.041 C 
HETATM    3  C3  UNL     1     -34.865  13.654  -4.132  1.00 20.00     0.169 C 
HETATM    4  C4  UNL     1     -34.445  15.832  -3.385  1.00 20.00     0.070 C 
HETATM    5  C5  UNL     1     -34.537  16.070  -1.876  1.00 20.00     0.047 C 
HETATM    6  O7  UNL     1     -35.477  14.892  -3.744  1.00 20.00    -0.379 OA
ENDROOT
BRANCH   4   7
HETATM    7  C6  UNL     1     -34.690  17.136  -4.140  1.00 20.00     0.152 C 
HETATM    8 CL8  UNL     1     -33.450  17.361  -5.386  1.00 20.00    -0.127 Cl
ENDBRANCH   4   7
TORSDOF 1
ENDMDL
MODEL 5
REMARK VINA RESULT:      -3.5      1.627      2.968
REMARK  1 active torsions:
REMARK  status: ('A' for Active; 'I' for Inactive)
REMARK    1  A    between atoms: C4_4  and  C6_6 
ROOT
HETATM    1  C1  UNL     1     -33.991   5.557   2.945  1.00 20.00     0.029 C 
HETATM    2  C2  UNL     1     -33.427   5.742   4.332  1.00 20.00     0.041 C 
HETATM    3  C3  UNL     1     -35.472   5.747   3.184  1.00 20.00     0.169 C 
HETATM    4  C4  UNL     1     -34.503   5.114   5.218  1.00 20.00     0.070 C 
HETATM    5  C5  UNL     1     -34.268   3.617   5.430  1.00 20.00     0.047 C 
HETATM    6  O7  UNL     1     -35.747   5.266   4.507  1.00 20.00    -0.379 OA
ENDROOT
BRANCH   4   7
HETATM    7  C6  UNL     1     -34.620   5.825   6.564  1.00 20.00     0.152 C 
HETATM    8 CL8  UNL     1     -33.460   7.162   6.650  1.00 20.00    -0.127 Cl
ENDBRANCH   4   7
TORSDOF 1
ENDMDL
MODEL 6
REMARK VINA RESULT:      -3.4     12.164     13.078
REMARK  1 active torsions:
REMARK  status: ('A' for Active; 'I' for Inactive)
REMARK    1  A    between atoms: C4_4  and  C6_6 
ROOT
HETATM    1  C1  UNL     1     -34.888  14.131  -5.815  1.00 20.00     0.029 C 
HETATM    2  C2  UNL     1     -35.359  15.407  -5.160  1.00 20.00     0.041 C 
HETATM    3  C3  UNL     1     -34.866  13.172  -4.646  1.00 20.00     0.169 C 
HETATM    4  C4  UNL     1     -34.696  15.342  -3.784  1.00 20.00     0.070 C 
HETATM    5  C5  UNL     1     -33.303  15.975  -3.788  1.00 20.00     0.047 C 
HETATM    6  O7  UNL     1     -34.541  13.942  -3.480  1.00 20.00    -0.379 OA
ENDROOT
BRANCH   4   7
HETATM    7  C6  UNL     1     -35.563  15.983  -2.703  1.00 20.00     0.152 C 
HETATM    8 CL8  UNL     1     -34.595  16.298  -1.252  1.00 20.00    -0.127 Cl
ENDBRANCH   4   7
TORSDOF 1
ENDMDL
MODEL 7
REMARK VINA RESULT:      -3.4     12.594     13.361
REMARK  1 active torsions:
REMARK  status: ('A' for Active; 'I' for Inactive)
REMARK    1  A    between atoms: C4_4  and  C6_6 
ROOT
HETATM    1  C1  UNL     1     -34.547  16.134  -2.199  1.00 20.00     0.029 C 
HETATM    2  C2  UNL     1     -35.248  15.135  -3.087  1.00 20.00     0.041 C 
HETATM    3  C3  UNL     1     -33.732  16.922  -3.200  1.00 20.00     0.169 C 
HETATM    4  C4  UNL     1     -34.191  14.832  -4.150  1.00 20.00     0.070 C 
HETATM    5  C5  UNL     1     -33.280  13.675  -3.736  1.00 20.00     0.047 C 
HETATM    6  O7  UNL     1     -33.377  16.016  -4.255  1.00 20.00    -0.379 OA
ENDROOT
BRANCH   4   7
HETATM    7  C6  UNL     1     -34.818  14.548  -5.512  1.00 20.00     0.152 C 
HETATM    8 CL8  UNL     1     -34.063  15.562  -6.754  1.00 20.00    -0.127 Cl
ENDBRANCH   4   7
TORSDOF 1
ENDMDL
MODEL 8
REMARK VINA RESULT:      -3.4      1.741      2.328
REMARK  1 active torsions:
REMARK  status: ('A' for Active; 'I' for Inactive)
REMARK    1  A    between atoms: C4_4  and  C6_6 
ROOT
HETATM    1  C1  UNL     1     -34.992   4.691   4.861  1.00 20.00     0.029 C 
HETATM    2  C2  UNL     1     -34.887   5.504   3.594  1.00 20.00     0.041 C 
HETATM    3  C3  UNL     1     -34.425   5.643   5.890  1.00 20.00     0.169 C 
HETATM    4  C4  UNL     1     -33.583   6.277   3.799  1.00 20.00     0.070 C 
HETATM    5  C5  UNL     1     -32.370   5.501   3.283  1.00 20.00     0.047 C 
HETATM    6  O7  UNL     1     -33.431   6.434   5.224  1.00 20.00    -0.379 OA
ENDROOT
BRANCH   4   7
HETATM    7  C6  UNL     1     -33.635   7.662   3.159  1.00 20.00     0.152 C 
HETATM    8 CL8  UNL     1     -32.121   7.992   2.298  1.00 20.00    -0.127 Cl
ENDBRANCH   4   7
TORSDOF 1
ENDMDL
MODEL 9
REMARK VINA RESULT:      -3.4      8.738      9.899
REMARK  1 active torsions:
REMARK  status: ('A' for Active; 'I' for Inactive)
REMARK    1  A    between atoms: C4_4  and  C6_6 
ROOT
HETATM    1  C1  UNL     1     -41.908   5.186   0.385  1.00 20.00     0.029 C 
HETATM    2  C2  UNL     1     -42.972   5.137  -0.684  1.00 20.00     0.041 C 
HETATM    3  C3  UNL     1     -40.870   6.084  -0.249  1.00 20.00     0.169 C 
HETATM    4  C4  UNL     1     -42.152   5.154  -1.974  1.00 20.00     0.070 C 
HETATM    5  C5  UNL     1     -41.770   3.744  -2.429  1.00 20.00     0.047 C 
HETATM    6  O7  UNL     1     -40.934   5.860  -1.665  1.00 20.00    -0.379 OA
ENDROOT
BRANCH   4   7
HETATM    7  C6  UNL     1     -42.872   5.894  -3.098  1.00 20.00     0.152 C 
HETATM    8 CL8  UNL     1     -42.260   7.553  -3.227  1.00 20.00    -0.127 Cl
ENDBRANCH   4   7
TORSDOF 1
ENDMDL
