MODEL 1
REMARK VINA RESULT:      -4.7      0.000      0.000
REMARK  2 active torsions:
REMARK  status: ('A' for Active; 'I' for Inactive)
REMARK    1  A    between atoms: C5_5  and  C7_7 
REMARK    2  A    between atoms: C7_7  and  N8_8 
ROOT
HETATM    1  C1  UNL     1     -32.207   7.528   2.626  1.00 20.00     0.332 C 
HETATM    2  N8  UNL     1     -32.492   6.810   3.514  1.00 20.00    -0.245 NA
HETATM    3  O9  UNL     1     -31.921   8.247   1.739  1.00 20.00    -0.260 OA
ENDROOT
BRANCH   2   4
HETATM    4  C7  UNL     1     -33.310   5.667   3.133  1.00 20.00     0.190 C 
BRANCH   4   5
HETATM    5  C5  UNL     1     -34.466   5.548   4.124  1.00 20.00     0.075 C 
HETATM    6  C3  UNL     1     -34.511   4.171   4.785  1.00 20.00     0.041 C 
HETATM    7  C2  UNL     1     -35.029   4.484   6.167  1.00 20.00     0.029 C 
HETATM    8  C4  UNL     1     -34.375   5.819   6.447  1.00 20.00     0.169 C 
HETATM    9  O10 UNL     1     -34.259   6.497   5.189  1.00 20.00    -0.379 OA
HETATM   10  C6  UNL     1     -35.788   5.898   3.438  1.00 20.00     0.048 C 
ENDBRANCH   4   5
ENDBRANCH   2   4
TORSDOF 2
ENDMDL
MODEL 2
REMARK VINA RESULT:      -4.1     11.611     12.343
REMARK  2 active torsions:
REMARK  status: ('A' for Active; 'I' for Inactive)
REMARK    1  A    between atoms: C5_5  and  C7_7 
REMARK    2  A    between atoms: C7_7  and  N8_8 
ROOT
HETATM    1  C1  UNL     1     -34.667  16.700  -0.680  1.00 20.00     0.332 C 
HETATM    2  N8  UNL     1     -34.733  16.047  -1.656  1.00 20.00    -0.245 NA
HETATM    3  O9  UNL     1     -34.602  17.353   0.297  1.00 20.00    -0.260 OA
ENDROOT
BRANCH   2   4
HETATM    4  C7  UNL     1     -33.664  16.281  -2.618  1.00 20.00     0.190 C 
BRANCH   4   5
HETATM    5  C5  UNL     1     -33.982  15.501  -3.892  1.00 20.00     0.075 C 
HETATM    6  C3  UNL     1     -33.492  14.056  -3.814  1.00 20.00     0.041 C 
HETATM    7  C2  UNL     1     -34.532  13.311  -4.614  1.00 20.00     0.029 C 
HETATM    8  C4  UNL     1     -35.794  14.067  -4.263  1.00 20.00     0.169 C 
HETATM    9  O10 UNL     1     -35.414  15.432  -4.045  1.00 20.00    -0.379 OA
HETATM   10  C6  UNL     1     -33.418  16.232  -5.113  1.00 20.00     0.048 C 
ENDBRANCH   4   5
ENDBRANCH   2   4
TORSDOF 2
ENDMDL
MODEL 3
REMARK VINA RESULT:      -4.0     11.347     12.518
REMARK  2 active torsions:
REMARK  status: ('A' for Active; 'I' for Inactive)
REMARK    1  A    between atoms: C5_5  and  C7_7 
REMARK    2  A    between atoms: C7_7  and  N8_8 
ROOT
HETATM    1  C1  UNL     1     -34.349  13.455  -4.143  1.00 20.00     0.332 C 
HETATM    2  N8  UNL     1     -33.900  14.259  -3.410  1.00 20.00    -0.245 NA
HETATM    3  O9  UNL     1     -34.798  12.650  -4.875  1.00 20.00    -0.260 OA
ENDROOT
BRANCH   2   4
HETATM    4  C7  UNL     1     -33.746  15.588  -3.985  1.00 20.00     0.190 C 
BRANCH   4   5
HETATM    5  C5  UNL     1     -34.476  16.589  -3.093  1.00 20.00     0.075 C 
HETATM    6  C3  UNL     1     -34.666  16.056  -1.674  1.00 20.00     0.041 C 
HETATM    7  C2  UNL     1     -34.570  17.306  -0.835  1.00 20.00     0.029 C 
HETATM    8  C4  UNL     1     -33.522  18.101  -1.582  1.00 20.00     0.169 C 
HETATM    9  O10 UNL     1     -33.664  17.774  -2.971  1.00 20.00    -0.379 OA
HETATM   10  C6  UNL     1     -35.803  16.997  -3.735  1.00 20.00     0.048 C 
ENDBRANCH   4   5
ENDBRANCH   2   4
TORSDOF 2
ENDMDL
MODEL 4
REMARK VINA RESULT:      -3.9     11.451     12.824
REMARK  2 active torsions:
REMARK  status: ('A' for Active; 'I' for Inactive)
REMARK    1  A    between atoms: C5_5  and  C7_7 
REMARK    2  A    between atoms: C7_7  and  N8_8 
ROOT
HETATM    1  C1  UNL     1     -34.508  16.539  -1.145  1.00 20.00     0.332 C 
HETATM    2  N8  UNL     1     -34.164  16.235  -2.228  1.00 20.00    -0.245 NA
HETATM    3  O9  UNL     1     -34.850  16.844  -0.061  1.00 20.00    -0.260 OA
ENDROOT
BRANCH   2   4
HETATM    4  C7  UNL     1     -35.112  15.402  -2.956  1.00 20.00     0.190 C 
BRANCH   4   5
HETATM    5  C5  UNL     1     -34.414  14.845  -4.194  1.00 20.00     0.075 C 
HETATM    6  C3  UNL     1     -35.414  14.387  -5.255  1.00 20.00     0.041 C 
HETATM    7  C2  UNL     1     -34.692  14.693  -6.544  1.00 20.00     0.029 C 
HETATM    8  C4  UNL     1     -33.965  15.972  -6.196  1.00 20.00     0.169 C 
HETATM    9  O10 UNL     1     -33.641  15.900  -4.801  1.00 20.00    -0.379 OA
HETATM   10  C6  UNL     1     -33.447  13.728  -3.798  1.00 20.00     0.048 C 
ENDBRANCH   4   5
ENDBRANCH   2   4
TORSDOF 2
ENDMDL
MODEL 5
REMARK VINA RESULT:      -3.9     11.955     12.856
REMARK  2 active torsions:
REMARK  status: ('A' for Active; 'I' for Inactive)
REMARK    1  A    between atoms: C5_5  and  C7_7 
REMARK    2  A    between atoms: C7_7  and  N8_8 
ROOT
HETATM    1  C1  UNL     1     -37.700  14.743  -4.013  1.00 20.00     0.332 C 
HETATM    2  N8  UNL     1     -36.680  15.314  -4.146  1.00 20.00    -0.245 NA
HETATM    3  O9  UNL     1     -38.720  14.171  -3.882  1.00 20.00    -0.260 OA
ENDROOT
BRANCH   2   4
HETATM    4  C7  UNL     1     -36.303  16.155  -3.018  1.00 20.00     0.190 C 
BRANCH   4   5
HETATM    5  C5  UNL     1     -34.787  16.085  -2.849  1.00 20.00     0.075 C 
HETATM    6  C3  UNL     1     -34.241  14.692  -3.161  1.00 20.00     0.041 C 
HETATM    7  C2  UNL     1     -32.888  14.993  -3.756  1.00 20.00     0.029 C 
HETATM    8  C4  UNL     1     -33.163  16.265  -4.525  1.00 20.00     0.169 C 
HETATM    9  O10 UNL     1     -34.176  16.978  -3.802  1.00 20.00    -0.379 OA
HETATM   10  C6  UNL     1     -34.389  16.555  -1.448  1.00 20.00     0.048 C 
ENDBRANCH   4   5
ENDBRANCH   2   4
TORSDOF 2
ENDMDL
MODEL 6
REMARK VINA RESULT:      -3.8     11.500     12.435
REMARK  2 active torsions:
REMARK  status: ('A' for Active; 'I' for Inactive)
REMARK    1  A    between atoms: C5_5  and  C7_7 
REMARK    2  A    between atoms: C7_7  and  N8_8 
ROOT
HETATM    1  C1  UNL     1     -35.426  13.536  -4.197  1.00 20.00     0.332 C 
HETATM    2  N8  UNL     1     -35.871  14.519  -3.728  1.00 20.00    -0.245 NA
HETATM    3  O9  UNL     1     -34.981  12.551  -4.665  1.00 20.00    -0.260 OA
ENDROOT
BRANCH   2   4
HETATM    4  C7  UNL     1     -35.224  15.749  -4.168  1.00 20.00     0.190 C 
BRANCH   4   5
HETATM    5  C5  UNL     1     -34.167  16.134  -3.136  1.00 20.00     0.075 C 
HETATM    6  C3  UNL     1     -34.008  17.650  -3.020  1.00 20.00     0.041 C 
HETATM    7  C2  UNL     1     -33.676  17.837  -1.560  1.00 20.00     0.029 C 
HETATM    8  C4  UNL     1     -34.522  16.766  -0.910  1.00 20.00     0.169 C 
HETATM    9  O10 UNL     1     -34.601  15.676  -1.839  1.00 20.00    -0.379 OA
HETATM   10  C6  UNL     1     -32.841  15.442  -3.454  1.00 20.00     0.048 C 
ENDBRANCH   4   5
ENDBRANCH   2   4
TORSDOF 2
ENDMDL
MODEL 7
REMARK VINA RESULT:      -3.8     11.739     13.127
REMARK  2 active torsions:
REMARK  status: ('A' for Active; 'I' for Inactive)
REMARK    1  A    between atoms: C5_5  and  C7_7 
REMARK    2  A    between atoms: C7_7  and  N8_8 
ROOT
HETATM    1  C1  UNL     1     -37.614  15.025  -3.869  1.00 20.00     0.332 C 
HETATM    2  N8  UNL     1     -36.750  15.744  -4.215  1.00 20.00    -0.245 NA
HETATM    3  O9  UNL     1     -38.480  14.306  -3.521  1.00 20.00    -0.260 OA
ENDROOT
BRANCH   2   4
HETATM    4  C7  UNL     1     -36.203  15.447  -5.532  1.00 20.00     0.190 C 
BRANCH   4   5
HETATM    5  C5  UNL     1     -34.699  15.222  -5.391  1.00 20.00     0.075 C 
HETATM    6  C3  UNL     1     -34.102  16.048  -4.253  1.00 20.00     0.041 C 
HETATM    7  C2  UNL     1     -33.000  15.155  -3.738  1.00 20.00     0.029 C 
HETATM    8  C4  UNL     1     -33.614  13.782  -3.898  1.00 20.00     0.169 C 
HETATM    9  O10 UNL     1     -34.471  13.840  -5.047  1.00 20.00    -0.379 OA
HETATM   10  C6  UNL     1     -33.998  15.491  -6.724  1.00 20.00     0.048 C 
ENDBRANCH   4   5
ENDBRANCH   2   4
TORSDOF 2
ENDMDL
MODEL 8
REMARK VINA RESULT:      -3.8     11.503     13.417
REMARK  2 active torsions:
REMARK  status: ('A' for Active; 'I' for Inactive)
REMARK    1  A    between atoms: C5_5  and  C7_7 
REMARK    2  A    between atoms: C7_7  and  N8_8 
ROOT
HETATM    1  C1  UNL     1     -35.195  13.499  -4.262  1.00 20.00     0.332 C 
HETATM    2  N8  UNL     1     -35.531  14.490  -3.726  1.00 20.00    -0.245 NA
HETATM    3  O9  UNL     1     -34.860  12.506  -4.799  1.00 20.00    -0.260 OA
ENDROOT
BRANCH   2   4
HETATM    4  C7  UNL     1     -34.479  15.161  -2.973  1.00 20.00     0.190 C 
BRANCH   4   5
HETATM    5  C5  UNL     1     -34.249  16.540  -3.587  1.00 20.00     0.075 C 
HETATM    6  C3  UNL     1     -33.222  16.498  -4.717  1.00 20.00     0.041 C 
HETATM    7  C2  UNL     1     -33.726  17.561  -5.662  1.00 20.00     0.029 C 
HETATM    8  C4  UNL     1     -35.225  17.408  -5.529  1.00 20.00     0.169 C 
HETATM    9  O10 UNL     1     -35.483  16.990  -4.182  1.00 20.00    -0.379 OA
HETATM   10  C6  UNL     1     -33.863  17.544  -2.499  1.00 20.00     0.048 C 
ENDBRANCH   4   5
ENDBRANCH   2   4
TORSDOF 2
ENDMDL
MODEL 9
REMARK VINA RESULT:      -3.7     11.596     12.407
REMARK  2 active torsions:
REMARK  status: ('A' for Active; 'I' for Inactive)
REMARK    1  A    between atoms: C5_5  and  C7_7 
REMARK    2  A    between atoms: C7_7  and  N8_8 
ROOT
HETATM    1  C1  UNL     1     -34.640  16.471  -1.022  1.00 20.00     0.332 C 
HETATM    2  N8  UNL     1     -34.554  15.903  -2.049  1.00 20.00    -0.245 NA
HETATM    3  O9  UNL     1     -34.725  17.038   0.006  1.00 20.00    -0.260 OA
ENDROOT
BRANCH   2   4
HETATM    4  C7  UNL     1     -35.520  16.321  -3.057  1.00 20.00     0.190 C 
BRANCH   4   5
HETATM    5  C5  UNL     1     -35.804  15.134  -3.975  1.00 20.00     0.075 C 
HETATM    6  C3  UNL     1     -35.392  15.418  -5.419  1.00 20.00     0.041 C 
HETATM    7  C2  UNL     1     -34.945  14.062  -5.907  1.00 20.00     0.029 C 
HETATM    8  C4  UNL     1     -34.294  13.485  -4.670  1.00 20.00     0.169 C 
HETATM    9  O10 UNL     1     -35.004  14.015  -3.541  1.00 20.00    -0.379 OA
HETATM   10  C6  UNL     1     -37.274  14.724  -3.868  1.00 20.00     0.048 C 
ENDBRANCH   4   5
ENDBRANCH   2   4
TORSDOF 2
ENDMDL
