MODEL 1
REMARK VINA RESULT:      -4.6      0.000      0.000
REMARK  2 active torsions:
REMARK  status: ('A' for Active; 'I' for Inactive)
REMARK    1  A    between atoms: C1_1  and  C6_6 
REMARK    2  A    between atoms: C1_1  and  C9_9 
ROOT
HETATM    1  C2  UNL     1     -35.384  17.222  -3.828  1.00 20.00     0.005 C 
HETATM    2  C3  UNL     1     -35.932  15.957  -3.153  1.00 20.00     0.006 C 
HETATM    3  C4  UNL     1     -33.288  16.011  -4.467  1.00 20.00     0.017 C 
HETATM    4  C5  UNL     1     -33.830  16.467  -2.188  1.00 20.00     0.010 C 
HETATM    5  C6  UNL     1     -33.797  14.725  -3.795  1.00 20.00     0.061 C 
HETATM    6  C7  UNL     1     -33.872  17.120  -3.571  1.00 20.00    -0.013 C 
HETATM    7  C8  UNL     1     -34.661  15.260  -2.633  1.00 20.00    -0.003 C 
ENDROOT
BRANCH   5   8
HETATM    8  C1  UNL     1     -34.537  13.821  -4.728  1.00 20.00     0.145 C 
HETATM    9  O10 UNL     1     -35.012  12.760  -4.327  1.00 20.00    -0.296 OA
BRANCH   8  10
HETATM   10  C9  UNL     1     -34.648  14.301  -6.158  1.00 20.00     0.193 C 
HETATM   11 CL11 UNL     1     -36.291  14.853  -6.507  1.00 20.00    -0.123 Cl
ENDBRANCH   8  10
ENDBRANCH   5   8
TORSDOF 2
ENDMDL
MODEL 2
REMARK VINA RESULT:      -4.4      2.553      3.820
REMARK  2 active torsions:
REMARK  status: ('A' for Active; 'I' for Inactive)
REMARK    1  A    between atoms: C1_1  and  C6_6 
REMARK    2  A    between atoms: C1_1  and  C9_9 
ROOT
HETATM    1  C2  UNL     1     -34.349  14.823  -5.825  1.00 20.00     0.005 C 
HETATM    2  C3  UNL     1     -33.605  15.838  -4.945  1.00 20.00     0.006 C 
HETATM    3  C4  UNL     1     -35.828  14.196  -3.906  1.00 20.00     0.017 C 
HETATM    4  C5  UNL     1     -33.491  13.716  -3.899  1.00 20.00     0.010 C 
HETATM    5  C6  UNL     1     -35.103  15.194  -2.988  1.00 20.00     0.061 C 
HETATM    6  C7  UNL     1     -34.702  13.703  -4.834  1.00 20.00    -0.013 C 
HETATM    7  C8  UNL     1     -33.664  15.196  -3.547  1.00 20.00    -0.003 C 
ENDROOT
BRANCH   5   8
HETATM    8  C1  UNL     1     -35.740  16.548  -2.964  1.00 20.00     0.145 C 
HETATM    9  O10 UNL     1     -36.686  16.808  -3.706  1.00 20.00    -0.296 OA
BRANCH   8  10
HETATM   10  C9  UNL     1     -35.145  17.535  -1.986  1.00 20.00     0.193 C 
HETATM   11 CL11 UNL     1     -34.661  16.723  -0.491  1.00 20.00    -0.123 Cl
ENDBRANCH   8  10
ENDBRANCH   5   8
TORSDOF 2
ENDMDL
MODEL 3
REMARK VINA RESULT:      -4.2      1.765      2.228
REMARK  2 active torsions:
REMARK  status: ('A' for Active; 'I' for Inactive)
REMARK    1  A    between atoms: C1_1  and  C6_6 
REMARK    2  A    between atoms: C1_1  and  C9_9 
ROOT
HETATM    1  C2  UNL     1     -33.803  16.759  -3.296  1.00 20.00     0.005 C 
HETATM    2  C3  UNL     1     -34.602  15.745  -2.466  1.00 20.00     0.006 C 
HETATM    3  C4  UNL     1     -34.319  15.497  -5.395  1.00 20.00     0.017 C 
HETATM    4  C5  UNL     1     -32.941  14.573  -3.680  1.00 20.00     0.010 C 
HETATM    5  C6  UNL     1     -35.122  14.454  -4.600  1.00 20.00     0.061 C 
HETATM    6  C7  UNL     1     -33.200  15.891  -4.412  1.00 20.00    -0.013 C 
HETATM    7  C8  UNL     1     -34.399  14.427  -3.236  1.00 20.00    -0.003 C 
ENDROOT
BRANCH   5   8
HETATM    8  C1  UNL     1     -36.579  14.776  -4.502  1.00 20.00     0.145 C 
HETATM    9  O10 UNL     1     -37.327  14.090  -3.806  1.00 20.00    -0.296 OA
BRANCH   8  10
HETATM   10  C9  UNL     1     -37.042  15.972  -5.302  1.00 20.00     0.193 C 
HETATM   11 CL11 UNL     1     -37.311  17.366  -4.246  1.00 20.00    -0.123 Cl
ENDBRANCH   8  10
ENDBRANCH   5   8
TORSDOF 2
ENDMDL
MODEL 4
REMARK VINA RESULT:      -4.2      1.053      1.289
REMARK  2 active torsions:
REMARK  status: ('A' for Active; 'I' for Inactive)
REMARK    1  A    between atoms: C1_1  and  C6_6 
REMARK    2  A    between atoms: C1_1  and  C9_9 
ROOT
HETATM    1  C2  UNL     1     -34.094  17.190  -4.275  1.00 20.00     0.005 C 
HETATM    2  C3  UNL     1     -35.533  16.920  -3.812  1.00 20.00     0.006 C 
HETATM    3  C4  UNL     1     -33.406  14.883  -3.588  1.00 20.00     0.017 C 
HETATM    4  C5  UNL     1     -34.074  16.524  -1.988  1.00 20.00     0.010 C 
HETATM    5  C6  UNL     1     -34.832  14.575  -3.104  1.00 20.00     0.061 C 
HETATM    6  C7  UNL     1     -33.254  16.384  -3.272  1.00 20.00    -0.013 C 
HETATM    7  C8  UNL     1     -35.342  15.952  -2.629  1.00 20.00    -0.003 C 
ENDROOT
BRANCH   5   8
HETATM    8  C1  UNL     1     -35.692  13.945  -4.154  1.00 20.00     0.145 C 
HETATM    9  O10 UNL     1     -36.906  13.838  -3.989  1.00 20.00    -0.296 OA
BRANCH   8  10
HETATM   10  C9  UNL     1     -34.969  13.466  -5.392  1.00 20.00     0.193 C 
HETATM   11 CL11 UNL     1     -35.211  14.592  -6.734  1.00 20.00    -0.123 Cl
ENDBRANCH   8  10
ENDBRANCH   5   8
TORSDOF 2
ENDMDL
MODEL 5
REMARK VINA RESULT:      -4.2     12.141     13.049
REMARK  2 active torsions:
REMARK  status: ('A' for Active; 'I' for Inactive)
REMARK    1  A    between atoms: C1_1  and  C6_6 
REMARK    2  A    between atoms: C1_1  and  C9_9 
ROOT
HETATM    1  C2  UNL     1     -43.062   6.711  -0.136  1.00 20.00     0.005 C 
HETATM    2  C3  UNL     1     -42.957   5.195   0.079  1.00 20.00     0.006 C 
HETATM    3  C4  UNL     1     -41.656   6.547  -2.201  1.00 20.00     0.017 C 
HETATM    4  C5  UNL     1     -40.766   6.088  -0.035  1.00 20.00     0.010 C 
HETATM    5  C6  UNL     1     -41.519   5.027  -2.016  1.00 20.00     0.061 C 
HETATM    6  C7  UNL     1     -41.699   7.066  -0.751  1.00 20.00    -0.013 C 
HETATM    7  C8  UNL     1     -41.563   4.859  -0.483  1.00 20.00    -0.003 C 
ENDROOT
BRANCH   5   8
HETATM    8  C1  UNL     1     -42.570   4.244  -2.738  1.00 20.00     0.145 C 
HETATM    9  O10 UNL     1     -43.417   4.816  -3.422  1.00 20.00    -0.296 OA
BRANCH   8  10
HETATM   10  C9  UNL     1     -42.508   2.744  -2.561  1.00 20.00     0.193 C 
HETATM   11 CL11 UNL     1     -41.396   2.021  -3.733  1.00 20.00    -0.123 Cl
ENDBRANCH   8  10
ENDBRANCH   5   8
TORSDOF 2
ENDMDL
MODEL 6
REMARK VINA RESULT:      -4.2      2.469      3.687
REMARK  2 active torsions:
REMARK  status: ('A' for Active; 'I' for Inactive)
REMARK    1  A    between atoms: C1_1  and  C6_6 
REMARK    2  A    between atoms: C1_1  and  C9_9 
ROOT
HETATM    1  C2  UNL     1     -36.452  14.367  -4.078  1.00 20.00     0.005 C 
HETATM    2  C3  UNL     1     -36.149  15.569  -4.983  1.00 20.00     0.006 C 
HETATM    3  C4  UNL     1     -34.018  14.100  -3.562  1.00 20.00     0.017 C 
HETATM    4  C5  UNL     1     -34.888  13.717  -5.751  1.00 20.00     0.010 C 
HETATM    5  C6  UNL     1     -33.670  15.293  -4.467  1.00 20.00     0.061 C 
HETATM    6  C7  UNL     1     -35.224  13.465  -4.280  1.00 20.00    -0.013 C 
HETATM    7  C8  UNL     1     -34.761  15.231  -5.557  1.00 20.00    -0.003 C 
ENDROOT
BRANCH   5   8
HETATM    8  C1  UNL     1     -33.623  16.598  -3.736  1.00 20.00     0.145 C 
HETATM    9  O10 UNL     1     -33.501  17.656  -4.351  1.00 20.00    -0.296 OA
BRANCH   8  10
HETATM   10  C9  UNL     1     -33.734  16.511  -2.231  1.00 20.00     0.193 C 
HETATM   11 CL11 UNL     1     -35.368  16.929  -1.698  1.00 20.00    -0.123 Cl
ENDBRANCH   8  10
ENDBRANCH   5   8
TORSDOF 2
ENDMDL
MODEL 7
REMARK VINA RESULT:      -4.1     11.081     12.110
REMARK  2 active torsions:
REMARK  status: ('A' for Active; 'I' for Inactive)
REMARK    1  A    between atoms: C1_1  and  C6_6 
REMARK    2  A    between atoms: C1_1  and  C9_9 
ROOT
HETATM    1  C2  UNL     1     -42.565   5.293   0.324  1.00 20.00     0.005 C 
HETATM    2  C3  UNL     1     -43.134   4.973  -1.066  1.00 20.00     0.006 C 
HETATM    3  C4  UNL     1     -41.031   7.006  -0.663  1.00 20.00     0.017 C 
HETATM    4  C5  UNL     1     -40.785   4.680  -1.135  1.00 20.00     0.010 C 
HETATM    5  C6  UNL     1     -41.567   6.710  -2.073  1.00 20.00     0.061 C 
HETATM    6  C7  UNL     1     -41.095   5.629   0.024  1.00 20.00    -0.013 C 
HETATM    7  C8  UNL     1     -41.932   5.213  -1.998  1.00 20.00    -0.003 C 
ENDROOT
BRANCH   5   8
HETATM    8  C1  UNL     1     -42.711   7.589  -2.469  1.00 20.00     0.145 C 
HETATM    9  O10 UNL     1     -43.296   8.271  -1.629  1.00 20.00    -0.296 OA
BRANCH   8  10
HETATM   10  C9  UNL     1     -43.078   7.569  -3.936  1.00 20.00     0.193 C 
HETATM   11 CL11 UNL     1     -42.045   8.672  -4.855  1.00 20.00    -0.123 Cl
ENDBRANCH   8  10
ENDBRANCH   5   8
TORSDOF 2
ENDMDL
MODEL 8
REMARK VINA RESULT:      -4.1      2.142      3.573
REMARK  2 active torsions:
REMARK  status: ('A' for Active; 'I' for Inactive)
REMARK    1  A    between atoms: C1_1  and  C6_6 
REMARK    2  A    between atoms: C1_1  and  C9_9 
ROOT
HETATM    1  C2  UNL     1     -35.255  16.704  -6.206  1.00 20.00     0.005 C 
HETATM    2  C3  UNL     1     -34.030  15.785  -6.321  1.00 20.00     0.006 C 
HETATM    3  C4  UNL     1     -36.536  14.903  -5.031  1.00 20.00     0.017 C 
HETATM    4  C5  UNL     1     -35.881  14.692  -7.316  1.00 20.00     0.010 C 
HETATM    5  C6  UNL     1     -35.336  13.947  -5.134  1.00 20.00     0.061 C 
HETATM    6  C7  UNL     1     -36.433  15.724  -6.331  1.00 20.00    -0.013 C 
HETATM    7  C8  UNL     1     -34.657  14.384  -6.450  1.00 20.00    -0.003 C 
ENDROOT
BRANCH   5   8
HETATM    8  C1  UNL     1     -34.431  14.002  -3.944  1.00 20.00     0.145 C 
HETATM    9  O10 UNL     1     -33.443  13.272  -3.874  1.00 20.00    -0.296 OA
BRANCH   8  10
HETATM   10  C9  UNL     1     -34.818  14.994  -2.870  1.00 20.00     0.193 C 
HETATM   11 CL11 UNL     1     -33.570  16.234  -2.684  1.00 20.00    -0.123 Cl
ENDBRANCH   8  10
ENDBRANCH   5   8
TORSDOF 2
ENDMDL
MODEL 9
REMARK VINA RESULT:      -4.0      1.792      2.476
REMARK  2 active torsions:
REMARK  status: ('A' for Active; 'I' for Inactive)
REMARK    1  A    between atoms: C1_1  and  C6_6 
REMARK    2  A    between atoms: C1_1  and  C9_9 
ROOT
HETATM    1  C2  UNL     1     -35.068  15.361  -3.012  1.00 20.00     0.005 C 
HETATM    2  C3  UNL     1     -35.809  14.293  -3.828  1.00 20.00     0.006 C 
HETATM    3  C4  UNL     1     -33.584  15.868  -4.963  1.00 20.00     0.017 C 
HETATM    4  C5  UNL     1     -33.499  13.768  -3.834  1.00 20.00     0.010 C 
HETATM    5  C6  UNL     1     -34.295  14.802  -5.812  1.00 20.00     0.061 C 
HETATM    6  C7  UNL     1     -33.630  15.265  -3.546  1.00 20.00    -0.013 C 
HETATM    7  C8  UNL     1     -34.715  13.748  -4.765  1.00 20.00    -0.003 C 
ENDROOT
BRANCH   5   8
HETATM    8  C1  UNL     1     -35.437  15.344  -6.611  1.00 20.00     0.145 C 
HETATM    9  O10 UNL     1     -36.158  14.591  -7.264  1.00 20.00    -0.296 OA
BRANCH   8  10
HETATM   10  C9  UNL     1     -35.625  16.843  -6.554  1.00 20.00     0.193 C 
HETATM   11 CL11 UNL     1     -36.995  17.263  -5.516  1.00 20.00    -0.123 Cl
ENDBRANCH   8  10
ENDBRANCH   5   8
TORSDOF 2
ENDMDL
