MODEL 1
REMARK VINA RESULT:      -4.3      0.000      0.000
REMARK  3 active torsions:
REMARK  status: ('A' for Active; 'I' for Inactive)
REMARK    1  A    between atoms: C1_1  and  C5_5 
REMARK    2  A    between atoms: C1_1  and  C8_8 
REMARK    3  A    between atoms: C8_8  and  C9_9 
ROOT
HETATM    1  C2  UNL     1     -34.508  17.120  -0.667  1.00 20.00     0.029 C 
HETATM    2  C3  UNL     1     -34.631  16.046  -1.720  1.00 20.00     0.048 C 
HETATM    3  C4  UNL     1     -33.396  17.978  -1.222  1.00 20.00     0.169 C 
HETATM    4  C5  UNL     1     -34.319  16.800  -3.009  1.00 20.00     0.117 C 
HETATM    5  C6  UNL     1     -35.564  17.258  -3.755  1.00 20.00     0.054 C 
HETATM    6  O11 UNL     1     -33.550  17.957  -2.646  1.00 20.00    -0.373 OA
ENDROOT
BRANCH   4   7
HETATM    7  C1  UNL     1     -33.439  15.983  -3.907  1.00 20.00     0.160 C 
HETATM    8  O10 UNL     1     -32.877  16.491  -4.877  1.00 20.00    -0.295 OA
BRANCH   7   9
HETATM    9  C8  UNL     1     -33.294  14.515  -3.547  1.00 20.00     0.081 C 
BRANCH   9  10
HETATM   10  C9  UNL     1     -33.989  13.595  -4.547  1.00 20.00     0.003 C 
HETATM   11  C7  UNL     1     -35.486  13.524  -4.290  1.00 20.00     0.005 C 
ENDBRANCH   9  10
ENDBRANCH   7   9
ENDBRANCH   4   7
TORSDOF 3
ENDMDL
MODEL 2
REMARK VINA RESULT:      -4.3     11.884     12.685
REMARK  3 active torsions:
REMARK  status: ('A' for Active; 'I' for Inactive)
REMARK    1  A    between atoms: C1_1  and  C5_5 
REMARK    2  A    between atoms: C1_1  and  C8_8 
REMARK    3  A    between atoms: C8_8  and  C9_9 
ROOT
HETATM    1  C2  UNL     1     -35.083   4.381   6.198  1.00 20.00     0.029 C 
HETATM    2  C3  UNL     1     -34.791   4.143   4.736  1.00 20.00     0.048 C 
HETATM    3  C4  UNL     1     -34.370   5.688   6.451  1.00 20.00     0.169 C 
HETATM    4  C5  UNL     1     -34.777   5.554   4.160  1.00 20.00     0.117 C 
HETATM    5  C6  UNL     1     -36.099   5.958   3.523  1.00 20.00     0.054 C 
HETATM    6  O11 UNL     1     -34.498   6.452   5.246  1.00 20.00    -0.373 OA
ENDROOT
BRANCH   4   7
HETATM    7  C1  UNL     1     -33.652   5.723   3.183  1.00 20.00     0.160 C 
HETATM    8  O10 UNL     1     -33.606   5.061   2.147  1.00 20.00    -0.295 OA
BRANCH   7   9
HETATM    9  C8  UNL     1     -32.593   6.747   3.553  1.00 20.00     0.081 C 
BRANCH   9  10
HETATM   10  C9  UNL     1     -31.862   7.300   2.333  1.00 20.00     0.003 C 
HETATM   11  C7  UNL     1     -32.321   8.711   2.001  1.00 20.00     0.005 C 
ENDBRANCH   9  10
ENDBRANCH   7   9
ENDBRANCH   4   7
TORSDOF 3
ENDMDL
MODEL 3
REMARK VINA RESULT:      -4.3      1.255      3.799
REMARK  3 active torsions:
REMARK  status: ('A' for Active; 'I' for Inactive)
REMARK    1  A    between atoms: C1_1  and  C5_5 
REMARK    2  A    between atoms: C1_1  and  C8_8 
REMARK    3  A    between atoms: C8_8  and  C9_9 
ROOT
HETATM    1  C2  UNL     1     -33.532  13.694  -3.940  1.00 20.00     0.029 C 
HETATM    2  C3  UNL     1     -32.922  15.022  -3.564  1.00 20.00     0.048 C 
HETATM    3  C4  UNL     1     -35.010  13.999  -3.881  1.00 20.00     0.169 C 
HETATM    4  C5  UNL     1     -33.895  16.026  -4.173  1.00 20.00     0.117 C 
HETATM    5  C6  UNL     1     -33.452  16.545  -5.534  1.00 20.00     0.054 C 
HETATM    6  O11 UNL     1     -35.155  15.353  -4.327  1.00 20.00    -0.373 OA
ENDROOT
BRANCH   4   7
HETATM    7  C1  UNL     1     -34.147  17.166  -3.233  1.00 20.00     0.160 C 
HETATM    8  O10 UNL     1     -34.718  18.187  -3.614  1.00 20.00    -0.295 OA
BRANCH   7   9
HETATM    9  C8  UNL     1     -33.658  16.979  -1.808  1.00 20.00     0.081 C 
BRANCH   9  10
HETATM   10  C9  UNL     1     -34.776  16.558  -0.857  1.00 20.00     0.003 C 
HETATM   11  C7  UNL     1     -34.823  17.448   0.375  1.00 20.00     0.005 C 
ENDBRANCH   9  10
ENDBRANCH   7   9
ENDBRANCH   4   7
TORSDOF 3
ENDMDL
MODEL 4
REMARK VINA RESULT:      -4.2      1.605      3.444
REMARK  3 active torsions:
REMARK  status: ('A' for Active; 'I' for Inactive)
REMARK    1  A    between atoms: C1_1  and  C5_5 
REMARK    2  A    between atoms: C1_1  and  C8_8 
REMARK    3  A    between atoms: C8_8  and  C9_9 
ROOT
HETATM    1  C2  UNL     1     -36.984  14.653  -4.004  1.00 20.00     0.029 C 
HETATM    2  C3  UNL     1     -35.510  14.330  -3.974  1.00 20.00     0.048 C 
HETATM    3  C4  UNL     1     -36.973  16.155  -4.160  1.00 20.00     0.169 C 
HETATM    4  C5  UNL     1     -34.918  15.364  -4.924  1.00 20.00     0.117 C 
HETATM    5  C6  UNL     1     -34.701  14.832  -6.334  1.00 20.00     0.054 C 
HETATM    6  O11 UNL     1     -35.843  16.461  -4.986  1.00 20.00    -0.373 OA
ENDROOT
BRANCH   4   7
HETATM    7  C1  UNL     1     -33.642  15.928  -4.375  1.00 20.00     0.160 C 
HETATM    8  O10 UNL     1     -32.840  16.510  -5.105  1.00 20.00    -0.295 OA
BRANCH   7   9
HETATM    9  C8  UNL     1     -33.411  15.735  -2.886  1.00 20.00     0.081 C 
BRANCH   9  10
HETATM   10  C9  UNL     1     -33.820  16.958  -2.068  1.00 20.00     0.003 C 
HETATM   11  C7  UNL     1     -34.694  16.570  -0.887  1.00 20.00     0.005 C 
ENDBRANCH   9  10
ENDBRANCH   7   9
ENDBRANCH   4   7
TORSDOF 3
ENDMDL
MODEL 5
REMARK VINA RESULT:      -4.2      1.797      4.342
REMARK  3 active torsions:
REMARK  status: ('A' for Active; 'I' for Inactive)
REMARK    1  A    between atoms: C1_1  and  C5_5 
REMARK    2  A    between atoms: C1_1  and  C8_8 
REMARK    3  A    between atoms: C8_8  and  C9_9 
ROOT
HETATM    1  C2  UNL     1     -34.841  14.608  -6.663  1.00 20.00     0.029 C 
HETATM    2  C3  UNL     1     -35.439  14.286  -5.315  1.00 20.00     0.048 C 
HETATM    3  C4  UNL     1     -34.098  15.891  -6.378  1.00 20.00     0.169 C 
HETATM    4  C5  UNL     1     -34.373  14.785  -4.345  1.00 20.00     0.117 C 
HETATM    5  C6  UNL     1     -33.439  13.685  -3.861  1.00 20.00     0.054 C 
HETATM    6  O11 UNL     1     -33.597  15.773  -5.040  1.00 20.00    -0.373 OA
ENDROOT
BRANCH   4   7
HETATM    7  C1  UNL     1     -34.998  15.492  -3.180  1.00 20.00     0.160 C 
HETATM    8  O10 UNL     1     -36.211  15.442  -2.983  1.00 20.00    -0.295 OA
BRANCH   7   9
HETATM    9  C8  UNL     1     -34.048  16.262  -2.278  1.00 20.00     0.081 C 
BRANCH   9  10
HETATM   10  C9  UNL     1     -34.660  16.571  -0.914  1.00 20.00     0.003 C 
HETATM   11  C7  UNL     1     -33.974  17.755  -0.252  1.00 20.00     0.005 C 
ENDBRANCH   9  10
ENDBRANCH   7   9
ENDBRANCH   4   7
TORSDOF 3
ENDMDL
MODEL 6
REMARK VINA RESULT:      -4.1      2.251      4.278
REMARK  3 active torsions:
REMARK  status: ('A' for Active; 'I' for Inactive)
REMARK    1  A    between atoms: C1_1  and  C5_5 
REMARK    2  A    between atoms: C1_1  and  C8_8 
REMARK    3  A    between atoms: C8_8  and  C9_9 
ROOT
HETATM    1  C2  UNL     1     -34.922  16.272  -6.877  1.00 20.00     0.029 C 
HETATM    2  C3  UNL     1     -34.899  16.407  -5.373  1.00 20.00     0.048 C 
HETATM    3  C4  UNL     1     -34.403  14.868  -7.074  1.00 20.00     0.169 C 
HETATM    4  C5  UNL     1     -35.242  14.998  -4.903  1.00 20.00     0.117 C 
HETATM    5  C6  UNL     1     -36.716  14.818  -4.566  1.00 20.00     0.054 C 
HETATM    6  O11 UNL     1     -34.904  14.100  -5.972  1.00 20.00    -0.373 OA
ENDROOT
BRANCH   4   7
HETATM    7  C1  UNL     1     -34.387  14.598  -3.739  1.00 20.00     0.160 C 
HETATM    8  O10 UNL     1     -34.177  13.413  -3.483  1.00 20.00    -0.295 OA
BRANCH   7   9
HETATM    9  C8  UNL     1     -33.808  15.733  -2.912  1.00 20.00     0.081 C 
BRANCH   9  10
HETATM   10  C9  UNL     1     -34.680  16.084  -1.709  1.00 20.00     0.003 C 
HETATM   11  C7  UNL     1     -34.079  17.222  -0.900  1.00 20.00     0.005 C 
ENDBRANCH   9  10
ENDBRANCH   7   9
ENDBRANCH   4   7
TORSDOF 3
ENDMDL
MODEL 7
REMARK VINA RESULT:      -4.0      2.196      3.350
REMARK  3 active torsions:
REMARK  status: ('A' for Active; 'I' for Inactive)
REMARK    1  A    between atoms: C1_1  and  C5_5 
REMARK    2  A    between atoms: C1_1  and  C8_8 
REMARK    3  A    between atoms: C8_8  and  C9_9 
ROOT
HETATM    1  C2  UNL     1     -33.689  16.876  -3.378  1.00 20.00     0.029 C 
HETATM    2  C3  UNL     1     -33.328  15.950  -4.514  1.00 20.00     0.048 C 
HETATM    3  C4  UNL     1     -34.968  16.259  -2.864  1.00 20.00     0.169 C 
HETATM    4  C5  UNL     1     -33.806  14.593  -4.008  1.00 20.00     0.117 C 
HETATM    5  C6  UNL     1     -32.699  13.763  -3.374  1.00 20.00     0.054 C 
HETATM    6  O11 UNL     1     -34.816  14.842  -3.018  1.00 20.00    -0.373 OA
ENDROOT
BRANCH   4   7
HETATM    7  C1  UNL     1     -34.480  13.820  -5.102  1.00 20.00     0.160 C 
HETATM    8  O10 UNL     1     -34.797  12.642  -4.944  1.00 20.00    -0.295 OA
BRANCH   7   9
HETATM    9  C8  UNL     1     -34.738  14.576  -6.394  1.00 20.00     0.081 C 
BRANCH   9  10
HETATM   10  C9  UNL     1     -36.221  14.860  -6.619  1.00 20.00     0.003 C 
HETATM   11  C7  UNL     1     -36.571  16.297  -6.271  1.00 20.00     0.005 C 
ENDBRANCH   9  10
ENDBRANCH   7   9
ENDBRANCH   4   7
TORSDOF 3
ENDMDL
MODEL 8
REMARK VINA RESULT:      -4.0      1.648      3.558
REMARK  3 active torsions:
REMARK  status: ('A' for Active; 'I' for Inactive)
REMARK    1  A    between atoms: C1_1  and  C5_5 
REMARK    2  A    between atoms: C1_1  and  C8_8 
REMARK    3  A    between atoms: C8_8  and  C9_9 
ROOT
HETATM    1  C2  UNL     1     -35.052  17.961  -5.708  1.00 20.00     0.029 C 
HETATM    2  C3  UNL     1     -35.517  16.708  -5.007  1.00 20.00     0.048 C 
HETATM    3  C4  UNL     1     -33.583  17.989  -5.359  1.00 20.00     0.169 C 
HETATM    4  C5  UNL     1     -34.308  15.786  -5.126  1.00 20.00     0.117 C 
HETATM    5  C6  UNL     1     -34.406  14.813  -6.292  1.00 20.00     0.054 C 
HETATM    6  O11 UNL     1     -33.156  16.621  -5.322  1.00 20.00    -0.373 OA
ENDROOT
BRANCH   4   7
HETATM    7  C1  UNL     1     -34.070  15.046  -3.844  1.00 20.00     0.160 C 
HETATM    8  O10 UNL     1     -33.310  14.079  -3.802  1.00 20.00    -0.295 OA
BRANCH   7   9
HETATM    9  C8  UNL     1     -34.817  15.560  -2.626  1.00 20.00     0.081 C 
BRANCH   9  10
HETATM   10  C9  UNL     1     -33.992  16.551  -1.809  1.00 20.00     0.003 C 
HETATM   11  C7  UNL     1     -34.666  16.879  -0.487  1.00 20.00     0.005 C 
ENDBRANCH   9  10
ENDBRANCH   7   9
ENDBRANCH   4   7
TORSDOF 3
ENDMDL
MODEL 9
REMARK VINA RESULT:      -4.0     12.600     14.405
REMARK  3 active torsions:
REMARK  status: ('A' for Active; 'I' for Inactive)
REMARK    1  A    between atoms: C1_1  and  C5_5 
REMARK    2  A    between atoms: C1_1  and  C8_8 
REMARK    3  A    between atoms: C8_8  and  C9_9 
ROOT
HETATM    1  C2  UNL     1     -40.670   6.129  -0.221  1.00 20.00     0.029 C 
HETATM    2  C3  UNL     1     -40.851   4.766  -0.846  1.00 20.00     0.048 C 
HETATM    3  C4  UNL     1     -41.551   6.993  -1.091  1.00 20.00     0.169 C 
HETATM    4  C5  UNL     1     -42.304   4.797  -1.307  1.00 20.00     0.117 C 
HETATM    5  C6  UNL     1     -43.263   4.144  -0.321  1.00 20.00     0.054 C 
HETATM    6  O11 UNL     1     -42.672   6.177  -1.457  1.00 20.00    -0.373 OA
ENDROOT
BRANCH   4   7
HETATM    7  C1  UNL     1     -42.449   4.180  -2.665  1.00 20.00     0.160 C 
HETATM    8  O10 UNL     1     -43.211   4.661  -3.502  1.00 20.00    -0.295 OA
BRANCH   7   9
HETATM    9  C8  UNL     1     -41.607   2.944  -2.932  1.00 20.00     0.081 C 
BRANCH   9  10
HETATM   10  C9  UNL     1     -42.456   1.714  -3.242  1.00 20.00     0.003 C 
HETATM   11  C7  UNL     1     -41.645   0.643  -3.953  1.00 20.00     0.005 C 
ENDBRANCH   9  10
ENDBRANCH   7   9
ENDBRANCH   4   7
TORSDOF 3
ENDMDL
