MODEL 1
REMARK VINA RESULT:      -4.3      0.000      0.000
REMARK  3 active torsions:
REMARK  status: ('A' for Active; 'I' for Inactive)
REMARK    1  A    between atoms: C6_6  and  C10_10 
REMARK    2  A    between atoms: C6_6  and  C11_11 
REMARK    3  A    between atoms: C9_9  and  N12_12 
ROOT
HETATM    1  C1  UNL     1     -35.173  14.250  -6.518  1.00 20.00     0.013 C 
HETATM    2  C2  UNL     1     -34.739  13.959  -5.437  1.00 20.00    -0.087 C 
HETATM    3  C9  UNL     1     -34.209  13.598  -4.120  1.00 20.00     0.364 C 
ENDROOT
BRANCH   3   4
HETATM    4  N12 UNL     1     -34.112  14.773  -3.266  1.00 20.00     0.100 N 
HETATM    5  C4  UNL     1     -33.295  15.833  -3.859  1.00 20.00     0.274 C 
HETATM    6  C3  UNL     1     -33.737  17.109  -3.141  1.00 20.00     0.041 C 
HETATM    7  C6  UNL     1     -35.017  16.729  -2.372  1.00 20.00    -0.013 C 
HETATM    8  C5  UNL     1     -35.414  15.391  -3.009  1.00 20.00     0.283 C 
BRANCH   7   9
HETATM    9  C10 UNL     1     -36.120  17.778  -2.538  1.00 20.00     0.007 C 
HETATM   10  C7  UNL     1     -36.575  17.860  -3.954  1.00 20.00     0.006 C 
ENDBRANCH   7   9
BRANCH   7  11
HETATM   11  C11 UNL     1     -34.705  16.557  -0.874  1.00 20.00     0.007 C 
HETATM   12  C8  UNL     1     -33.849  17.667  -0.360  1.00 20.00     0.006 C 
ENDBRANCH   7  11
ENDBRANCH   3   4
TORSDOF 3
ENDMDL
MODEL 2
REMARK VINA RESULT:      -4.2      1.532      4.463
REMARK  3 active torsions:
REMARK  status: ('A' for Active; 'I' for Inactive)
REMARK    1  A    between atoms: C6_6  and  C10_10 
REMARK    2  A    between atoms: C6_6  and  C11_11 
REMARK    3  A    between atoms: C9_9  and  N12_12 
ROOT
HETATM    1  C1  UNL     1     -34.758  16.576  -0.956  1.00 20.00     0.013 C 
HETATM    2  C2  UNL     1     -34.073  16.374  -1.921  1.00 20.00    -0.087 C 
HETATM    3  C9  UNL     1     -33.233  16.130  -3.096  1.00 20.00     0.364 C 
ENDROOT
BRANCH   3   4
HETATM    4  N12 UNL     1     -33.935  15.304  -4.067  1.00 20.00     0.100 N 
HETATM    5  C4  UNL     1     -34.368  14.023  -3.508  1.00 20.00     0.274 C 
HETATM    6  C3  UNL     1     -35.500  13.561  -4.428  1.00 20.00     0.041 C 
HETATM    7  C6  UNL     1     -35.844  14.781  -5.304  1.00 20.00    -0.013 C 
HETATM    8  C5  UNL     1     -35.158  15.938  -4.565  1.00 20.00     0.283 C 
BRANCH   7   9
HETATM    9  C10 UNL     1     -37.354  15.003  -5.412  1.00 20.00     0.007 C 
HETATM   10  C7  UNL     1     -38.029  14.759  -4.107  1.00 20.00     0.006 C 
ENDBRANCH   7   9
BRANCH   7  11
HETATM   11  C11 UNL     1     -35.257  14.602  -6.717  1.00 20.00     0.007 C 
HETATM   12  C8  UNL     1     -36.298  14.786  -7.771  1.00 20.00     0.006 C 
ENDBRANCH   7  11
ENDBRANCH   3   4
TORSDOF 3
ENDMDL
MODEL 3
REMARK VINA RESULT:      -4.2      1.167      4.649
REMARK  3 active torsions:
REMARK  status: ('A' for Active; 'I' for Inactive)
REMARK    1  A    between atoms: C6_6  and  C10_10 
REMARK    2  A    between atoms: C6_6  and  C11_11 
REMARK    3  A    between atoms: C9_9  and  N12_12 
ROOT
HETATM    1  C1  UNL     1     -34.670  16.891  -0.416  1.00 20.00     0.013 C 
HETATM    2  C2  UNL     1     -35.190  17.266  -1.431  1.00 20.00    -0.087 C 
HETATM    3  C9  UNL     1     -35.827  17.729  -2.666  1.00 20.00     0.364 C 
ENDROOT
BRANCH   3   4
HETATM    4  N12 UNL     1     -35.351  16.962  -3.808  1.00 20.00     0.100 N 
HETATM    5  C4  UNL     1     -33.915  17.127  -4.037  1.00 20.00     0.274 C 
HETATM    6  C3  UNL     1     -33.511  15.901  -4.857  1.00 20.00     0.041 C 
HETATM    7  C6  UNL     1     -34.717  14.943  -4.792  1.00 20.00    -0.013 C 
HETATM    8  C5  UNL     1     -35.550  15.521  -3.640  1.00 20.00     0.283 C 
BRANCH   7   9
HETATM    9  C10 UNL     1     -34.290  13.501  -4.506  1.00 20.00     0.007 C 
HETATM   10  C7  UNL     1     -33.093  13.459  -3.622  1.00 20.00     0.006 C 
ENDBRANCH   7   9
BRANCH   7  11
HETATM   11  C11 UNL     1     -35.501  14.986  -6.117  1.00 20.00     0.007 C 
HETATM   12  C8  UNL     1     -34.585  15.050  -7.295  1.00 20.00     0.006 C 
ENDBRANCH   7  11
ENDBRANCH   3   4
TORSDOF 3
ENDMDL
MODEL 4
REMARK VINA RESULT:      -4.2      1.190      4.486
REMARK  3 active torsions:
REMARK  status: ('A' for Active; 'I' for Inactive)
REMARK    1  A    between atoms: C6_6  and  C10_10 
REMARK    2  A    between atoms: C6_6  and  C11_11 
REMARK    3  A    between atoms: C9_9  and  N12_12 
ROOT
HETATM    1  C1  UNL     1     -35.126  17.388   0.670  1.00 20.00     0.013 C 
HETATM    2  C2  UNL     1     -34.511  17.288  -0.356  1.00 20.00    -0.087 C 
HETATM    3  C9  UNL     1     -33.757  17.169  -1.606  1.00 20.00     0.364 C 
ENDROOT
BRANCH   3   4
HETATM    4  N12 UNL     1     -34.396  16.218  -2.504  1.00 20.00     0.100 N 
HETATM    5  C4  UNL     1     -35.723  16.657  -2.936  1.00 20.00     0.274 C 
HETATM    6  C3  UNL     1     -35.989  15.875  -4.224  1.00 20.00     0.041 C 
HETATM    7  C6  UNL     1     -34.638  15.242  -4.610  1.00 20.00    -0.013 C 
HETATM    8  C5  UNL     1     -33.637  16.014  -3.740  1.00 20.00     0.283 C 
BRANCH   7   9
HETATM    9  C10 UNL     1     -34.331  15.409  -6.100  1.00 20.00     0.007 C 
HETATM   10  C7  UNL     1     -35.145  14.475  -6.926  1.00 20.00     0.006 C 
ENDBRANCH   7   9
BRANCH   7  11
HETATM   11  C11 UNL     1     -34.634  13.743  -4.258  1.00 20.00     0.007 C 
HETATM   12  C8  UNL     1     -33.292  13.294  -3.782  1.00 20.00     0.006 C 
ENDBRANCH   7  11
ENDBRANCH   3   4
TORSDOF 3
ENDMDL
MODEL 5
REMARK VINA RESULT:      -4.1      1.784      2.458
REMARK  3 active torsions:
REMARK  status: ('A' for Active; 'I' for Inactive)
REMARK    1  A    between atoms: C6_6  and  C10_10 
REMARK    2  A    between atoms: C6_6  and  C11_11 
REMARK    3  A    between atoms: C9_9  and  N12_12 
ROOT
HETATM    1  C1  UNL     1     -37.465  15.423  -6.736  1.00 20.00     0.013 C 
HETATM    2  C2  UNL     1     -37.622  15.156  -5.576  1.00 20.00    -0.087 C 
HETATM    3  C9  UNL     1     -37.821  14.827  -4.162  1.00 20.00     0.364 C 
ENDROOT
BRANCH   3   4
HETATM    4  N12 UNL     1     -36.584  15.004  -3.415  1.00 20.00     0.100 N 
HETATM    5  C4  UNL     1     -35.525  14.097  -3.859  1.00 20.00     0.274 C 
HETATM    6  C3  UNL     1     -34.227  14.759  -3.394  1.00 20.00     0.041 C 
HETATM    7  C6  UNL     1     -34.623  16.184  -2.961  1.00 20.00    -0.013 C 
HETATM    8  C5  UNL     1     -36.024  16.349  -3.564  1.00 20.00     0.283 C 
BRANCH   7   9
HETATM    9  C10 UNL     1     -33.654  17.239  -3.501  1.00 20.00     0.007 C 
HETATM   10  C7  UNL     1     -33.500  17.122  -4.978  1.00 20.00     0.006 C 
ENDBRANCH   7   9
BRANCH   7  11
HETATM   11  C11 UNL     1     -34.669  16.279  -1.425  1.00 20.00     0.007 C 
HETATM   12  C8  UNL     1     -33.865  17.432  -0.921  1.00 20.00     0.006 C 
ENDBRANCH   7  11
ENDBRANCH   3   4
TORSDOF 3
ENDMDL
MODEL 6
REMARK VINA RESULT:      -4.1      1.602      4.424
REMARK  3 active torsions:
REMARK  status: ('A' for Active; 'I' for Inactive)
REMARK    1  A    between atoms: C6_6  and  C10_10 
REMARK    2  A    between atoms: C6_6  and  C11_11 
REMARK    3  A    between atoms: C9_9  and  N12_12 
ROOT
HETATM    1  C1  UNL     1     -34.815  17.077  -0.109  1.00 20.00     0.013 C 
HETATM    2  C2  UNL     1     -34.328  17.442  -1.144  1.00 20.00    -0.087 C 
HETATM    3  C9  UNL     1     -33.729  17.892  -2.402  1.00 20.00     0.364 C 
ENDROOT
BRANCH   3   4
HETATM    4  N12 UNL     1     -34.338  17.208  -3.534  1.00 20.00     0.100 N 
HETATM    5  C4  UNL     1     -33.580  17.385  -4.773  1.00 20.00     0.274 C 
HETATM    6  C3  UNL     1     -34.015  16.220  -5.664  1.00 20.00     0.041 C 
HETATM    7  C6  UNL     1     -34.794  15.263  -4.741  1.00 20.00    -0.013 C 
HETATM    8  C5  UNL     1     -34.418  15.758  -3.338  1.00 20.00     0.283 C 
BRANCH   7   9
HETATM    9  C10 UNL     1     -34.382  13.803  -4.948  1.00 20.00     0.007 C 
HETATM   10  C7  UNL     1     -33.476  13.340  -3.860  1.00 20.00     0.006 C 
ENDBRANCH   7   9
BRANCH   7  11
HETATM   11  C11 UNL     1     -36.308  15.401  -4.989  1.00 20.00     0.007 C 
HETATM   12  C8  UNL     1     -37.102  14.701  -3.936  1.00 20.00     0.006 C 
ENDBRANCH   7  11
ENDBRANCH   3   4
TORSDOF 3
ENDMDL
MODEL 7
REMARK VINA RESULT:      -4.0      1.847      3.408
REMARK  3 active torsions:
REMARK  status: ('A' for Active; 'I' for Inactive)
REMARK    1  A    between atoms: C6_6  and  C10_10 
REMARK    2  A    between atoms: C6_6  and  C11_11 
REMARK    3  A    between atoms: C9_9  and  N12_12 
ROOT
HETATM    1  C1  UNL     1     -37.359  15.219  -7.664  1.00 20.00     0.013 C 
HETATM    2  C2  UNL     1     -36.980  16.137  -6.990  1.00 20.00    -0.087 C 
HETATM    3  C9  UNL     1     -36.519  17.262  -6.173  1.00 20.00     0.364 C 
ENDROOT
BRANCH   3   4
HETATM    4  N12 UNL     1     -36.007  16.792  -4.894  1.00 20.00     0.100 N 
HETATM    5  C4  UNL     1     -36.996  16.019  -4.142  1.00 20.00     0.274 C 
HETATM    6  C3  UNL     1     -36.170  15.184  -3.161  1.00 20.00     0.041 C 
HETATM    7  C6  UNL     1     -34.709  15.322  -3.629  1.00 20.00    -0.013 C 
HETATM    8  C5  UNL     1     -34.855  15.900  -5.043  1.00 20.00     0.283 C 
BRANCH   7   9
HETATM    9  C10 UNL     1     -33.982  13.974  -3.648  1.00 20.00     0.007 C 
HETATM   10  C7  UNL     1     -34.470  13.115  -4.762  1.00 20.00     0.006 C 
ENDBRANCH   7   9
BRANCH   7  11
HETATM   11  C11 UNL     1     -33.946  16.295  -2.711  1.00 20.00     0.007 C 
HETATM   12  C8  UNL     1     -34.586  16.396  -1.366  1.00 20.00     0.006 C 
ENDBRANCH   7  11
ENDBRANCH   3   4
TORSDOF 3
ENDMDL
MODEL 8
REMARK VINA RESULT:      -3.9      1.979      3.179
REMARK  3 active torsions:
REMARK  status: ('A' for Active; 'I' for Inactive)
REMARK    1  A    between atoms: C6_6  and  C10_10 
REMARK    2  A    between atoms: C6_6  and  C11_11 
REMARK    3  A    between atoms: C9_9  and  N12_12 
ROOT
HETATM    1  C1  UNL     1     -38.409  15.319  -6.850  1.00 20.00     0.013 C 
HETATM    2  C2  UNL     1     -37.404  15.957  -6.697  1.00 20.00    -0.087 C 
HETATM    3  C9  UNL     1     -36.180  16.740  -6.513  1.00 20.00     0.364 C 
ENDROOT
BRANCH   3   4
HETATM    4  N12 UNL     1     -35.292  16.089  -5.560  1.00 20.00     0.100 N 
HETATM    5  C4  UNL     1     -34.013  16.785  -5.418  1.00 20.00     0.274 C 
HETATM    6  C3  UNL     1     -33.471  16.327  -4.062  1.00 20.00     0.041 C 
HETATM    7  C6  UNL     1     -34.645  15.609  -3.370  1.00 20.00    -0.013 C 
HETATM    8  C5  UNL     1     -35.855  16.042  -4.208  1.00 20.00     0.283 C 
BRANCH   7   9
HETATM    9  C10 UNL     1     -34.797  16.035  -1.907  1.00 20.00     0.007 C 
HETATM   10  C7  UNL     1     -33.777  17.055  -1.535  1.00 20.00     0.006 C 
ENDBRANCH   7   9
BRANCH   7  11
HETATM   11  C11 UNL     1     -34.446  14.083  -3.434  1.00 20.00     0.007 C 
HETATM   12  C8  UNL     1     -33.010  13.724  -3.625  1.00 20.00     0.006 C 
ENDBRANCH   7  11
ENDBRANCH   3   4
TORSDOF 3
ENDMDL
MODEL 9
REMARK VINA RESULT:      -3.9      1.733      4.461
REMARK  3 active torsions:
REMARK  status: ('A' for Active; 'I' for Inactive)
REMARK    1  A    between atoms: C6_6  and  C10_10 
REMARK    2  A    between atoms: C6_6  and  C11_11 
REMARK    3  A    between atoms: C9_9  and  N12_12 
ROOT
HETATM    1  C1  UNL     1     -34.720  17.156  -0.396  1.00 20.00     0.013 C 
HETATM    2  C2  UNL     1     -34.695  16.384  -1.316  1.00 20.00    -0.087 C 
HETATM    3  C9  UNL     1     -34.664  15.438  -2.434  1.00 20.00     0.364 C 
ENDROOT
BRANCH   3   4
HETATM    4  N12 UNL     1     -34.772  16.140  -3.704  1.00 20.00     0.100 N 
HETATM    5  C4  UNL     1     -33.548  16.864  -4.052  1.00 20.00     0.274 C 
HETATM    6  C3  UNL     1     -33.630  17.057  -5.567  1.00 20.00     0.041 C 
HETATM    7  C6  UNL     1     -34.784  16.151  -6.038  1.00 20.00    -0.013 C 
HETATM    8  C5  UNL     1     -35.014  15.234  -4.829  1.00 20.00     0.283 C 
BRANCH   7   9
HETATM    9  C10 UNL     1     -34.411  15.348  -7.286  1.00 20.00     0.007 C 
HETATM   10  C7  UNL     1     -35.517  14.434  -7.689  1.00 20.00     0.006 C 
ENDBRANCH   7   9
BRANCH   7  11
HETATM   11  C11 UNL     1     -36.036  16.997  -6.336  1.00 20.00     0.007 C 
HETATM   12  C8  UNL     1     -35.675  18.331  -6.900  1.00 20.00     0.006 C 
ENDBRANCH   7  11
ENDBRANCH   3   4
TORSDOF 3
ENDMDL
