MODEL 1
REMARK VINA RESULT:      -4.3      0.000      0.000
REMARK  4 active torsions:
REMARK  status: ('A' for Active; 'I' for Inactive)
REMARK    1  A    between atoms: C3_3  and  C10_10 
REMARK    2  A    between atoms: C8_8  and  C9_9 
REMARK    3  A    between atoms: C9_9  and  C10_10 
REMARK    4  A    between atoms: C10_10  and  O11_11 
ROOT
HETATM    1  C7  UNL     1     -33.624  17.614  -3.947  1.00 20.00     0.047 C 
HETATM    2  C10 UNL     1     -33.760  16.280  -4.653  1.00 20.00     0.065 C 
ENDROOT
BRANCH   2   3
HETATM    3  C3  UNL     1     -34.313  15.232  -3.679  1.00 20.00    -0.013 A 
HETATM    4  C1  UNL     1     -35.797  15.245  -3.394  1.00 20.00     0.013 A 
HETATM    5  C2  UNL     1     -34.830  15.712  -2.343  1.00 20.00     0.013 A 
HETATM    6  C4  UNL     1     -33.616  13.901  -3.730  1.00 20.00     0.018 C 
ENDBRANCH   2   3
BRANCH   2   7
HETATM    7  C9  UNL     1     -34.594  16.404  -5.972  1.00 20.00     0.016 C 
HETATM    8  C6  UNL     1     -34.467  17.803  -6.603  1.00 20.00     0.013 C 
BRANCH   7   9
HETATM    9  C8  UNL     1     -34.263  15.304  -7.009  1.00 20.00     0.002 C 
HETATM   10  C5  UNL     1     -35.426  14.361  -7.292  1.00 20.00     0.005 C 
ENDBRANCH   7   9
ENDBRANCH   2   7
BRANCH   2  11
HETATM   11  O11 UNL     1     -32.432  15.850  -4.993  1.00 20.00    -0.389 OA
HETATM   12  H31 UNL     1     -31.850  16.590  -4.776  1.00 20.00     0.210 HD
ENDBRANCH   2  11
TORSDOF 4
ENDMDL
MODEL 2
REMARK VINA RESULT:      -4.3      0.503      1.225
REMARK  4 active torsions:
REMARK  status: ('A' for Active; 'I' for Inactive)
REMARK    1  A    between atoms: C3_3  and  C10_10 
REMARK    2  A    between atoms: C8_8  and  C9_9 
REMARK    3  A    between atoms: C9_9  and  C10_10 
REMARK    4  A    between atoms: C10_10  and  O11_11 
ROOT
HETATM    1  C7  UNL     1     -33.669  17.883  -4.196  1.00 20.00     0.047 C 
HETATM    2  C10 UNL     1     -33.868  16.441  -4.619  1.00 20.00     0.065 C 
ENDROOT
BRANCH   2   3
HETATM    3  C3  UNL     1     -34.352  15.612  -3.423  1.00 20.00    -0.013 A 
HETATM    4  C1  UNL     1     -34.233  14.108  -3.509  1.00 20.00     0.013 A 
HETATM    5  C2  UNL     1     -35.584  14.758  -3.607  1.00 20.00     0.013 A 
HETATM    6  C4  UNL     1     -34.136  16.261  -2.084  1.00 20.00     0.018 C 
ENDBRANCH   2   3
BRANCH   2   7
HETATM    7  C9  UNL     1     -34.800  16.327  -5.872  1.00 20.00     0.016 C 
HETATM    8  C6  UNL     1     -35.154  17.708  -6.453  1.00 20.00     0.013 C 
BRANCH   7   9
HETATM    9  C8  UNL     1     -34.232  15.399  -6.972  1.00 20.00     0.002 C 
HETATM   10  C5  UNL     1     -35.280  14.500  -7.616  1.00 20.00     0.005 C 
ENDBRANCH   7   9
ENDBRANCH   2   7
BRANCH   2  11
HETATM   11  O11 UNL     1     -32.573  15.926  -4.967  1.00 20.00    -0.389 OA
HETATM   12  H31 UNL     1     -32.048  15.960  -4.156  1.00 20.00     0.210 HD
ENDBRANCH   2  11
TORSDOF 4
ENDMDL
MODEL 3
REMARK VINA RESULT:      -4.2      1.329      3.488
REMARK  4 active torsions:
REMARK  status: ('A' for Active; 'I' for Inactive)
REMARK    1  A    between atoms: C3_3  and  C10_10 
REMARK    2  A    between atoms: C8_8  and  C9_9 
REMARK    3  A    between atoms: C9_9  and  C10_10 
REMARK    4  A    between atoms: C10_10  and  O11_11 
ROOT
HETATM    1  C7  UNL     1     -32.681  14.599  -3.466  1.00 20.00     0.047 C 
HETATM    2  C10 UNL     1     -33.544  15.503  -4.325  1.00 20.00     0.065 C 
ENDROOT
BRANCH   2   3
HETATM    3  C3  UNL     1     -34.478  14.652  -5.195  1.00 20.00    -0.013 A 
HETATM    4  C1  UNL     1     -35.780  14.184  -4.589  1.00 20.00     0.013 A 
HETATM    5  C2  UNL     1     -34.667  13.201  -4.820  1.00 20.00     0.013 A 
HETATM    6  C4  UNL     1     -34.468  15.008  -6.656  1.00 20.00     0.018 C 
ENDBRANCH   2   3
BRANCH   2   7
HETATM    7  C9  UNL     1     -34.298  16.573  -3.467  1.00 20.00     0.016 C 
HETATM    8  C6  UNL     1     -34.181  16.288  -1.959  1.00 20.00     0.013 C 
BRANCH   7   9
HETATM    9  C8  UNL     1     -33.864  18.024  -3.785  1.00 20.00     0.002 C 
HETATM   10  C5  UNL     1     -33.620  18.876  -2.545  1.00 20.00     0.005 C 
ENDBRANCH   7   9
ENDBRANCH   2   7
BRANCH   2  11
HETATM   11  O11 UNL     1     -32.662  16.184  -5.231  1.00 20.00    -0.389 OA
HETATM   12  H31 UNL     1     -31.823  15.704  -5.196  1.00 20.00     0.210 HD
ENDBRANCH   2  11
TORSDOF 4
ENDMDL
MODEL 4
REMARK VINA RESULT:      -4.2      1.905      3.918
REMARK  4 active torsions:
REMARK  status: ('A' for Active; 'I' for Inactive)
REMARK    1  A    between atoms: C3_3  and  C10_10 
REMARK    2  A    between atoms: C8_8  and  C9_9 
REMARK    3  A    between atoms: C9_9  and  C10_10 
REMARK    4  A    between atoms: C10_10  and  O11_11 
ROOT
HETATM    1  C7  UNL     1     -35.709  16.956  -4.594  1.00 20.00     0.047 C 
HETATM    2  C10 UNL     1     -35.165  15.881  -3.673  1.00 20.00     0.065 C 
ENDROOT
BRANCH   2   3
HETATM    3  C3  UNL     1     -34.577  14.735  -4.505  1.00 20.00    -0.013 A 
HETATM    4  C1  UNL     1     -34.946  13.321  -4.123  1.00 20.00     0.013 A 
HETATM    5  C2  UNL     1     -33.561  13.833  -3.846  1.00 20.00     0.013 A 
HETATM    6  C4  UNL     1     -34.401  15.049  -5.965  1.00 20.00     0.018 C 
ENDBRANCH   2   3
BRANCH   2   7
HETATM    7  C9  UNL     1     -34.161  16.469  -2.625  1.00 20.00     0.016 C 
HETATM    8  C6  UNL     1     -33.766  17.919  -2.958  1.00 20.00     0.013 C 
BRANCH   7   9
HETATM    9  C8  UNL     1     -34.668  16.360  -1.168  1.00 20.00     0.002 C 
HETATM   10  C5  UNL     1     -34.269  17.540  -0.290  1.00 20.00     0.005 C 
ENDBRANCH   7   9
ENDBRANCH   2   7
BRANCH   2  11
HETATM   11  O11 UNL     1     -36.288  15.329  -2.968  1.00 20.00    -0.389 OA
HETATM   12  H31 UNL     1     -37.011  15.960  -3.084  1.00 20.00     0.210 HD
ENDBRANCH   2  11
TORSDOF 4
ENDMDL
MODEL 5
REMARK VINA RESULT:      -4.2      0.976      3.863
REMARK  4 active torsions:
REMARK  status: ('A' for Active; 'I' for Inactive)
REMARK    1  A    between atoms: C3_3  and  C10_10 
REMARK    2  A    between atoms: C8_8  and  C9_9 
REMARK    3  A    between atoms: C9_9  and  C10_10 
REMARK    4  A    between atoms: C10_10  and  O11_11 
ROOT
HETATM    1  C7  UNL     1     -34.131  13.962  -4.686  1.00 20.00     0.047 C 
HETATM    2  C10 UNL     1     -33.993  15.471  -4.741  1.00 20.00     0.065 C 
ENDROOT
BRANCH   2   3
HETATM    3  C3  UNL     1     -34.424  15.981  -6.121  1.00 20.00    -0.013 A 
HETATM    4  C1  UNL     1     -34.042  17.391  -6.506  1.00 20.00     0.013 A 
HETATM    5  C2  UNL     1     -35.472  17.068  -6.178  1.00 20.00     0.013 A 
HETATM    6  C4  UNL     1     -34.435  14.934  -7.200  1.00 20.00     0.018 C 
ENDBRANCH   2   3
BRANCH   2   7
HETATM    7  C9  UNL     1     -34.747  16.166  -3.557  1.00 20.00     0.016 C 
HETATM    8  C6  UNL     1     -35.980  15.362  -3.110  1.00 20.00     0.013 C 
BRANCH   7   9
HETATM    9  C8  UNL     1     -33.830  16.479  -2.351  1.00 20.00     0.002 C 
HETATM   10  C5  UNL     1     -34.570  16.544  -1.021  1.00 20.00     0.005 C 
ENDBRANCH   7   9
ENDBRANCH   2   7
BRANCH   2  11
HETATM   11  O11 UNL     1     -32.592  15.766  -4.624  1.00 20.00    -0.389 OA
HETATM   12  H31 UNL     1     -32.532  16.723  -4.498  1.00 20.00     0.210 HD
ENDBRANCH   2  11
TORSDOF 4
ENDMDL
MODEL 6
REMARK VINA RESULT:      -4.2     11.582     13.593
REMARK  4 active torsions:
REMARK  status: ('A' for Active; 'I' for Inactive)
REMARK    1  A    between atoms: C3_3  and  C10_10 
REMARK    2  A    between atoms: C8_8  and  C9_9 
REMARK    3  A    between atoms: C9_9  and  C10_10 
REMARK    4  A    between atoms: C10_10  and  O11_11 
ROOT
HETATM    1  C7  UNL     1     -34.941   5.312   3.379  1.00 20.00     0.047 C 
HETATM    2  C10 UNL     1     -34.029   6.196   4.207  1.00 20.00     0.065 C 
ENDROOT
BRANCH   2   3
HETATM    3  C3  UNL     1     -34.155   5.825   5.690  1.00 20.00    -0.013 A 
HETATM    4  C1  UNL     1     -33.834   4.405   6.094  1.00 20.00     0.013 A 
HETATM    5  C2  UNL     1     -35.261   4.877   6.090  1.00 20.00     0.013 A 
HETATM    6  C4  UNL     1     -33.792   6.929   6.644  1.00 20.00     0.018 C 
ENDBRANCH   2   3
BRANCH   2   7
HETATM    7  C9  UNL     1     -32.555   6.164   3.681  1.00 20.00     0.016 C 
HETATM    8  C6  UNL     1     -32.423   5.333   2.392  1.00 20.00     0.013 C 
BRANCH   7   9
HETATM    9  C8  UNL     1     -31.945   7.573   3.489  1.00 20.00     0.002 C 
HETATM   10  C5  UNL     1     -31.984   8.066   2.048  1.00 20.00     0.005 C 
ENDBRANCH   7   9
ENDBRANCH   2   7
BRANCH   2  11
HETATM   11  O11 UNL     1     -34.526   7.538   4.086  1.00 20.00    -0.389 OA
HETATM   12  H31 UNL     1     -33.923   7.991   3.481  1.00 20.00     0.210 HD
ENDBRANCH   2  11
TORSDOF 4
ENDMDL
MODEL 7
REMARK VINA RESULT:      -4.1      1.130      3.856
REMARK  4 active torsions:
REMARK  status: ('A' for Active; 'I' for Inactive)
REMARK    1  A    between atoms: C3_3  and  C10_10 
REMARK    2  A    between atoms: C8_8  and  C9_9 
REMARK    3  A    between atoms: C9_9  and  C10_10 
REMARK    4  A    between atoms: C10_10  and  O11_11 
ROOT
HETATM    1  C7  UNL     1     -34.347  14.932  -6.237  1.00 20.00     0.047 C 
HETATM    2  C10 UNL     1     -34.026  15.886  -5.103  1.00 20.00     0.065 C 
ENDROOT
BRANCH   2   3
HETATM    3  C3  UNL     1     -34.582  17.278  -5.426  1.00 20.00    -0.013 A 
HETATM    4  C1  UNL     1     -36.013  17.576  -5.042  1.00 20.00     0.013 A 
HETATM    5  C2  UNL     1     -35.652  17.384  -6.487  1.00 20.00     0.013 A 
HETATM    6  C4  UNL     1     -33.578  18.393  -5.322  1.00 20.00     0.018 C 
ENDBRANCH   2   3
BRANCH   2   7
HETATM    7  C9  UNL     1     -34.506  15.329  -3.722  1.00 20.00     0.016 C 
HETATM    8  C6  UNL     1     -34.438  13.792  -3.666  1.00 20.00     0.013 C 
BRANCH   7   9
HETATM    9  C8  UNL     1     -33.760  15.954  -2.519  1.00 20.00     0.002 C 
HETATM   10  C5  UNL     1     -34.685  16.444  -1.413  1.00 20.00     0.005 C 
ENDBRANCH   7   9
ENDBRANCH   2   7
BRANCH   2  11
HETATM   11  O11 UNL     1     -32.597  16.024  -5.066  1.00 20.00    -0.389 OA
HETATM   12  H31 UNL     1     -32.397  16.849  -5.530  1.00 20.00     0.210 HD
ENDBRANCH   2  11
TORSDOF 4
ENDMDL
MODEL 8
REMARK VINA RESULT:      -4.1      1.333      3.416
REMARK  4 active torsions:
REMARK  status: ('A' for Active; 'I' for Inactive)
REMARK    1  A    between atoms: C3_3  and  C10_10 
REMARK    2  A    between atoms: C8_8  and  C9_9 
REMARK    3  A    between atoms: C9_9  and  C10_10 
REMARK    4  A    between atoms: C10_10  and  O11_11 
ROOT
HETATM    1  C7  UNL     1     -32.539  14.479  -3.452  1.00 20.00     0.047 C 
HETATM    2  C10 UNL     1     -33.426  15.440  -4.221  1.00 20.00     0.065 C 
ENDROOT
BRANCH   2   3
HETATM    3  C3  UNL     1     -34.440  14.651  -5.059  1.00 20.00    -0.013 A 
HETATM    4  C1  UNL     1     -35.674  14.124  -4.365  1.00 20.00     0.013 A 
HETATM    5  C2  UNL     1     -34.588  13.174  -4.783  1.00 20.00     0.013 A 
HETATM    6  C4  UNL     1     -34.576  15.121  -6.481  1.00 20.00     0.018 C 
ENDBRANCH   2   3
BRANCH   2   7
HETATM    7  C9  UNL     1     -34.088  16.500  -3.278  1.00 20.00     0.016 C 
HETATM    8  C6  UNL     1     -35.100  17.384  -4.028  1.00 20.00     0.013 C 
BRANCH   7   9
HETATM    9  C8  UNL     1     -34.733  15.876  -2.019  1.00 20.00     0.002 C 
HETATM   10  C5  UNL     1     -34.582  16.730  -0.766  1.00 20.00     0.005 C 
ENDBRANCH   7   9
ENDBRANCH   2   7
BRANCH   2  11
HETATM   11  O11 UNL     1     -32.581  16.128  -5.157  1.00 20.00    -0.389 OA
HETATM   12  H31 UNL     1     -31.838  15.535  -5.330  1.00 20.00     0.210 HD
ENDBRANCH   2  11
TORSDOF 4
ENDMDL
MODEL 9
REMARK VINA RESULT:      -4.1      1.187      2.792
REMARK  4 active torsions:
REMARK  status: ('A' for Active; 'I' for Inactive)
REMARK    1  A    between atoms: C3_3  and  C10_10 
REMARK    2  A    between atoms: C8_8  and  C9_9 
REMARK    3  A    between atoms: C9_9  and  C10_10 
REMARK    4  A    between atoms: C10_10  and  O11_11 
ROOT
HETATM    1  C7  UNL     1     -33.907  15.447  -3.083  1.00 20.00     0.047 C 
HETATM    2  C10 UNL     1     -33.889  15.843  -4.546  1.00 20.00     0.065 C 
ENDROOT
BRANCH   2   3
HETATM    3  C3  UNL     1     -34.524  14.732  -5.391  1.00 20.00    -0.013 A 
HETATM    4  C1  UNL     1     -34.473  14.869  -6.895  1.00 20.00     0.013 A 
HETATM    5  C2  UNL     1     -35.774  15.063  -6.171  1.00 20.00     0.013 A 
HETATM    6  C4  UNL     1     -34.402  13.353  -4.804  1.00 20.00     0.018 C 
ENDBRANCH   2   3
BRANCH   2   7
HETATM    7  C9  UNL     1     -34.542  17.248  -4.775  1.00 20.00     0.016 C 
HETATM    8  C6  UNL     1     -35.142  17.821  -3.478  1.00 20.00     0.013 C 
BRANCH   7   9
HETATM    9  C8  UNL     1     -33.581  18.267  -5.431  1.00 20.00     0.002 C 
HETATM   10  C5  UNL     1     -33.947  18.617  -6.868  1.00 20.00     0.005 C 
ENDBRANCH   7   9
ENDBRANCH   2   7
BRANCH   2  11
HETATM   11  O11 UNL     1     -32.511  15.912  -4.943  1.00 20.00    -0.389 OA
HETATM   12  H31 UNL     1     -32.018  15.411  -4.279  1.00 20.00     0.210 HD
ENDBRANCH   2  11
TORSDOF 4
ENDMDL
