MODEL 1
REMARK VINA RESULT:      -4.4      0.000      0.000
REMARK  2 active torsions:
REMARK  status: ('A' for Active; 'I' for Inactive)
REMARK    1  A    between atoms: C1_1  and  C4_4 
REMARK    2  A    between atoms: C1_1  and  C6_6 
ROOT
HETATM    1  C2  UNL     1     -35.155   5.017   6.237  1.00 20.00     0.018 A 
HETATM    2  C3  UNL     1     -34.482   3.947   5.433  1.00 20.00     0.018 A 
HETATM    3  C4  UNL     1     -34.710   5.315   4.821  1.00 20.00     0.018 A 
HETATM    4  C5  UNL     1     -35.787   5.425   3.771  1.00 20.00     0.023 C 
ENDROOT
BRANCH   3   5
HETATM    5  C1  UNL     1     -33.519   6.185   4.660  1.00 20.00     0.148 C 
HETATM    6  O7  UNL     1     -33.128   6.888   5.590  1.00 20.00    -0.296 OA
BRANCH   5   7
HETATM    7  C6  UNL     1     -32.851   6.139   3.305  1.00 20.00     0.193 C 
HETATM    8 CL8  UNL     1     -31.873   7.591   3.040  1.00 20.00    -0.123 Cl
ENDBRANCH   5   7
ENDBRANCH   3   5
TORSDOF 2
ENDMDL
MODEL 2
REMARK VINA RESULT:      -4.2      1.488      1.904
REMARK  2 active torsions:
REMARK  status: ('A' for Active; 'I' for Inactive)
REMARK    1  A    between atoms: C1_1  and  C4_4 
REMARK    2  A    between atoms: C1_1  and  C6_6 
ROOT
HETATM    1  C2  UNL     1     -34.391   4.089   5.337  1.00 20.00     0.018 A 
HETATM    2  C3  UNL     1     -35.580   4.895   4.913  1.00 20.00     0.018 A 
HETATM    3  C4  UNL     1     -34.218   5.555   5.001  1.00 20.00     0.018 A 
HETATM    4  C5  UNL     1     -33.988   6.500   6.152  1.00 20.00     0.023 C 
ENDROOT
BRANCH   3   5
HETATM    5  C1  UNL     1     -33.544   5.875   3.719  1.00 20.00     0.148 C 
HETATM    6  O7  UNL     1     -33.959   5.409   2.660  1.00 20.00    -0.296 OA
BRANCH   5   7
HETATM    7  C6  UNL     1     -32.345   6.790   3.819  1.00 20.00     0.193 C 
HETATM    8 CL8  UNL     1     -32.177   7.765   2.352  1.00 20.00    -0.123 Cl
ENDBRANCH   5   7
ENDBRANCH   3   5
TORSDOF 2
ENDMDL
MODEL 3
REMARK VINA RESULT:      -3.8      1.863      2.702
REMARK  2 active torsions:
REMARK  status: ('A' for Active; 'I' for Inactive)
REMARK    1  A    between atoms: C1_1  and  C4_4 
REMARK    2  A    between atoms: C1_1  and  C6_6 
ROOT
HETATM    1  C2  UNL     1     -34.422   5.099   2.853  1.00 20.00     0.018 A 
HETATM    2  C3  UNL     1     -35.655   5.779   3.362  1.00 20.00     0.018 A 
HETATM    3  C4  UNL     1     -34.643   5.226   4.345  1.00 20.00     0.018 A 
HETATM    4  C5  UNL     1     -35.025   3.973   5.091  1.00 20.00     0.023 C 
ENDROOT
BRANCH   3   5
HETATM    5  C1  UNL     1     -33.801   6.212   5.067  1.00 20.00     0.148 C 
HETATM    6  O7  UNL     1     -32.880   6.788   4.493  1.00 20.00    -0.296 OA
BRANCH   5   7
HETATM    7  C6  UNL     1     -34.158   6.441   6.518  1.00 20.00     0.193 C 
HETATM    8 CL8  UNL     1     -33.120   7.685   7.229  1.00 20.00    -0.123 Cl
ENDBRANCH   5   7
ENDBRANCH   3   5
TORSDOF 2
ENDMDL
MODEL 4
REMARK VINA RESULT:      -3.8     12.537     13.053
REMARK  2 active torsions:
REMARK  status: ('A' for Active; 'I' for Inactive)
REMARK    1  A    between atoms: C1_1  and  C4_4 
REMARK    2  A    between atoms: C1_1  and  C6_6 
ROOT
HETATM    1  C2  UNL     1     -33.283  15.895  -4.551  1.00 20.00     0.018 A 
HETATM    2  C3  UNL     1     -32.711  14.857  -3.635  1.00 20.00     0.018 A 
HETATM    3  C4  UNL     1     -34.204  14.888  -3.894  1.00 20.00     0.018 A 
HETATM    4  C5  UNL     1     -35.083  15.388  -2.777  1.00 20.00     0.023 C 
ENDROOT
BRANCH   3   5
HETATM    5  C1  UNL     1     -34.756  13.818  -4.761  1.00 20.00     0.148 C 
HETATM    6  O7  UNL     1     -34.974  12.696  -4.309  1.00 20.00    -0.296 OA
BRANCH   5   7
HETATM    7  C6  UNL     1     -35.018  14.208  -6.198  1.00 20.00     0.193 C 
HETATM    8 CL8  UNL     1     -36.529  15.120  -6.333  1.00 20.00    -0.123 Cl
ENDBRANCH   5   7
ENDBRANCH   3   5
TORSDOF 2
ENDMDL
MODEL 5
REMARK VINA RESULT:      -3.7      2.612      3.691
REMARK  2 active torsions:
REMARK  status: ('A' for Active; 'I' for Inactive)
REMARK    1  A    between atoms: C1_1  and  C4_4 
REMARK    2  A    between atoms: C1_1  and  C6_6 
ROOT
HETATM    1  C2  UNL     1     -32.757   7.284   2.882  1.00 20.00     0.018 A 
HETATM    2  C3  UNL     1     -31.977   6.092   3.346  1.00 20.00     0.018 A 
HETATM    3  C4  UNL     1     -33.359   6.352   3.912  1.00 20.00     0.018 A 
HETATM    4  C5  UNL     1     -33.435   6.855   5.331  1.00 20.00     0.023 C 
ENDROOT
BRANCH   3   5
HETATM    5  C1  UNL     1     -34.451   5.458   3.453  1.00 20.00     0.148 C 
HETATM    6  O7  UNL     1     -34.501   5.081   2.284  1.00 20.00    -0.296 OA
BRANCH   5   7
HETATM    7  C6  UNL     1     -35.462   5.065   4.505  1.00 20.00     0.193 C 
HETATM    8 CL8  UNL     1     -34.831   3.764   5.525  1.00 20.00    -0.123 Cl
ENDBRANCH   5   7
ENDBRANCH   3   5
TORSDOF 2
ENDMDL
MODEL 6
REMARK VINA RESULT:      -3.7     12.190     13.381
REMARK  2 active torsions:
REMARK  status: ('A' for Active; 'I' for Inactive)
REMARK    1  A    between atoms: C1_1  and  C4_4 
REMARK    2  A    between atoms: C1_1  and  C6_6 
ROOT
HETATM    1  C2  UNL     1     -35.246  14.251  -7.191  1.00 20.00     0.018 A 
HETATM    2  C3  UNL     1     -34.277  15.290  -6.718  1.00 20.00     0.018 A 
HETATM    3  C4  UNL     1     -35.281  14.703  -5.747  1.00 20.00     0.018 A 
HETATM    4  C5  UNL     1     -36.430  15.586  -5.331  1.00 20.00     0.023 C 
ENDROOT
BRANCH   3   5
HETATM    5  C1  UNL     1     -34.758  13.754  -4.734  1.00 20.00     0.148 C 
HETATM    6  O7  UNL     1     -34.745  12.545  -4.956  1.00 20.00    -0.296 OA
BRANCH   5   7
HETATM    7  C6  UNL     1     -34.262  14.374  -3.448  1.00 20.00     0.193 C 
HETATM    8 CL8  UNL     1     -32.539  14.762  -3.565  1.00 20.00    -0.123 Cl
ENDBRANCH   5   7
ENDBRANCH   3   5
TORSDOF 2
ENDMDL
MODEL 7
REMARK VINA RESULT:      -3.7      2.206      3.387
REMARK  2 active torsions:
REMARK  status: ('A' for Active; 'I' for Inactive)
REMARK    1  A    between atoms: C1_1  and  C4_4 
REMARK    2  A    between atoms: C1_1  and  C6_6 
ROOT
HETATM    1  C2  UNL     1     -31.925   6.139   3.286  1.00 20.00     0.018 A 
HETATM    2  C3  UNL     1     -32.758   7.332   2.932  1.00 20.00     0.018 A 
HETATM    3  C4  UNL     1     -33.434   6.054   3.386  1.00 20.00     0.018 A 
HETATM    4  C5  UNL     1     -34.146   5.244   2.332  1.00 20.00     0.023 C 
ENDROOT
BRANCH   3   5
HETATM    5  C1  UNL     1     -34.018   6.051   4.749  1.00 20.00     0.148 C 
HETATM    6  O7  UNL     1     -33.507   6.713   5.650  1.00 20.00    -0.296 OA
BRANCH   5   7
HETATM    7  C6  UNL     1     -35.249   5.195   4.933  1.00 20.00     0.193 C 
HETATM    8 CL8  UNL     1     -34.884   3.779   5.931  1.00 20.00    -0.123 Cl
ENDBRANCH   5   7
ENDBRANCH   3   5
TORSDOF 2
ENDMDL
MODEL 8
REMARK VINA RESULT:      -3.6     12.242     13.170
REMARK  2 active torsions:
REMARK  status: ('A' for Active; 'I' for Inactive)
REMARK    1  A    between atoms: C1_1  and  C4_4 
REMARK    2  A    between atoms: C1_1  and  C6_6 
ROOT
HETATM    1  C2  UNL     1     -35.501  13.878  -4.304  1.00 20.00     0.018 A 
HETATM    2  C3  UNL     1     -34.112  13.337  -4.450  1.00 20.00     0.018 A 
HETATM    3  C4  UNL     1     -34.466  14.673  -5.073  1.00 20.00     0.018 A 
HETATM    4  C5  UNL     1     -34.608  14.713  -6.573  1.00 20.00     0.023 C 
ENDROOT
BRANCH   3   5
HETATM    5  C1  UNL     1     -33.923  15.885  -4.413  1.00 20.00     0.148 C 
HETATM    6  O7  UNL     1     -32.786  16.277  -4.662  1.00 20.00    -0.296 OA
BRANCH   5   7
HETATM    7  C6  UNL     1     -34.853  16.574  -3.440  1.00 20.00     0.193 C 
HETATM    8 CL8  UNL     1     -34.415  16.181  -1.771  1.00 20.00    -0.123 Cl
ENDBRANCH   5   7
ENDBRANCH   3   5
TORSDOF 2
ENDMDL
MODEL 9
REMARK VINA RESULT:      -3.6     11.814     12.714
REMARK  2 active torsions:
REMARK  status: ('A' for Active; 'I' for Inactive)
REMARK    1  A    between atoms: C1_1  and  C4_4 
REMARK    2  A    between atoms: C1_1  and  C6_6 
ROOT
HETATM    1  C2  UNL     1     -34.753  13.268  -4.830  1.00 20.00     0.018 A 
HETATM    2  C3  UNL     1     -33.815  13.668  -3.733  1.00 20.00     0.018 A 
HETATM    3  C4  UNL     1     -34.735  14.703  -4.349  1.00 20.00     0.018 A 
HETATM    4  C5  UNL     1     -34.105  15.724  -5.261  1.00 20.00     0.023 C 
ENDROOT
BRANCH   3   5
HETATM    5  C1  UNL     1     -35.887  15.150  -3.528  1.00 20.00     0.148 C 
HETATM    6  O7  UNL     1     -36.914  14.478  -3.471  1.00 20.00    -0.296 OA
BRANCH   5   7
HETATM    7  C6  UNL     1     -35.699  16.458  -2.793  1.00 20.00     0.193 C 
HETATM    8 CL8  UNL     1     -34.678  16.232  -1.365  1.00 20.00    -0.123 Cl
ENDBRANCH   5   7
ENDBRANCH   3   5
TORSDOF 2
ENDMDL
