MODEL 1
REMARK VINA RESULT:      -4.6      0.000      0.000
REMARK  3 active torsions:
REMARK  status: ('A' for Active; 'I' for Inactive)
REMARK    1  A    between atoms: C1_1  and  C10_10 
REMARK    2  A    between atoms: C5_5  and  C10_10 
REMARK    3  A    between atoms: C10_10  and  O11_11 
ROOT
HETATM    1  C9  UNL     1     -33.642  13.437  -4.166  1.00 20.00     0.051 C 
HETATM    2  C10 UNL     1     -33.777  14.938  -4.051  1.00 20.00     0.079 C 
ENDROOT
BRANCH   2   3
HETATM    3  C1  UNL     1     -34.255  15.384  -2.679  1.00 20.00     0.013 C 
HETATM    4  C2  UNL     1     -34.224  16.609  -2.118  1.00 20.00    -0.088 C 
HETATM    5  C6  UNL     1     -34.762  16.820  -0.726  1.00 20.00     0.042 C 
HETATM    6  C7  UNL     1     -33.660  17.849  -2.753  1.00 20.00     0.042 C 
ENDBRANCH   2   3
BRANCH   2   7
HETATM    7  C5  UNL     1     -34.755  15.457  -5.119  1.00 20.00    -0.010 A 
HETATM    8  C3  UNL     1     -34.420  15.202  -6.571  1.00 20.00     0.013 A 
HETATM    9  C4  UNL     1     -34.297  16.589  -6.009  1.00 20.00     0.013 A 
HETATM   10  C8  UNL     1     -36.202  15.422  -4.712  1.00 20.00     0.018 C 
ENDBRANCH   2   7
BRANCH   2  11
HETATM   11  O11 UNL     1     -32.512  15.540  -4.340  1.00 20.00    -0.385 OA
HETATM   12  H29 UNL     1     -31.898  15.220  -3.664  1.00 20.00     0.211 HD
ENDBRANCH   2  11
TORSDOF 3
ENDMDL
MODEL 2
REMARK VINA RESULT:      -4.5      1.587      2.033
REMARK  3 active torsions:
REMARK  status: ('A' for Active; 'I' for Inactive)
REMARK    1  A    between atoms: C1_1  and  C10_10 
REMARK    2  A    between atoms: C5_5  and  C10_10 
REMARK    3  A    between atoms: C10_10  and  O11_11 
ROOT
HETATM    1  C9  UNL     1     -33.012  15.154  -3.608  1.00 20.00     0.051 C 
HETATM    2  C10 UNL     1     -34.409  15.712  -3.453  1.00 20.00     0.079 C 
ENDROOT
BRANCH   2   3
HETATM    3  C1  UNL     1     -34.766  16.014  -2.007  1.00 20.00     0.013 C 
HETATM    4  C2  UNL     1     -34.400  17.056  -1.234  1.00 20.00    -0.088 C 
HETATM    5  C6  UNL     1     -34.881  17.150   0.191  1.00 20.00     0.042 C 
HETATM    6  C7  UNL     1     -33.498  18.182  -1.653  1.00 20.00     0.042 C 
ENDBRANCH   2   3
BRANCH   2   7
HETATM    7  C5  UNL     1     -35.434  14.720  -4.029  1.00 20.00    -0.010 A 
HETATM    8  C3  UNL     1     -36.438  15.242  -5.030  1.00 20.00     0.013 A 
HETATM    9  C4  UNL     1     -36.883  14.892  -3.639  1.00 20.00     0.013 A 
HETATM   10  C8  UNL     1     -34.915  13.321  -4.214  1.00 20.00     0.018 C 
ENDBRANCH   2   7
BRANCH   2  11
HETATM   11  O11 UNL     1     -34.520  16.904  -4.236  1.00 20.00    -0.385 OA
HETATM   12  H29 UNL     1     -35.457  16.996  -4.458  1.00 20.00     0.211 HD
ENDBRANCH   2  11
TORSDOF 3
ENDMDL
MODEL 3
REMARK VINA RESULT:      -4.5      1.326      1.812
REMARK  3 active torsions:
REMARK  status: ('A' for Active; 'I' for Inactive)
REMARK    1  A    between atoms: C1_1  and  C10_10 
REMARK    2  A    between atoms: C5_5  and  C10_10 
REMARK    3  A    between atoms: C10_10  and  O11_11 
ROOT
HETATM    1  C9  UNL     1     -35.759  13.713  -4.203  1.00 20.00     0.051 C 
HETATM    2  C10 UNL     1     -34.401  14.374  -4.142  1.00 20.00     0.079 C 
ENDROOT
BRANCH   2   3
HETATM    3  C1  UNL     1     -34.172  15.134  -2.846  1.00 20.00     0.013 C 
HETATM    4  C2  UNL     1     -34.949  16.060  -2.247  1.00 20.00    -0.088 C 
HETATM    5  C6  UNL     1     -34.515  16.688  -0.948  1.00 20.00     0.042 C 
HETATM    6  C7  UNL     1     -36.256  16.578  -2.775  1.00 20.00     0.042 C 
ENDBRANCH   2   3
BRANCH   2   7
HETATM    7  C5  UNL     1     -34.236  15.340  -5.328  1.00 20.00    -0.010 A 
HETATM    8  C3  UNL     1     -35.473  15.722  -6.108  1.00 20.00     0.013 A 
HETATM    9  C4  UNL     1     -34.461  14.798  -6.720  1.00 20.00     0.013 A 
HETATM   10  C8  UNL     1     -33.170  16.384  -5.141  1.00 20.00     0.018 C 
ENDBRANCH   2   7
BRANCH   2  11
HETATM   11  O11 UNL     1     -33.392  13.372  -4.298  1.00 20.00    -0.385 OA
HETATM   12  H29 UNL     1     -32.607  13.702  -3.838  1.00 20.00     0.211 HD
ENDBRANCH   2  11
TORSDOF 3
ENDMDL
MODEL 4
REMARK VINA RESULT:      -4.5      1.638      2.566
REMARK  3 active torsions:
REMARK  status: ('A' for Active; 'I' for Inactive)
REMARK    1  A    between atoms: C1_1  and  C10_10 
REMARK    2  A    between atoms: C5_5  and  C10_10 
REMARK    3  A    between atoms: C10_10  and  O11_11 
ROOT
HETATM    1  C9  UNL     1     -36.565  16.251  -4.781  1.00 20.00     0.051 C 
HETATM    2  C10 UNL     1     -35.972  15.103  -3.996  1.00 20.00     0.079 C 
ENDROOT
BRANCH   2   3
HETATM    3  C1  UNL     1     -35.550  15.504  -2.592  1.00 20.00     0.013 C 
HETATM    4  C2  UNL     1     -34.797  16.547  -2.190  1.00 20.00    -0.088 C 
HETATM    5  C6  UNL     1     -34.504  16.750  -0.726  1.00 20.00     0.042 C 
HETATM    6  C7  UNL     1     -34.165  17.569  -3.091  1.00 20.00     0.042 C 
ENDBRANCH   2   3
BRANCH   2   7
HETATM    7  C5  UNL     1     -34.756  14.532  -4.745  1.00 20.00    -0.010 A 
HETATM    8  C3  UNL     1     -34.619  13.029  -4.831  1.00 20.00     0.013 A 
HETATM    9  C4  UNL     1     -33.701  13.813  -3.938  1.00 20.00     0.013 A 
HETATM   10  C8  UNL     1     -34.307  15.349  -5.924  1.00 20.00     0.018 C 
ENDBRANCH   2   7
BRANCH   2  11
HETATM   11  O11 UNL     1     -36.934  14.045  -3.928  1.00 20.00    -0.385 OA
HETATM   12  H29 UNL     1     -37.237  14.013  -3.009  1.00 20.00     0.211 HD
ENDBRANCH   2  11
TORSDOF 3
ENDMDL
MODEL 5
REMARK VINA RESULT:      -4.4      1.384      3.701
REMARK  3 active torsions:
REMARK  status: ('A' for Active; 'I' for Inactive)
REMARK    1  A    between atoms: C1_1  and  C10_10 
REMARK    2  A    between atoms: C5_5  and  C10_10 
REMARK    3  A    between atoms: C10_10  and  O11_11 
ROOT
HETATM    1  C9  UNL     1     -32.757  15.110  -3.874  1.00 20.00     0.051 C 
HETATM    2  C10 UNL     1     -34.132  14.494  -3.996  1.00 20.00     0.079 C 
ENDROOT
BRANCH   2   3
HETATM    3  C1  UNL     1     -34.570  14.312  -5.440  1.00 20.00     0.013 C 
HETATM    4  C2  UNL     1     -34.496  15.176  -6.473  1.00 20.00    -0.088 C 
HETATM    5  C6  UNL     1     -34.999  14.774  -7.836  1.00 20.00     0.042 C 
HETATM    6  C7  UNL     1     -33.961  16.578  -6.404  1.00 20.00     0.042 C 
ENDBRANCH   2   3
BRANCH   2   7
HETATM    7  C5  UNL     1     -35.163  15.368  -3.263  1.00 20.00    -0.010 A 
HETATM    8  C3  UNL     1     -34.858  16.839  -3.102  1.00 20.00     0.013 A 
HETATM    9  C4  UNL     1     -34.785  15.927  -1.911  1.00 20.00     0.013 A 
HETATM   10  C8  UNL     1     -36.595  14.965  -3.483  1.00 20.00     0.018 C 
ENDBRANCH   2   7
BRANCH   2  11
HETATM   11  O11 UNL     1     -34.133  13.228  -3.329  1.00 20.00    -0.385 OA
HETATM   12  H29 UNL     1     -34.326  12.564  -4.006  1.00 20.00     0.211 HD
ENDBRANCH   2  11
TORSDOF 3
ENDMDL
MODEL 6
REMARK VINA RESULT:      -4.4      1.397      2.833
REMARK  3 active torsions:
REMARK  status: ('A' for Active; 'I' for Inactive)
REMARK    1  A    between atoms: C1_1  and  C10_10 
REMARK    2  A    between atoms: C5_5  and  C10_10 
REMARK    3  A    between atoms: C10_10  and  O11_11 
ROOT
HETATM    1  C9  UNL     1     -33.734  16.200  -2.553  1.00 20.00     0.051 C 
HETATM    2  C10 UNL     1     -33.487  15.599  -3.918  1.00 20.00     0.079 C 
ENDROOT
BRANCH   2   3
HETATM    3  C1  UNL     1     -33.312  16.649  -5.002  1.00 20.00     0.013 C 
HETATM    4  C2  UNL     1     -34.004  17.787  -5.212  1.00 20.00    -0.088 C 
HETATM    5  C6  UNL     1     -33.649  18.689  -6.366  1.00 20.00     0.042 C 
HETATM    6  C7  UNL     1     -35.168  18.268  -4.392  1.00 20.00     0.042 C 
ENDBRANCH   2   3
BRANCH   2   7
HETATM    7  C5  UNL     1     -34.653  14.671  -4.298  1.00 20.00    -0.010 A 
HETATM    8  C3  UNL     1     -34.326  13.258  -4.723  1.00 20.00     0.013 A 
HETATM    9  C4  UNL     1     -34.787  14.257  -5.745  1.00 20.00     0.013 A 
HETATM   10  C8  UNL     1     -35.914  14.896  -3.510  1.00 20.00     0.018 C 
ENDBRANCH   2   7
BRANCH   2  11
HETATM   11  O11 UNL     1     -32.321  14.772  -3.854  1.00 20.00    -0.385 OA
HETATM   12  H29 UNL     1     -31.591  15.352  -3.598  1.00 20.00     0.211 HD
ENDBRANCH   2  11
TORSDOF 3
ENDMDL
MODEL 7
REMARK VINA RESULT:      -4.4      1.235      3.923
REMARK  3 active torsions:
REMARK  status: ('A' for Active; 'I' for Inactive)
REMARK    1  A    between atoms: C1_1  and  C10_10 
REMARK    2  A    between atoms: C5_5  and  C10_10 
REMARK    3  A    between atoms: C10_10  and  O11_11 
ROOT
HETATM    1  C9  UNL     1     -34.226  17.266  -4.509  1.00 20.00     0.051 C 
HETATM    2  C10 UNL     1     -33.742  15.872  -4.842  1.00 20.00     0.079 C 
ENDROOT
BRANCH   2   3
HETATM    3  C1  UNL     1     -34.325  15.340  -6.141  1.00 20.00     0.013 C 
HETATM    4  C2  UNL     1     -35.600  15.358  -6.578  1.00 20.00    -0.088 C 
HETATM    5  C6  UNL     1     -35.950  14.764  -7.918  1.00 20.00     0.042 C 
HETATM    6  C7  UNL     1     -36.775  15.913  -5.825  1.00 20.00     0.042 C 
ENDBRANCH   2   3
BRANCH   2   7
HETATM    7  C5  UNL     1     -34.099  14.909  -3.697  1.00 20.00    -0.010 A 
HETATM    8  C3  UNL     1     -33.166  13.751  -3.428  1.00 20.00     0.013 A 
HETATM    9  C4  UNL     1     -34.506  13.499  -4.057  1.00 20.00     0.013 A 
HETATM   10  C8  UNL     1     -34.775  15.558  -2.521  1.00 20.00     0.018 C 
ENDBRANCH   2   7
BRANCH   2  11
HETATM   11  O11 UNL     1     -32.314  15.886  -4.923  1.00 20.00    -0.385 OA
HETATM   12  H29 UNL     1     -32.003  15.162  -4.360  1.00 20.00     0.211 HD
ENDBRANCH   2  11
TORSDOF 3
ENDMDL
MODEL 8
REMARK VINA RESULT:      -4.3      1.218      4.030
REMARK  3 active torsions:
REMARK  status: ('A' for Active; 'I' for Inactive)
REMARK    1  A    between atoms: C1_1  and  C10_10 
REMARK    2  A    between atoms: C5_5  and  C10_10 
REMARK    3  A    between atoms: C10_10  and  O11_11 
ROOT
HETATM    1  C9  UNL     1     -34.268  17.367  -4.860  1.00 20.00     0.051 C 
HETATM    2  C10 UNL     1     -33.817  15.926  -4.921  1.00 20.00     0.079 C 
ENDROOT
BRANCH   2   3
HETATM    3  C1  UNL     1     -34.343  15.195  -6.145  1.00 20.00     0.013 C 
HETATM    4  C2  UNL     1     -35.578  15.207  -6.685  1.00 20.00    -0.088 C 
HETATM    5  C6  UNL     1     -35.876  14.393  -7.918  1.00 20.00     0.042 C 
HETATM    6  C7  UNL     1     -36.760  15.964  -6.148  1.00 20.00     0.042 C 
ENDBRANCH   2   3
BRANCH   2   7
HETATM    7  C5  UNL     1     -34.272  15.181  -3.655  1.00 20.00    -0.010 A 
HETATM    8  C3  UNL     1     -35.486  15.706  -2.923  1.00 20.00     0.013 A 
HETATM    9  C4  UNL     1     -34.120  15.884  -2.326  1.00 20.00     0.013 A 
HETATM   10  C8  UNL     1     -34.062  13.693  -3.694  1.00 20.00     0.018 C 
ENDBRANCH   2   7
BRANCH   2  11
HETATM   11  O11 UNL     1     -32.386  15.888  -4.915  1.00 20.00    -0.385 OA
HETATM   12  H29 UNL     1     -32.137  15.124  -4.376  1.00 20.00     0.211 HD
ENDBRANCH   2  11
TORSDOF 3
ENDMDL
MODEL 9
REMARK VINA RESULT:      -4.3      1.858      2.724
REMARK  3 active torsions:
REMARK  status: ('A' for Active; 'I' for Inactive)
REMARK    1  A    between atoms: C1_1  and  C10_10 
REMARK    2  A    between atoms: C5_5  and  C10_10 
REMARK    3  A    between atoms: C10_10  and  O11_11 
ROOT
HETATM    1  C9  UNL     1     -35.528  16.854  -4.346  1.00 20.00     0.051 C 
HETATM    2  C10 UNL     1     -35.302  15.740  -3.349  1.00 20.00     0.079 C 
ENDROOT
BRANCH   2   3
HETATM    3  C1  UNL     1     -34.662  16.224  -2.059  1.00 20.00     0.013 C 
HETATM    4  C2  UNL     1     -35.069  17.190  -1.211  1.00 20.00    -0.088 C 
HETATM    5  C6  UNL     1     -34.265  17.503   0.025  1.00 20.00     0.042 C 
HETATM    6  C7  UNL     1     -36.288  18.050  -1.385  1.00 20.00     0.042 C 
ENDBRANCH   2   3
BRANCH   2   7
HETATM    7  C5  UNL     1     -34.413  14.652  -3.976  1.00 20.00    -0.010 A 
HETATM    8  C3  UNL     1     -34.738  14.192  -5.378  1.00 20.00     0.013 A 
HETATM    9  C4  UNL     1     -35.020  13.289  -4.212  1.00 20.00     0.013 A 
HETATM   10  C8  UNL     1     -32.966  14.718  -3.573  1.00 20.00     0.018 C 
ENDBRANCH   2   7
BRANCH   2  11
HETATM   11  O11 UNL     1     -36.556  15.116  -3.061  1.00 20.00    -0.385 OA
HETATM   12  H29 UNL     1     -36.399  14.523  -2.312  1.00 20.00     0.211 HD
ENDBRANCH   2  11
TORSDOF 3
ENDMDL
