MODEL 1
REMARK VINA RESULT:      -4.3      0.000      0.000
REMARK  1 active torsions:
REMARK  status: ('A' for Active; 'I' for Inactive)
REMARK    1  A    between atoms: C4_4  and  C5_5 
ROOT
HETATM    1  C1  UNL     1     -35.279   4.786   6.167  1.00 20.00     0.013 A 
HETATM    2  C2  UNL     1     -33.849   4.324   6.212  1.00 20.00     0.013 A 
HETATM    3  C4  UNL     1     -34.182   5.689   5.655  1.00 20.00    -0.011 A 
HETATM    4  C6  UNL     1     -33.825   6.873   6.518  1.00 20.00     0.018 C 
ENDROOT
BRANCH   3   5
HETATM    5  C5  UNL     1     -34.045   5.962   4.151  1.00 20.00     0.086 A 
HETATM    6  C3  UNL     1     -33.043   6.950   3.619  1.00 20.00     0.207 A 
HETATM    7  O8  UNL     1     -32.806   5.534   3.581  1.00 20.00    -0.375 OA
HETATM    8  C7  UNL     1     -35.236   5.627   3.312  1.00 20.00     0.049 C 
ENDBRANCH   3   5
TORSDOF 1
ENDMDL
MODEL 2
REMARK VINA RESULT:      -4.2     12.323     12.744
REMARK  1 active torsions:
REMARK  status: ('A' for Active; 'I' for Inactive)
REMARK    1  A    between atoms: C4_4  and  C5_5 
ROOT
HETATM    1  C1  UNL     1     -32.742  14.920  -3.596  1.00 20.00     0.013 A 
HETATM    2  C2  UNL     1     -33.340  16.063  -4.366  1.00 20.00     0.013 A 
HETATM    3  C4  UNL     1     -34.227  15.182  -3.517  1.00 20.00    -0.011 A 
HETATM    4  C6  UNL     1     -34.738  15.783  -2.232  1.00 20.00     0.018 C 
ENDROOT
BRANCH   3   5
HETATM    5  C5  UNL     1     -35.219  14.218  -4.181  1.00 20.00     0.086 A 
HETATM    6  C3  UNL     1     -34.830  13.385  -5.371  1.00 20.00     0.207 A 
HETATM    7  O8  UNL     1     -34.882  12.835  -4.046  1.00 20.00    -0.375 OA
HETATM    8  C7  UNL     1     -36.668  14.504  -3.949  1.00 20.00     0.049 C 
ENDBRANCH   3   5
TORSDOF 1
ENDMDL
MODEL 3
REMARK VINA RESULT:      -4.2      1.057      2.159
REMARK  1 active torsions:
REMARK  status: ('A' for Active; 'I' for Inactive)
REMARK    1  A    between atoms: C4_4  and  C5_5 
ROOT
HETATM    1  C1  UNL     1     -34.477   3.735   5.194  1.00 20.00     0.013 A 
HETATM    2  C2  UNL     1     -35.247   4.572   6.176  1.00 20.00     0.013 A 
HETATM    3  C4  UNL     1     -34.804   5.171   4.861  1.00 20.00    -0.011 A 
HETATM    4  C6  UNL     1     -35.880   5.396   3.829  1.00 20.00     0.018 C 
ENDROOT
BRANCH   3   5
HETATM    5  C5  UNL     1     -33.693   6.230   4.831  1.00 20.00     0.086 A 
HETATM    6  C3  UNL     1     -32.620   6.213   3.777  1.00 20.00     0.207 A 
HETATM    7  O8  UNL     1     -33.742   7.107   3.703  1.00 20.00    -0.375 OA
HETATM    8  C7  UNL     1     -33.420   6.932   6.121  1.00 20.00     0.049 C 
ENDBRANCH   3   5
TORSDOF 1
ENDMDL
MODEL 4
REMARK VINA RESULT:      -4.1      1.161      3.227
REMARK  1 active torsions:
REMARK  status: ('A' for Active; 'I' for Inactive)
REMARK    1  A    between atoms: C4_4  and  C5_5 
ROOT
HETATM    1  C1  UNL     1     -33.241   6.934   3.584  1.00 20.00     0.013 A 
HETATM    2  C2  UNL     1     -32.916   5.491   3.317  1.00 20.00     0.013 A 
HETATM    3  C4  UNL     1     -34.184   5.852   4.055  1.00 20.00    -0.011 A 
HETATM    4  C6  UNL     1     -35.474   5.701   3.289  1.00 20.00     0.018 C 
ENDROOT
BRANCH   3   5
HETATM    5  C5  UNL     1     -34.320   5.543   5.552  1.00 20.00     0.086 A 
HETATM    6  C3  UNL     1     -35.233   4.457   6.052  1.00 20.00     0.207 A 
HETATM    7  O8  UNL     1     -33.814   4.264   5.941  1.00 20.00    -0.375 OA
HETATM    8  C7  UNL     1     -33.938   6.645   6.487  1.00 20.00     0.049 C 
ENDBRANCH   3   5
TORSDOF 1
ENDMDL
MODEL 5
REMARK VINA RESULT:      -3.9     12.113     13.848
REMARK  1 active torsions:
REMARK  status: ('A' for Active; 'I' for Inactive)
REMARK    1  A    between atoms: C4_4  and  C5_5 
ROOT
HETATM    1  C1  UNL     1     -34.383  14.999  -7.105  1.00 20.00     0.013 A 
HETATM    2  C2  UNL     1     -35.496  15.713  -6.390  1.00 20.00     0.013 A 
HETATM    3  C4  UNL     1     -34.260  15.291  -5.629  1.00 20.00    -0.011 A 
HETATM    4  C6  UNL     1     -33.305  16.390  -5.237  1.00 20.00     0.018 C 
ENDROOT
BRANCH   3   5
HETATM    5  C5  UNL     1     -34.336  14.150  -4.606  1.00 20.00     0.086 A 
HETATM    6  C3  UNL     1     -35.653  13.563  -4.178  1.00 20.00     0.207 A 
HETATM    7  O8  UNL     1     -34.806  12.909  -5.136  1.00 20.00    -0.375 OA
HETATM    8  C7  UNL     1     -33.157  14.002  -3.698  1.00 20.00     0.049 C 
ENDBRANCH   3   5
TORSDOF 1
ENDMDL
MODEL 6
REMARK VINA RESULT:      -3.9     12.168     13.559
REMARK  1 active torsions:
REMARK  status: ('A' for Active; 'I' for Inactive)
REMARK    1  A    between atoms: C4_4  and  C5_5 
ROOT
HETATM    1  C1  UNL     1     -34.506  15.828  -2.363  1.00 20.00     0.013 A 
HETATM    2  C2  UNL     1     -35.816  15.536  -3.039  1.00 20.00     0.013 A 
HETATM    3  C4  UNL     1     -34.521  15.122  -3.698  1.00 20.00    -0.011 A 
HETATM    4  C6  UNL     1     -34.201  13.648  -3.685  1.00 20.00     0.018 C 
ENDROOT
BRANCH   3   5
HETATM    5  C5  UNL     1     -34.032  15.845  -4.960  1.00 20.00     0.086 A 
HETATM    6  C3  UNL     1     -33.683  17.308  -4.944  1.00 20.00     0.207 A 
HETATM    7  O8  UNL     1     -32.674  16.287  -4.901  1.00 20.00    -0.375 OA
HETATM    8  C7  UNL     1     -34.396  15.210  -6.263  1.00 20.00     0.049 C 
ENDBRANCH   3   5
TORSDOF 1
ENDMDL
MODEL 7
REMARK VINA RESULT:      -3.8     12.316     13.550
REMARK  1 active torsions:
REMARK  status: ('A' for Active; 'I' for Inactive)
REMARK    1  A    between atoms: C4_4  and  C5_5 
ROOT
HETATM    1  C1  UNL     1     -34.921  13.382  -4.130  1.00 20.00     0.013 A 
HETATM    2  C2  UNL     1     -33.461  13.568  -3.827  1.00 20.00     0.013 A 
HETATM    3  C4  UNL     1     -34.348  14.776  -4.025  1.00 20.00    -0.011 A 
HETATM    4  C6  UNL     1     -34.703  15.558  -2.786  1.00 20.00     0.018 C 
ENDROOT
BRANCH   3   5
HETATM    5  C5  UNL     1     -34.198  15.646  -5.279  1.00 20.00     0.086 A 
HETATM    6  C3  UNL     1     -34.456  15.096  -6.655  1.00 20.00     0.207 A 
HETATM    7  O8  UNL     1     -35.422  15.907  -5.969  1.00 20.00    -0.375 OA
HETATM    8  C7  UNL     1     -33.322  16.850  -5.142  1.00 20.00     0.049 C 
ENDBRANCH   3   5
TORSDOF 1
ENDMDL
MODEL 8
REMARK VINA RESULT:      -3.8     12.274     13.552
REMARK  1 active torsions:
REMARK  status: ('A' for Active; 'I' for Inactive)
REMARK    1  A    between atoms: C4_4  and  C5_5 
ROOT
HETATM    1  C1  UNL     1     -34.712  13.233  -4.508  1.00 20.00     0.013 A 
HETATM    2  C2  UNL     1     -35.888  14.165  -4.425  1.00 20.00     0.013 A 
HETATM    3  C4  UNL     1     -34.614  14.619  -5.100  1.00 20.00    -0.011 A 
HETATM    4  C6  UNL     1     -34.648  14.712  -6.605  1.00 20.00     0.018 C 
ENDROOT
BRANCH   3   5
HETATM    5  C5  UNL     1     -33.726  15.681  -4.438  1.00 20.00     0.086 A 
HETATM    6  C3  UNL     1     -33.658  15.830  -2.943  1.00 20.00     0.207 A 
HETATM    7  O8  UNL     1     -32.632  15.153  -3.686  1.00 20.00    -0.375 OA
HETATM    8  C7  UNL     1     -33.355  16.850  -5.292  1.00 20.00     0.049 C 
ENDBRANCH   3   5
TORSDOF 1
ENDMDL
MODEL 9
REMARK VINA RESULT:      -3.8     11.850     12.856
REMARK  1 active torsions:
REMARK  status: ('A' for Active; 'I' for Inactive)
REMARK    1  A    between atoms: C4_4  and  C5_5 
ROOT
HETATM    1  C1  UNL     1     -34.925  15.719  -2.380  1.00 20.00     0.013 A 
HETATM    2  C2  UNL     1     -35.099  16.624  -3.567  1.00 20.00     0.013 A 
HETATM    3  C4  UNL     1     -35.525  15.177  -3.656  1.00 20.00    -0.011 A 
HETATM    4  C6  UNL     1     -37.010  14.913  -3.642  1.00 20.00     0.018 C 
ENDROOT
BRANCH   3   5
HETATM    5  C5  UNL     1     -34.734  14.191  -4.525  1.00 20.00     0.086 A 
HETATM    6  C3  UNL     1     -33.593  13.387  -3.964  1.00 20.00     0.207 A 
HETATM    7  O8  UNL     1     -34.897  12.818  -4.162  1.00 20.00    -0.375 OA
HETATM    8  C7  UNL     1     -34.787  14.428  -6.000  1.00 20.00     0.049 C 
ENDBRANCH   3   5
TORSDOF 1
ENDMDL
