MODEL 1
REMARK VINA RESULT:      -5.0      0.000      0.000
REMARK  1 active torsions:
REMARK  status: ('A' for Active; 'I' for Inactive)
REMARK    1  A    between atoms: C3_3  and  C8_8 
ROOT
HETATM    1  C1  UNL     1     -35.074  13.610  -4.166  1.00 20.00     0.089 C 
HETATM    2  C2  UNL     1     -35.416  14.741  -3.376  1.00 20.00     0.113 C 
HETATM    3  C3  UNL     1     -34.526  15.662  -2.974  1.00 20.00     0.030 C 
HETATM    4  N10 UNL     1     -34.803  12.684  -4.810  1.00 20.00    -0.192 NA
HETATM    5 CL11 UNL     1     -32.860  15.476  -3.438  1.00 20.00    -0.087 Cl
ENDROOT
BRANCH   3   6
HETATM    6  C8  UNL     1     -34.799  16.904  -2.129  1.00 20.00    -0.005 C 
HETATM    7  C6  UNL     1     -34.727  16.594  -0.624  1.00 20.00     0.015 C 
HETATM    8  C4  UNL     1     -34.185  17.874  -0.003  1.00 20.00     0.001 C 
HETATM    9  C5  UNL     1     -33.144  18.326  -1.010  1.00 20.00     0.001 C 
HETATM   10  C7  UNL     1     -33.764  18.021  -2.372  1.00 20.00     0.015 C 
HETATM   11  C9  UNL     1     -36.172  17.421  -2.476  1.00 20.00     0.021 C 
ENDBRANCH   3   6
TORSDOF 1
ENDMDL
MODEL 2
REMARK VINA RESULT:      -4.7      0.768      1.464
REMARK  1 active torsions:
REMARK  status: ('A' for Active; 'I' for Inactive)
REMARK    1  A    between atoms: C3_3  and  C8_8 
ROOT
HETATM    1  C1  UNL     1     -35.045  13.596  -4.182  1.00 20.00     0.089 C 
HETATM    2  C2  UNL     1     -35.288  14.812  -3.489  1.00 20.00     0.113 C 
HETATM    3  C3  UNL     1     -34.330  15.708  -3.202  1.00 20.00     0.030 C 
HETATM    4  N10 UNL     1     -34.854  12.601  -4.747  1.00 20.00    -0.192 NA
HETATM    5 CL11 UNL     1     -32.697  15.377  -3.701  1.00 20.00    -0.087 Cl
ENDROOT
BRANCH   3   6
HETATM    6  C8  UNL     1     -34.496  17.035  -2.466  1.00 20.00    -0.005 C 
HETATM    7  C6  UNL     1     -35.978  17.369  -2.225  1.00 20.00     0.015 C 
HETATM    8  C4  UNL     1     -35.984  18.114  -0.898  1.00 20.00     0.001 C 
HETATM    9  C5  UNL     1     -34.954  17.357  -0.079  1.00 20.00     0.001 C 
HETATM   10  C7  UNL     1     -33.842  17.020  -1.070  1.00 20.00     0.015 C 
HETATM   11  C9  UNL     1     -33.859  18.121  -3.297  1.00 20.00     0.021 C 
ENDBRANCH   3   6
TORSDOF 1
ENDMDL
MODEL 3
REMARK VINA RESULT:      -4.6      2.704      4.590
REMARK  1 active torsions:
REMARK  status: ('A' for Active; 'I' for Inactive)
REMARK    1  A    between atoms: C3_3  and  C8_8 
ROOT
HETATM    1  C1  UNL     1     -34.425  17.198  -0.474  1.00 20.00     0.089 C 
HETATM    2  C2  UNL     1     -34.417  16.263  -1.544  1.00 20.00     0.113 C 
HETATM    3  C3  UNL     1     -34.099  16.582  -2.808  1.00 20.00     0.030 C 
HETATM    4  N10 UNL     1     -34.433  17.956   0.404  1.00 20.00    -0.192 NA
HETATM    5 CL11 UNL     1     -33.668  18.227  -3.173  1.00 20.00    -0.087 Cl
ENDROOT
BRANCH   3   6
HETATM    6  C8  UNL     1     -34.063  15.650  -4.016  1.00 20.00    -0.005 C 
HETATM    7  C6  UNL     1     -33.326  14.337  -3.699  1.00 20.00     0.015 C 
HETATM    8  C4  UNL     1     -34.043  13.291  -4.541  1.00 20.00     0.001 C 
HETATM    9  C5  UNL     1     -35.499  13.706  -4.429  1.00 20.00     0.001 C 
HETATM   10  C7  UNL     1     -35.472  15.232  -4.480  1.00 20.00     0.015 C 
HETATM   11  C9  UNL     1     -33.364  16.365  -5.146  1.00 20.00     0.021 C 
ENDBRANCH   3   6
TORSDOF 1
ENDMDL
MODEL 4
REMARK VINA RESULT:      -4.5      2.898      4.730
REMARK  1 active torsions:
REMARK  status: ('A' for Active; 'I' for Inactive)
REMARK    1  A    between atoms: C3_3  and  C8_8 
ROOT
HETATM    1  C1  UNL     1     -34.698  16.801  -0.827  1.00 20.00     0.089 C 
HETATM    2  C2  UNL     1     -34.113  16.141  -1.941  1.00 20.00     0.113 C 
HETATM    3  C3  UNL     1     -34.809  15.735  -3.013  1.00 20.00     0.030 C 
HETATM    4  N10 UNL     1     -35.169  17.341   0.086  1.00 20.00    -0.192 NA
HETATM    5 CL11 UNL     1     -36.523  16.027  -3.060  1.00 20.00    -0.087 Cl
ENDROOT
BRANCH   3   6
HETATM    6  C8  UNL     1     -34.268  15.022  -4.251  1.00 20.00    -0.005 C 
HETATM    7  C6  UNL     1     -35.403  14.474  -5.132  1.00 20.00     0.015 C 
HETATM    8  C4  UNL     1     -34.865  14.587  -6.551  1.00 20.00     0.001 C 
HETATM    9  C5  UNL     1     -34.129  15.914  -6.531  1.00 20.00     0.001 C 
HETATM   10  C7  UNL     1     -33.452  15.960  -5.162  1.00 20.00     0.015 C 
HETATM   11  C9  UNL     1     -33.385  13.887  -3.796  1.00 20.00     0.021 C 
ENDBRANCH   3   6
TORSDOF 1
ENDMDL
MODEL 5
REMARK VINA RESULT:      -4.4      2.082      2.777
REMARK  1 active torsions:
REMARK  status: ('A' for Active; 'I' for Inactive)
REMARK    1  A    between atoms: C3_3  and  C8_8 
ROOT
HETATM    1  C1  UNL     1     -38.054  14.839  -3.786  1.00 20.00     0.089 C 
HETATM    2  C2  UNL     1     -36.956  15.642  -3.377  1.00 20.00     0.113 C 
HETATM    3  C3  UNL     1     -35.677  15.242  -3.446  1.00 20.00     0.030 C 
HETATM    4  N10 UNL     1     -38.956  14.189  -4.118  1.00 20.00    -0.192 NA
HETATM    5 CL11 UNL     1     -35.327  13.656  -4.070  1.00 20.00    -0.087 Cl
ENDROOT
BRANCH   3   6
HETATM    6  C8  UNL     1     -34.437  16.031  -3.032  1.00 20.00    -0.005 C 
HETATM    7  C6  UNL     1     -34.403  17.421  -3.690  1.00 20.00     0.015 C 
HETATM    8  C4  UNL     1     -33.729  18.310  -2.656  1.00 20.00     0.001 C 
HETATM    9  C5  UNL     1     -34.308  17.807  -1.346  1.00 20.00     0.001 C 
HETATM   10  C7  UNL     1     -34.384  16.291  -1.514  1.00 20.00     0.015 C 
HETATM   11  C9  UNL     1     -33.216  15.246  -3.441  1.00 20.00     0.021 C 
ENDBRANCH   3   6
TORSDOF 1
ENDMDL
MODEL 6
REMARK VINA RESULT:      -4.4      2.808      4.949
REMARK  1 active torsions:
REMARK  status: ('A' for Active; 'I' for Inactive)
REMARK    1  A    between atoms: C3_3  and  C8_8 
ROOT
HETATM    1  C1  UNL     1     -34.661  16.209  -1.721  1.00 20.00     0.089 C 
HETATM    2  C2  UNL     1     -35.078  15.425  -2.831  1.00 20.00     0.113 C 
HETATM    3  C3  UNL     1     -34.593  15.579  -4.073  1.00 20.00     0.030 C 
HETATM    4  N10 UNL     1     -34.325  16.845  -0.811  1.00 20.00    -0.192 NA
HETATM    5 CL11 UNL     1     -33.386  16.798  -4.356  1.00 20.00    -0.087 Cl
ENDROOT
BRANCH   3   6
HETATM    6  C8  UNL     1     -34.979  14.787  -5.320  1.00 20.00    -0.005 C 
HETATM    7  C6  UNL     1     -36.444  15.034  -5.719  1.00 20.00     0.015 C 
HETATM    8  C4  UNL     1     -36.439  14.941  -7.238  1.00 20.00     0.001 C 
HETATM    9  C5  UNL     1     -35.141  15.630  -7.617  1.00 20.00     0.001 C 
HETATM   10  C7  UNL     1     -34.141  15.184  -6.552  1.00 20.00     0.015 C 
HETATM   11  C9  UNL     1     -34.770  13.321  -5.034  1.00 20.00     0.021 C 
ENDBRANCH   3   6
TORSDOF 1
ENDMDL
MODEL 7
REMARK VINA RESULT:      -4.3      2.791      4.820
REMARK  1 active torsions:
REMARK  status: ('A' for Active; 'I' for Inactive)
REMARK    1  A    between atoms: C3_3  and  C8_8 
ROOT
HETATM    1  C1  UNL     1     -34.494  16.727  -0.980  1.00 20.00     0.089 C 
HETATM    2  C2  UNL     1     -34.748  15.808  -2.035  1.00 20.00     0.113 C 
HETATM    3  C3  UNL     1     -35.760  15.938  -2.905  1.00 20.00     0.030 C 
HETATM    4  N10 UNL     1     -34.281  17.473  -0.117  1.00 20.00    -0.192 NA
HETATM    5 CL11 UNL     1     -36.830  17.300  -2.750  1.00 20.00    -0.087 Cl
ENDROOT
BRANCH   3   6
HETATM    6  C8  UNL     1     -36.108  15.006  -4.064  1.00 20.00    -0.005 C 
HETATM    7  C6  UNL     1     -35.744  15.629  -5.422  1.00 20.00     0.015 C 
HETATM    8  C4  UNL     1     -35.344  14.440  -6.285  1.00 20.00     0.001 C 
HETATM    9  C5  UNL     1     -34.571  13.563  -5.316  1.00 20.00     0.001 C 
HETATM   10  C7  UNL     1     -35.337  13.673  -3.999  1.00 20.00     0.015 C 
HETATM   11  C9  UNL     1     -37.589  14.722  -4.015  1.00 20.00     0.021 C 
ENDBRANCH   3   6
TORSDOF 1
ENDMDL
MODEL 8
REMARK VINA RESULT:      -4.3      3.627      4.462
REMARK  1 active torsions:
REMARK  status: ('A' for Active; 'I' for Inactive)
REMARK    1  A    between atoms: C3_3  and  C8_8 
ROOT
HETATM    1  C1  UNL     1     -38.574  14.746  -4.082  1.00 20.00     0.089 C 
HETATM    2  C2  UNL     1     -37.156  14.651  -4.062  1.00 20.00     0.113 C 
HETATM    3  C3  UNL     1     -36.384  14.837  -5.143  1.00 20.00     0.030 C 
HETATM    4  N10 UNL     1     -39.732  14.822  -4.091  1.00 20.00    -0.192 NA
HETATM    5 CL11 UNL     1     -37.144  15.219  -6.661  1.00 20.00    -0.087 Cl
ENDROOT
BRANCH   3   6
HETATM    6  C8  UNL     1     -34.861  14.757  -5.216  1.00 20.00    -0.005 C 
HETATM    7  C6  UNL     1     -34.192  15.779  -4.281  1.00 20.00     0.015 C 
HETATM    8  C4  UNL     1     -32.915  15.089  -3.823  1.00 20.00     0.001 C 
HETATM    9  C5  UNL     1     -33.359  13.651  -3.625  1.00 20.00     0.001 C 
HETATM   10  C7  UNL     1     -34.322  13.381  -4.779  1.00 20.00     0.015 C 
HETATM   11  C9  UNL     1     -34.440  15.020  -6.641  1.00 20.00     0.021 C 
ENDBRANCH   3   6
TORSDOF 1
ENDMDL
MODEL 9
REMARK VINA RESULT:      -4.3     12.320     13.971
REMARK  1 active torsions:
REMARK  status: ('A' for Active; 'I' for Inactive)
REMARK    1  A    between atoms: C3_3  and  C8_8 
ROOT
HETATM    1  C1  UNL     1     -41.899   2.136  -3.932  1.00 20.00     0.089 C 
HETATM    2  C2  UNL     1     -41.644   2.820  -2.712  1.00 20.00     0.113 C 
HETATM    3  C3  UNL     1     -42.251   3.965  -2.363  1.00 20.00     0.030 C 
HETATM    4  N10 UNL     1     -42.101   1.572  -4.925  1.00 20.00    -0.192 NA
HETATM    5 CL11 UNL     1     -43.417   4.662  -3.450  1.00 20.00    -0.087 Cl
ENDROOT
BRANCH   3   6
HETATM    6  C8  UNL     1     -42.043   4.767  -1.081  1.00 20.00    -0.005 C 
HETATM    7  C6  UNL     1     -40.554   4.869  -0.709  1.00 20.00     0.015 C 
HETATM    8  C4  UNL     1     -40.424   6.235  -0.051  1.00 20.00     0.001 C 
HETATM    9  C5  UNL     1     -41.334   7.107  -0.896  1.00 20.00     0.001 C 
HETATM   10  C7  UNL     1     -42.539   6.221  -1.209  1.00 20.00     0.015 C 
HETATM   11  C9  UNL     1     -42.800   4.086   0.032  1.00 20.00     0.021 C 
ENDBRANCH   3   6
TORSDOF 1
ENDMDL
