MODEL 1
REMARK VINA RESULT:      -4.8      0.000      0.000
REMARK  3 active torsions:
REMARK  status: ('A' for Active; 'I' for Inactive)
REMARK    1  A    between atoms: C1_1  and  C3_3 
REMARK    2  A    between atoms: C2_2  and  C8_8 
REMARK    3  A    between atoms: C8_8  and  C10_10 
ROOT
HETATM    1  C4  UNL     1     -34.130  18.648  -3.647  1.00 20.00     0.002 C 
HETATM    2  C5  UNL     1     -35.638  18.414  -3.724  1.00 20.00     0.002 C 
HETATM    3  C6  UNL     1     -33.689  18.133  -2.276  1.00 20.00     0.022 C 
HETATM    4  C7  UNL     1     -36.039  17.770  -2.396  1.00 20.00     0.022 C 
HETATM    5  C8  UNL     1     -34.758  17.111  -1.871  1.00 20.00     0.024 C 
ENDROOT
BRANCH   5   6
HETATM    6  C2  UNL     1     -34.522  15.813  -2.539  1.00 20.00    -0.085 C 
HETATM    7  C1  UNL     1     -34.332  14.758  -3.082  1.00 20.00     0.005 C 
BRANCH   7   8
HETATM    8  C3  UNL     1     -34.087  13.406  -3.779  1.00 20.00     0.258 C 
HETATM    9  O11 UNL     1     -35.108  12.847  -4.274  1.00 20.00    -0.637 OA
HETATM   10  O12 UNL     1     -32.891  12.995  -3.783  1.00 20.00    -0.637 OA
ENDBRANCH   7   8
ENDBRANCH   5   6
BRANCH   5  11
HETATM   11  C10 UNL     1     -34.802  16.900  -0.359  1.00 20.00     0.018 C 
HETATM   12  C9  UNL     1     -34.111  18.003   0.373  1.00 20.00     0.007 C 
ENDBRANCH   5  11
TORSDOF 3
ENDMDL
MODEL 2
REMARK VINA RESULT:      -4.6      3.036      4.576
REMARK  3 active torsions:
REMARK  status: ('A' for Active; 'I' for Inactive)
REMARK    1  A    between atoms: C1_1  and  C3_3 
REMARK    2  A    between atoms: C2_2  and  C8_8 
REMARK    3  A    between atoms: C8_8  and  C10_10 
ROOT
HETATM    1  C4  UNL     1     -35.106  17.268  -5.123  1.00 20.00     0.002 C 
HETATM    2  C5  UNL     1     -33.578  17.303  -5.133  1.00 20.00     0.002 C 
HETATM    3  C6  UNL     1     -35.498  15.920  -4.517  1.00 20.00     0.022 C 
HETATM    4  C7  UNL     1     -33.117  15.974  -4.534  1.00 20.00     0.022 C 
HETATM    5  C8  UNL     1     -34.291  15.499  -3.670  1.00 20.00     0.024 C 
ENDROOT
BRANCH   5   6
HETATM    6  C2  UNL     1     -34.298  16.194  -2.365  1.00 20.00    -0.085 C 
HETATM    7  C1  UNL     1     -34.303  16.758  -1.304  1.00 20.00     0.005 C 
BRANCH   7   8
HETATM    8  C3  UNL     1     -34.311  17.481   0.056  1.00 20.00     0.258 C 
HETATM    9  O11 UNL     1     -33.354  18.284   0.260  1.00 20.00    -0.637 OA
HETATM   10  O12 UNL     1     -35.271  17.197   0.828  1.00 20.00    -0.637 OA
ENDBRANCH   7   8
ENDBRANCH   5   6
BRANCH   5  11
HETATM   11  C10 UNL     1     -34.255  13.990  -3.438  1.00 20.00     0.018 C 
HETATM   12  C9  UNL     1     -34.661  13.233  -4.660  1.00 20.00     0.007 C 
ENDBRANCH   5  11
TORSDOF 3
ENDMDL
MODEL 3
REMARK VINA RESULT:      -4.5      3.240      4.662
REMARK  3 active torsions:
REMARK  status: ('A' for Active; 'I' for Inactive)
REMARK    1  A    between atoms: C1_1  and  C3_3 
REMARK    2  A    between atoms: C2_2  and  C8_8 
REMARK    3  A    between atoms: C8_8  and  C10_10 
ROOT
HETATM    1  C4  UNL     1     -33.089  16.055  -4.488  1.00 20.00     0.002 C 
HETATM    2  C5  UNL     1     -32.826  14.734  -3.768  1.00 20.00     0.002 C 
HETATM    3  C6  UNL     1     -34.605  16.254  -4.474  1.00 20.00     0.022 C 
HETATM    4  C7  UNL     1     -34.195  14.194  -3.352  1.00 20.00     0.022 C 
HETATM    5  C8  UNL     1     -35.104  15.427  -3.283  1.00 20.00     0.024 C 
ENDROOT
BRANCH   5   6
HETATM    6  C2  UNL     1     -34.901  16.159  -2.014  1.00 20.00    -0.085 C 
HETATM    7  C1  UNL     1     -34.737  16.753  -0.983  1.00 20.00     0.005 C 
BRANCH   7   8
HETATM    8  C3  UNL     1     -34.525  17.515   0.339  1.00 20.00     0.258 C 
HETATM    9  O11 UNL     1     -35.395  17.317   1.236  1.00 20.00    -0.637 OA
HETATM   10  O12 UNL     1     -33.505  18.260   0.390  1.00 20.00    -0.637 OA
ENDBRANCH   7   8
ENDBRANCH   5   6
BRANCH   5  11
HETATM   11  C10 UNL     1     -36.579  15.057  -3.422  1.00 20.00     0.018 C 
HETATM   12  C9  UNL     1     -37.008  15.027  -4.853  1.00 20.00     0.007 C 
ENDBRANCH   5  11
TORSDOF 3
ENDMDL
MODEL 4
REMARK VINA RESULT:      -4.5      0.736      2.637
REMARK  3 active torsions:
REMARK  status: ('A' for Active; 'I' for Inactive)
REMARK    1  A    between atoms: C1_1  and  C3_3 
REMARK    2  A    between atoms: C2_2  and  C8_8 
REMARK    3  A    between atoms: C8_8  and  C10_10 
ROOT
HETATM    1  C4  UNL     1     -34.738  17.224  -0.203  1.00 20.00     0.002 C 
HETATM    2  C5  UNL     1     -33.388  17.682  -0.752  1.00 20.00     0.002 C 
HETATM    3  C6  UNL     1     -35.751  17.440  -1.328  1.00 20.00     0.022 C 
HETATM    4  C7  UNL     1     -33.646  18.155  -2.183  1.00 20.00     0.022 C 
HETATM    5  C8  UNL     1     -34.922  17.424  -2.618  1.00 20.00     0.024 C 
ENDROOT
BRANCH   5   6
HETATM    6  C2  UNL     1     -34.619  16.037  -3.029  1.00 20.00    -0.085 C 
HETATM    7  C1  UNL     1     -34.373  14.909  -3.365  1.00 20.00     0.005 C 
BRANCH   7   8
HETATM    8  C3  UNL     1     -34.057  13.464  -3.794  1.00 20.00     0.258 C 
HETATM    9  O11 UNL     1     -35.032  12.797  -4.246  1.00 20.00    -0.637 OA
HETATM   10  O12 UNL     1     -32.856  13.094  -3.650  1.00 20.00    -0.637 OA
ENDBRANCH   7   8
ENDBRANCH   5   6
BRANCH   5  11
HETATM   11  C10 UNL     1     -35.632  18.146  -3.761  1.00 20.00     0.018 C 
HETATM   12  C9  UNL     1     -34.703  18.432  -4.895  1.00 20.00     0.007 C 
ENDBRANCH   5  11
TORSDOF 3
ENDMDL
MODEL 5
REMARK VINA RESULT:      -4.4     12.369     14.045
REMARK  3 active torsions:
REMARK  status: ('A' for Active; 'I' for Inactive)
REMARK    1  A    between atoms: C1_1  and  C3_3 
REMARK    2  A    between atoms: C2_2  and  C8_8 
REMARK    3  A    between atoms: C8_8  and  C10_10 
ROOT
HETATM    1  C4  UNL     1     -42.296   5.521   0.468  1.00 20.00     0.002 C 
HETATM    2  C5  UNL     1     -40.940   5.959  -0.084  1.00 20.00     0.002 C 
HETATM    3  C6  UNL     1     -43.320   5.830  -0.625  1.00 20.00     0.022 C 
HETATM    4  C7  UNL     1     -41.207   6.512  -1.484  1.00 20.00     0.022 C 
HETATM    5  C8  UNL     1     -42.516   5.850  -1.931  1.00 20.00     0.024 C 
ENDROOT
BRANCH   5   6
HETATM    6  C2  UNL     1     -42.270   4.476  -2.417  1.00 20.00    -0.085 C 
HETATM    7  C1  UNL     1     -42.071   3.359  -2.813  1.00 20.00     0.005 C 
BRANCH   7   8
HETATM    8  C3  UNL     1     -41.815   1.928  -3.321  1.00 20.00     0.258 C 
HETATM    9  O11 UNL     1     -42.618   1.042  -2.906  1.00 20.00    -0.637 OA
HETATM   10  O12 UNL     1     -40.829   1.785  -4.100  1.00 20.00    -0.637 OA
ENDBRANCH   7   8
ENDBRANCH   5   6
BRANCH   5  11
HETATM   11  C10 UNL     1     -43.219   6.654  -3.022  1.00 20.00     0.018 C 
HETATM   12  C9  UNL     1     -42.389   7.809  -3.478  1.00 20.00     0.007 C 
ENDBRANCH   5  11
TORSDOF 3
ENDMDL
MODEL 6
REMARK VINA RESULT:      -4.4      2.504      3.235
REMARK  3 active torsions:
REMARK  status: ('A' for Active; 'I' for Inactive)
REMARK    1  A    between atoms: C1_1  and  C3_3 
REMARK    2  A    between atoms: C2_2  and  C8_8 
REMARK    3  A    between atoms: C8_8  and  C10_10 
ROOT
HETATM    1  C4  UNL     1     -33.171  15.942  -4.514  1.00 20.00     0.002 C 
HETATM    2  C5  UNL     1     -33.573  17.414  -4.598  1.00 20.00     0.002 C 
HETATM    3  C6  UNL     1     -33.447  15.506  -3.075  1.00 20.00     0.022 C 
HETATM    4  C7  UNL     1     -34.072  17.800  -3.205  1.00 20.00     0.022 C 
HETATM    5  C8  UNL     1     -34.514  16.480  -2.561  1.00 20.00     0.024 C 
ENDROOT
BRANCH   5   6
HETATM    6  C2  UNL     1     -35.857  16.086  -3.037  1.00 20.00    -0.085 C 
HETATM    7  C1  UNL     1     -36.949  15.767  -3.424  1.00 20.00     0.005 C 
BRANCH   7   8
HETATM    8  C3  UNL     1     -38.348  15.358  -3.920  1.00 20.00     0.258 C 
HETATM    9  O11 UNL     1     -38.608  14.120  -3.882  1.00 20.00    -0.637 OA
HETATM   10  O12 UNL     1     -39.093  16.301  -4.315  1.00 20.00    -0.637 OA
ENDBRANCH   7   8
ENDBRANCH   5   6
BRANCH   5  11
HETATM   11  C10 UNL     1     -34.523  16.564  -1.036  1.00 20.00     0.018 C 
HETATM   12  C9  UNL     1     -33.739  17.735  -0.543  1.00 20.00     0.007 C 
ENDBRANCH   5  11
TORSDOF 3
ENDMDL
MODEL 7
REMARK VINA RESULT:      -4.4      2.968      4.321
REMARK  3 active torsions:
REMARK  status: ('A' for Active; 'I' for Inactive)
REMARK    1  A    between atoms: C1_1  and  C3_3 
REMARK    2  A    between atoms: C2_2  and  C8_8 
REMARK    3  A    between atoms: C8_8  and  C10_10 
ROOT
HETATM    1  C4  UNL     1     -34.352  13.448  -4.918  1.00 20.00     0.002 C 
HETATM    2  C5  UNL     1     -34.359  14.789  -5.652  1.00 20.00     0.002 C 
HETATM    3  C6  UNL     1     -34.421  13.779  -3.427  1.00 20.00     0.022 C 
HETATM    4  C7  UNL     1     -34.433  15.867  -4.571  1.00 20.00     0.022 C 
HETATM    5  C8  UNL     1     -35.059  15.172  -3.357  1.00 20.00     0.024 C 
ENDROOT
BRANCH   5   6
HETATM    6  C2  UNL     1     -36.528  15.083  -3.502  1.00 20.00    -0.085 C 
HETATM    7  C1  UNL     1     -37.722  15.012  -3.621  1.00 20.00     0.005 C 
BRANCH   7   8
HETATM    8  C3  UNL     1     -39.252  14.920  -3.773  1.00 20.00     0.258 C 
HETATM    9  O11 UNL     1     -39.924  15.762  -3.109  1.00 20.00    -0.637 OA
HETATM   10  O12 UNL     1     -39.677  14.013  -4.544  1.00 20.00    -0.637 OA
ENDBRANCH   7   8
ENDBRANCH   5   6
BRANCH   5  11
HETATM   11  C10 UNL     1     -34.723  15.889  -2.051  1.00 20.00     0.018 C 
HETATM   12  C9  UNL     1     -33.696  16.954  -2.255  1.00 20.00     0.007 C 
ENDBRANCH   5  11
TORSDOF 3
ENDMDL
MODEL 8
REMARK VINA RESULT:      -4.3      3.033      4.788
REMARK  3 active torsions:
REMARK  status: ('A' for Active; 'I' for Inactive)
REMARK    1  A    between atoms: C1_1  and  C3_3 
REMARK    2  A    between atoms: C2_2  and  C8_8 
REMARK    3  A    between atoms: C8_8  and  C10_10 
ROOT
HETATM    1  C4  UNL     1     -34.824  13.461  -3.796  1.00 20.00     0.002 C 
HETATM    2  C5  UNL     1     -36.070  14.280  -4.129  1.00 20.00     0.002 C 
HETATM    3  C6  UNL     1     -33.629  14.290  -4.268  1.00 20.00     0.022 C 
HETATM    4  C7  UNL     1     -35.572  15.567  -4.787  1.00 20.00     0.022 C 
HETATM    5  C8  UNL     1     -34.133  15.739  -4.285  1.00 20.00     0.024 C 
ENDROOT
BRANCH   5   6
HETATM    6  C2  UNL     1     -34.116  16.316  -2.924  1.00 20.00    -0.085 C 
HETATM    7  C1  UNL     1     -34.103  16.785  -1.817  1.00 20.00     0.005 C 
BRANCH   7   8
HETATM    8  C3  UNL     1     -34.087  17.386  -0.399  1.00 20.00     0.258 C 
HETATM    9  O11 UNL     1     -33.128  18.169  -0.142  1.00 20.00    -0.637 OA
HETATM   10  O12 UNL     1     -35.034  17.033   0.362  1.00 20.00    -0.637 OA
ENDBRANCH   7   8
ENDBRANCH   5   6
BRANCH   5  11
HETATM   11  C10 UNL     1     -33.304  16.620  -5.217  1.00 20.00     0.018 C 
HETATM   12  C9  UNL     1     -34.126  17.161  -6.341  1.00 20.00     0.007 C 
ENDBRANCH   5  11
TORSDOF 3
ENDMDL
MODEL 9
REMARK VINA RESULT:      -4.3      0.888      1.204
REMARK  3 active torsions:
REMARK  status: ('A' for Active; 'I' for Inactive)
REMARK    1  A    between atoms: C1_1  and  C3_3 
REMARK    2  A    between atoms: C2_2  and  C8_8 
REMARK    3  A    between atoms: C8_8  and  C10_10 
ROOT
HETATM    1  C4  UNL     1     -33.700  18.478  -4.909  1.00 20.00     0.002 C 
HETATM    2  C5  UNL     1     -35.141  18.275  -5.376  1.00 20.00     0.002 C 
HETATM    3  C6  UNL     1     -33.709  18.264  -3.395  1.00 20.00     0.022 C 
HETATM    4  C7  UNL     1     -35.954  17.949  -4.124  1.00 20.00     0.022 C 
HETATM    5  C8  UNL     1     -34.937  17.385  -3.124  1.00 20.00     0.024 C 
ENDROOT
BRANCH   5   6
HETATM    6  C2  UNL     1     -34.641  15.967  -3.418  1.00 20.00    -0.085 C 
HETATM    7  C1  UNL     1     -34.401  14.814  -3.657  1.00 20.00     0.005 C 
BRANCH   7   8
HETATM    8  C3  UNL     1     -34.092  13.336  -3.964  1.00 20.00     0.258 C 
HETATM    9  O11 UNL     1     -35.059  12.650  -4.405  1.00 20.00    -0.637 OA
HETATM   10  O12 UNL     1     -32.904  12.962  -3.741  1.00 20.00    -0.637 OA
ENDBRANCH   7   8
ENDBRANCH   5   6
BRANCH   5  11
HETATM   11  C10 UNL     1     -35.422  17.511  -1.682  1.00 20.00     0.018 C 
HETATM   12  C9  UNL     1     -34.522  16.793  -0.732  1.00 20.00     0.007 C 
ENDBRANCH   5  11
TORSDOF 3
ENDMDL
