MODEL 1
REMARK VINA RESULT:      -4.8      0.000      0.000
REMARK  3 active torsions:
REMARK  status: ('A' for Active; 'I' for Inactive)
REMARK    1  A    between atoms: C3_3  and  C6_6 
REMARK    2  A    between atoms: C6_6  and  C7_7 
REMARK    3  A    between atoms: C6_6  and  O8_8 
ROOT
HETATM    1  C5  UNL     1     -33.806  16.057  -2.874  1.00 20.00     0.056 C 
HETATM    2  C6  UNL     1     -33.588  15.336  -4.191  1.00 20.00     0.158 C 
ENDROOT
BRANCH   2   3
HETATM    3  C3  UNL     1     -34.545  15.819  -5.246  1.00 20.00    -0.004 A 
HETATM    4  C1  UNL     1     -34.168  15.610  -6.693  1.00 20.00     0.013 A 
HETATM    5  C2  UNL     1     -34.124  16.990  -6.101  1.00 20.00     0.013 A 
HETATM    6  C4  UNL     1     -35.997  15.704  -4.871  1.00 20.00     0.018 C 
ENDBRANCH   2   3
BRANCH   2   7
HETATM    7  C7  UNL     1     -33.690  13.820  -3.980  1.00 20.00     0.418 C 
HETATM    8  F9  UNL     1     -32.502  13.312  -3.580  1.00 20.00    -0.168 F 
HETATM    9  F10 UNL     1     -34.050  13.167  -5.107  1.00 20.00    -0.168 F 
HETATM   10  F11 UNL     1     -34.599  13.523  -3.026  1.00 20.00    -0.168 F 
ENDBRANCH   2   7
BRANCH   2  11
HETATM   11  O8  UNL     1     -32.242  15.617  -4.609  1.00 20.00    -0.380 OA
HETATM   12  H22 UNL     1     -31.914  14.801  -5.008  1.00 20.00     0.211 HD
ENDBRANCH   2  11
TORSDOF 3
ENDMDL
MODEL 2
REMARK VINA RESULT:      -4.7      0.081      1.132
REMARK  3 active torsions:
REMARK  status: ('A' for Active; 'I' for Inactive)
REMARK    1  A    between atoms: C3_3  and  C6_6 
REMARK    2  A    between atoms: C6_6  and  C7_7 
REMARK    3  A    between atoms: C6_6  and  O8_8 
ROOT
HETATM    1  C5  UNL     1     -33.788  16.065  -2.860  1.00 20.00     0.056 C 
HETATM    2  C6  UNL     1     -33.591  15.365  -4.191  1.00 20.00     0.158 C 
ENDROOT
BRANCH   2   3
HETATM    3  C3  UNL     1     -34.536  15.894  -5.235  1.00 20.00    -0.004 A 
HETATM    4  C1  UNL     1     -34.177  15.685  -6.687  1.00 20.00     0.013 A 
HETATM    5  C2  UNL     1     -34.076  17.057  -6.082  1.00 20.00     0.013 A 
HETATM    6  C4  UNL     1     -35.989  15.831  -4.851  1.00 20.00     0.018 C 
ENDBRANCH   2   3
BRANCH   2   7
HETATM    7  C7  UNL     1     -33.733  13.848  -4.010  1.00 20.00     0.418 C 
HETATM    8  F9  UNL     1     -34.071  13.257  -5.179  1.00 20.00    -0.168 F 
HETATM    9  F10 UNL     1     -34.681  13.525  -3.103  1.00 20.00    -0.168 F 
HETATM   10  F11 UNL     1     -32.569  13.298  -3.600  1.00 20.00    -0.168 F 
ENDBRANCH   2   7
BRANCH   2  11
HETATM   11  O8  UNL     1     -32.238  15.618  -4.605  1.00 20.00    -0.380 OA
HETATM   12  H22 UNL     1     -31.872  16.228  -3.952  1.00 20.00     0.211 HD
ENDBRANCH   2  11
TORSDOF 3
ENDMDL
MODEL 3
REMARK VINA RESULT:      -4.7      0.429      1.396
REMARK  3 active torsions:
REMARK  status: ('A' for Active; 'I' for Inactive)
REMARK    1  A    between atoms: C3_3  and  C6_6 
REMARK    2  A    between atoms: C6_6  and  C7_7 
REMARK    3  A    between atoms: C6_6  and  O8_8 
ROOT
HETATM    1  C5  UNL     1     -33.802  16.075  -2.889  1.00 20.00     0.056 C 
HETATM    2  C6  UNL     1     -33.630  15.341  -4.205  1.00 20.00     0.158 C 
ENDROOT
BRANCH   2   3
HETATM    3  C3  UNL     1     -34.662  15.769  -5.211  1.00 20.00    -0.004 A 
HETATM    4  C1  UNL     1     -35.641  16.847  -4.809  1.00 20.00     0.013 A 
HETATM    5  C2  UNL     1     -36.107  15.424  -4.935  1.00 20.00     0.013 A 
HETATM    6  C4  UNL     1     -34.191  15.742  -6.639  1.00 20.00     0.018 C 
ENDBRANCH   2   3
BRANCH   2   7
HETATM    7  C7  UNL     1     -33.660  13.826  -3.967  1.00 20.00     0.418 C 
HETATM    8  F9  UNL     1     -32.454  13.384  -3.545  1.00 20.00    -0.168 F 
HETATM    9  F10 UNL     1     -33.975  13.136  -5.086  1.00 20.00    -0.168 F 
HETATM   10  F11 UNL     1     -34.565  13.502  -3.018  1.00 20.00    -0.168 F 
ENDBRANCH   2   7
BRANCH   2  11
HETATM   11  O8  UNL     1     -32.321  15.666  -4.702  1.00 20.00    -0.380 OA
HETATM   12  H22 UNL     1     -32.100  14.972  -5.337  1.00 20.00     0.211 HD
ENDBRANCH   2  11
TORSDOF 3
ENDMDL
MODEL 4
REMARK VINA RESULT:      -4.4      2.368      3.286
REMARK  3 active torsions:
REMARK  status: ('A' for Active; 'I' for Inactive)
REMARK    1  A    between atoms: C3_3  and  C6_6 
REMARK    2  A    between atoms: C6_6  and  C7_7 
REMARK    3  A    between atoms: C6_6  and  O8_8 
ROOT
HETATM    1  C5  UNL     1     -36.585  14.701  -3.773  1.00 20.00     0.056 C 
HETATM    2  C6  UNL     1     -35.236  14.245  -4.296  1.00 20.00     0.158 C 
ENDROOT
BRANCH   2   3
HETATM    3  C3  UNL     1     -34.108  14.862  -3.516  1.00 20.00    -0.004 A 
HETATM    4  C1  UNL     1     -34.454  15.682  -2.296  1.00 20.00     0.013 A 
HETATM    5  C2  UNL     1     -33.969  16.366  -3.543  1.00 20.00     0.013 A 
HETATM    6  C4  UNL     1     -32.850  14.038  -3.478  1.00 20.00     0.018 C 
ENDBRANCH   2   3
BRANCH   2   7
HETATM    7  C7  UNL     1     -35.126  14.548  -5.795  1.00 20.00     0.418 C 
HETATM    8  F9  UNL     1     -35.239  13.413  -6.522  1.00 20.00    -0.168 F 
HETATM    9  F10 UNL     1     -33.945  15.120  -6.119  1.00 20.00    -0.168 F 
HETATM   10  F11 UNL     1     -36.109  15.385  -6.194  1.00 20.00    -0.168 F 
ENDBRANCH   2   7
BRANCH   2  11
HETATM   11  O8  UNL     1     -35.187  12.816  -4.147  1.00 20.00    -0.380 OA
HETATM   12  H22 UNL     1     -35.968  12.577  -3.631  1.00 20.00     0.211 HD
ENDBRANCH   2  11
TORSDOF 3
ENDMDL
MODEL 5
REMARK VINA RESULT:      -4.4      1.736      2.455
REMARK  3 active torsions:
REMARK  status: ('A' for Active; 'I' for Inactive)
REMARK    1  A    between atoms: C3_3  and  C6_6 
REMARK    2  A    between atoms: C6_6  and  C7_7 
REMARK    3  A    between atoms: C6_6  and  O8_8 
ROOT
HETATM    1  C5  UNL     1     -33.267  16.805  -5.189  1.00 20.00     0.056 C 
HETATM    2  C6  UNL     1     -33.619  15.573  -4.377  1.00 20.00     0.158 C 
ENDROOT
BRANCH   2   3
HETATM    3  C3  UNL     1     -34.445  14.605  -5.179  1.00 20.00    -0.004 A 
HETATM    4  C1  UNL     1     -34.584  14.851  -6.663  1.00 20.00     0.013 A 
HETATM    5  C2  UNL     1     -35.754  15.096  -5.752  1.00 20.00     0.013 A 
HETATM    6  C4  UNL     1     -34.373  13.179  -4.704  1.00 20.00     0.018 C 
ENDBRANCH   2   3
BRANCH   2   7
HETATM    7  C7  UNL     1     -34.324  15.985  -3.079  1.00 20.00     0.418 C 
HETATM    8  F9  UNL     1     -33.421  16.263  -2.112  1.00 20.00    -0.168 F 
HETATM    9  F10 UNL     1     -35.139  15.016  -2.606  1.00 20.00    -0.168 F 
HETATM   10  F11 UNL     1     -35.073  17.095  -3.265  1.00 20.00    -0.168 F 
ENDBRANCH   2   7
BRANCH   2  11
HETATM   11  O8  UNL     1     -32.381  14.943  -4.006  1.00 20.00    -0.380 OA
HETATM   12  H22 UNL     1     -32.580  14.406  -3.229  1.00 20.00     0.211 HD
ENDBRANCH   2  11
TORSDOF 3
ENDMDL
MODEL 6
REMARK VINA RESULT:      -4.4      1.377      1.730
REMARK  3 active torsions:
REMARK  status: ('A' for Active; 'I' for Inactive)
REMARK    1  A    between atoms: C3_3  and  C6_6 
REMARK    2  A    between atoms: C6_6  and  C7_7 
REMARK    3  A    between atoms: C6_6  and  O8_8 
ROOT
HETATM    1  C5  UNL     1     -34.076  17.543  -4.272  1.00 20.00     0.056 C 
HETATM    2  C6  UNL     1     -33.851  16.081  -4.607  1.00 20.00     0.158 C 
ENDROOT
BRANCH   2   3
HETATM    3  C3  UNL     1     -34.860  15.585  -5.605  1.00 20.00    -0.004 A 
HETATM    4  C1  UNL     1     -34.800  14.131  -6.011  1.00 20.00     0.013 A 
HETATM    5  C2  UNL     1     -34.366  15.196  -6.979  1.00 20.00     0.013 A 
HETATM    6  C4  UNL     1     -36.214  16.232  -5.500  1.00 20.00     0.018 C 
ENDBRANCH   2   3
BRANCH   2   7
HETATM    7  C7  UNL     1     -33.860  15.243  -3.322  1.00 20.00     0.418 C 
HETATM    8  F9  UNL     1     -33.010  14.197  -3.428  1.00 20.00    -0.168 F 
HETATM    9  F10 UNL     1     -35.085  14.742  -3.044  1.00 20.00    -0.168 F 
HETATM   10  F11 UNL     1     -33.468  15.979  -2.260  1.00 20.00    -0.168 F 
ENDBRANCH   2   7
BRANCH   2  11
HETATM   11  O8  UNL     1     -32.534  15.975  -5.173  1.00 20.00    -0.380 OA
HETATM   12  H22 UNL     1     -32.624  15.404  -5.947  1.00 20.00     0.211 HD
ENDBRANCH   2  11
TORSDOF 3
ENDMDL
MODEL 7
REMARK VINA RESULT:      -4.3      1.543      2.650
REMARK  3 active torsions:
REMARK  status: ('A' for Active; 'I' for Inactive)
REMARK    1  A    between atoms: C3_3  and  C6_6 
REMARK    2  A    between atoms: C6_6  and  C7_7 
REMARK    3  A    between atoms: C6_6  and  O8_8 
ROOT
HETATM    1  C5  UNL     1     -32.603  14.474  -3.472  1.00 20.00     0.056 C 
HETATM    2  C6  UNL     1     -33.492  15.350  -4.335  1.00 20.00     0.158 C 
ENDROOT
BRANCH   2   3
HETATM    3  C3  UNL     1     -34.296  16.308  -3.500  1.00 20.00    -0.004 A 
HETATM    4  C1  UNL     1     -33.820  16.596  -2.095  1.00 20.00     0.013 A 
HETATM    5  C2  UNL     1     -35.046  15.754  -2.311  1.00 20.00     0.013 A 
HETATM    6  C4  UNL     1     -34.929  17.432  -4.273  1.00 20.00     0.018 C 
ENDBRANCH   2   3
BRANCH   2   7
HETATM    7  C7  UNL     1     -34.389  14.474  -5.219  1.00 20.00     0.418 C 
HETATM    8  F9  UNL     1     -34.175  14.738  -6.527  1.00 20.00    -0.168 F 
HETATM    9  F10 UNL     1     -35.704  14.674  -4.975  1.00 20.00    -0.168 F 
HETATM   10  F11 UNL     1     -34.131  13.162  -5.022  1.00 20.00    -0.168 F 
ENDBRANCH   2   7
BRANCH   2  11
HETATM   11  O8  UNL     1     -32.630  16.094  -5.211  1.00 20.00    -0.380 OA
HETATM   12  H22 UNL     1     -32.598  15.594  -6.037  1.00 20.00     0.211 HD
ENDBRANCH   2  11
TORSDOF 3
ENDMDL
MODEL 8
REMARK VINA RESULT:      -4.2      2.048      3.251
REMARK  3 active torsions:
REMARK  status: ('A' for Active; 'I' for Inactive)
REMARK    1  A    between atoms: C3_3  and  C6_6 
REMARK    2  A    between atoms: C6_6  and  C7_7 
REMARK    3  A    between atoms: C6_6  and  O8_8 
ROOT
HETATM    1  C5  UNL     1     -36.158  15.789  -5.157  1.00 20.00     0.056 C 
HETATM    2  C6  UNL     1     -35.629  15.256  -3.839  1.00 20.00     0.158 C 
ENDROOT
BRANCH   2   3
HETATM    3  C3  UNL     1     -34.793  16.284  -3.127  1.00 20.00    -0.004 A 
HETATM    4  C1  UNL     1     -34.688  16.195  -1.622  1.00 20.00     0.013 A 
HETATM    5  C2  UNL     1     -35.503  17.290  -2.251  1.00 20.00     0.013 A 
HETATM    6  C4  UNL     1     -33.583  16.745  -3.892  1.00 20.00     0.018 C 
ENDBRANCH   2   3
BRANCH   2   7
HETATM    7  C7  UNL     1     -34.852  13.955  -4.074  1.00 20.00     0.418 C 
HETATM    8  F9  UNL     1     -35.699  12.911  -4.213  1.00 20.00    -0.168 F 
HETATM    9  F10 UNL     1     -34.015  13.663  -3.053  1.00 20.00    -0.168 F 
HETATM   10  F11 UNL     1     -34.111  14.029  -5.202  1.00 20.00    -0.168 F 
ENDBRANCH   2   7
BRANCH   2  11
HETATM   11  O8  UNL     1     -36.769  14.929  -3.027  1.00 20.00    -0.380 OA
HETATM   12  H22 UNL     1     -36.577  15.281  -2.148  1.00 20.00     0.211 HD
ENDBRANCH   2  11
TORSDOF 3
ENDMDL
MODEL 9
REMARK VINA RESULT:      -4.2      1.444      2.442
REMARK  3 active torsions:
REMARK  status: ('A' for Active; 'I' for Inactive)
REMARK    1  A    between atoms: C3_3  and  C6_6 
REMARK    2  A    between atoms: C6_6  and  C7_7 
REMARK    3  A    between atoms: C6_6  and  O8_8 
ROOT
HETATM    1  C5  UNL     1     -33.348  16.519  -5.252  1.00 20.00     0.056 C 
HETATM    2  C6  UNL     1     -34.187  15.355  -4.759  1.00 20.00     0.158 C 
ENDROOT
BRANCH   2   3
HETATM    3  C3  UNL     1     -35.625  15.755  -4.572  1.00 20.00    -0.004 A 
HETATM    4  C1  UNL     1     -36.580  14.726  -4.015  1.00 20.00     0.013 A 
HETATM    5  C2  UNL     1     -36.660  15.112  -5.465  1.00 20.00     0.013 A 
HETATM    6  C4  UNL     1     -35.828  17.192  -4.178  1.00 20.00     0.018 C 
ENDBRANCH   2   3
BRANCH   2   7
HETATM    7  C7  UNL     1     -33.583  14.784  -3.470  1.00 20.00     0.418 C 
HETATM    8  F9  UNL     1     -33.993  13.510  -3.273  1.00 20.00    -0.168 F 
HETATM    9  F10 UNL     1     -33.935  15.496  -2.377  1.00 20.00    -0.168 F 
HETATM   10  F11 UNL     1     -32.233  14.769  -3.532  1.00 20.00    -0.168 F 
ENDBRANCH   2   7
BRANCH   2  11
HETATM   11  O8  UNL     1     -34.108  14.324  -5.758  1.00 20.00    -0.380 OA
HETATM   12  H22 UNL     1     -34.517  13.543  -5.364  1.00 20.00     0.211 HD
ENDBRANCH   2  11
TORSDOF 3
ENDMDL
