MODEL 1
REMARK VINA RESULT:      -4.4      0.000      0.000
REMARK  3 active torsions:
REMARK  status: ('A' for Active; 'I' for Inactive)
REMARK    1  A    between atoms: C4_4  and  C9_9 
REMARK    2  A    between atoms: C8_8  and  C9_9 
REMARK    3  A    between atoms: C9_9  and  O11_11 
ROOT
HETATM    1  C1  UNL     1     -33.822  14.197  -3.608  1.00 20.00     0.066 C 
HETATM    2  C6  UNL     1     -34.121  16.144  -2.165  1.00 20.00     0.028 C 
HETATM    3  C8  UNL     1     -34.420  15.551  -3.549  1.00 20.00     0.123 C 
HETATM    4  N10 UNL     1     -33.357  13.136  -3.658  1.00 20.00    -0.197 NA
ENDROOT
BRANCH   3   5
HETATM    5  C9  UNL     1     -33.928  16.450  -4.725  1.00 20.00     0.077 C 
HETATM    6  C7  UNL     1     -33.854  17.906  -4.305  1.00 20.00     0.048 C 
BRANCH   5   7
HETATM    7  C4  UNL     1     -34.851  16.336  -5.952  1.00 20.00    -0.012 A 
HETATM    8  C2  UNL     1     -34.398  15.463  -7.100  1.00 20.00     0.013 A 
HETATM    9  C3  UNL     1     -34.385  16.957  -7.248  1.00 20.00     0.013 A 
HETATM   10  C5  UNL     1     -36.320  16.381  -5.637  1.00 20.00     0.018 C 
ENDBRANCH   5   7
BRANCH   5  11
HETATM   11  O11 UNL     1     -32.617  16.030  -5.115  1.00 20.00    -0.388 OA
HETATM   12  H26 UNL     1     -32.664  15.842  -6.064  1.00 20.00     0.210 HD
ENDBRANCH   5  11
ENDBRANCH   3   5
TORSDOF 3
ENDMDL
MODEL 2
REMARK VINA RESULT:      -4.4      1.887      3.260
REMARK  3 active torsions:
REMARK  status: ('A' for Active; 'I' for Inactive)
REMARK    1  A    between atoms: C4_4  and  C9_9 
REMARK    2  A    between atoms: C8_8  and  C9_9 
REMARK    3  A    between atoms: C9_9  and  O11_11 
ROOT
HETATM    1  C1  UNL     1     -34.575  14.815  -6.466  1.00 20.00     0.066 C 
HETATM    2  C6  UNL     1     -34.750  13.250  -4.599  1.00 20.00     0.028 C 
HETATM    3  C8  UNL     1     -34.714  14.733  -4.993  1.00 20.00     0.123 C 
HETATM    4  N10 UNL     1     -34.468  14.883  -7.619  1.00 20.00    -0.197 NA
ENDROOT
BRANCH   3   5
HETATM    5  C9  UNL     1     -33.596  15.539  -4.263  1.00 20.00     0.077 C 
HETATM    6  C7  UNL     1     -32.690  14.619  -3.468  1.00 20.00     0.048 C 
BRANCH   5   7
HETATM    7  C4  UNL     1     -34.185  16.596  -3.311  1.00 20.00    -0.012 A 
HETATM    8  C2  UNL     1     -35.149  17.609  -3.886  1.00 20.00     0.013 A 
HETATM    9  C3  UNL     1     -33.761  18.034  -3.500  1.00 20.00     0.013 A 
HETATM   10  C5  UNL     1     -34.426  16.111  -1.909  1.00 20.00     0.018 C 
ENDBRANCH   5   7
BRANCH   5  11
HETATM   11  O11 UNL     1     -32.798  16.217  -5.239  1.00 20.00    -0.388 OA
HETATM   12  H26 UNL     1     -33.341  16.276  -6.038  1.00 20.00     0.210 HD
ENDBRANCH   5  11
ENDBRANCH   3   5
TORSDOF 3
ENDMDL
MODEL 3
REMARK VINA RESULT:      -4.3      2.222      3.748
REMARK  3 active torsions:
REMARK  status: ('A' for Active; 'I' for Inactive)
REMARK    1  A    between atoms: C4_4  and  C9_9 
REMARK    2  A    between atoms: C8_8  and  C9_9 
REMARK    3  A    between atoms: C9_9  and  O11_11 
ROOT
HETATM    1  C1  UNL     1     -34.496  14.001  -3.848  1.00 20.00     0.066 C 
HETATM    2  C6  UNL     1     -33.226  15.946  -4.603  1.00 20.00     0.028 C 
HETATM    3  C8  UNL     1     -34.092  15.375  -3.471  1.00 20.00     0.123 C 
HETATM    4  N10 UNL     1     -34.813  12.924  -4.139  1.00 20.00    -0.197 NA
ENDROOT
BRANCH   3   5
HETATM    5  C9  UNL     1     -35.327  16.266  -3.129  1.00 20.00     0.077 C 
HETATM    6  C7  UNL     1     -35.776  17.063  -4.338  1.00 20.00     0.048 C 
BRANCH   5   7
HETATM    7  C4  UNL     1     -35.023  17.242  -1.978  1.00 20.00    -0.012 A 
HETATM    8  C2  UNL     1     -33.633  17.229  -1.386  1.00 20.00     0.013 A 
HETATM    9  C3  UNL     1     -34.783  16.663  -0.604  1.00 20.00     0.013 A 
HETATM   10  C5  UNL     1     -35.737  18.562  -2.072  1.00 20.00     0.018 C 
ENDBRANCH   5   7
BRANCH   5  11
HETATM   11  O11 UNL     1     -36.409  15.423  -2.722  1.00 20.00    -0.388 OA
HETATM   12  H26 UNL     1     -36.591  14.836  -3.469  1.00 20.00     0.210 HD
ENDBRANCH   5  11
ENDBRANCH   3   5
TORSDOF 3
ENDMDL
MODEL 4
REMARK VINA RESULT:      -4.3      2.171      3.734
REMARK  3 active torsions:
REMARK  status: ('A' for Active; 'I' for Inactive)
REMARK    1  A    between atoms: C4_4  and  C9_9 
REMARK    2  A    between atoms: C8_8  and  C9_9 
REMARK    3  A    between atoms: C9_9  and  O11_11 
ROOT
HETATM    1  C1  UNL     1     -34.050  18.280  -5.292  1.00 20.00     0.066 C 
HETATM    2  C6  UNL     1     -36.130  17.101  -5.787  1.00 20.00     0.028 C 
HETATM    3  C8  UNL     1     -34.857  17.092  -4.929  1.00 20.00     0.123 C 
HETATM    4  N10 UNL     1     -33.415  19.210  -5.573  1.00 20.00    -0.197 NA
ENDROOT
BRANCH   3   5
HETATM    5  C9  UNL     1     -34.034  15.773  -5.059  1.00 20.00     0.077 C 
HETATM    6  C7  UNL     1     -34.387  15.033  -6.334  1.00 20.00     0.048 C 
BRANCH   5   7
HETATM    7  C4  UNL     1     -34.269  14.836  -3.861  1.00 20.00    -0.012 A 
HETATM    8  C2  UNL     1     -33.413  13.595  -3.753  1.00 20.00     0.013 A 
HETATM    9  C3  UNL     1     -34.860  13.473  -4.133  1.00 20.00     0.013 A 
HETATM   10  C5  UNL     1     -34.662  15.533  -2.588  1.00 20.00     0.018 C 
ENDBRANCH   5   7
BRANCH   5  11
HETATM   11  O11 UNL     1     -32.641  16.098  -5.102  1.00 20.00    -0.388 OA
HETATM   12  H26 UNL     1     -32.581  16.986  -5.483  1.00 20.00     0.210 HD
ENDBRANCH   5  11
ENDBRANCH   3   5
TORSDOF 3
ENDMDL
MODEL 5
REMARK VINA RESULT:      -4.2      2.167      2.693
REMARK  3 active torsions:
REMARK  status: ('A' for Active; 'I' for Inactive)
REMARK    1  A    between atoms: C4_4  and  C9_9 
REMARK    2  A    between atoms: C8_8  and  C9_9 
REMARK    3  A    between atoms: C9_9  and  O11_11 
ROOT
HETATM    1  C1  UNL     1     -37.040  14.908  -3.665  1.00 20.00     0.066 C 
HETATM    2  C6  UNL     1     -35.239  15.800  -2.277  1.00 20.00     0.028 C 
HETATM    3  C8  UNL     1     -35.740  15.617  -3.716  1.00 20.00     0.123 C 
HETATM    4  N10 UNL     1     -38.058  14.355  -3.628  1.00 20.00    -0.197 NA
ENDROOT
BRANCH   3   5
HETATM    5  C9  UNL     1     -34.718  14.881  -4.637  1.00 20.00     0.077 C 
HETATM    6  C7  UNL     1     -33.446  14.547  -3.883  1.00 20.00     0.048 C 
BRANCH   5   7
HETATM    7  C4  UNL     1     -34.354  15.726  -5.871  1.00 20.00    -0.012 A 
HETATM    8  C2  UNL     1     -35.428  15.969  -6.906  1.00 20.00     0.013 A 
HETATM    9  C3  UNL     1     -34.296  15.032  -7.212  1.00 20.00     0.013 A 
HETATM   10  C5  UNL     1     -33.368  16.830  -5.606  1.00 20.00     0.018 C 
ENDBRANCH   5   7
BRANCH   5  11
HETATM   11  O11 UNL     1     -35.302  13.657  -5.094  1.00 20.00    -0.388 OA
HETATM   12  H26 UNL     1     -34.910  13.478  -5.961  1.00 20.00     0.210 HD
ENDBRANCH   5  11
ENDBRANCH   3   5
TORSDOF 3
ENDMDL
MODEL 6
REMARK VINA RESULT:      -4.2      2.163      3.728
REMARK  3 active torsions:
REMARK  status: ('A' for Active; 'I' for Inactive)
REMARK    1  A    between atoms: C4_4  and  C9_9 
REMARK    2  A    between atoms: C8_8  and  C9_9 
REMARK    3  A    between atoms: C9_9  and  O11_11 
ROOT
HETATM    1  C1  UNL     1     -36.758  14.480  -4.257  1.00 20.00     0.066 C 
HETATM    2  C6  UNL     1     -35.514  14.380  -6.356  1.00 20.00     0.028 C 
HETATM    3  C8  UNL     1     -35.407  14.632  -4.845  1.00 20.00     0.123 C 
HETATM    4  N10 UNL     1     -37.815  14.360  -3.793  1.00 20.00    -0.197 NA
ENDROOT
BRANCH   3   5
HETATM    5  C9  UNL     1     -34.778  16.016  -4.493  1.00 20.00     0.077 C 
HETATM    6  C7  UNL     1     -33.977  16.564  -5.659  1.00 20.00     0.048 C 
BRANCH   5   7
HETATM    7  C4  UNL     1     -33.861  15.927  -3.261  1.00 20.00    -0.012 A 
HETATM    8  C2  UNL     1     -34.496  16.041  -1.894  1.00 20.00     0.013 A 
HETATM    9  C3  UNL     1     -33.668  17.173  -2.430  1.00 20.00     0.013 A 
HETATM   10  C5  UNL     1     -32.690  14.996  -3.418  1.00 20.00     0.018 C 
ENDBRANCH   5   7
BRANCH   5  11
HETATM   11  O11 UNL     1     -35.828  16.943  -4.198  1.00 20.00    -0.388 OA
HETATM   12  H26 UNL     1     -36.164  16.701  -3.322  1.00 20.00     0.210 HD
ENDBRANCH   5  11
ENDBRANCH   3   5
TORSDOF 3
ENDMDL
MODEL 7
REMARK VINA RESULT:      -4.2      2.294      3.454
REMARK  3 active torsions:
REMARK  status: ('A' for Active; 'I' for Inactive)
REMARK    1  A    between atoms: C4_4  and  C9_9 
REMARK    2  A    between atoms: C8_8  and  C9_9 
REMARK    3  A    between atoms: C9_9  and  O11_11 
ROOT
HETATM    1  C1  UNL     1     -37.023  14.437  -3.913  1.00 20.00     0.066 C 
HETATM    2  C6  UNL     1     -35.120  13.050  -4.560  1.00 20.00     0.028 C 
HETATM    3  C8  UNL     1     -35.546  14.426  -4.030  1.00 20.00     0.123 C 
HETATM    4  N10 UNL     1     -38.179  14.449  -3.819  1.00 20.00    -0.197 NA
ENDROOT
BRANCH   3   5
HETATM    5  C9  UNL     1     -35.028  15.611  -4.904  1.00 20.00     0.077 C 
HETATM    6  C7  UNL     1     -34.591  15.129  -6.273  1.00 20.00     0.048 C 
BRANCH   5   7
HETATM    7  C4  UNL     1     -33.848  16.337  -4.234  1.00 20.00    -0.012 A 
HETATM    8  C2  UNL     1     -32.741  15.495  -3.642  1.00 20.00     0.013 A 
HETATM    9  C3  UNL     1     -33.698  16.214  -2.736  1.00 20.00     0.013 A 
HETATM   10  C5  UNL     1     -33.473  17.645  -4.875  1.00 20.00     0.018 C 
ENDBRANCH   5   7
BRANCH   5  11
HETATM   11  O11 UNL     1     -36.088  16.557  -5.080  1.00 20.00    -0.388 OA
HETATM   12  H26 UNL     1     -36.518  16.328  -5.916  1.00 20.00     0.210 HD
ENDBRANCH   5  11
ENDBRANCH   3   5
TORSDOF 3
ENDMDL
MODEL 8
REMARK VINA RESULT:      -4.2      2.043      2.845
REMARK  3 active torsions:
REMARK  status: ('A' for Active; 'I' for Inactive)
REMARK    1  A    between atoms: C4_4  and  C9_9 
REMARK    2  A    between atoms: C8_8  and  C9_9 
REMARK    3  A    between atoms: C9_9  and  O11_11 
ROOT
HETATM    1  C1  UNL     1     -34.819  16.492  -1.967  1.00 20.00     0.066 C 
HETATM    2  C6  UNL     1     -35.421  17.915  -3.858  1.00 20.00     0.028 C 
HETATM    3  C8  UNL     1     -35.126  16.475  -3.416  1.00 20.00     0.123 C 
HETATM    4  N10 UNL     1     -34.579  16.501  -0.832  1.00 20.00    -0.197 NA
ENDROOT
BRANCH   3   5
HETATM    5  C9  UNL     1     -33.987  15.797  -4.239  1.00 20.00     0.077 C 
HETATM    6  C7  UNL     1     -33.348  16.782  -5.200  1.00 20.00     0.048 C 
BRANCH   5   7
HETATM    7  C4  UNL     1     -34.505  14.589  -5.040  1.00 20.00    -0.012 A 
HETATM    8  C2  UNL     1     -35.557  13.713  -4.400  1.00 20.00     0.013 A 
HETATM    9  C3  UNL     1     -34.150  13.207  -4.545  1.00 20.00     0.013 A 
HETATM   10  C5  UNL     1     -34.579  14.809  -6.525  1.00 20.00     0.018 C 
ENDBRANCH   5   7
BRANCH   5  11
HETATM   11  O11 UNL     1     -32.976  15.332  -3.338  1.00 20.00    -0.388 OA
HETATM   12  H26 UNL     1     -32.787  16.069  -2.740  1.00 20.00     0.210 HD
ENDBRANCH   5  11
ENDBRANCH   3   5
TORSDOF 3
ENDMDL
MODEL 9
REMARK VINA RESULT:      -4.1      2.117      2.692
REMARK  3 active torsions:
REMARK  status: ('A' for Active; 'I' for Inactive)
REMARK    1  A    between atoms: C4_4  and  C9_9 
REMARK    2  A    between atoms: C8_8  and  C9_9 
REMARK    3  A    between atoms: C9_9  and  O11_11 
ROOT
HETATM    1  C1  UNL     1     -34.319  15.984  -2.292  1.00 20.00     0.066 C 
HETATM    2  C6  UNL     1     -32.722  14.631  -3.551  1.00 20.00     0.028 C 
HETATM    3  C8  UNL     1     -33.988  15.494  -3.651  1.00 20.00     0.123 C 
HETATM    4  N10 UNL     1     -34.580  16.372  -1.231  1.00 20.00    -0.197 NA
ENDROOT
BRANCH   3   5
HETATM    5  C9  UNL     1     -35.193  14.748  -4.303  1.00 20.00     0.077 C 
HETATM    6  C7  UNL     1     -34.937  13.255  -4.376  1.00 20.00     0.048 C 
BRANCH   5   7
HETATM    7  C4  UNL     1     -35.484  15.269  -5.722  1.00 20.00    -0.012 A 
HETATM    8  C2  UNL     1     -34.473  14.976  -6.806  1.00 20.00     0.013 A 
HETATM    9  C3  UNL     1     -34.605  16.371  -6.266  1.00 20.00     0.013 A 
HETATM   10  C5  UNL     1     -36.939  15.279  -6.099  1.00 20.00     0.018 C 
ENDBRANCH   5   7
BRANCH   5  11
HETATM   11  O11 UNL     1     -36.361  14.963  -3.504  1.00 20.00    -0.388 OA
HETATM   12  H26 UNL     1     -36.044  15.216  -2.625  1.00 20.00     0.210 HD
ENDBRANCH   5  11
ENDBRANCH   3   5
TORSDOF 3
ENDMDL
