MODEL 1
REMARK VINA RESULT:      -4.7      0.000      0.000
REMARK  1 active torsions:
REMARK  status: ('A' for Active; 'I' for Inactive)
REMARK    1  A    between atoms: C3_3  and  C8_8 
ROOT
HETATM    1  C1  UNL     1     -34.510  16.644  -0.852  1.00 20.00     0.017 A 
HETATM    2  C2  UNL     1     -34.735  15.991  -2.098  1.00 20.00     0.032 A 
HETATM    3  C3  UNL     1     -34.015  17.919  -1.017  1.00 20.00    -0.012 A 
HETATM    4  C4  UNL     1     -34.402  16.792  -3.169  1.00 20.00     0.075 A 
HETATM    5  S10 UNL     1     -33.823  18.324  -2.669  1.00 20.00    -0.082 SA
HETATM    6 CL11 UNL     1     -34.511  16.415  -4.836  1.00 20.00    -0.076 Cl
ENDROOT
BRANCH   3   7
HETATM    7  C8  UNL     1     -33.650  18.932   0.045  1.00 20.00     0.027 C 
HETATM    8  C5  UNL     1     -32.143  19.263   0.120  1.00 20.00     0.011 C 
HETATM    9  C6  UNL     1     -31.700  18.866   1.527  1.00 20.00     0.021 C 
HETATM   10  C9  UNL     1     -32.961  19.058   2.354  1.00 20.00     0.083 C 
HETATM   11  C7  UNL     1     -34.047  18.473   1.461  1.00 20.00     0.030 C 
HETATM   12 CL12 UNL     1     -32.867  18.247   3.922  1.00 20.00    -0.125 Cl
ENDBRANCH   3   7
TORSDOF 1
ENDMDL
MODEL 2
REMARK VINA RESULT:      -4.7      1.557      5.567
REMARK  1 active torsions:
REMARK  status: ('A' for Active; 'I' for Inactive)
REMARK    1  A    between atoms: C3_3  and  C8_8 
ROOT
HETATM    1  C1  UNL     1     -32.040  18.910   0.326  1.00 20.00     0.017 A 
HETATM    2  C2  UNL     1     -31.480  19.170   1.609  1.00 20.00     0.032 A 
HETATM    3  C3  UNL     1     -33.360  18.522   0.405  1.00 20.00    -0.012 A 
HETATM    4  C4  UNL     1     -32.394  18.971   2.622  1.00 20.00     0.075 A 
HETATM    5  S10 UNL     1     -33.918  18.472   2.022  1.00 20.00    -0.082 SA
HETATM    6 CL11 UNL     1     -32.153  19.164   4.307  1.00 20.00    -0.076 Cl
ENDROOT
BRANCH   3   7
HETATM    7  C8  UNL     1     -34.304  18.159  -0.719  1.00 20.00     0.027 C 
HETATM    8  C5  UNL     1     -34.728  16.674  -0.744  1.00 20.00     0.011 C 
HETATM    9  C6  UNL     1     -34.247  16.128  -2.086  1.00 20.00     0.021 C 
HETATM   10  C9  UNL     1     -34.285  17.348  -2.991  1.00 20.00     0.083 C 
HETATM   11  C7  UNL     1     -33.704  18.445  -2.109  1.00 20.00     0.030 C 
HETATM   12 CL12 UNL     1     -33.355  17.113  -4.477  1.00 20.00    -0.125 Cl
ENDBRANCH   3   7
TORSDOF 1
ENDMDL
MODEL 3
REMARK VINA RESULT:      -4.5      2.490      6.324
REMARK  1 active torsions:
REMARK  status: ('A' for Active; 'I' for Inactive)
REMARK    1  A    between atoms: C3_3  and  C8_8 
ROOT
HETATM    1  C1  UNL     1     -34.413  15.990  -2.080  1.00 20.00     0.017 A 
HETATM    2  C2  UNL     1     -34.730  16.707  -0.890  1.00 20.00     0.032 A 
HETATM    3  C3  UNL     1     -33.853  16.803  -3.041  1.00 20.00    -0.012 A 
HETATM    4  C4  UNL     1     -34.399  18.041  -0.987  1.00 20.00     0.075 A 
HETATM    5  S10 UNL     1     -33.711  18.423  -2.508  1.00 20.00    -0.082 SA
HETATM    6 CL11 UNL     1     -34.604  19.262   0.197  1.00 20.00    -0.076 Cl
ENDROOT
BRANCH   3   7
HETATM    7  C8  UNL     1     -33.381  16.432  -4.429  1.00 20.00     0.027 C 
HETATM    8  C5  UNL     1     -33.626  17.519  -5.499  1.00 20.00     0.011 C 
HETATM    9  C6  UNL     1     -34.538  16.878  -6.541  1.00 20.00     0.021 C 
HETATM   10  C9  UNL     1     -34.172  15.405  -6.464  1.00 20.00     0.083 C 
HETATM   11  C7  UNL     1     -34.063  15.159  -4.965  1.00 20.00     0.030 C 
HETATM   12 CL12 UNL     1     -35.382  14.369  -7.231  1.00 20.00    -0.125 Cl
ENDBRANCH   3   7
TORSDOF 1
ENDMDL
MODEL 4
REMARK VINA RESULT:      -4.5      2.890      4.076
REMARK  1 active torsions:
REMARK  status: ('A' for Active; 'I' for Inactive)
REMARK    1  A    between atoms: C3_3  and  C8_8 
ROOT
HETATM    1  C1  UNL     1     -34.360  14.042  -3.514  1.00 20.00     0.017 A 
HETATM    2  C2  UNL     1     -34.412  13.544  -4.848  1.00 20.00     0.032 A 
HETATM    3  C3  UNL     1     -34.956  15.278  -3.399  1.00 20.00    -0.012 A 
HETATM    4  C4  UNL     1     -35.047  14.420  -5.702  1.00 20.00     0.075 A 
HETATM    5  S10 UNL     1     -35.576  15.834  -4.895  1.00 20.00    -0.082 SA
HETATM    6 CL11 UNL     1     -35.331  14.229  -7.381  1.00 20.00    -0.076 Cl
ENDROOT
BRANCH   3   7
HETATM    7  C8  UNL     1     -35.110  16.138  -2.164  1.00 20.00     0.027 C 
HETATM    8  C5  UNL     1     -36.101  17.311  -2.322  1.00 20.00     0.011 C 
HETATM    9  C6  UNL     1     -35.284  18.580  -2.089  1.00 20.00     0.021 C 
HETATM   10  C9  UNL     1     -34.193  18.119  -1.136  1.00 20.00     0.083 C 
HETATM   11  C7  UNL     1     -33.779  16.774  -1.718  1.00 20.00     0.030 C 
HETATM   12 CL12 UNL     1     -32.846  19.261  -1.053  1.00 20.00    -0.125 Cl
ENDBRANCH   3   7
TORSDOF 1
ENDMDL
MODEL 5
REMARK VINA RESULT:      -4.5     15.140     17.655
REMARK  1 active torsions:
REMARK  status: ('A' for Active; 'I' for Inactive)
REMARK    1  A    between atoms: C3_3  and  C8_8 
ROOT
HETATM    1  C1  UNL     1     -40.947   3.887  -1.546  1.00 20.00     0.017 A 
HETATM    2  C2  UNL     1     -40.763   5.149  -0.911  1.00 20.00     0.032 A 
HETATM    3  C3  UNL     1     -41.912   3.937  -2.528  1.00 20.00    -0.012 A 
HETATM    4  C4  UNL     1     -41.595   6.116  -1.431  1.00 20.00     0.075 A 
HETATM    5  S10 UNL     1     -42.592   5.501  -2.681  1.00 20.00    -0.082 SA
HETATM    6 CL11 UNL     1     -41.710   7.762  -0.970  1.00 20.00    -0.076 Cl
ENDROOT
BRANCH   3   7
HETATM    7  C8  UNL     1     -42.399   2.823  -3.426  1.00 20.00     0.027 C 
HETATM    8  C5  UNL     1     -43.417   1.868  -2.766  1.00 20.00     0.011 C 
HETATM    9  C6  UNL     1     -42.770   0.486  -2.797  1.00 20.00     0.021 C 
HETATM   10  C9  UNL     1     -41.885   0.545  -4.031  1.00 20.00     0.083 C 
HETATM   11  C7  UNL     1     -41.253   1.927  -3.930  1.00 20.00     0.030 C 
HETATM   12 CL12 UNL     1     -40.680  -0.749  -4.058  1.00 20.00    -0.125 Cl
ENDBRANCH   3   7
TORSDOF 1
ENDMDL
MODEL 6
REMARK VINA RESULT:      -4.5      3.025      6.688
REMARK  1 active torsions:
REMARK  status: ('A' for Active; 'I' for Inactive)
REMARK    1  A    between atoms: C3_3  and  C8_8 
ROOT
HETATM    1  C1  UNL     1     -34.482  15.865  -1.954  1.00 20.00     0.017 A 
HETATM    2  C2  UNL     1     -34.403  16.931  -1.012  1.00 20.00     0.032 A 
HETATM    3  C3  UNL     1     -35.563  15.997  -2.797  1.00 20.00    -0.012 A 
HETATM    4  C4  UNL     1     -35.428  17.839  -1.172  1.00 20.00     0.075 A 
HETATM    5  S10 UNL     1     -36.477  17.403  -2.453  1.00 20.00    -0.082 SA
HETATM    6 CL11 UNL     1     -35.721  19.263  -0.265  1.00 20.00    -0.076 Cl
ENDROOT
BRANCH   3   7
HETATM    7  C8  UNL     1     -35.994  15.086  -3.924  1.00 20.00     0.027 C 
HETATM    8  C5  UNL     1     -35.302  13.706  -3.931  1.00 20.00     0.011 C 
HETATM    9  C6  UNL     1     -34.557  13.621  -5.260  1.00 20.00     0.021 C 
HETATM   10  C9  UNL     1     -35.396  14.489  -6.183  1.00 20.00     0.083 C 
HETATM   11  C7  UNL     1     -35.724  15.695  -5.313  1.00 20.00     0.030 C 
HETATM   12 CL12 UNL     1     -34.528  14.938  -7.658  1.00 20.00    -0.125 Cl
ENDBRANCH   3   7
TORSDOF 1
ENDMDL
MODEL 7
REMARK VINA RESULT:      -4.3      1.972      2.542
REMARK  1 active torsions:
REMARK  status: ('A' for Active; 'I' for Inactive)
REMARK    1  A    between atoms: C3_3  and  C8_8 
ROOT
HETATM    1  C1  UNL     1     -33.108  15.963  -2.960  1.00 20.00     0.017 A 
HETATM    2  C2  UNL     1     -33.246  14.769  -3.725  1.00 20.00     0.032 A 
HETATM    3  C3  UNL     1     -34.323  16.437  -2.515  1.00 20.00    -0.012 A 
HETATM    4  C4  UNL     1     -34.562  14.376  -3.835  1.00 20.00     0.075 A 
HETATM    5  S10 UNL     1     -35.623  15.444  -3.019  1.00 20.00    -0.082 SA
HETATM    6 CL11 UNL     1     -35.184  13.008  -4.660  1.00 20.00    -0.076 Cl
ENDROOT
BRANCH   3   7
HETATM    7  C8  UNL     1     -34.605  17.666  -1.680  1.00 20.00     0.027 C 
HETATM    8  C5  UNL     1     -33.465  18.708  -1.670  1.00 20.00     0.011 C 
HETATM    9  C6  UNL     1     -33.033  18.836  -0.211  1.00 20.00     0.021 C 
HETATM   10  C9  UNL     1     -34.306  18.519   0.556  1.00 20.00     0.083 C 
HETATM   11  C7  UNL     1     -34.873  17.326  -0.202  1.00 20.00     0.030 C 
HETATM   12 CL12 UNL     1     -33.993  18.150   2.257  1.00 20.00    -0.125 Cl
ENDBRANCH   3   7
TORSDOF 1
ENDMDL
MODEL 8
REMARK VINA RESULT:      -4.3      3.035      5.665
REMARK  1 active torsions:
REMARK  status: ('A' for Active; 'I' for Inactive)
REMARK    1  A    between atoms: C3_3  and  C8_8 
ROOT
HETATM    1  C1  UNL     1     -34.434  17.002  -0.413  1.00 20.00     0.017 A 
HETATM    2  C2  UNL     1     -35.450  17.813   0.170  1.00 20.00     0.032 A 
HETATM    3  C3  UNL     1     -34.597  16.866  -1.774  1.00 20.00    -0.012 A 
HETATM    4  C4  UNL     1     -36.352  18.266  -0.769  1.00 20.00     0.075 A 
HETATM    5  S10 UNL     1     -35.970  17.713  -2.344  1.00 20.00    -0.082 SA
HETATM    6 CL11 UNL     1     -37.722  19.262  -0.514  1.00 20.00    -0.076 Cl
ENDROOT
BRANCH   3   7
HETATM    7  C8  UNL     1     -33.740  16.094  -2.752  1.00 20.00     0.027 C 
HETATM    8  C5  UNL     1     -33.584  16.766  -4.133  1.00 20.00     0.011 C 
HETATM    9  C6  UNL     1     -34.163  15.779  -5.143  1.00 20.00     0.021 C 
HETATM   10  C9  UNL     1     -33.917  14.429  -4.488  1.00 20.00     0.083 C 
HETATM   11  C7  UNL     1     -34.290  14.684  -3.034  1.00 20.00     0.030 C 
HETATM   12 CL12 UNL     1     -34.885  13.141  -5.218  1.00 20.00    -0.125 Cl
ENDBRANCH   3   7
TORSDOF 1
ENDMDL
MODEL 9
REMARK VINA RESULT:      -4.3      3.870      5.631
REMARK  1 active torsions:
REMARK  status: ('A' for Active; 'I' for Inactive)
REMARK    1  A    between atoms: C3_3  and  C8_8 
ROOT
HETATM    1  C1  UNL     1     -34.371  14.974  -6.962  1.00 20.00     0.017 A 
HETATM    2  C2  UNL     1     -35.467  14.872  -7.866  1.00 20.00     0.032 A 
HETATM    3  C3  UNL     1     -34.788  15.168  -5.663  1.00 20.00    -0.012 A 
HETATM    4  C4  UNL     1     -36.681  14.993  -7.224  1.00 20.00     0.075 A 
HETATM    5  S10 UNL     1     -36.495  15.227  -5.538  1.00 20.00    -0.082 SA
HETATM    6 CL11 UNL     1     -38.246  14.933  -7.918  1.00 20.00    -0.076 Cl
ENDROOT
BRANCH   3   7
HETATM    7  C8  UNL     1     -33.945  15.322  -4.417  1.00 20.00     0.027 C 
HETATM    8  C5  UNL     1     -34.569  14.711  -3.143  1.00 20.00     0.011 C 
HETATM    9  C6  UNL     1     -34.740  15.872  -2.167  1.00 20.00     0.021 C 
HETATM   10  C9  UNL     1     -33.616  16.819  -2.554  1.00 20.00     0.083 C 
HETATM   11  C7  UNL     1     -33.661  16.798  -4.076  1.00 20.00     0.030 C 
HETATM   12 CL12 UNL     1     -33.847  18.444  -1.895  1.00 20.00    -0.125 Cl
ENDBRANCH   3   7
TORSDOF 1
ENDMDL
