MODEL 1
REMARK VINA RESULT:      -4.6      0.000      0.000
REMARK  4 active torsions:
REMARK  status: ('A' for Active; 'I' for Inactive)
REMARK    1  A    between atoms: C4_4  and  C7_7 
REMARK    2  A    between atoms: C4_4  and  C8_8 
REMARK    3  A    between atoms: C7_7  and  C9_9 
REMARK    4  A    between atoms: C8_8  and  C10_10 
ROOT
HETATM    1  C1  UNL     1     -34.537  13.583  -4.541  1.00 20.00     0.128 C 
HETATM    2  C2  UNL     1     -33.394  14.201  -3.716  1.00 20.00     0.088 C 
HETATM    3  C3  UNL     1     -35.109  14.967  -4.896  1.00 20.00     0.088 C 
HETATM    4  C4  UNL     1     -34.172  15.554  -3.790  1.00 20.00    -0.027 C 
HETATM    5  O11 UNL     1     -34.866  12.445  -4.801  1.00 20.00    -0.298 OA
ENDROOT
BRANCH   4   6
HETATM    6  C7  UNL     1     -34.914  15.891  -2.495  1.00 20.00     0.010 C 
BRANCH   6   7
HETATM    7  C9  UNL     1     -34.030  16.694  -1.548  1.00 20.00    -0.004 C 
HETATM    8  C5  UNL     1     -34.764  17.024  -0.258  1.00 20.00     0.005 C 
ENDBRANCH   6   7
ENDBRANCH   4   6
BRANCH   4   9
HETATM    9  C8  UNL     1     -33.320  16.726  -4.268  1.00 20.00     0.010 C 
BRANCH   9  10
HETATM   10  C10 UNL     1     -34.189  17.895  -4.722  1.00 20.00    -0.004 C 
HETATM   11  C6  UNL     1     -33.752  18.413  -6.083  1.00 20.00     0.005 C 
ENDBRANCH   9  10
ENDBRANCH   4   9
TORSDOF 4
ENDMDL
MODEL 2
REMARK VINA RESULT:      -4.5      0.438      3.307
REMARK  4 active torsions:
REMARK  status: ('A' for Active; 'I' for Inactive)
REMARK    1  A    between atoms: C4_4  and  C7_7 
REMARK    2  A    between atoms: C4_4  and  C8_8 
REMARK    3  A    between atoms: C7_7  and  C9_9 
REMARK    4  A    between atoms: C8_8  and  C10_10 
ROOT
HETATM    1  C1  UNL     1     -34.748  13.560  -4.465  1.00 20.00     0.128 C 
HETATM    2  C2  UNL     1     -35.442  14.899  -4.771  1.00 20.00     0.088 C 
HETATM    3  C3  UNL     1     -33.924  14.180  -3.323  1.00 20.00     0.088 C 
HETATM    4  C4  UNL     1     -34.367  15.579  -3.864  1.00 20.00    -0.027 C 
HETATM    5  O11 UNL     1     -34.815  12.449  -4.946  1.00 20.00    -0.298 OA
ENDROOT
BRANCH   4   6
HETATM    6  C7  UNL     1     -33.269  16.286  -4.662  1.00 20.00     0.010 C 
BRANCH   6   7
HETATM    7  C9  UNL     1     -33.593  17.763  -4.852  1.00 20.00    -0.004 C 
HETATM    8  C5  UNL     1     -33.972  18.061  -6.293  1.00 20.00     0.005 C 
ENDBRANCH   6   7
ENDBRANCH   4   6
BRANCH   4   9
HETATM    9  C8  UNL     1     -34.957  16.491  -2.793  1.00 20.00     0.010 C 
BRANCH   9  10
HETATM   10  C10 UNL     1     -33.983  16.689  -1.636  1.00 20.00    -0.004 C 
HETATM   11  C6  UNL     1     -34.719  16.980  -0.337  1.00 20.00     0.005 C 
ENDBRANCH   9  10
ENDBRANCH   4   9
TORSDOF 4
ENDMDL
MODEL 3
REMARK VINA RESULT:      -4.3      1.083      3.043
REMARK  4 active torsions:
REMARK  status: ('A' for Active; 'I' for Inactive)
REMARK    1  A    between atoms: C4_4  and  C7_7 
REMARK    2  A    between atoms: C4_4  and  C8_8 
REMARK    3  A    between atoms: C7_7  and  C9_9 
REMARK    4  A    between atoms: C8_8  and  C10_10 
ROOT
HETATM    1  C1  UNL     1     -34.798  13.518  -4.208  1.00 20.00     0.128 C 
HETATM    2  C2  UNL     1     -35.851  14.547  -3.759  1.00 20.00     0.088 C 
HETATM    3  C3  UNL     1     -33.673  14.253  -3.458  1.00 20.00     0.088 C 
HETATM    4  C4  UNL     1     -34.662  15.455  -3.305  1.00 20.00    -0.027 C 
HETATM    5  O11 UNL     1     -34.838  12.521  -4.897  1.00 20.00    -0.298 OA
ENDROOT
BRANCH   4   6
HETATM    6  C7  UNL     1     -34.372  16.596  -4.283  1.00 20.00     0.010 C 
BRANCH   6   7
HETATM    7  C9  UNL     1     -35.599  17.479  -4.477  1.00 20.00    -0.004 C 
HETATM    8  C5  UNL     1     -35.236  18.951  -4.383  1.00 20.00     0.005 C 
ENDBRANCH   6   7
ENDBRANCH   4   6
BRANCH   4   9
HETATM    9  C8  UNL     1     -34.791  15.964  -1.873  1.00 20.00     0.010 C 
BRANCH   9  10
HETATM   10  C10 UNL     1     -33.743  17.028  -1.565  1.00 20.00    -0.004 C 
HETATM   11  C6  UNL     1     -34.052  17.749  -0.263  1.00 20.00     0.005 C 
ENDBRANCH   9  10
ENDBRANCH   4   9
TORSDOF 4
ENDMDL
MODEL 4
REMARK VINA RESULT:      -4.2      2.211      3.626
REMARK  4 active torsions:
REMARK  status: ('A' for Active; 'I' for Inactive)
REMARK    1  A    between atoms: C4_4  and  C7_7 
REMARK    2  A    between atoms: C4_4  and  C8_8 
REMARK    3  A    between atoms: C7_7  and  C9_9 
REMARK    4  A    between atoms: C8_8  and  C10_10 
ROOT
HETATM    1  C1  UNL     1     -33.808  18.009  -4.980  1.00 20.00     0.128 C 
HETATM    2  C2  UNL     1     -35.028  17.800  -4.064  1.00 20.00     0.088 C 
HETATM    3  C3  UNL     1     -33.313  16.570  -4.747  1.00 20.00     0.088 C 
HETATM    4  C4  UNL     1     -34.339  16.488  -3.569  1.00 20.00    -0.027 C 
HETATM    5  O11 UNL     1     -33.391  18.947  -5.625  1.00 20.00    -0.298 OA
ENDROOT
BRANCH   4   6
HETATM    6  C7  UNL     1     -33.684  16.636  -2.194  1.00 20.00     0.010 C 
BRANCH   6   7
HETATM    7  C9  UNL     1     -34.701  16.439  -1.077  1.00 20.00    -0.004 C 
HETATM    8  C5  UNL     1     -34.530  17.484   0.013  1.00 20.00     0.005 C 
ENDBRANCH   6   7
ENDBRANCH   4   6
BRANCH   4   9
HETATM    9  C8  UNL     1     -35.243  15.260  -3.630  1.00 20.00     0.010 C 
BRANCH   9  10
HETATM   10  C10 UNL     1     -34.433  13.970  -3.566  1.00 20.00    -0.004 C 
HETATM   11  C6  UNL     1     -34.645  13.122  -4.810  1.00 20.00     0.005 C 
ENDBRANCH   9  10
ENDBRANCH   4   9
TORSDOF 4
ENDMDL
MODEL 5
REMARK VINA RESULT:      -4.1      1.623      1.979
REMARK  4 active torsions:
REMARK  status: ('A' for Active; 'I' for Inactive)
REMARK    1  A    between atoms: C4_4  and  C7_7 
REMARK    2  A    between atoms: C4_4  and  C8_8 
REMARK    3  A    between atoms: C7_7  and  C9_9 
REMARK    4  A    between atoms: C8_8  and  C10_10 
ROOT
HETATM    1  C1  UNL     1     -33.556  13.974  -3.769  1.00 20.00     0.128 C 
HETATM    2  C2  UNL     1     -33.095  15.441  -3.693  1.00 20.00     0.088 C 
HETATM    3  C3  UNL     1     -35.040  14.374  -3.682  1.00 20.00     0.088 C 
HETATM    4  C4  UNL     1     -34.554  15.799  -3.259  1.00 20.00    -0.027 C 
HETATM    5  O11 UNL     1     -32.974  12.914  -3.853  1.00 20.00    -0.298 OA
ENDROOT
BRANCH   4   6
HETATM    6  C7  UNL     1     -34.686  16.055  -1.757  1.00 20.00     0.010 C 
BRANCH   6   7
HETATM    7  C9  UNL     1     -33.848  17.254  -1.327  1.00 20.00    -0.004 C 
HETATM    8  C5  UNL     1     -34.247  17.734   0.058  1.00 20.00     0.005 C 
ENDBRANCH   6   7
ENDBRANCH   4   6
BRANCH   4   9
HETATM    9  C8  UNL     1     -35.177  16.926  -4.078  1.00 20.00     0.010 C 
BRANCH   9  10
HETATM   10  C10 UNL     1     -36.513  17.366  -3.488  1.00 20.00    -0.004 C 
HETATM   11  C6  UNL     1     -37.669  17.009  -4.410  1.00 20.00     0.005 C 
ENDBRANCH   9  10
ENDBRANCH   4   9
TORSDOF 4
ENDMDL
MODEL 6
REMARK VINA RESULT:      -4.1      1.703      3.406
REMARK  4 active torsions:
REMARK  status: ('A' for Active; 'I' for Inactive)
REMARK    1  A    between atoms: C4_4  and  C7_7 
REMARK    2  A    between atoms: C4_4  and  C8_8 
REMARK    3  A    between atoms: C7_7  and  C9_9 
REMARK    4  A    between atoms: C8_8  and  C10_10 
ROOT
HETATM    1  C1  UNL     1     -37.096  14.645  -3.765  1.00 20.00     0.128 C 
HETATM    2  C2  UNL     1     -36.560  15.985  -3.230  1.00 20.00     0.088 C 
HETATM    3  C3  UNL     1     -35.676  14.095  -3.981  1.00 20.00     0.088 C 
HETATM    4  C4  UNL     1     -35.159  15.557  -3.774  1.00 20.00    -0.027 C 
HETATM    5  O11 UNL     1     -38.208  14.200  -3.954  1.00 20.00    -0.298 OA
ENDROOT
BRANCH   4   6
HETATM    6  C7  UNL     1     -34.786  16.251  -5.085  1.00 20.00     0.010 C 
BRANCH   6   7
HETATM    7  C9  UNL     1     -33.414  16.907  -4.990  1.00 20.00    -0.004 C 
HETATM    8  C5  UNL     1     -33.520  18.420  -5.094  1.00 20.00     0.005 C 
ENDBRANCH   6   7
ENDBRANCH   4   6
BRANCH   4   9
HETATM    9  C8  UNL     1     -34.040  15.670  -2.742  1.00 20.00     0.010 C 
BRANCH   9  10
HETATM   10  C10 UNL     1     -34.524  16.368  -1.475  1.00 20.00    -0.004 C 
HETATM   11  C6  UNL     1     -33.664  17.579  -1.148  1.00 20.00     0.005 C 
ENDBRANCH   9  10
ENDBRANCH   4   9
TORSDOF 4
ENDMDL
MODEL 7
REMARK VINA RESULT:      -4.1      2.018      4.016
REMARK  4 active torsions:
REMARK  status: ('A' for Active; 'I' for Inactive)
REMARK    1  A    between atoms: C4_4  and  C7_7 
REMARK    2  A    between atoms: C4_4  and  C8_8 
REMARK    3  A    between atoms: C7_7  and  C9_9 
REMARK    4  A    between atoms: C8_8  and  C10_10 
ROOT
HETATM    1  C1  UNL     1     -34.074  17.616  -5.428  1.00 20.00     0.128 C 
HETATM    2  C2  UNL     1     -33.235  16.507  -4.769  1.00 20.00     0.088 C 
HETATM    3  C3  UNL     1     -34.908  17.826  -4.152  1.00 20.00     0.088 C 
HETATM    4  C4  UNL     1     -34.298  16.487  -3.623  1.00 20.00    -0.027 C 
HETATM    5  O11 UNL     1     -34.083  18.121  -6.530  1.00 20.00    -0.298 OA
ENDROOT
BRANCH   4   6
HETATM    6  C7  UNL     1     -35.266  15.307  -3.725  1.00 20.00     0.010 C 
BRANCH   6   7
HETATM    7  C9  UNL     1     -34.530  13.978  -3.592  1.00 20.00    -0.004 C 
HETATM    8  C5  UNL     1     -34.692  13.134  -4.845  1.00 20.00     0.005 C 
ENDBRANCH   6   7
ENDBRANCH   4   6
BRANCH   4   9
HETATM    9  C8  UNL     1     -33.694  16.598  -2.226  1.00 20.00     0.010 C 
BRANCH   9  10
HETATM   10  C10 UNL     1     -34.756  16.412  -1.147  1.00 20.00    -0.004 C 
HETATM   11  C6  UNL     1     -34.567  17.403  -0.009  1.00 20.00     0.005 C 
ENDBRANCH   9  10
ENDBRANCH   4   9
TORSDOF 4
ENDMDL
MODEL 8
REMARK VINA RESULT:      -4.1      2.007      3.846
REMARK  4 active torsions:
REMARK  status: ('A' for Active; 'I' for Inactive)
REMARK    1  A    between atoms: C4_4  and  C7_7 
REMARK    2  A    between atoms: C4_4  and  C8_8 
REMARK    3  A    between atoms: C7_7  and  C9_9 
REMARK    4  A    between atoms: C8_8  and  C10_10 
ROOT
HETATM    1  C1  UNL     1     -37.414  14.624  -3.798  1.00 20.00     0.128 C 
HETATM    2  C2  UNL     1     -36.814  15.866  -3.116  1.00 20.00     0.088 C 
HETATM    3  C3  UNL     1     -36.022  14.087  -4.176  1.00 20.00     0.088 C 
HETATM    4  C4  UNL     1     -35.458  15.496  -3.800  1.00 20.00    -0.027 C 
HETATM    5  O11 UNL     1     -38.545  14.228  -3.979  1.00 20.00    -0.298 OA
ENDROOT
BRANCH   4   6
HETATM    6  C7  UNL     1     -35.146  16.362  -5.022  1.00 20.00     0.010 C 
BRANCH   6   7
HETATM    7  C9  UNL     1     -33.908  15.856  -5.753  1.00 20.00    -0.004 C 
HETATM    8  C5  UNL     1     -34.270  15.277  -7.110  1.00 20.00     0.005 C 
ENDBRANCH   6   7
ENDBRANCH   4   6
BRANCH   4   9
HETATM    9  C8  UNL     1     -34.278  15.445  -2.833  1.00 20.00     0.010 C 
BRANCH   9  10
HETATM   10  C10 UNL     1     -33.927  16.834  -2.312  1.00 20.00    -0.004 C 
HETATM   11  C6  UNL     1     -34.268  16.974  -0.837  1.00 20.00     0.005 C 
ENDBRANCH   9  10
ENDBRANCH   4   9
TORSDOF 4
ENDMDL
MODEL 9
REMARK VINA RESULT:      -4.1      2.226      3.677
REMARK  4 active torsions:
REMARK  status: ('A' for Active; 'I' for Inactive)
REMARK    1  A    between atoms: C4_4  and  C7_7 
REMARK    2  A    between atoms: C4_4  and  C8_8 
REMARK    3  A    between atoms: C7_7  and  C9_9 
REMARK    4  A    between atoms: C8_8  and  C10_10 
ROOT
HETATM    1  C1  UNL     1     -34.651  16.669  -1.293  1.00 20.00     0.128 C 
HETATM    2  C2  UNL     1     -35.460  15.999  -2.417  1.00 20.00     0.088 C 
HETATM    3  C3  UNL     1     -33.625  17.236  -2.289  1.00 20.00     0.088 C 
HETATM    4  C4  UNL     1     -34.244  16.277  -3.358  1.00 20.00    -0.027 C 
HETATM    5  O11 UNL     1     -34.769  16.721  -0.087  1.00 20.00    -0.298 OA
ENDROOT
BRANCH   4   6
HETATM    6  C7  UNL     1     -33.388  15.035  -3.615  1.00 20.00     0.010 C 
BRANCH   6   7
HETATM    7  C9  UNL     1     -34.222  13.763  -3.518  1.00 20.00    -0.004 C 
HETATM    8  C5  UNL     1     -34.541  13.210  -4.897  1.00 20.00     0.005 C 
ENDBRANCH   6   7
ENDBRANCH   4   6
BRANCH   4   9
HETATM    9  C8  UNL     1     -34.625  16.975  -4.660  1.00 20.00     0.010 C 
BRANCH   9  10
HETATM   10  C10 UNL     1     -33.656  16.620  -5.783  1.00 20.00    -0.004 C 
HETATM   11  C6  UNL     1     -34.398  16.214  -7.047  1.00 20.00     0.005 C 
ENDBRANCH   9  10
ENDBRANCH   4   9
TORSDOF 4
ENDMDL
