MODEL 1
REMARK VINA RESULT:      -4.0      0.000      0.000
REMARK  3 active torsions:
REMARK  status: ('A' for Active; 'I' for Inactive)
REMARK    1  A    between atoms: C3_3  and  C6_6 
REMARK    2  A    between atoms: C5_5  and  C6_6 
REMARK    3  A    between atoms: C5_5  and  O7_7 
ROOT
HETATM    1  C6  UNL     1     -33.736   6.531   4.765  1.00 20.00     0.110 C 
HETATM    2 CL8  UNL     1     -33.531   7.006   6.492  1.00 20.00    -0.122 Cl
ENDROOT
BRANCH   1   3
HETATM    3  C3  UNL     1     -34.132   5.099   4.670  1.00 20.00     0.006 A 
HETATM    4  C1  UNL     1     -34.887   4.444   5.793  1.00 20.00     0.006 A 
HETATM    5  C2  UNL     1     -35.577   4.723   4.486  1.00 20.00     0.006 A 
ENDBRANCH   1   3
BRANCH   1   6
HETATM    6  C5  UNL     1     -32.428   6.836   4.018  1.00 20.00     0.187 C 
BRANCH   6   7
HETATM    7  O7  UNL     1     -32.665   6.984   2.624  1.00 20.00    -0.394 OA
HETATM    8  C4  UNL     1     -32.059   8.163   2.115  1.00 20.00     0.201 C 
ENDBRANCH   6   7
ENDBRANCH   1   6
TORSDOF 3
ENDMDL
MODEL 2
REMARK VINA RESULT:      -3.9      1.761      1.911
REMARK  3 active torsions:
REMARK  status: ('A' for Active; 'I' for Inactive)
REMARK    1  A    between atoms: C3_3  and  C6_6 
REMARK    2  A    between atoms: C5_5  and  C6_6 
REMARK    3  A    between atoms: C5_5  and  O7_7 
ROOT
HETATM    1  C6  UNL     1     -33.550   5.703   4.008  1.00 20.00     0.110 C 
HETATM    2 CL8  UNL     1     -34.236   5.150   2.434  1.00 20.00    -0.122 Cl
ENDROOT
BRANCH   1   3
HETATM    3  C3  UNL     1     -34.614   5.733   5.049  1.00 20.00     0.006 A 
HETATM    4  C1  UNL     1     -35.163   4.450   5.610  1.00 20.00     0.006 A 
HETATM    5  C2  UNL     1     -34.300   5.336   6.465  1.00 20.00     0.006 A 
ENDBRANCH   1   3
BRANCH   1   6
HETATM    6  C5  UNL     1     -32.889   7.074   3.795  1.00 20.00     0.187 C 
BRANCH   6   7
HETATM    7  O7  UNL     1     -32.093   7.073   2.616  1.00 20.00    -0.394 OA
HETATM    8  C4  UNL     1     -32.104   8.343   1.980  1.00 20.00     0.201 C 
ENDBRANCH   6   7
ENDBRANCH   1   6
TORSDOF 3
ENDMDL
MODEL 3
REMARK VINA RESULT:      -3.6      1.866      3.811
REMARK  3 active torsions:
REMARK  status: ('A' for Active; 'I' for Inactive)
REMARK    1  A    between atoms: C3_3  and  C6_6 
REMARK    2  A    between atoms: C5_5  and  C6_6 
REMARK    3  A    between atoms: C5_5  and  O7_7 
ROOT
HETATM    1  C6  UNL     1     -33.868   5.821   4.687  1.00 20.00     0.110 C 
HETATM    2 CL8  UNL     1     -33.971   6.808   6.193  1.00 20.00    -0.122 Cl
ENDROOT
BRANCH   1   3
HETATM    3  C3  UNL     1     -33.318   6.641   3.572  1.00 20.00     0.006 A 
HETATM    4  C1  UNL     1     -31.948   7.249   3.682  1.00 20.00     0.006 A 
HETATM    5  C2  UNL     1     -32.191   6.113   2.728  1.00 20.00     0.006 A 
ENDBRANCH   1   3
BRANCH   1   6
HETATM    6  C5  UNL     1     -35.265   5.258   4.379  1.00 20.00     0.187 C 
BRANCH   6   7
HETATM    7  O7  UNL     1     -35.361   3.897   4.779  1.00 20.00    -0.394 OA
HETATM    8  C4  UNL     1     -34.591   3.642   5.945  1.00 20.00     0.201 C 
ENDBRANCH   6   7
ENDBRANCH   1   6
TORSDOF 3
ENDMDL
MODEL 4
REMARK VINA RESULT:      -3.6      1.625      1.706
REMARK  3 active torsions:
REMARK  status: ('A' for Active; 'I' for Inactive)
REMARK    1  A    between atoms: C3_3  and  C6_6 
REMARK    2  A    between atoms: C5_5  and  C6_6 
REMARK    3  A    between atoms: C5_5  and  O7_7 
ROOT
HETATM    1  C6  UNL     1     -34.004   5.470   3.947  1.00 20.00     0.110 C 
HETATM    2 CL8  UNL     1     -35.727   5.699   3.468  1.00 20.00    -0.122 Cl
ENDROOT
BRANCH   1   3
HETATM    3  C3  UNL     1     -33.924   4.920   5.329  1.00 20.00     0.006 A 
HETATM    4  C1  UNL     1     -34.731   5.537   6.438  1.00 20.00     0.006 A 
HETATM    5  C2  UNL     1     -35.090   4.173   5.915  1.00 20.00     0.006 A 
ENDBRANCH   1   3
BRANCH   1   6
HETATM    6  C5  UNL     1     -33.275   6.816   3.801  1.00 20.00     0.187 C 
BRANCH   6   7
HETATM    7  O7  UNL     1     -32.293   6.749   2.775  1.00 20.00    -0.394 OA
HETATM    8  C4  UNL     1     -32.062   8.023   2.192  1.00 20.00     0.201 C 
ENDBRANCH   6   7
ENDBRANCH   1   6
TORSDOF 3
ENDMDL
MODEL 5
REMARK VINA RESULT:      -3.5     11.791     12.443
REMARK  3 active torsions:
REMARK  status: ('A' for Active; 'I' for Inactive)
REMARK    1  A    between atoms: C3_3  and  C6_6 
REMARK    2  A    between atoms: C5_5  and  C6_6 
REMARK    3  A    between atoms: C5_5  and  O7_7 
ROOT
HETATM    1  C6  UNL     1     -33.871  15.707  -3.608  1.00 20.00     0.110 C 
HETATM    2 CL8  UNL     1     -33.293  16.775  -4.941  1.00 20.00    -0.122 Cl
ENDROOT
BRANCH   1   3
HETATM    3  C3  UNL     1     -33.626  16.354  -2.289  1.00 20.00     0.006 A 
HETATM    4  C1  UNL     1     -34.233  17.693  -1.977  1.00 20.00     0.006 A 
HETATM    5  C2  UNL     1     -34.735  16.459  -1.279  1.00 20.00     0.006 A 
ENDBRANCH   1   3
BRANCH   1   6
HETATM    6  C5  UNL     1     -33.173  14.344  -3.739  1.00 20.00     0.187 C 
BRANCH   6   7
HETATM    7  O7  UNL     1     -34.084  13.283  -3.485  1.00 20.00    -0.394 OA
HETATM    8  C4  UNL     1     -35.239  13.380  -4.307  1.00 20.00     0.201 C 
ENDBRANCH   6   7
ENDBRANCH   1   6
TORSDOF 3
ENDMDL
MODEL 6
REMARK VINA RESULT:      -3.5      2.280      4.173
REMARK  3 active torsions:
REMARK  status: ('A' for Active; 'I' for Inactive)
REMARK    1  A    between atoms: C3_3  and  C6_6 
REMARK    2  A    between atoms: C5_5  and  C6_6 
REMARK    3  A    between atoms: C5_5  and  O7_7 
ROOT
HETATM    1  C6  UNL     1     -33.917   6.576   4.065  1.00 20.00     0.110 C 
HETATM    2 CL8  UNL     1     -35.062   5.559   3.114  1.00 20.00    -0.122 Cl
ENDROOT
BRANCH   1   3
HETATM    3  C3  UNL     1     -32.557   6.519   3.461  1.00 20.00     0.006 A 
HETATM    4  C1  UNL     1     -32.168   7.484   2.375  1.00 20.00     0.006 A 
HETATM    5  C2  UNL     1     -31.556   7.606   3.743  1.00 20.00     0.006 A 
ENDBRANCH   1   3
BRANCH   1   6
HETATM    6  C5  UNL     1     -33.939   6.097   5.525  1.00 20.00     0.187 C 
BRANCH   6   7
HETATM    7  O7  UNL     1     -35.088   5.299   5.777  1.00 20.00    -0.394 OA
HETATM    8  C4  UNL     1     -34.743   3.933   5.960  1.00 20.00     0.201 C 
ENDBRANCH   6   7
ENDBRANCH   1   6
TORSDOF 3
ENDMDL
MODEL 7
REMARK VINA RESULT:      -3.4     12.251     12.781
REMARK  3 active torsions:
REMARK  status: ('A' for Active; 'I' for Inactive)
REMARK    1  A    between atoms: C3_3  and  C6_6 
REMARK    2  A    between atoms: C5_5  and  C6_6 
REMARK    3  A    between atoms: C5_5  and  O7_7 
ROOT
HETATM    1  C6  UNL     1     -35.898  15.777  -3.386  1.00 20.00     0.110 C 
HETATM    2 CL8  UNL     1     -35.386  16.943  -4.663  1.00 20.00    -0.122 Cl
ENDROOT
BRANCH   1   3
HETATM    3  C3  UNL     1     -34.804  15.589  -2.394  1.00 20.00     0.006 A 
HETATM    4  C1  UNL     1     -33.713  16.615  -2.265  1.00 20.00     0.006 A 
HETATM    5  C2  UNL     1     -34.732  16.460  -1.170  1.00 20.00     0.006 A 
ENDBRANCH   1   3
BRANCH   1   6
HETATM    6  C5  UNL     1     -36.316  14.464  -4.066  1.00 20.00     0.187 C 
BRANCH   6   7
HETATM    7  O7  UNL     1     -37.644  14.106  -3.701  1.00 20.00    -0.394 OA
HETATM    8  C4  UNL     1     -38.479  15.250  -3.593  1.00 20.00     0.201 C 
ENDBRANCH   6   7
ENDBRANCH   1   6
TORSDOF 3
ENDMDL
MODEL 8
REMARK VINA RESULT:      -3.3     12.084     12.931
REMARK  3 active torsions:
REMARK  status: ('A' for Active; 'I' for Inactive)
REMARK    1  A    between atoms: C3_3  and  C6_6 
REMARK    2  A    between atoms: C5_5  and  C6_6 
REMARK    3  A    between atoms: C5_5  and  O7_7 
ROOT
HETATM    1  C6  UNL     1     -33.490  15.834  -3.318  1.00 20.00     0.110 C 
HETATM    2 CL8  UNL     1     -34.362  14.256  -3.325  1.00 20.00    -0.122 Cl
ENDROOT
BRANCH   1   3
HETATM    3  C3  UNL     1     -34.224  16.822  -2.479  1.00 20.00     0.006 A 
HETATM    4  C1  UNL     1     -34.682  16.451  -1.096  1.00 20.00     0.006 A 
HETATM    5  C2  UNL     1     -33.561  17.437  -1.277  1.00 20.00     0.006 A 
ENDBRANCH   1   3
BRANCH   1   6
HETATM    6  C5  UNL     1     -33.318  16.301  -4.772  1.00 20.00     0.187 C 
BRANCH   6   7
HETATM    7  O7  UNL     1     -34.494  16.041  -5.528  1.00 20.00    -0.394 OA
HETATM    8  C4  UNL     1     -34.183  15.484  -6.797  1.00 20.00     0.201 C 
ENDBRANCH   6   7
ENDBRANCH   1   6
TORSDOF 3
ENDMDL
MODEL 9
REMARK VINA RESULT:      -3.3     11.489     12.328
REMARK  3 active torsions:
REMARK  status: ('A' for Active; 'I' for Inactive)
REMARK    1  A    between atoms: C3_3  and  C6_6 
REMARK    2  A    between atoms: C5_5  and  C6_6 
REMARK    3  A    between atoms: C5_5  and  O7_7 
ROOT
HETATM    1  C6  UNL     1     -35.427  15.006  -2.928  1.00 20.00     0.110 C 
HETATM    2 CL8  UNL     1     -34.895  16.275  -1.763  1.00 20.00    -0.122 Cl
ENDROOT
BRANCH   1   3
HETATM    3  C3  UNL     1     -34.384  14.795  -3.969  1.00 20.00     0.006 A 
HETATM    4  C1  UNL     1     -32.941  15.091  -3.668  1.00 20.00     0.006 A 
HETATM    5  C2  UNL     1     -33.397  13.668  -3.835  1.00 20.00     0.006 A 
ENDBRANCH   1   3
BRANCH   1   6
HETATM    6  C5  UNL     1     -36.781  15.429  -3.522  1.00 20.00     0.187 C 
BRANCH   6   7
HETATM    7  O7  UNL     1     -37.636  14.303  -3.681  1.00 20.00    -0.394 OA
HETATM    8  C4  UNL     1     -38.917  14.687  -4.160  1.00 20.00     0.201 C 
ENDBRANCH   6   7
ENDBRANCH   1   6
TORSDOF 3
ENDMDL
