MODEL 1
REMARK VINA RESULT:      -4.3      0.000      0.000
REMARK  4 active torsions:
REMARK  status: ('A' for Active; 'I' for Inactive)
REMARK    1  A    between atoms: C2_2  and  C7_7 
REMARK    2  A    between atoms: C7_7  and  O11_11 
REMARK    3  A    between atoms: C8_8  and  C9_9 
REMARK    4  A    between atoms: C9_9  and  O11_11 
ROOT
HETATM    1  O11 UNL     1     -32.827   5.937   3.706  1.00 20.00    -0.383 OA
ENDROOT
BRANCH   1   2
HETATM    2  C7  UNL     1     -32.805   6.540   2.422  1.00 20.00     0.208 C 
BRANCH   2   3
HETATM    3  C2  UNL     1     -31.999   7.819   2.492  1.00 20.00     0.100 A 
HETATM    4  C1  UNL     1     -31.684   8.571   1.220  1.00 20.00     0.208 A 
HETATM    5  O10 UNL     1     -32.736   8.988   2.105  1.00 20.00    -0.373 OA
HETATM    6  C3  UNL     1     -31.140   8.020   3.697  1.00 20.00     0.050 C 
ENDBRANCH   2   3
ENDBRANCH   1   2
BRANCH   1   7
HETATM    7  C9  UNL     1     -34.084   6.143   4.353  1.00 20.00     0.120 C 
HETATM    8  C6  UNL     1     -35.145   5.378   3.567  1.00 20.00     0.040 C 
BRANCH   7   9
HETATM    9  C8  UNL     1     -33.961   5.689   5.823  1.00 20.00     0.006 C 
HETATM   10  C4  UNL     1     -35.093   4.749   6.243  1.00 20.00     0.012 C 
HETATM   11  C5  UNL     1     -33.928   6.899   6.767  1.00 20.00     0.012 C 
ENDBRANCH   7   9
ENDBRANCH   1   7
TORSDOF 4
ENDMDL
MODEL 2
REMARK VINA RESULT:      -4.2     10.822     11.855
REMARK  4 active torsions:
REMARK  status: ('A' for Active; 'I' for Inactive)
REMARK    1  A    between atoms: C2_2  and  C7_7 
REMARK    2  A    between atoms: C7_7  and  O11_11 
REMARK    3  A    between atoms: C8_8  and  C9_9 
REMARK    4  A    between atoms: C9_9  and  O11_11 
ROOT
HETATM    1  O11 UNL     1     -34.610  15.743  -2.417  1.00 20.00    -0.383 OA
ENDROOT
BRANCH   1   2
HETATM    2  C7  UNL     1     -34.084  14.690  -3.208  1.00 20.00     0.208 C 
BRANCH   2   3
HETATM    3  C2  UNL     1     -35.187  14.130  -4.081  1.00 20.00     0.100 A 
HETATM    4  C1  UNL     1     -34.844  13.549  -5.432  1.00 20.00     0.208 A 
HETATM    5  O10 UNL     1     -35.094  12.713  -4.292  1.00 20.00    -0.373 OA
HETATM    6  C3  UNL     1     -36.576  14.611  -3.817  1.00 20.00     0.050 C 
ENDBRANCH   2   3
ENDBRANCH   1   2
BRANCH   1   7
HETATM    7  C9  UNL     1     -33.722  16.863  -2.388  1.00 20.00     0.120 C 
HETATM    8  C6  UNL     1     -33.813  17.567  -3.738  1.00 20.00     0.040 C 
BRANCH   7   9
HETATM    9  C8  UNL     1     -34.106  17.764  -1.196  1.00 20.00     0.006 C 
HETATM   10  C4  UNL     1     -32.892  18.437  -0.554  1.00 20.00     0.012 C 
HETATM   11  C5  UNL     1     -34.868  16.965  -0.130  1.00 20.00     0.012 C 
ENDBRANCH   7   9
ENDBRANCH   1   7
TORSDOF 4
ENDMDL
MODEL 3
REMARK VINA RESULT:      -4.2      0.391      1.131
REMARK  4 active torsions:
REMARK  status: ('A' for Active; 'I' for Inactive)
REMARK    1  A    between atoms: C2_2  and  C7_7 
REMARK    2  A    between atoms: C7_7  and  O11_11 
REMARK    3  A    between atoms: C8_8  and  C9_9 
REMARK    4  A    between atoms: C9_9  and  O11_11 
ROOT
HETATM    1  O11 UNL     1     -33.005   5.962   4.016  1.00 20.00    -0.383 OA
ENDROOT
BRANCH   1   2
HETATM    2  C7  UNL     1     -32.714   6.337   2.679  1.00 20.00     0.208 C 
BRANCH   2   3
HETATM    3  C2  UNL     1     -31.988   7.665   2.686  1.00 20.00     0.100 A 
HETATM    4  C1  UNL     1     -31.742   8.386   1.382  1.00 20.00     0.208 A 
HETATM    5  O10 UNL     1     -32.803   8.771   2.270  1.00 20.00    -0.373 OA
HETATM    6  C3  UNL     1     -31.124   7.965   3.867  1.00 20.00     0.050 C 
ENDBRANCH   2   3
ENDBRANCH   1   2
BRANCH   1   7
HETATM    7  C9  UNL     1     -34.369   6.236   4.346  1.00 20.00     0.120 C 
HETATM    8  C6  UNL     1     -35.246   5.313   3.506  1.00 20.00     0.040 C 
BRANCH   7   9
HETATM    9  C8  UNL     1     -34.555   6.047   5.865  1.00 20.00     0.006 C 
HETATM   10  C4  UNL     1     -33.556   6.865   6.685  1.00 20.00     0.012 C 
HETATM   11  C5  UNL     1     -34.437   4.566   6.250  1.00 20.00     0.012 C 
ENDBRANCH   7   9
ENDBRANCH   1   7
TORSDOF 4
ENDMDL
MODEL 4
REMARK VINA RESULT:      -4.0      0.745      1.694
REMARK  4 active torsions:
REMARK  status: ('A' for Active; 'I' for Inactive)
REMARK    1  A    between atoms: C2_2  and  C7_7 
REMARK    2  A    between atoms: C7_7  and  O11_11 
REMARK    3  A    between atoms: C8_8  and  C9_9 
REMARK    4  A    between atoms: C9_9  and  O11_11 
ROOT
HETATM    1  O11 UNL     1     -33.816   6.910   3.916  1.00 20.00    -0.383 OA
ENDROOT
BRANCH   1   2
HETATM    2  C7  UNL     1     -32.925   6.631   2.848  1.00 20.00     0.208 C 
BRANCH   2   3
HETATM    3  C2  UNL     1     -31.982   7.804   2.673  1.00 20.00     0.100 A 
HETATM    4  C1  UNL     1     -31.734   8.360   1.291  1.00 20.00     0.208 A 
HETATM    5  O10 UNL     1     -32.627   9.001   2.215  1.00 20.00    -0.373 OA
HETATM    6  C3  UNL     1     -30.975   8.037   3.752  1.00 20.00     0.050 C 
ENDBRANCH   2   3
ENDBRANCH   1   2
BRANCH   1   7
HETATM    7  C9  UNL     1     -33.679   5.953   4.968  1.00 20.00     0.120 C 
HETATM    8  C6  UNL     1     -33.864   6.685   6.293  1.00 20.00     0.040 C 
BRANCH   7   9
HETATM    9  C8  UNL     1     -34.704   4.823   4.741  1.00 20.00     0.006 C 
HETATM   10  C4  UNL     1     -35.923   5.289   3.942  1.00 20.00     0.012 C 
HETATM   11  C5  UNL     1     -35.169   4.230   6.078  1.00 20.00     0.012 C 
ENDBRANCH   7   9
ENDBRANCH   1   7
TORSDOF 4
ENDMDL
MODEL 5
REMARK VINA RESULT:      -3.9     10.806     12.076
REMARK  4 active torsions:
REMARK  status: ('A' for Active; 'I' for Inactive)
REMARK    1  A    between atoms: C2_2  and  C7_7 
REMARK    2  A    between atoms: C7_7  and  O11_11 
REMARK    3  A    between atoms: C8_8  and  C9_9 
REMARK    4  A    between atoms: C9_9  and  O11_11 
ROOT
HETATM    1  O11 UNL     1     -33.304  16.541  -3.889  1.00 20.00    -0.383 OA
ENDROOT
BRANCH   1   2
HETATM    2  C7  UNL     1     -34.330  15.879  -4.612  1.00 20.00     0.208 C 
BRANCH   2   3
HETATM    3  C2  UNL     1     -34.261  14.396  -4.320  1.00 20.00     0.100 A 
HETATM    4  C1  UNL     1     -35.536  13.586  -4.276  1.00 20.00     0.208 A 
HETATM    5  O10 UNL     1     -34.668  13.570  -5.420  1.00 20.00    -0.373 OA
HETATM    6  C3  UNL     1     -33.047  13.896  -3.607  1.00 20.00     0.050 C 
ENDBRANCH   2   3
ENDBRANCH   1   2
BRANCH   1   7
HETATM    7  C9  UNL     1     -33.838  17.581  -3.067  1.00 20.00     0.120 C 
HETATM    8  C6  UNL     1     -35.319  17.729  -3.404  1.00 20.00     0.040 C 
BRANCH   7   9
HETATM    9  C8  UNL     1     -33.576  17.225  -1.589  1.00 20.00     0.006 C 
HETATM   10  C4  UNL     1     -34.764  16.516  -0.937  1.00 20.00     0.012 C 
HETATM   11  C5  UNL     1     -33.225  18.480  -0.779  1.00 20.00     0.012 C 
ENDBRANCH   7   9
ENDBRANCH   1   7
TORSDOF 4
ENDMDL
MODEL 6
REMARK VINA RESULT:      -3.9     10.746     11.916
REMARK  4 active torsions:
REMARK  status: ('A' for Active; 'I' for Inactive)
REMARK    1  A    between atoms: C2_2  and  C7_7 
REMARK    2  A    between atoms: C7_7  and  O11_11 
REMARK    3  A    between atoms: C8_8  and  C9_9 
REMARK    4  A    between atoms: C9_9  and  O11_11 
ROOT
HETATM    1  O11 UNL     1     -33.754  16.640  -2.417  1.00 20.00    -0.383 OA
ENDROOT
BRANCH   1   2
HETATM    2  C7  UNL     1     -34.617  16.371  -1.324  1.00 20.00     0.208 C 
BRANCH   2   3
HETATM    3  C2  UNL     1     -34.543  17.522  -0.343  1.00 20.00     0.100 A 
HETATM    4  C1  UNL     1     -35.816  18.198   0.110  1.00 20.00     0.208 A 
HETATM    5  O10 UNL     1     -35.138  17.235   0.931  1.00 20.00    -0.373 OA
HETATM    6  C3  UNL     1     -33.246  18.258  -0.250  1.00 20.00     0.050 C 
ENDBRANCH   2   3
ENDBRANCH   1   2
BRANCH   1   7
HETATM    7  C9  UNL     1     -34.255  16.066  -3.626  1.00 20.00     0.120 C 
HETATM    8  C6  UNL     1     -33.224  16.314  -4.723  1.00 20.00     0.040 C 
BRANCH   7   9
HETATM    9  C8  UNL     1     -34.542  14.570  -3.378  1.00 20.00     0.006 C 
HETATM   10  C4  UNL     1     -33.363  13.675  -3.763  1.00 20.00     0.012 C 
HETATM   11  C5  UNL     1     -35.793  14.121  -4.145  1.00 20.00     0.012 C 
ENDBRANCH   7   9
ENDBRANCH   1   7
TORSDOF 4
ENDMDL
MODEL 7
REMARK VINA RESULT:      -3.8     10.915     12.507
REMARK  4 active torsions:
REMARK  status: ('A' for Active; 'I' for Inactive)
REMARK    1  A    between atoms: C2_2  and  C7_7 
REMARK    2  A    between atoms: C7_7  and  O11_11 
REMARK    3  A    between atoms: C8_8  and  C9_9 
REMARK    4  A    between atoms: C9_9  and  O11_11 
ROOT
HETATM    1  O11 UNL     1     -35.499  15.114  -4.088  1.00 20.00    -0.383 OA
ENDROOT
BRANCH   1   2
HETATM    2  C7  UNL     1     -35.553  14.192  -5.165  1.00 20.00     0.208 C 
BRANCH   2   3
HETATM    3  C2  UNL     1     -35.632  14.960  -6.468  1.00 20.00     0.100 A 
HETATM    4  C1  UNL     1     -36.960  15.087  -7.177  1.00 20.00     0.208 A 
HETATM    5  O10 UNL     1     -36.420  16.157  -6.386  1.00 20.00    -0.373 OA
HETATM    6  C3  UNL     1     -34.366  15.123  -7.243  1.00 20.00     0.050 C 
ENDBRANCH   2   3
ENDBRANCH   1   2
BRANCH   1   7
HETATM    7  C9  UNL     1     -34.517  14.727  -3.125  1.00 20.00     0.120 C 
HETATM    8  C6  UNL     1     -33.537  13.781  -3.810  1.00 20.00     0.040 C 
BRANCH   7   9
HETATM    9  C8  UNL     1     -33.853  16.001  -2.562  1.00 20.00     0.006 C 
HETATM   10  C4  UNL     1     -34.548  16.517  -1.301  1.00 20.00     0.012 C 
HETATM   11  C5  UNL     1     -33.823  17.114  -3.619  1.00 20.00     0.012 C 
ENDBRANCH   7   9
ENDBRANCH   1   7
TORSDOF 4
ENDMDL
MODEL 8
REMARK VINA RESULT:      -3.8     11.143     12.751
REMARK  4 active torsions:
REMARK  status: ('A' for Active; 'I' for Inactive)
REMARK    1  A    between atoms: C2_2  and  C7_7 
REMARK    2  A    between atoms: C7_7  and  O11_11 
REMARK    3  A    between atoms: C8_8  and  C9_9 
REMARK    4  A    between atoms: C9_9  and  O11_11 
ROOT
HETATM    1  O11 UNL     1     -33.698  15.642  -4.914  1.00 20.00    -0.383 OA
ENDROOT
BRANCH   1   2
HETATM    2  C7  UNL     1     -33.453  17.032  -4.769  1.00 20.00     0.208 C 
BRANCH   2   3
HETATM    3  C2  UNL     1     -33.842  17.458  -3.369  1.00 20.00     0.100 A 
HETATM    4  C1  UNL     1     -33.766  18.917  -2.987  1.00 20.00     0.208 A 
HETATM    5  O10 UNL     1     -35.012  18.286  -3.321  1.00 20.00    -0.373 OA
HETATM    6  C3  UNL     1     -33.798  16.414  -2.301  1.00 20.00     0.050 C 
ENDBRANCH   2   3
ENDBRANCH   1   2
BRANCH   1   7
HETATM    7  C9  UNL     1     -34.874  15.402  -5.689  1.00 20.00     0.120 C 
HETATM    8  C6  UNL     1     -34.435  15.022  -7.099  1.00 20.00     0.040 C 
BRANCH   7   9
HETATM    9  C8  UNL     1     -35.709  14.309  -4.989  1.00 20.00     0.006 C 
HETATM   10  C4  UNL     1     -36.731  14.890  -4.010  1.00 20.00     0.012 C 
HETATM   11  C5  UNL     1     -34.801  13.319  -4.248  1.00 20.00     0.012 C 
ENDBRANCH   7   9
ENDBRANCH   1   7
TORSDOF 4
ENDMDL
MODEL 9
REMARK VINA RESULT:      -3.8     11.234     13.037
REMARK  4 active torsions:
REMARK  status: ('A' for Active; 'I' for Inactive)
REMARK    1  A    between atoms: C2_2  and  C7_7 
REMARK    2  A    between atoms: C7_7  and  O11_11 
REMARK    3  A    between atoms: C8_8  and  C9_9 
REMARK    4  A    between atoms: C9_9  and  O11_11 
ROOT
HETATM    1  O11 UNL     1     -33.698  15.674  -5.764  1.00 20.00    -0.383 OA
ENDROOT
BRANCH   1   2
HETATM    2  C7  UNL     1     -34.862  16.350  -6.213  1.00 20.00     0.208 C 
BRANCH   2   3
HETATM    3  C2  UNL     1     -35.966  15.337  -6.431  1.00 20.00     0.100 A 
HETATM    4  C1  UNL     1     -36.375  14.974  -7.839  1.00 20.00     0.208 A 
HETATM    5  O10 UNL     1     -35.522  14.124  -7.056  1.00 20.00    -0.373 OA
HETATM    6  C3  UNL     1     -36.925  15.120  -5.307  1.00 20.00     0.050 C 
ENDBRANCH   2   3
ENDBRANCH   1   2
BRANCH   1   7
HETATM    7  C9  UNL     1     -33.164  16.288  -4.589  1.00 20.00     0.120 C 
HETATM    8  C6  UNL     1     -33.875  17.623  -4.395  1.00 20.00     0.040 C 
BRANCH   7   9
HETATM    9  C8  UNL     1     -33.342  15.317  -3.403  1.00 20.00     0.006 C 
HETATM   10  C4  UNL     1     -33.577  13.875  -3.856  1.00 20.00     0.012 C 
HETATM   11  C5  UNL     1     -34.503  15.763  -2.503  1.00 20.00     0.012 C 
ENDBRANCH   7   9
ENDBRANCH   1   7
TORSDOF 4
ENDMDL
