MODEL 1
REMARK VINA RESULT:      -5.3      0.000      0.000
REMARK  0 active torsions:
REMARK  status: ('A' for Active; 'I' for Inactive)
ROOT
HETATM    1  C1  UNL     1     -32.517   7.471   2.572  1.00 20.00     0.128 C 
HETATM    2  C2  UNL     1     -33.830   7.723   3.332  1.00 20.00     0.088 C 
HETATM    3  C3  UNL     1     -32.567   5.963   2.868  1.00 20.00     0.088 C 
HETATM    4  C4  UNL     1     -35.136   5.297   6.637  1.00 20.00     0.000 C 
HETATM    5  C5  UNL     1     -34.791   4.005   5.899  1.00 20.00     0.000 C 
HETATM    6  C6  UNL     1     -34.160   6.467   6.441  1.00 20.00     0.001 C 
HETATM    7  C7  UNL     1     -34.875   4.066   4.368  1.00 20.00     0.001 C 
HETATM    8  C8  UNL     1     -33.097   6.286   5.359  1.00 20.00     0.010 C 
HETATM    9  C9  UNL     1     -34.956   5.458   3.749  1.00 20.00     0.010 C 
HETATM   10  C10 UNL     1     -33.676   6.281   3.934  1.00 20.00    -0.027 C 
HETATM   11  O11 UNL     1     -31.738   8.186   1.979  1.00 20.00    -0.298 OA
ENDROOT
TORSDOF 0
ENDMDL
MODEL 2
REMARK VINA RESULT:      -5.1     11.578     12.966
REMARK  0 active torsions:
REMARK  status: ('A' for Active; 'I' for Inactive)
ROOT
HETATM    1  C1  UNL     1     -34.574  13.588  -4.536  1.00 20.00     0.128 C 
HETATM    2  C2  UNL     1     -33.472  14.199  -3.655  1.00 20.00     0.088 C 
HETATM    3  C3  UNL     1     -35.132  14.974  -4.900  1.00 20.00     0.088 C 
HETATM    4  C4  UNL     1     -33.916  17.953  -1.600  1.00 20.00     0.000 C 
HETATM    5  C5  UNL     1     -34.514  18.624  -2.835  1.00 20.00     0.000 C 
HETATM    6  C6  UNL     1     -34.339  16.498  -1.350  1.00 20.00     0.001 C 
HETATM    7  C7  UNL     1     -34.062  18.059  -4.188  1.00 20.00     0.001 C 
HETATM    8  C8  UNL     1     -35.115  15.817  -2.476  1.00 20.00     0.010 C 
HETATM    9  C9  UNL     1     -33.351  16.710  -4.157  1.00 20.00     0.010 C 
HETATM   10  C10 UNL     1     -34.262  15.553  -3.728  1.00 20.00    -0.027 C 
HETATM   11  O11 UNL     1     -34.889  12.453  -4.823  1.00 20.00    -0.298 OA
ENDROOT
TORSDOF 0
ENDMDL
MODEL 3
REMARK VINA RESULT:      -5.1     11.501     12.997
REMARK  0 active torsions:
REMARK  status: ('A' for Active; 'I' for Inactive)
ROOT
HETATM    1  C1  UNL     1     -34.764  13.529  -4.219  1.00 20.00     0.128 C 
HETATM    2  C2  UNL     1     -35.833  14.545  -3.783  1.00 20.00     0.088 C 
HETATM    3  C3  UNL     1     -33.650  14.303  -3.496  1.00 20.00     0.088 C 
HETATM    4  C4  UNL     1     -34.972  18.697  -3.051  1.00 20.00     0.000 C 
HETATM    5  C5  UNL     1     -33.718  18.355  -2.250  1.00 20.00     0.000 C 
HETATM    6  C6  UNL     1     -35.243  17.823  -4.285  1.00 20.00     0.001 C 
HETATM    7  C7  UNL     1     -33.734  17.002  -1.526  1.00 20.00     0.001 C 
HETATM    8  C8  UNL     1     -34.370  16.579  -4.439  1.00 20.00     0.010 C 
HETATM    9  C9  UNL     1     -34.826  16.022  -1.945  1.00 20.00     0.010 C 
HETATM   10  C10 UNL     1     -34.657  15.503  -3.379  1.00 20.00    -0.027 C 
HETATM   11  O11 UNL     1     -34.788  12.517  -4.886  1.00 20.00    -0.298 OA
ENDROOT
TORSDOF 0
ENDMDL
MODEL 4
REMARK VINA RESULT:      -4.9     11.459     12.831
REMARK  0 active torsions:
REMARK  status: ('A' for Active; 'I' for Inactive)
ROOT
HETATM    1  C1  UNL     1     -33.771  17.574  -1.761  1.00 20.00     0.128 C 
HETATM    2  C2  UNL     1     -34.492  16.219  -1.667  1.00 20.00     0.088 C 
HETATM    3  C3  UNL     1     -33.933  17.620  -3.290  1.00 20.00     0.088 C 
HETATM    4  C4  UNL     1     -34.449  13.308  -4.836  1.00 20.00     0.000 C 
HETATM    5  C5  UNL     1     -34.731  14.372  -5.894  1.00 20.00     0.000 C 
HETATM    6  C6  UNL     1     -33.501  13.721  -3.700  1.00 20.00     0.001 C 
HETATM    7  C7  UNL     1     -35.527  15.595  -5.419  1.00 20.00     0.001 C 
HETATM    8  C8  UNL     1     -33.137  15.203  -3.628  1.00 20.00     0.010 C 
HETATM    9  C9  UNL     1     -35.653  15.776  -3.909  1.00 20.00     0.010 C 
HETATM   10  C10 UNL     1     -34.320  16.099  -3.223  1.00 20.00    -0.027 C 
HETATM   11  O11 UNL     1     -33.262  18.314  -0.948  1.00 20.00    -0.298 OA
ENDROOT
TORSDOF 0
ENDMDL
MODEL 5
REMARK VINA RESULT:      -4.7     11.555     12.970
REMARK  0 active torsions:
REMARK  status: ('A' for Active; 'I' for Inactive)
ROOT
HETATM    1  C1  UNL     1     -34.265  17.789  -2.002  1.00 20.00     0.128 C 
HETATM    2  C2  UNL     1     -33.783  17.625  -3.453  1.00 20.00     0.088 C 
HETATM    3  C3  UNL     1     -34.335  16.267  -1.792  1.00 20.00     0.088 C 
HETATM    4  C4  UNL     1     -34.811  14.243  -5.906  1.00 20.00     0.000 C 
HETATM    5  C5  UNL     1     -34.517  13.260  -4.774  1.00 20.00     0.000 C 
HETATM    6  C6  UNL     1     -35.488  15.560  -5.496  1.00 20.00     0.001 C 
HETATM    7  C7  UNL     1     -33.459  13.708  -3.757  1.00 20.00     0.001 C 
HETATM    8  C8  UNL     1     -35.576  15.837  -3.997  1.00 20.00     0.010 C 
HETATM    9  C9  UNL     1     -33.073  15.184  -3.786  1.00 20.00     0.010 C 
HETATM   10  C10 UNL     1     -34.209  16.118  -3.350  1.00 20.00    -0.027 C 
HETATM   11  O11 UNL     1     -34.509  18.746  -1.299  1.00 20.00    -0.298 OA
ENDROOT
TORSDOF 0
ENDMDL
MODEL 6
REMARK VINA RESULT:      -4.7     11.860     13.252
REMARK  0 active torsions:
REMARK  status: ('A' for Active; 'I' for Inactive)
ROOT
HETATM    1  C1  UNL     1     -34.526  16.215  -1.797  1.00 20.00     0.128 C 
HETATM    2  C2  UNL     1     -33.407  16.078  -2.844  1.00 20.00     0.088 C 
HETATM    3  C3  UNL     1     -35.478  15.325  -2.613  1.00 20.00     0.088 C 
HETATM    4  C4  UNL     1     -34.172  15.448  -7.032  1.00 20.00     0.000 C 
HETATM    5  C5  UNL     1     -35.224  14.382  -6.738  1.00 20.00     0.000 C 
HETATM    6  C6  UNL     1     -34.149  16.654  -6.080  1.00 20.00     0.001 C 
HETATM    7  C7  UNL     1     -35.032  13.592  -5.436  1.00 20.00     0.001 C 
HETATM    8  C8  UNL     1     -35.012  16.541  -4.825  1.00 20.00     0.010 C 
HETATM    9  C9  UNL     1     -34.035  14.168  -4.435  1.00 20.00     0.010 C 
HETATM   10  C10 UNL     1     -34.490  15.498  -3.821  1.00 20.00    -0.027 C 
HETATM   11  O11 UNL     1     -34.623  16.806  -0.743  1.00 20.00    -0.298 OA
ENDROOT
TORSDOF 0
ENDMDL
MODEL 7
REMARK VINA RESULT:      -4.6     11.886     13.731
REMARK  0 active torsions:
REMARK  status: ('A' for Active; 'I' for Inactive)
ROOT
HETATM    1  C1  UNL     1     -36.938  15.142  -7.285  1.00 20.00     0.128 C 
HETATM    2  C2  UNL     1     -35.600  14.385  -7.281  1.00 20.00     0.088 C 
HETATM    3  C3  UNL     1     -36.474  16.088  -6.165  1.00 20.00     0.088 C 
HETATM    4  C4  UNL     1     -33.130  13.999  -3.778  1.00 20.00     0.000 C 
HETATM    5  C5  UNL     1     -33.296  15.476  -3.428  1.00 20.00     0.000 C 
HETATM    6  C6  UNL     1     -34.374  13.295  -4.338  1.00 20.00     0.001 C 
HETATM    7  C7  UNL     1     -33.533  16.422  -4.613  1.00 20.00     0.001 C 
HETATM    8  C8  UNL     1     -35.556  14.193  -4.697  1.00 20.00     0.010 C 
HETATM    9  C9  UNL     1     -33.908  15.767  -5.939  1.00 20.00     0.010 C 
HETATM   10  C10 UNL     1     -35.285  15.093  -5.915  1.00 20.00    -0.027 C 
HETATM   11  O11 UNL     1     -37.966  15.029  -7.918  1.00 20.00    -0.298 OA
ENDROOT
TORSDOF 0
ENDMDL
MODEL 8
REMARK VINA RESULT:      -4.5     11.532     13.866
REMARK  0 active torsions:
REMARK  status: ('A' for Active; 'I' for Inactive)
ROOT
HETATM    1  C1  UNL     1     -33.593  13.643  -4.079  1.00 20.00     0.128 C 
HETATM    2  C2  UNL     1     -34.894  13.206  -4.773  1.00 20.00     0.088 C 
HETATM    3  C3  UNL     1     -33.896  15.131  -4.322  1.00 20.00     0.088 C 
HETATM    4  C4  UNL     1     -36.759  15.475  -7.918  1.00 20.00     0.000 C 
HETATM    5  C5  UNL     1     -36.577  16.786  -7.157  1.00 20.00     0.000 C 
HETATM    6  C6  UNL     1     -35.602  14.469  -7.815  1.00 20.00     0.001 C 
HETATM    7  C7  UNL     1     -36.557  16.676  -5.627  1.00 20.00     0.001 C 
HETATM    8  C8  UNL     1     -34.517  14.789  -6.788  1.00 20.00     0.010 C 
HETATM    9  C9  UNL     1     -36.383  15.274  -5.051  1.00 20.00     0.010 C 
HETATM   10  C10 UNL     1     -35.003  14.668  -5.334  1.00 20.00    -0.027 C 
HETATM   11  O11 UNL     1     -32.677  13.047  -3.555  1.00 20.00    -0.298 OA
ENDROOT
TORSDOF 0
ENDMDL
MODEL 9
REMARK VINA RESULT:      -4.4      9.711     11.069
REMARK  0 active torsions:
REMARK  status: ('A' for Active; 'I' for Inactive)
ROOT
HETATM    1  C1  UNL     1     -42.485   2.572  -2.726  1.00 20.00     0.128 C 
HETATM    2  C2  UNL     1     -43.327   3.381  -1.727  1.00 20.00     0.088 C 
HETATM    3  C3  UNL     1     -41.248   3.454  -2.488  1.00 20.00     0.088 C 
HETATM    4  C4  UNL     1     -42.655   7.555  -0.925  1.00 20.00     0.000 C 
HETATM    5  C5  UNL     1     -41.145   7.352  -0.827  1.00 20.00     0.000 C 
HETATM    6  C6  UNL     1     -43.377   6.738  -2.007  1.00 20.00     0.001 C 
HETATM    7  C7  UNL     1     -40.685   5.966  -0.357  1.00 20.00     0.001 C 
HETATM    8  C8  UNL     1     -42.553   5.654  -2.699  1.00 20.00     0.010 C 
HETATM    9  C9  UNL     1     -41.740   4.863  -0.364  1.00 20.00     0.010 C 
HETATM   10  C10 UNL     1     -42.203   4.476  -1.774  1.00 20.00    -0.027 C 
HETATM   11  O11 UNL     1     -42.712   1.616  -3.437  1.00 20.00    -0.298 OA
ENDROOT
TORSDOF 0
ENDMDL
