MODEL 1
REMARK VINA RESULT:      -3.9      0.000      0.000
REMARK  3 active torsions:
REMARK  status: ('A' for Active; 'I' for Inactive)
REMARK    1  A    between atoms: C4_4  and  C7_7 
REMARK    2  A    between atoms: C6_6  and  C7_7 
REMARK    3  A    between atoms: C6_6  and  O9_9 
ROOT
HETATM    1  C1  UNL     1     -33.522  16.727  -4.502  1.00 20.00     0.066 C 
HETATM    2  C7  UNL     1     -33.931  15.734  -3.495  1.00 20.00     0.120 C 
HETATM    3  N8  UNL     1     -33.204  17.506  -5.300  1.00 20.00    -0.197 NA
ENDROOT
BRANCH   2   4
HETATM    4  C4  UNL     1     -33.637  16.379  -2.169  1.00 20.00     0.005 A 
HETATM    5  C2  UNL     1     -34.236  17.715  -1.826  1.00 20.00     0.006 A 
HETATM    6  C3  UNL     1     -34.708  16.475  -1.119  1.00 20.00     0.006 A 
ENDBRANCH   2   4
BRANCH   2   7
HETATM    7  C6  UNL     1     -33.212  14.399  -3.678  1.00 20.00     0.186 C 
BRANCH   7   8
HETATM    8  O9  UNL     1     -34.092  13.307  -3.441  1.00 20.00    -0.395 OA
HETATM    9  C5  UNL     1     -35.183  13.309  -4.350  1.00 20.00     0.201 C 
ENDBRANCH   7   8
ENDBRANCH   2   7
TORSDOF 3
ENDMDL
MODEL 2
REMARK VINA RESULT:      -3.8     11.509     12.396
REMARK  3 active torsions:
REMARK  status: ('A' for Active; 'I' for Inactive)
REMARK    1  A    between atoms: C4_4  and  C7_7 
REMARK    2  A    between atoms: C6_6  and  C7_7 
REMARK    3  A    between atoms: C6_6  and  O9_9 
ROOT
HETATM    1  C1  UNL     1     -33.602   6.676   5.410  1.00 20.00     0.066 C 
HETATM    2  C7  UNL     1     -33.633   6.539   3.944  1.00 20.00     0.120 C 
HETATM    3  N8  UNL     1     -33.577   6.790   6.564  1.00 20.00    -0.197 NA
ENDROOT
BRANCH   2   4
HETATM    4  C4  UNL     1     -34.482   5.327   3.683  1.00 20.00     0.005 A 
HETATM    5  C2  UNL     1     -35.267   4.696   4.799  1.00 20.00     0.006 A 
HETATM    6  C3  UNL     1     -35.981   5.434   3.701  1.00 20.00     0.006 A 
ENDBRANCH   2   4
BRANCH   2   7
HETATM    7  C6  UNL     1     -32.231   6.422   3.348  1.00 20.00     0.186 C 
BRANCH   7   8
HETATM    8  O9  UNL     1     -31.640   7.705   3.173  1.00 20.00    -0.395 OA
HETATM    9  C5  UNL     1     -32.048   8.304   1.952  1.00 20.00     0.201 C 
ENDBRANCH   7   8
ENDBRANCH   2   7
TORSDOF 3
ENDMDL
MODEL 3
REMARK VINA RESULT:      -3.8      2.860      3.472
REMARK  3 active torsions:
REMARK  status: ('A' for Active; 'I' for Inactive)
REMARK    1  A    between atoms: C4_4  and  C7_7 
REMARK    2  A    between atoms: C6_6  and  C7_7 
REMARK    3  A    between atoms: C6_6  and  O9_9 
ROOT
HETATM    1  C1  UNL     1     -35.255  13.684  -4.329  1.00 20.00     0.066 C 
HETATM    2  C7  UNL     1     -35.597  15.071  -3.975  1.00 20.00     0.120 C 
HETATM    3  N8  UNL     1     -34.988  12.591  -4.612  1.00 20.00    -0.197 NA
ENDROOT
BRANCH   2   4
HETATM    4  C4  UNL     1     -34.495  15.524  -3.060  1.00 20.00     0.005 A 
HETATM    5  C2  UNL     1     -33.057  15.388  -3.479  1.00 20.00     0.006 A 
HETATM    6  C3  UNL     1     -33.689  16.750  -3.393  1.00 20.00     0.006 A 
ENDBRANCH   2   4
BRANCH   2   7
HETATM    7  C6  UNL     1     -36.980  15.177  -3.336  1.00 20.00     0.186 C 
BRANCH   7   8
HETATM    8  O9  UNL     1     -37.847  14.156  -3.817  1.00 20.00    -0.395 OA
HETATM    9  C5  UNL     1     -39.062  14.696  -4.315  1.00 20.00     0.201 C 
ENDBRANCH   7   8
ENDBRANCH   2   7
TORSDOF 3
ENDMDL
MODEL 4
REMARK VINA RESULT:      -3.8      2.715      4.216
REMARK  3 active torsions:
REMARK  status: ('A' for Active; 'I' for Inactive)
REMARK    1  A    between atoms: C4_4  and  C7_7 
REMARK    2  A    between atoms: C6_6  and  C7_7 
REMARK    3  A    between atoms: C6_6  and  O9_9 
ROOT
HETATM    1  C1  UNL     1     -37.074  14.853  -3.666  1.00 20.00     0.066 C 
HETATM    2  C7  UNL     1     -35.737  15.461  -3.572  1.00 20.00     0.120 C 
HETATM    3  N8  UNL     1     -38.130  14.378  -3.744  1.00 20.00    -0.197 NA
ENDROOT
BRANCH   2   4
HETATM    4  C4  UNL     1     -34.795  14.306  -3.374  1.00 20.00     0.005 A 
HETATM    5  C2  UNL     1     -34.633  13.268  -4.449  1.00 20.00     0.006 A 
HETATM    6  C3  UNL     1     -33.515  14.230  -4.159  1.00 20.00     0.006 A 
ENDBRANCH   2   4
BRANCH   2   7
HETATM    7  C6  UNL     1     -35.653  16.494  -2.450  1.00 20.00     0.186 C 
BRANCH   7   8
HETATM    8  O9  UNL     1     -34.706  16.103  -1.463  1.00 20.00    -0.395 OA
HETATM    9  C5  UNL     1     -34.714  16.988  -0.353  1.00 20.00     0.201 C 
ENDBRANCH   7   8
ENDBRANCH   2   7
TORSDOF 3
ENDMDL
MODEL 5
REMARK VINA RESULT:      -3.8      2.828      4.447
REMARK  3 active torsions:
REMARK  status: ('A' for Active; 'I' for Inactive)
REMARK    1  A    between atoms: C4_4  and  C7_7 
REMARK    2  A    between atoms: C6_6  and  C7_7 
REMARK    3  A    between atoms: C6_6  and  O9_9 
ROOT
HETATM    1  C1  UNL     1     -34.654  13.843  -4.949  1.00 20.00     0.066 C 
HETATM    2  C7  UNL     1     -34.470  15.242  -5.368  1.00 20.00     0.120 C 
HETATM    3  N8  UNL     1     -34.802  12.743  -4.613  1.00 20.00    -0.197 NA
ENDROOT
BRANCH   2   4
HETATM    4  C4  UNL     1     -34.266  15.180  -6.856  1.00 20.00     0.005 A 
HETATM    5  C2  UNL     1     -35.325  14.586  -7.743  1.00 20.00     0.006 A 
HETATM    6  C3  UNL     1     -35.067  16.067  -7.769  1.00 20.00     0.006 A 
ENDBRANCH   2   4
BRANCH   2   7
HETATM    7  C6  UNL     1     -33.310  15.914  -4.638  1.00 20.00     0.186 C 
BRANCH   7   8
HETATM    8  O9  UNL     1     -33.244  15.490  -3.281  1.00 20.00    -0.395 OA
HETATM    9  C5  UNL     1     -33.839  16.439  -2.409  1.00 20.00     0.201 C 
ENDBRANCH   7   8
ENDBRANCH   2   7
TORSDOF 3
ENDMDL
MODEL 6
REMARK VINA RESULT:      -3.8      3.116      4.736
REMARK  3 active torsions:
REMARK  status: ('A' for Active; 'I' for Inactive)
REMARK    1  A    between atoms: C4_4  and  C7_7 
REMARK    2  A    between atoms: C6_6  and  C7_7 
REMARK    3  A    between atoms: C6_6  and  O9_9 
ROOT
HETATM    1  C1  UNL     1     -34.726  13.790  -4.908  1.00 20.00     0.066 C 
HETATM    2  C7  UNL     1     -34.522  15.188  -5.324  1.00 20.00     0.120 C 
HETATM    3  N8  UNL     1     -34.890  12.691  -4.575  1.00 20.00    -0.197 NA
ENDROOT
BRANCH   2   4
HETATM    4  C4  UNL     1     -34.294  15.124  -6.808  1.00 20.00     0.005 A 
HETATM    5  C2  UNL     1     -35.335  14.520  -7.709  1.00 20.00     0.006 A 
HETATM    6  C3  UNL     1     -35.089  16.002  -7.734  1.00 20.00     0.006 A 
ENDBRANCH   2   4
BRANCH   2   7
HETATM    7  C6  UNL     1     -33.366  15.848  -4.574  1.00 20.00     0.186 C 
BRANCH   7   8
HETATM    8  O9  UNL     1     -32.963  17.054  -5.213  1.00 20.00    -0.395 OA
HETATM    9  C5  UNL     1     -33.690  18.171  -4.722  1.00 20.00     0.201 C 
ENDBRANCH   7   8
ENDBRANCH   2   7
TORSDOF 3
ENDMDL
MODEL 7
REMARK VINA RESULT:      -3.7      2.272      2.709
REMARK  3 active torsions:
REMARK  status: ('A' for Active; 'I' for Inactive)
REMARK    1  A    between atoms: C4_4  and  C7_7 
REMARK    2  A    between atoms: C6_6  and  C7_7 
REMARK    3  A    between atoms: C6_6  and  O9_9 
ROOT
HETATM    1  C1  UNL     1     -33.847  14.431  -3.572  1.00 20.00     0.066 C 
HETATM    2  C7  UNL     1     -33.341  15.812  -3.630  1.00 20.00     0.120 C 
HETATM    3  N8  UNL     1     -34.240  13.340  -3.528  1.00 20.00    -0.197 NA
ENDROOT
BRANCH   2   4
HETATM    4  C4  UNL     1     -34.316  16.619  -2.819  1.00 20.00     0.005 A 
HETATM    5  C2  UNL     1     -34.599  16.253  -1.389  1.00 20.00     0.006 A 
HETATM    6  C3  UNL     1     -33.826  17.503  -1.705  1.00 20.00     0.006 A 
ENDBRANCH   2   4
BRANCH   2   7
HETATM    7  C6  UNL     1     -33.204  16.315  -5.065  1.00 20.00     0.186 C 
BRANCH   7   8
HETATM    8  O9  UNL     1     -34.436  16.203  -5.768  1.00 20.00    -0.395 OA
HETATM    9  C5  UNL     1     -34.271  15.521  -7.003  1.00 20.00     0.201 C 
ENDBRANCH   7   8
ENDBRANCH   2   7
TORSDOF 3
ENDMDL
MODEL 8
REMARK VINA RESULT:      -3.7      2.702      4.283
REMARK  3 active torsions:
REMARK  status: ('A' for Active; 'I' for Inactive)
REMARK    1  A    between atoms: C4_4  and  C7_7 
REMARK    2  A    between atoms: C6_6  and  C7_7 
REMARK    3  A    between atoms: C6_6  and  O9_9 
ROOT
HETATM    1  C1  UNL     1     -36.657  14.387  -4.149  1.00 20.00     0.066 C 
HETATM    2  C7  UNL     1     -35.250  14.442  -4.579  1.00 20.00     0.120 C 
HETATM    3  N8  UNL     1     -37.764  14.348  -3.805  1.00 20.00    -0.197 NA
ENDROOT
BRANCH   2   4
HETATM    4  C4  UNL     1     -35.273  14.078  -6.037  1.00 20.00     0.005 A 
HETATM    5  C2  UNL     1     -36.028  14.930  -7.020  1.00 20.00     0.006 A 
HETATM    6  C3  UNL     1     -34.525  14.914  -7.038  1.00 20.00     0.006 A 
ENDBRANCH   2   4
BRANCH   2   7
HETATM    7  C6  UNL     1     -34.359  13.518  -3.751  1.00 20.00     0.186 C 
BRANCH   7   8
HETATM    8  O9  UNL     1     -33.009  13.967  -3.758  1.00 20.00    -0.395 OA
HETATM    9  C5  UNL     1     -32.927  15.377  -3.609  1.00 20.00     0.201 C 
ENDBRANCH   7   8
ENDBRANCH   2   7
TORSDOF 3
ENDMDL
MODEL 9
REMARK VINA RESULT:      -3.7      3.251      4.411
REMARK  3 active torsions:
REMARK  status: ('A' for Active; 'I' for Inactive)
REMARK    1  A    between atoms: C4_4  and  C7_7 
REMARK    2  A    between atoms: C6_6  and  C7_7 
REMARK    3  A    between atoms: C6_6  and  O9_9 
ROOT
HETATM    1  C1  UNL     1     -34.467  13.663  -4.255  1.00 20.00     0.066 C 
HETATM    2  C7  UNL     1     -35.731  14.180  -4.804  1.00 20.00     0.120 C 
HETATM    3  N8  UNL     1     -33.474  13.250  -3.820  1.00 20.00    -0.197 NA
ENDROOT
BRANCH   2   4
HETATM    4  C4  UNL     1     -35.323  15.199  -5.831  1.00 20.00     0.005 A 
HETATM    5  C2  UNL     1     -34.484  14.793  -7.011  1.00 20.00     0.006 A 
HETATM    6  C3  UNL     1     -35.926  15.170  -7.208  1.00 20.00     0.006 A 
ENDBRANCH   2   4
BRANCH   2   7
HETATM    7  C6  UNL     1     -36.635  14.760  -3.719  1.00 20.00     0.186 C 
BRANCH   7   8
HETATM    8  O9  UNL     1     -37.903  14.114  -3.708  1.00 20.00    -0.395 OA
HETATM    9  C5  UNL     1     -38.909  14.931  -4.289  1.00 20.00     0.201 C 
ENDBRANCH   7   8
ENDBRANCH   2   7
TORSDOF 3
ENDMDL
