MODEL 1
REMARK VINA RESULT:      -4.5      0.000      0.000
REMARK  1 active torsions:
REMARK  status: ('A' for Active; 'I' for Inactive)
REMARK    1  A    between atoms: C6_6  and  O8_8 
ROOT
HETATM    1  C1  UNL     1     -32.429   7.397   2.623  1.00 20.00     0.002 C 
HETATM    2  C2  UNL     1     -33.653   7.571   3.558  1.00 20.00     0.010 C 
HETATM    3  C3  UNL     1     -32.089   6.094   3.393  1.00 20.00     0.010 C 
HETATM    4  C4  UNL     1     -33.884   5.584   5.224  1.00 20.00     0.041 C 
HETATM    5  C5  UNL     1     -34.507   5.149   3.199  1.00 20.00     0.041 C 
HETATM    6  C6  UNL     1     -35.191   5.027   4.590  1.00 20.00     0.119 C 
HETATM    7  C7  UNL     1     -33.524   6.092   3.854  1.00 20.00    -0.036 C 
ENDROOT
BRANCH   6   8
HETATM    8  O8  UNL     1     -35.564   3.700   4.995  1.00 20.00    -0.396 OA
HETATM    9  H20 UNL     1     -34.975   3.102   4.516  1.00 20.00     0.210 HD
ENDBRANCH   6   8
TORSDOF 1
ENDMDL
MODEL 2
REMARK VINA RESULT:      -4.4      2.224      3.546
REMARK  1 active torsions:
REMARK  status: ('A' for Active; 'I' for Inactive)
REMARK    1  A    between atoms: C6_6  and  O8_8 
ROOT
HETATM    1  C1  UNL     1     -35.130   4.195   5.234  1.00 20.00     0.002 C 
HETATM    2  C2  UNL     1     -34.051   5.214   5.684  1.00 20.00     0.010 C 
HETATM    3  C3  UNL     1     -35.478   5.155   4.067  1.00 20.00     0.010 C 
HETATM    4  C4  UNL     1     -33.904   7.242   4.059  1.00 20.00     0.041 C 
HETATM    5  C5  UNL     1     -32.997   5.422   3.324  1.00 20.00     0.041 C 
HETATM    6  C6  UNL     1     -32.492   6.880   3.517  1.00 20.00     0.119 C 
HETATM    7  C7  UNL     1     -34.117   5.768   4.277  1.00 20.00    -0.036 C 
ENDROOT
BRANCH   6   8
HETATM    8  O8  UNL     1     -32.086   7.570   2.324  1.00 20.00    -0.396 OA
HETATM    9  H20 UNL     1     -31.506   8.286   2.617  1.00 20.00     0.210 HD
ENDBRANCH   6   8
TORSDOF 1
ENDMDL
MODEL 3
REMARK VINA RESULT:      -4.3     11.275     12.003
REMARK  1 active torsions:
REMARK  status: ('A' for Active; 'I' for Inactive)
REMARK    1  A    between atoms: C6_6  and  O8_8 
ROOT
HETATM    1  C1  UNL     1     -33.775  17.297  -2.257  1.00 20.00     0.002 C 
HETATM    2  C2  UNL     1     -34.365  16.927  -3.642  1.00 20.00     0.010 C 
HETATM    3  C3  UNL     1     -34.651  16.175  -1.640  1.00 20.00     0.010 C 
HETATM    4  C4  UNL     1     -35.987  14.897  -3.487  1.00 20.00     0.041 C 
HETATM    5  C5  UNL     1     -33.888  14.392  -3.376  1.00 20.00     0.041 C 
HETATM    6  C6  UNL     1     -35.066  13.926  -4.278  1.00 20.00     0.119 C 
HETATM    7  C7  UNL     1     -34.735  15.594  -3.028  1.00 20.00    -0.036 C 
ENDROOT
BRANCH   6   8
HETATM    8  O8  UNL     1     -35.410  12.533  -4.196  1.00 20.00    -0.396 OA
HETATM    9  H20 UNL     1     -34.590  12.072  -3.972  1.00 20.00     0.210 HD
ENDBRANCH   6   8
TORSDOF 1
ENDMDL
MODEL 4
REMARK VINA RESULT:      -4.0     11.125     12.225
REMARK  1 active torsions:
REMARK  status: ('A' for Active; 'I' for Inactive)
REMARK    1  A    between atoms: C6_6  and  O8_8 
ROOT
HETATM    1  C1  UNL     1     -34.030  17.569  -3.095  1.00 20.00     0.002 C 
HETATM    2  C2  UNL     1     -34.042  16.232  -2.310  1.00 20.00     0.010 C 
HETATM    3  C3  UNL     1     -33.454  16.794  -4.308  1.00 20.00     0.010 C 
HETATM    4  C4  UNL     1     -33.252  14.240  -3.787  1.00 20.00     0.041 C 
HETATM    5  C5  UNL     1     -35.263  14.926  -4.188  1.00 20.00     0.041 C 
HETATM    6  C6  UNL     1     -34.642  13.545  -3.833  1.00 20.00     0.119 C 
HETATM    7  C7  UNL     1     -33.991  15.544  -3.657  1.00 20.00    -0.036 C 
ENDROOT
BRANCH   6   8
HETATM    8  O8  UNL     1     -34.792  12.513  -4.822  1.00 20.00    -0.396 OA
HETATM    9  H20 UNL     1     -35.616  12.712  -5.287  1.00 20.00     0.210 HD
ENDBRANCH   6   8
TORSDOF 1
ENDMDL
MODEL 5
REMARK VINA RESULT:      -3.8     11.579     12.971
REMARK  1 active torsions:
REMARK  status: ('A' for Active; 'I' for Inactive)
REMARK    1  A    between atoms: C6_6  and  O8_8 
ROOT
HETATM    1  C1  UNL     1     -34.000  17.736  -4.799  1.00 20.00     0.002 C 
HETATM    2  C2  UNL     1     -33.146  16.473  -5.079  1.00 20.00     0.010 C 
HETATM    3  C3  UNL     1     -35.257  16.907  -5.171  1.00 20.00     0.010 C 
HETATM    4  C4  UNL     1     -34.627  14.429  -5.715  1.00 20.00     0.041 C 
HETATM    5  C5  UNL     1     -34.617  14.924  -3.610  1.00 20.00     0.041 C 
HETATM    6  C6  UNL     1     -34.319  13.629  -4.417  1.00 20.00     0.119 C 
HETATM    7  C7  UNL     1     -34.423  15.680  -4.904  1.00 20.00    -0.036 C 
ENDROOT
BRANCH   6   8
HETATM    8  O8  UNL     1     -35.180  12.509  -4.155  1.00 20.00    -0.396 OA
HETATM    9  H20 UNL     1     -34.686  11.726  -4.432  1.00 20.00     0.210 HD
ENDBRANCH   6   8
TORSDOF 1
ENDMDL
MODEL 6
REMARK VINA RESULT:      -3.7     11.584     12.271
REMARK  1 active torsions:
REMARK  status: ('A' for Active; 'I' for Inactive)
REMARK    1  A    between atoms: C6_6  and  O8_8 
ROOT
HETATM    1  C1  UNL     1     -34.811  14.047  -5.800  1.00 20.00     0.002 C 
HETATM    2  C2  UNL     1     -34.511  15.502  -5.357  1.00 20.00     0.010 C 
HETATM    3  C3  UNL     1     -34.257  13.569  -4.432  1.00 20.00     0.010 C 
HETATM    4  C4  UNL     1     -33.577  15.597  -2.929  1.00 20.00     0.041 C 
HETATM    5  C5  UNL     1     -35.706  15.249  -3.069  1.00 20.00     0.041 C 
HETATM    6  C6  UNL     1     -34.829  16.297  -2.329  1.00 20.00     0.119 C 
HETATM    7  C7  UNL     1     -34.502  14.973  -3.938  1.00 20.00    -0.036 C 
ENDROOT
BRANCH   6   8
HETATM    8  O8  UNL     1     -34.918  16.294  -0.894  1.00 20.00    -0.396 OA
HETATM    9  H20 UNL     1     -35.009  15.367  -0.637  1.00 20.00     0.210 HD
ENDBRANCH   6   8
TORSDOF 1
ENDMDL
MODEL 7
REMARK VINA RESULT:      -3.7      8.860      9.828
REMARK  1 active torsions:
REMARK  status: ('A' for Active; 'I' for Inactive)
REMARK    1  A    between atoms: C6_6  and  O8_8 
ROOT
HETATM    1  C1  UNL     1     -40.897   6.900  -0.577  1.00 20.00     0.002 C 
HETATM    2  C2  UNL     1     -41.597   6.501  -1.901  1.00 20.00     0.010 C 
HETATM    3  C3  UNL     1     -41.566   5.670   0.090  1.00 20.00     0.010 C 
HETATM    4  C4  UNL     1     -42.953   4.294  -1.647  1.00 20.00     0.041 C 
HETATM    5  C5  UNL     1     -40.812   4.032  -1.788  1.00 20.00     0.041 C 
HETATM    6  C6  UNL     1     -42.025   3.457  -2.572  1.00 20.00     0.119 C 
HETATM    7  C7  UNL     1     -41.743   5.119  -1.302  1.00 20.00    -0.036 C 
ENDROOT
BRANCH   6   8
HETATM    8  O8  UNL     1     -42.200   2.032  -2.507  1.00 20.00    -0.396 OA
HETATM    9  H20 UNL     1     -42.425   1.752  -3.404  1.00 20.00     0.210 HD
ENDBRANCH   6   8
TORSDOF 1
ENDMDL
MODEL 8
REMARK VINA RESULT:      -3.7     12.293     13.141
REMARK  1 active torsions:
REMARK  status: ('A' for Active; 'I' for Inactive)
REMARK    1  A    between atoms: C6_6  and  O8_8 
ROOT
HETATM    1  C1  UNL     1     -34.570  16.645  -0.778  1.00 20.00     0.002 C 
HETATM    2  C2  UNL     1     -33.598  17.380  -1.736  1.00 20.00     0.010 C 
HETATM    3  C3  UNL     1     -35.447  16.303  -2.010  1.00 20.00     0.010 C 
HETATM    4  C4  UNL     1     -34.354  17.175  -4.219  1.00 20.00     0.041 C 
HETATM    5  C5  UNL     1     -33.440  15.395  -3.398  1.00 20.00     0.041 C 
HETATM    6  C6  UNL     1     -33.161  16.274  -4.650  1.00 20.00     0.119 C 
HETATM    7  C7  UNL     1     -34.222  16.566  -2.849  1.00 20.00    -0.036 C 
ENDROOT
BRANCH   6   8
HETATM    8  O8  UNL     1     -33.300  15.622  -5.923  1.00 20.00    -0.396 OA
HETATM    9  H20 UNL     1     -34.236  15.690  -6.154  1.00 20.00     0.210 HD
ENDBRANCH   6   8
TORSDOF 1
ENDMDL
MODEL 9
REMARK VINA RESULT:      -3.7      9.352     10.358
REMARK  1 active torsions:
REMARK  status: ('A' for Active; 'I' for Inactive)
REMARK    1  A    between atoms: C6_6  and  O8_8 
ROOT
HETATM    1  C1  UNL     1     -41.578   4.637   0.253  1.00 20.00     0.002 C 
HETATM    2  C2  UNL     1     -42.788   5.431  -0.304  1.00 20.00     0.010 C 
HETATM    3  C3  UNL     1     -40.982   4.637  -1.179  1.00 20.00     0.010 C 
HETATM    4  C4  UNL     1     -42.499   5.978  -2.833  1.00 20.00     0.041 C 
HETATM    5  C5  UNL     1     -41.315   7.200  -1.498  1.00 20.00     0.041 C 
HETATM    6  C6  UNL     1     -42.343   7.511  -2.622  1.00 20.00     0.119 C 
HETATM    7  C7  UNL     1     -41.893   5.804  -1.466  1.00 20.00    -0.036 C 
ENDROOT
BRANCH   6   8
HETATM    8  O8  UNL     1     -41.840   8.248  -3.750  1.00 20.00    -0.396 OA
HETATM    9  H20 UNL     1     -41.907   7.650  -4.506  1.00 20.00     0.210 HD
ENDBRANCH   6   8
TORSDOF 1
ENDMDL
