MODEL 1
REMARK VINA RESULT:      -4.3      0.000      0.000
REMARK  3 active torsions:
REMARK  status: ('A' for Active; 'I' for Inactive)
REMARK    1  A    between atoms: C3_3  and  C6_6 
REMARK    2  A    between atoms: C5_5  and  C6_6 
REMARK    3  A    between atoms: C5_5  and  O7_7 
ROOT
HETATM    1  C6  UNL     1     -33.879   6.400   4.051  1.00 20.00     0.110 C 
HETATM    2 CL8  UNL     1     -35.275   5.486   3.368  1.00 20.00    -0.122 Cl
ENDROOT
BRANCH   1   3
HETATM    3  C3  UNL     1     -33.582   5.920   5.430  1.00 20.00     0.006 A 
HETATM    4  C1  UNL     1     -34.064   6.697   6.624  1.00 20.00     0.006 A 
HETATM    5  C2  UNL     1     -34.681   5.366   6.293  1.00 20.00     0.006 A 
ENDBRANCH   1   3
BRANCH   1   6
HETATM    6  C5  UNL     1     -32.679   6.252   3.101  1.00 20.00     0.187 C 
BRANCH   6   7
HETATM    7  O7  UNL     1     -31.856   7.412   3.145  1.00 20.00    -0.394 OA
HETATM    8  C4  UNL     1     -32.082   8.253   2.021  1.00 20.00     0.201 C 
ENDBRANCH   6   7
ENDBRANCH   1   6
TORSDOF 3
ENDMDL
MODEL 2
REMARK VINA RESULT:      -4.1      1.700      2.050
REMARK  3 active torsions:
REMARK  status: ('A' for Active; 'I' for Inactive)
REMARK    1  A    between atoms: C3_3  and  C6_6 
REMARK    2  A    between atoms: C5_5  and  C6_6 
REMARK    3  A    between atoms: C5_5  and  O7_7 
ROOT
HETATM    1  C6  UNL     1     -33.629   5.957   4.975  1.00 20.00     0.110 C 
HETATM    2 CL8  UNL     1     -33.499   7.044   6.408  1.00 20.00    -0.122 Cl
ENDROOT
BRANCH   1   3
HETATM    3  C3  UNL     1     -34.884   5.159   5.052  1.00 20.00     0.006 A 
HETATM    4  C1  UNL     1     -34.826   3.658   5.107  1.00 20.00     0.006 A 
HETATM    5  C2  UNL     1     -35.248   4.440   6.321  1.00 20.00     0.006 A 
ENDBRANCH   1   3
BRANCH   1   6
HETATM    6  C5  UNL     1     -33.546   6.810   3.698  1.00 20.00     0.187 C 
BRANCH   6   7
HETATM    7  O7  UNL     1     -32.201   6.914   3.247  1.00 20.00    -0.394 OA
HETATM    8  C4  UNL     1     -32.050   7.962   2.299  1.00 20.00     0.201 C 
ENDBRANCH   6   7
ENDBRANCH   1   6
TORSDOF 3
ENDMDL
MODEL 3
REMARK VINA RESULT:      -3.9      2.384      3.986
REMARK  3 active torsions:
REMARK  status: ('A' for Active; 'I' for Inactive)
REMARK    1  A    between atoms: C3_3  and  C6_6 
REMARK    2  A    between atoms: C5_5  and  C6_6 
REMARK    3  A    between atoms: C5_5  and  O7_7 
ROOT
HETATM    1  C6  UNL     1     -33.915   6.578   4.025  1.00 20.00     0.110 C 
HETATM    2 CL8  UNL     1     -33.693   6.727   5.808  1.00 20.00    -0.122 Cl
ENDROOT
BRANCH   1   3
HETATM    3  C3  UNL     1     -32.588   6.540   3.347  1.00 20.00     0.006 A 
HETATM    4  C1  UNL     1     -32.178   7.650   2.420  1.00 20.00     0.006 A 
HETATM    5  C2  UNL     1     -31.502   7.497   3.754  1.00 20.00     0.006 A 
ENDBRANCH   1   3
BRANCH   1   6
HETATM    6  C5  UNL     1     -34.764   5.330   3.734  1.00 20.00     0.187 C 
BRANCH   6   7
HETATM    7  O7  UNL     1     -35.514   4.952   4.882  1.00 20.00    -0.394 OA
HETATM    8  C4  UNL     1     -34.938   3.828   5.534  1.00 20.00     0.201 C 
ENDBRANCH   6   7
ENDBRANCH   1   6
TORSDOF 3
ENDMDL
MODEL 4
REMARK VINA RESULT:      -3.6     11.516     11.895
REMARK  3 active torsions:
REMARK  status: ('A' for Active; 'I' for Inactive)
REMARK    1  A    between atoms: C3_3  and  C6_6 
REMARK    2  A    between atoms: C5_5  and  C6_6 
REMARK    3  A    between atoms: C5_5  and  O7_7 
ROOT
HETATM    1  C6  UNL     1     -33.353  15.605  -3.219  1.00 20.00     0.110 C 
HETATM    2 CL8  UNL     1     -33.451  16.634  -4.697  1.00 20.00    -0.122 Cl
ENDROOT
BRANCH   1   3
HETATM    3  C3  UNL     1     -34.599  15.746  -2.416  1.00 20.00     0.006 A 
HETATM    4  C1  UNL     1     -34.585  16.510  -1.121  1.00 20.00     0.006 A 
HETATM    5  C2  UNL     1     -35.293  17.076  -2.321  1.00 20.00     0.006 A 
ENDBRANCH   1   3
BRANCH   1   6
HETATM    6  C5  UNL     1     -33.083  14.153  -3.645  1.00 20.00     0.187 C 
BRANCH   6   7
HETATM    7  O7  UNL     1     -34.278  13.381  -3.590  1.00 20.00    -0.394 OA
HETATM    8  C4  UNL     1     -34.803  13.142  -4.889  1.00 20.00     0.201 C 
ENDBRANCH   6   7
ENDBRANCH   1   6
TORSDOF 3
ENDMDL
MODEL 5
REMARK VINA RESULT:      -3.5     11.317     12.197
REMARK  3 active torsions:
REMARK  status: ('A' for Active; 'I' for Inactive)
REMARK    1  A    between atoms: C3_3  and  C6_6 
REMARK    2  A    between atoms: C5_5  and  C6_6 
REMARK    3  A    between atoms: C5_5  and  O7_7 
ROOT
HETATM    1  C6  UNL     1     -35.509  15.349  -3.510  1.00 20.00     0.110 C 
HETATM    2 CL8  UNL     1     -34.744  15.903  -1.974  1.00 20.00    -0.122 Cl
ENDROOT
BRANCH   1   3
HETATM    3  C3  UNL     1     -35.116  13.941  -3.796  1.00 20.00     0.006 A 
HETATM    4  C1  UNL     1     -34.515  13.577  -5.126  1.00 20.00     0.006 A 
HETATM    5  C2  UNL     1     -33.664  13.563  -3.886  1.00 20.00     0.006 A 
ENDBRANCH   1   3
BRANCH   1   6
HETATM    6  C5  UNL     1     -37.032  15.528  -3.396  1.00 20.00     0.187 C 
BRANCH   6   7
HETATM    7  O7  UNL     1     -37.708  14.323  -3.735  1.00 20.00    -0.394 OA
HETATM    8  C4  UNL     1     -39.015  14.582  -4.230  1.00 20.00     0.201 C 
ENDBRANCH   6   7
ENDBRANCH   1   6
TORSDOF 3
ENDMDL
MODEL 6
REMARK VINA RESULT:      -3.4     11.492     12.043
REMARK  3 active torsions:
REMARK  status: ('A' for Active; 'I' for Inactive)
REMARK    1  A    between atoms: C3_3  and  C6_6 
REMARK    2  A    between atoms: C5_5  and  C6_6 
REMARK    3  A    between atoms: C5_5  and  O7_7 
ROOT
HETATM    1  C6  UNL     1     -35.084  14.728  -3.170  1.00 20.00     0.110 C 
HETATM    2 CL8  UNL     1     -33.500  14.176  -3.831  1.00 20.00    -0.122 Cl
ENDROOT
BRANCH   1   3
HETATM    3  C3  UNL     1     -34.971  16.128  -2.675  1.00 20.00     0.006 A 
HETATM    4  C1  UNL     1     -34.725  16.399  -1.216  1.00 20.00     0.006 A 
HETATM    5  C2  UNL     1     -33.642  16.666  -2.224  1.00 20.00     0.006 A 
ENDBRANCH   1   3
BRANCH   1   6
HETATM    6  C5  UNL     1     -36.157  14.571  -4.261  1.00 20.00     0.187 C 
BRANCH   6   7
HETATM    7  O7  UNL     1     -37.355  14.032  -3.717  1.00 20.00    -0.394 OA
HETATM    8  C4  UNL     1     -38.480  14.842  -4.031  1.00 20.00     0.201 C 
ENDBRANCH   6   7
ENDBRANCH   1   6
TORSDOF 3
ENDMDL
MODEL 7
REMARK VINA RESULT:      -3.4     11.324     12.910
REMARK  3 active torsions:
REMARK  status: ('A' for Active; 'I' for Inactive)
REMARK    1  A    between atoms: C3_3  and  C6_6 
REMARK    2  A    between atoms: C5_5  and  C6_6 
REMARK    3  A    between atoms: C5_5  and  O7_7 
ROOT
HETATM    1  C6  UNL     1     -33.819  15.564  -3.833  1.00 20.00     0.110 C 
HETATM    2 CL8  UNL     1     -33.744  16.414  -2.245  1.00 20.00    -0.122 Cl
ENDROOT
BRANCH   1   3
HETATM    3  C3  UNL     1     -33.206  16.410  -4.895  1.00 20.00     0.006 A 
HETATM    4  C1  UNL     1     -34.036  16.895  -6.052  1.00 20.00     0.006 A 
HETATM    5  C2  UNL     1     -33.566  17.866  -5.004  1.00 20.00     0.006 A 
ENDBRANCH   1   3
BRANCH   1   6
HETATM    6  C5  UNL     1     -33.129  14.196  -3.695  1.00 20.00     0.187 C 
BRANCH   6   7
HETATM    7  O7  UNL     1     -34.087  13.168  -3.479  1.00 20.00    -0.394 OA
HETATM    8  C4  UNL     1     -35.210  13.314  -4.339  1.00 20.00     0.201 C 
ENDBRANCH   6   7
ENDBRANCH   1   6
TORSDOF 3
ENDMDL
MODEL 8
REMARK VINA RESULT:      -3.3     11.808     12.488
REMARK  3 active torsions:
REMARK  status: ('A' for Active; 'I' for Inactive)
REMARK    1  A    between atoms: C3_3  and  C6_6 
REMARK    2  A    between atoms: C5_5  and  C6_6 
REMARK    3  A    between atoms: C5_5  and  O7_7 
ROOT
HETATM    1  C6  UNL     1     -34.592  16.173  -3.315  1.00 20.00     0.110 C 
HETATM    2 CL8  UNL     1     -36.127  15.235  -3.185  1.00 20.00    -0.122 Cl
ENDROOT
BRANCH   1   3
HETATM    3  C3  UNL     1     -33.936  16.264  -1.981  1.00 20.00     0.006 A 
HETATM    4  C1  UNL     1     -33.707  17.605  -1.338  1.00 20.00     0.006 A 
HETATM    5  C2  UNL     1     -34.733  16.663  -0.770  1.00 20.00     0.006 A 
ENDBRANCH   1   3
BRANCH   1   6
HETATM    6  C5  UNL     1     -33.695  15.508  -4.372  1.00 20.00     0.187 C 
BRANCH   6   7
HETATM    7  O7  UNL     1     -32.837  16.466  -4.980  1.00 20.00    -0.394 OA
HETATM    8  C4  UNL     1     -33.560  17.612  -5.410  1.00 20.00     0.201 C 
ENDBRANCH   6   7
ENDBRANCH   1   6
TORSDOF 3
ENDMDL
MODEL 9
REMARK VINA RESULT:      -3.3     11.447     12.092
REMARK  3 active torsions:
REMARK  status: ('A' for Active; 'I' for Inactive)
REMARK    1  A    between atoms: C3_3  and  C6_6 
REMARK    2  A    between atoms: C5_5  and  C6_6 
REMARK    3  A    between atoms: C5_5  and  O7_7 
ROOT
HETATM    1  C6  UNL     1     -34.662  15.911  -3.731  1.00 20.00     0.110 C 
HETATM    2 CL8  UNL     1     -33.167  16.373  -4.627  1.00 20.00    -0.122 Cl
ENDROOT
BRANCH   1   3
HETATM    3  C3  UNL     1     -34.582  14.485  -3.307  1.00 20.00     0.006 A 
HETATM    4  C1  UNL     1     -34.993  13.389  -4.251  1.00 20.00     0.006 A 
HETATM    5  C2  UNL     1     -33.543  13.575  -3.900  1.00 20.00     0.006 A 
ENDBRANCH   1   3
BRANCH   1   6
HETATM    6  C5  UNL     1     -34.844  16.872  -2.545  1.00 20.00     0.187 C 
BRANCH   6   7
HETATM    7  O7  UNL     1     -34.490  16.237  -1.323  1.00 20.00    -0.394 OA
HETATM    8  C4  UNL     1     -34.772  17.068  -0.204  1.00 20.00     0.201 C 
ENDBRANCH   6   7
ENDBRANCH   1   6
TORSDOF 3
ENDMDL
