MODEL 1
REMARK VINA RESULT:      -4.7      0.000      0.000
REMARK  3 active torsions:
REMARK  status: ('A' for Active; 'I' for Inactive)
REMARK    1  A    between atoms: C4_4  and  O7_7 
REMARK    2  A    between atoms: C5_5  and  C6_6 
REMARK    3  A    between atoms: C6_6  and  O7_7 
ROOT
HETATM    1  C3  UNL     1     -35.644   5.607   3.533  1.00 20.00     0.040 C 
HETATM    2  C6  UNL     1     -34.328   6.152   4.076  1.00 20.00     0.122 C 
ENDROOT
BRANCH   2   3
HETATM    3  C5  UNL     1     -33.948   5.579   5.458  1.00 20.00     0.006 C 
HETATM    4  C1  UNL     1     -34.872   4.439   5.893  1.00 20.00     0.012 C 
HETATM    5  C2  UNL     1     -33.961   6.680   6.527  1.00 20.00     0.012 C 
ENDBRANCH   2   3
BRANCH   2   6
HETATM    6  O7  UNL     1     -33.296   5.819   3.145  1.00 20.00    -0.371 OA
BRANCH   6   7
HETATM    7  C4  UNL     1     -32.139   6.609   3.359  1.00 20.00     0.282 C 
HETATM    8 CL8  UNL     1     -32.187   7.992   2.251  1.00 20.00    -0.102 Cl
ENDBRANCH   6   7
ENDBRANCH   2   6
TORSDOF 3
ENDMDL
MODEL 2
REMARK VINA RESULT:      -4.5      0.803      1.476
REMARK  3 active torsions:
REMARK  status: ('A' for Active; 'I' for Inactive)
REMARK    1  A    between atoms: C4_4  and  O7_7 
REMARK    2  A    between atoms: C5_5  and  C6_6 
REMARK    3  A    between atoms: C6_6  and  O7_7 
ROOT
HETATM    1  C3  UNL     1     -34.391   5.193   2.978  1.00 20.00     0.040 C 
HETATM    2  C6  UNL     1     -34.253   6.232   4.086  1.00 20.00     0.122 C 
ENDROOT
BRANCH   2   3
HETATM    3  C5  UNL     1     -34.801   5.757   5.448  1.00 20.00     0.006 C 
HETATM    4  C1  UNL     1     -34.061   6.389   6.629  1.00 20.00     0.012 C 
HETATM    5  C2  UNL     1     -34.731   4.228   5.561  1.00 20.00     0.012 C 
ENDBRANCH   2   3
BRANCH   2   6
HETATM    6  O7  UNL     1     -32.864   6.534   4.234  1.00 20.00    -0.371 OA
BRANCH   6   7
HETATM    7  C4  UNL     1     -32.182   6.435   2.995  1.00 20.00     0.282 C 
HETATM    8 CL8  UNL     1     -32.124   8.044   2.253  1.00 20.00    -0.102 Cl
ENDBRANCH   6   7
ENDBRANCH   2   6
TORSDOF 3
ENDMDL
MODEL 3
REMARK VINA RESULT:      -4.5      0.727      1.966
REMARK  3 active torsions:
REMARK  status: ('A' for Active; 'I' for Inactive)
REMARK    1  A    between atoms: C4_4  and  O7_7 
REMARK    2  A    between atoms: C5_5  and  C6_6 
REMARK    3  A    between atoms: C6_6  and  O7_7 
ROOT
HETATM    1  C3  UNL     1     -33.870   6.726   6.288  1.00 20.00     0.040 C 
HETATM    2  C6  UNL     1     -33.542   5.948   5.019  1.00 20.00     0.122 C 
ENDROOT
BRANCH   2   3
HETATM    3  C5  UNL     1     -34.603   4.888   4.654  1.00 20.00     0.006 C 
HETATM    4  C1  UNL     1     -35.741   5.466   3.809  1.00 20.00     0.012 C 
HETATM    5  C2  UNL     1     -35.185   4.243   5.919  1.00 20.00     0.012 C 
ENDBRANCH   2   3
BRANCH   2   6
HETATM    6  O7  UNL     1     -33.444   6.883   3.942  1.00 20.00    -0.371 OA
BRANCH   6   7
HETATM    7  C4  UNL     1     -32.195   6.773   3.280  1.00 20.00     0.282 C 
HETATM    8 CL8  UNL     1     -32.068   8.083   2.093  1.00 20.00    -0.102 Cl
ENDBRANCH   6   7
ENDBRANCH   2   6
TORSDOF 3
ENDMDL
MODEL 4
REMARK VINA RESULT:      -4.4      0.788      2.005
REMARK  3 active torsions:
REMARK  status: ('A' for Active; 'I' for Inactive)
REMARK    1  A    between atoms: C4_4  and  O7_7 
REMARK    2  A    between atoms: C5_5  and  C6_6 
REMARK    3  A    between atoms: C6_6  and  O7_7 
ROOT
HETATM    1  C3  UNL     1     -33.596   7.042   6.419  1.00 20.00     0.040 C 
HETATM    2  C6  UNL     1     -33.690   6.078   5.241  1.00 20.00     0.122 C 
ENDROOT
BRANCH   2   3
HETATM    3  C5  UNL     1     -35.015   5.288   5.196  1.00 20.00     0.006 C 
HETATM    4  C1  UNL     1     -34.844   3.833   5.639  1.00 20.00     0.012 C 
HETATM    5  C2  UNL     1     -35.622   5.323   3.787  1.00 20.00     0.012 C 
ENDBRANCH   2   3
BRANCH   2   6
HETATM    6  O7  UNL     1     -33.572   6.841   4.039  1.00 20.00    -0.371 OA
BRANCH   6   7
HETATM    7  C4  UNL     1     -32.287   6.692   3.460  1.00 20.00     0.282 C 
HETATM    8 CL8  UNL     1     -32.055   7.975   2.259  1.00 20.00    -0.102 Cl
ENDBRANCH   6   7
ENDBRANCH   2   6
TORSDOF 3
ENDMDL
MODEL 5
REMARK VINA RESULT:      -3.6      2.358      3.854
REMARK  3 active torsions:
REMARK  status: ('A' for Active; 'I' for Inactive)
REMARK    1  A    between atoms: C4_4  and  O7_7 
REMARK    2  A    between atoms: C5_5  and  C6_6 
REMARK    3  A    between atoms: C6_6  and  O7_7 
ROOT
HETATM    1  C3  UNL     1     -33.803   6.647   5.637  1.00 20.00     0.040 C 
HETATM    2  C6  UNL     1     -33.791   6.689   4.113  1.00 20.00     0.122 C 
ENDROOT
BRANCH   2   3
HETATM    3  C5  UNL     1     -32.371   6.730   3.509  1.00 20.00     0.006 C 
HETATM    4  C1  UNL     1     -32.198   7.868   2.500  1.00 20.00     0.012 C 
HETATM    5  C2  UNL     1     -32.027   5.395   2.835  1.00 20.00     0.012 C 
ENDBRANCH   2   3
BRANCH   2   6
HETATM    6  O7  UNL     1     -34.456   5.518   3.636  1.00 20.00    -0.371 OA
BRANCH   6   7
HETATM    7  C4  UNL     1     -35.453   5.087   4.547  1.00 20.00     0.282 C 
HETATM    8 CL8  UNL     1     -34.857   3.649   5.395  1.00 20.00    -0.102 Cl
ENDBRANCH   6   7
ENDBRANCH   2   6
TORSDOF 3
ENDMDL
MODEL 6
REMARK VINA RESULT:      -3.5     11.834     12.619
REMARK  3 active torsions:
REMARK  status: ('A' for Active; 'I' for Inactive)
REMARK    1  A    between atoms: C4_4  and  O7_7 
REMARK    2  A    between atoms: C5_5  and  C6_6 
REMARK    3  A    between atoms: C6_6  and  O7_7 
ROOT
HETATM    1  C3  UNL     1     -33.346  13.695  -3.717  1.00 20.00     0.040 C 
HETATM    2  C6  UNL     1     -34.404  14.742  -3.388  1.00 20.00     0.122 C 
ENDROOT
BRANCH   2   3
HETATM    3  C5  UNL     1     -33.836  15.990  -2.678  1.00 20.00     0.006 C 
HETATM    4  C1  UNL     1     -34.643  16.375  -1.436  1.00 20.00     0.012 C 
HETATM    5  C2  UNL     1     -33.779  17.185  -3.639  1.00 20.00     0.012 C 
ENDBRANCH   2   3
BRANCH   2   6
HETATM    6  O7  UNL     1     -35.013  15.153  -4.614  1.00 20.00    -0.371 OA
BRANCH   6   7
HETATM    7  C4  UNL     1     -34.838  14.175  -5.626  1.00 20.00     0.282 C 
HETATM    8 CL8  UNL     1     -34.316  14.989  -7.112  1.00 20.00    -0.102 Cl
ENDBRANCH   6   7
ENDBRANCH   2   6
TORSDOF 3
ENDMDL
MODEL 7
REMARK VINA RESULT:      -3.4     11.799     13.037
REMARK  3 active torsions:
REMARK  status: ('A' for Active; 'I' for Inactive)
REMARK    1  A    between atoms: C4_4  and  O7_7 
REMARK    2  A    between atoms: C5_5  and  C6_6 
REMARK    3  A    between atoms: C6_6  and  O7_7 
ROOT
HETATM    1  C3  UNL     1     -34.124  13.757  -3.761  1.00 20.00     0.040 C 
HETATM    2  C6  UNL     1     -33.480  15.108  -4.052  1.00 20.00     0.122 C 
ENDROOT
BRANCH   2   3
HETATM    3  C5  UNL     1     -34.218  15.921  -5.137  1.00 20.00     0.006 C 
HETATM    4  C1  UNL     1     -34.382  15.141  -6.443  1.00 20.00     0.012 C 
HETATM    5  C2  UNL     1     -33.489  17.241  -5.420  1.00 20.00     0.012 C 
ENDBRANCH   2   3
BRANCH   2   6
HETATM    6  O7  UNL     1     -33.476  15.864  -2.839  1.00 20.00    -0.371 OA
BRANCH   6   7
HETATM    7  C4  UNL     1     -34.761  15.880  -2.241  1.00 20.00     0.282 C 
HETATM    8 CL8  UNL     1     -34.630  16.634  -0.642  1.00 20.00    -0.102 Cl
ENDBRANCH   6   7
ENDBRANCH   2   6
TORSDOF 3
ENDMDL
MODEL 8
REMARK VINA RESULT:      -3.4     11.663     12.255
REMARK  3 active torsions:
REMARK  status: ('A' for Active; 'I' for Inactive)
REMARK    1  A    between atoms: C4_4  and  O7_7 
REMARK    2  A    between atoms: C5_5  and  C6_6 
REMARK    3  A    between atoms: C6_6  and  O7_7 
ROOT
HETATM    1  C3  UNL     1     -36.696  14.741  -3.913  1.00 20.00     0.040 C 
HETATM    2  C6  UNL     1     -35.413  15.012  -3.135  1.00 20.00     0.122 C 
ENDROOT
BRANCH   2   3
HETATM    3  C5  UNL     1     -34.247  14.080  -3.527  1.00 20.00     0.006 C 
HETATM    4  C1  UNL     1     -32.934  14.840  -3.728  1.00 20.00     0.012 C 
HETATM    5  C2  UNL     1     -34.582  13.295  -4.803  1.00 20.00     0.012 C 
ENDBRANCH   2   3
BRANCH   2   6
HETATM    6  O7  UNL     1     -35.023  16.363  -3.388  1.00 20.00    -0.371 OA
BRANCH   6   7
HETATM    7  C4  UNL     1     -35.354  17.205  -2.297  1.00 20.00     0.282 C 
HETATM    8 CL8  UNL     1     -34.643  16.525  -0.822  1.00 20.00    -0.102 Cl
ENDBRANCH   6   7
ENDBRANCH   2   6
TORSDOF 3
ENDMDL
MODEL 9
REMARK VINA RESULT:      -3.4      9.214     10.349
REMARK  3 active torsions:
REMARK  status: ('A' for Active; 'I' for Inactive)
REMARK    1  A    between atoms: C4_4  and  O7_7 
REMARK    2  A    between atoms: C5_5  and  C6_6 
REMARK    3  A    between atoms: C6_6  and  O7_7 
ROOT
HETATM    1  C3  UNL     1     -41.519   4.713   0.159  1.00 20.00     0.040 C 
HETATM    2  C6  UNL     1     -41.164   4.634  -1.322  1.00 20.00     0.122 C 
ENDROOT
BRANCH   2   3
HETATM    3  C5  UNL     1     -42.202   3.860  -2.163  1.00 20.00     0.006 C 
HETATM    4  C1  UNL     1     -41.561   2.771  -3.026  1.00 20.00     0.012 C 
HETATM    5  C2  UNL     1     -43.000   4.817  -3.059  1.00 20.00     0.012 C 
ENDBRANCH   2   3
BRANCH   2   6
HETATM    6  O7  UNL     1     -41.074   5.968  -1.824  1.00 20.00    -0.371 OA
BRANCH   6   7
HETATM    7  C4  UNL     1     -41.075   6.915  -0.769  1.00 20.00     0.282 C 
HETATM    8 CL8  UNL     1     -42.489   7.967  -0.955  1.00 20.00    -0.102 Cl
ENDBRANCH   6   7
ENDBRANCH   2   6
TORSDOF 3
ENDMDL
