MODEL 1
REMARK VINA RESULT:      -4.2      0.000      0.000
REMARK  5 active torsions:
REMARK  status: ('A' for Active; 'I' for Inactive)
REMARK    1  A    between atoms: C4_4  and  C5_5 
REMARK    2  A    between atoms: C4_4  and  O8_8 
REMARK    3  A    between atoms: C5_5  and  S9_9 
REMARK    4  A    between atoms: C6_6  and  C7_7 
REMARK    5  A    between atoms: C7_7  and  O8_8 
ROOT
HETATM    1  C3  UNL     1     -35.734   5.530   3.725  1.00 20.00     0.040 C 
HETATM    2  C7  UNL     1     -34.271   5.462   4.149  1.00 20.00     0.120 C 
ENDROOT
BRANCH   2   3
HETATM    3  C6  UNL     1     -34.078   5.217   5.661  1.00 20.00     0.006 C 
HETATM    4  C1  UNL     1     -35.165   4.316   6.252  1.00 20.00     0.012 C 
HETATM    5  C2  UNL     1     -34.046   6.545   6.428  1.00 20.00     0.012 C 
ENDBRANCH   2   3
BRANCH   2   6
HETATM    6  O8  UNL     1     -33.658   6.707   3.809  1.00 20.00    -0.385 OA
BRANCH   6   7
HETATM    7  C4  UNL     1     -32.499   6.510   3.015  1.00 20.00     0.178 C 
BRANCH   7   8
HETATM    8  C5  UNL     1     -31.701   7.802   2.930  1.00 20.00     0.097 C 
BRANCH   8   9
HETATM    9  S9  UNL     1     -32.062   8.704   1.392  1.00 20.00    -0.180 SA
HETATM   10  H25 UNL     1     -31.085   8.141   0.669  1.00 20.00     0.101 HD
ENDBRANCH   8   9
ENDBRANCH   7   8
ENDBRANCH   6   7
ENDBRANCH   2   6
TORSDOF 5
ENDMDL
MODEL 2
REMARK VINA RESULT:      -4.0      0.686      1.859
REMARK  5 active torsions:
REMARK  status: ('A' for Active; 'I' for Inactive)
REMARK    1  A    between atoms: C4_4  and  C5_5 
REMARK    2  A    between atoms: C4_4  and  O8_8 
REMARK    3  A    between atoms: C5_5  and  S9_9 
REMARK    4  A    between atoms: C6_6  and  C7_7 
REMARK    5  A    between atoms: C7_7  and  O8_8 
ROOT
HETATM    1  C3  UNL     1     -33.658   6.709   6.350  1.00 20.00     0.040 C 
HETATM    2  C7  UNL     1     -33.870   6.436   4.865  1.00 20.00     0.120 C 
ENDROOT
BRANCH   2   3
HETATM    3  C6  UNL     1     -34.653   5.136   4.583  1.00 20.00     0.006 C 
HETATM    4  C1  UNL     1     -35.925   5.385   3.767  1.00 20.00     0.012 C 
HETATM    5  C2  UNL     1     -35.020   4.426   5.892  1.00 20.00     0.012 C 
ENDBRANCH   2   3
BRANCH   2   6
HETATM    6  O8  UNL     1     -32.584   6.334   4.251  1.00 20.00    -0.385 OA
BRANCH   6   7
HETATM    7  C4  UNL     1     -32.621   6.777   2.904  1.00 20.00     0.178 C 
BRANCH   7   8
HETATM    8  C5  UNL     1     -31.785   8.039   2.749  1.00 20.00     0.097 C 
BRANCH   8   9
HETATM    9  S9  UNL     1     -32.161   8.894   1.188  1.00 20.00    -0.180 SA
HETATM   10  H25 UNL     1     -33.489   8.925   1.363  1.00 20.00     0.101 HD
ENDBRANCH   8   9
ENDBRANCH   7   8
ENDBRANCH   6   7
ENDBRANCH   2   6
TORSDOF 5
ENDMDL
MODEL 3
REMARK VINA RESULT:      -3.3     11.921     12.997
REMARK  5 active torsions:
REMARK  status: ('A' for Active; 'I' for Inactive)
REMARK    1  A    between atoms: C4_4  and  C5_5 
REMARK    2  A    between atoms: C4_4  and  O8_8 
REMARK    3  A    between atoms: C5_5  and  S9_9 
REMARK    4  A    between atoms: C6_6  and  C7_7 
REMARK    5  A    between atoms: C7_7  and  O8_8 
ROOT
HETATM    1  C3  UNL     1     -33.329  14.003  -3.785  1.00 20.00     0.040 C 
HETATM    2  C7  UNL     1     -33.264  15.481  -3.417  1.00 20.00     0.120 C 
ENDROOT
BRANCH   2   3
HETATM    3  C6  UNL     1     -34.610  16.054  -2.925  1.00 20.00     0.006 C 
HETATM    4  C1  UNL     1     -34.614  16.325  -1.418  1.00 20.00     0.012 C 
HETATM    5  C2  UNL     1     -35.765  15.108  -3.275  1.00 20.00     0.012 C 
ENDBRANCH   2   3
BRANCH   2   6
HETATM    6  O8  UNL     1     -32.861  16.205  -4.581  1.00 20.00    -0.385 OA
BRANCH   6   7
HETATM    7  C4  UNL     1     -33.498  17.471  -4.646  1.00 20.00     0.178 C 
BRANCH   7   8
HETATM    8  C5  UNL     1     -33.828  17.813  -6.091  1.00 20.00     0.097 C 
BRANCH   8   9
HETATM    9  S9  UNL     1     -34.586  16.401  -6.950  1.00 20.00    -0.180 SA
HETATM   10  H25 UNL     1     -34.320  15.499  -5.995  1.00 20.00     0.101 HD
ENDBRANCH   8   9
ENDBRANCH   7   8
ENDBRANCH   6   7
ENDBRANCH   2   6
TORSDOF 5
ENDMDL
MODEL 4
REMARK VINA RESULT:      -3.3     11.783     13.071
REMARK  5 active torsions:
REMARK  status: ('A' for Active; 'I' for Inactive)
REMARK    1  A    between atoms: C4_4  and  C5_5 
REMARK    2  A    between atoms: C4_4  and  O8_8 
REMARK    3  A    between atoms: C5_5  and  S9_9 
REMARK    4  A    between atoms: C6_6  and  C7_7 
REMARK    5  A    between atoms: C7_7  and  O8_8 
ROOT
HETATM    1  C3  UNL     1     -33.570  17.415  -4.948  1.00 20.00     0.040 C 
HETATM    2  C7  UNL     1     -33.301  15.930  -4.730  1.00 20.00     0.120 C 
ENDROOT
BRANCH   2   3
HETATM    3  C6  UNL     1     -34.402  15.013  -5.303  1.00 20.00     0.006 C 
HETATM    4  C1  UNL     1     -34.308  13.581  -4.769  1.00 20.00     0.012 C 
HETATM    5  C2  UNL     1     -34.347  14.988  -6.836  1.00 20.00     0.012 C 
ENDBRANCH   2   3
BRANCH   2   6
HETATM    6  O8  UNL     1     -33.209  15.703  -3.323  1.00 20.00    -0.385 OA
BRANCH   6   7
HETATM    7  C4  UNL     1     -33.767  16.782  -2.590  1.00 20.00     0.178 C 
BRANCH   7   8
HETATM    8  C5  UNL     1     -34.726  16.253  -1.534  1.00 20.00     0.097 C 
BRANCH   8   9
HETATM    9  S9  UNL     1     -34.791  17.353  -0.087  1.00 20.00    -0.180 SA
HETATM   10  H25 UNL     1     -34.486  16.411   0.816  1.00 20.00     0.101 HD
ENDBRANCH   8   9
ENDBRANCH   7   8
ENDBRANCH   6   7
ENDBRANCH   2   6
TORSDOF 5
ENDMDL
MODEL 5
REMARK VINA RESULT:      -3.3     11.722     12.688
REMARK  5 active torsions:
REMARK  status: ('A' for Active; 'I' for Inactive)
REMARK    1  A    between atoms: C4_4  and  C5_5 
REMARK    2  A    between atoms: C4_4  and  O8_8 
REMARK    3  A    between atoms: C5_5  and  S9_9 
REMARK    4  A    between atoms: C6_6  and  C7_7 
REMARK    5  A    between atoms: C7_7  and  O8_8 
ROOT
HETATM    1  C3  UNL     1     -34.456  16.475  -1.297  1.00 20.00     0.040 C 
HETATM    2  C7  UNL     1     -34.713  15.679  -2.572  1.00 20.00     0.120 C 
ENDROOT
BRANCH   2   3
HETATM    3  C6  UNL     1     -33.425  15.313  -3.340  1.00 20.00     0.006 C 
HETATM    4  C1  UNL     1     -33.192  16.216  -4.554  1.00 20.00     0.012 C 
HETATM    5  C2  UNL     1     -33.460  13.849  -3.796  1.00 20.00     0.012 C 
ENDBRANCH   2   3
BRANCH   2   6
HETATM    6  O8  UNL     1     -35.541  16.472  -3.425  1.00 20.00    -0.385 OA
BRANCH   6   7
HETATM    7  C4  UNL     1     -36.883  16.014  -3.409  1.00 20.00     0.178 C 
BRANCH   7   8
HETATM    8  C5  UNL     1     -37.026  14.791  -4.303  1.00 20.00     0.097 C 
BRANCH   8   9
HETATM    9  S9  UNL     1     -36.571  15.170  -6.023  1.00 20.00    -0.180 SA
HETATM   10  H25 UNL     1     -36.503  13.896  -6.431  1.00 20.00     0.101 HD
ENDBRANCH   8   9
ENDBRANCH   7   8
ENDBRANCH   6   7
ENDBRANCH   2   6
TORSDOF 5
ENDMDL
MODEL 6
REMARK VINA RESULT:      -3.3     11.457     12.226
REMARK  5 active torsions:
REMARK  status: ('A' for Active; 'I' for Inactive)
REMARK    1  A    between atoms: C4_4  and  C5_5 
REMARK    2  A    between atoms: C4_4  and  O8_8 
REMARK    3  A    between atoms: C5_5  and  S9_9 
REMARK    4  A    between atoms: C6_6  and  C7_7 
REMARK    5  A    between atoms: C7_7  and  O8_8 
ROOT
HETATM    1  C3  UNL     1     -36.331  16.618  -3.060  1.00 20.00     0.040 C 
HETATM    2  C7  UNL     1     -35.142  15.804  -2.560  1.00 20.00     0.120 C 
ENDROOT
BRANCH   2   3
HETATM    3  C6  UNL     1     -34.163  16.615  -1.685  1.00 20.00     0.006 C 
HETATM    4  C1  UNL     1     -34.742  16.940  -0.306  1.00 20.00     0.012 C 
HETATM    5  C2  UNL     1     -33.757  17.918  -2.386  1.00 20.00     0.012 C 
ENDBRANCH   2   3
BRANCH   2   6
HETATM    6  O8  UNL     1     -34.434  15.317  -3.701  1.00 20.00    -0.385 OA
BRANCH   6   7
HETATM    7  C4  UNL     1     -34.188  13.924  -3.598  1.00 20.00     0.178 C 
BRANCH   7   8
HETATM    8  C5  UNL     1     -34.723  13.209  -4.830  1.00 20.00     0.097 C 
BRANCH   8   9
HETATM    9  S9  UNL     1     -35.020  14.373  -6.195  1.00 20.00    -0.180 SA
HETATM   10  H25 UNL     1     -33.813  14.235  -6.760  1.00 20.00     0.101 HD
ENDBRANCH   8   9
ENDBRANCH   7   8
ENDBRANCH   6   7
ENDBRANCH   2   6
TORSDOF 5
ENDMDL
MODEL 7
REMARK VINA RESULT:      -3.3     11.582     12.535
REMARK  5 active torsions:
REMARK  status: ('A' for Active; 'I' for Inactive)
REMARK    1  A    between atoms: C4_4  and  C5_5 
REMARK    2  A    between atoms: C4_4  and  O8_8 
REMARK    3  A    between atoms: C5_5  and  S9_9 
REMARK    4  A    between atoms: C6_6  and  C7_7 
REMARK    5  A    between atoms: C7_7  and  O8_8 
ROOT
HETATM    1  C3  UNL     1     -33.282  16.416  -4.690  1.00 20.00     0.040 C 
HETATM    2  C7  UNL     1     -33.474  15.052  -4.036  1.00 20.00     0.120 C 
ENDROOT
BRANCH   2   3
HETATM    3  C6  UNL     1     -34.248  14.049  -4.917  1.00 20.00     0.006 C 
HETATM    4  C1  UNL     1     -34.606  14.629  -6.288  1.00 20.00     0.012 C 
HETATM    5  C2  UNL     1     -35.527  13.580  -4.213  1.00 20.00     0.012 C 
ENDBRANCH   2   3
BRANCH   2   6
HETATM    6  O8  UNL     1     -34.203  15.247  -2.823  1.00 20.00    -0.385 OA
BRANCH   6   7
HETATM    7  C4  UNL     1     -33.858  16.477  -2.206  1.00 20.00     0.178 C 
BRANCH   7   8
HETATM    8  C5  UNL     1     -34.627  16.639  -0.903  1.00 20.00     0.097 C 
BRANCH   8   9
HETATM    9  S9  UNL     1     -34.028  18.072   0.045  1.00 20.00    -0.180 SA
HETATM   10  H25 UNL     1     -32.873  17.511   0.427  1.00 20.00     0.101 HD
ENDBRANCH   8   9
ENDBRANCH   7   8
ENDBRANCH   6   7
ENDBRANCH   2   6
TORSDOF 5
ENDMDL
MODEL 8
REMARK VINA RESULT:      -3.3     11.702     12.527
REMARK  5 active torsions:
REMARK  status: ('A' for Active; 'I' for Inactive)
REMARK    1  A    between atoms: C4_4  and  C5_5 
REMARK    2  A    between atoms: C4_4  and  O8_8 
REMARK    3  A    between atoms: C5_5  and  S9_9 
REMARK    4  A    between atoms: C6_6  and  C7_7 
REMARK    5  A    between atoms: C7_7  and  O8_8 
ROOT
HETATM    1  C3  UNL     1     -36.400  14.371  -4.180  1.00 20.00     0.040 C 
HETATM    2  C7  UNL     1     -35.014  13.760  -4.003  1.00 20.00     0.120 C 
ENDROOT
BRANCH   2   3
HETATM    3  C6  UNL     1     -34.102  14.564  -3.052  1.00 20.00     0.006 C 
HETATM    4  C1  UNL     1     -34.751  15.870  -2.585  1.00 20.00     0.012 C 
HETATM    5  C2  UNL     1     -32.757  14.875  -3.720  1.00 20.00     0.012 C 
ENDBRANCH   2   3
BRANCH   2   6
HETATM    6  O8  UNL     1     -34.392  13.704  -5.288  1.00 20.00    -0.385 OA
BRANCH   6   7
HETATM    7  C4  UNL     1     -35.227  14.265  -6.289  1.00 20.00     0.178 C 
BRANCH   7   8
HETATM    8  C5  UNL     1     -34.428  15.228  -7.153  1.00 20.00     0.097 C 
BRANCH   8   9
HETATM    9  S9  UNL     1     -34.499  16.923  -6.495  1.00 20.00    -0.180 SA
HETATM   10  H25 UNL     1     -35.289  17.413  -7.460  1.00 20.00     0.101 HD
ENDBRANCH   8   9
ENDBRANCH   7   8
ENDBRANCH   6   7
ENDBRANCH   2   6
TORSDOF 5
ENDMDL
MODEL 9
REMARK VINA RESULT:      -3.2     11.809     12.944
REMARK  5 active torsions:
REMARK  status: ('A' for Active; 'I' for Inactive)
REMARK    1  A    between atoms: C4_4  and  C5_5 
REMARK    2  A    between atoms: C4_4  and  O8_8 
REMARK    3  A    between atoms: C5_5  and  S9_9 
REMARK    4  A    between atoms: C6_6  and  C7_7 
REMARK    5  A    between atoms: C7_7  and  O8_8 
ROOT
HETATM    1  C3  UNL     1     -34.056  16.531  -1.886  1.00 20.00     0.040 C 
HETATM    2  C7  UNL     1     -34.339  15.980  -3.279  1.00 20.00     0.120 C 
ENDROOT
BRANCH   2   3
HETATM    3  C6  UNL     1     -34.606  14.461  -3.299  1.00 20.00     0.006 C 
HETATM    4  C1  UNL     1     -33.404  13.662  -3.810  1.00 20.00     0.012 C 
HETATM    5  C2  UNL     1     -35.835  14.134  -4.157  1.00 20.00     0.012 C 
ENDBRANCH   2   3
BRANCH   2   6
HETATM    6  O8  UNL     1     -33.201  16.252  -4.098  1.00 20.00    -0.385 OA
BRANCH   6   7
HETATM    7  C4  UNL     1     -33.479  17.269  -5.046  1.00 20.00     0.178 C 
BRANCH   7   8
HETATM    8  C5  UNL     1     -34.093  16.661  -6.298  1.00 20.00     0.097 C 
BRANCH   8   9
HETATM    9  S9  UNL     1     -35.771  17.299  -6.590  1.00 20.00    -0.180 SA
HETATM   10  H25 UNL     1     -35.978  16.625  -7.730  1.00 20.00     0.101 HD
ENDBRANCH   8   9
ENDBRANCH   7   8
ENDBRANCH   6   7
ENDBRANCH   2   6
TORSDOF 5
ENDMDL
