MODEL 1
REMARK VINA RESULT:      -6.0      0.000      0.000
REMARK  0 active torsions:
REMARK  status: ('A' for Active; 'I' for Inactive)
ROOT
HETATM    1  C1  UNL     1     -33.249   6.782   5.122  1.00 20.00     0.005 C 
HETATM    2  C2  UNL     1     -34.032   5.991   6.039  1.00 20.00     0.041 C 
HETATM    3  C3  UNL     1     -33.215   6.508   3.806  1.00 20.00    -0.081 C 
HETATM    4  C4  UNL     1     -34.927   5.101   5.594  1.00 20.00     0.128 C 
HETATM    5  C5  UNL     1     -34.019   5.364   3.225  1.00 20.00     0.078 C 
HETATM    6  C6  UNL     1     -35.156   4.863   4.133  1.00 20.00     0.235 C 
HETATM    7  C7  UNL     1     -32.369   7.290   2.848  1.00 20.00     0.043 C 
HETATM    8  F8  UNL     1     -35.645   4.392   6.491  1.00 20.00    -0.208 F 
HETATM    9  F9  UNL     1     -36.304   5.499   3.755  1.00 20.00    -0.242 F 
ENDROOT
TORSDOF 0
ENDMDL
MODEL 2
REMARK VINA RESULT:      -4.9      1.170      2.285
REMARK  0 active torsions:
REMARK  status: ('A' for Active; 'I' for Inactive)
ROOT
HETATM    1  C1  UNL     1     -34.281   5.206   3.579  1.00 20.00     0.005 C 
HETATM    2  C2  UNL     1     -35.161   4.480   4.462  1.00 20.00     0.041 C 
HETATM    3  C3  UNL     1     -33.587   6.277   4.002  1.00 20.00    -0.081 C 
HETATM    4  C4  UNL     1     -35.150   4.698   5.782  1.00 20.00     0.128 C 
HETATM    5  C5  UNL     1     -33.683   6.755   5.435  1.00 20.00     0.078 C 
HETATM    6  C6  UNL     1     -34.247   5.712   6.415  1.00 20.00     0.235 C 
HETATM    7  C7  UNL     1     -32.707   7.073   3.085  1.00 20.00     0.043 C 
HETATM    8  F8  UNL     1     -35.984   3.985   6.570  1.00 20.00    -0.208 F 
HETATM    9  F9  UNL     1     -33.190   5.066   6.991  1.00 20.00    -0.242 F 
ENDROOT
TORSDOF 0
ENDMDL
MODEL 3
REMARK VINA RESULT:      -4.8      1.432      2.344
REMARK  0 active torsions:
REMARK  status: ('A' for Active; 'I' for Inactive)
ROOT
HETATM    1  C1  UNL     1     -34.543   5.437   6.783  1.00 20.00     0.005 C 
HETATM    2  C2  UNL     1     -34.930   4.268   6.032  1.00 20.00     0.041 C 
HETATM    3  C3  UNL     1     -33.925   6.477   6.199  1.00 20.00    -0.081 C 
HETATM    4  C4  UNL     1     -34.895   4.263   4.694  1.00 20.00     0.128 C 
HETATM    5  C5  UNL     1     -33.626   6.475   4.715  1.00 20.00     0.078 C 
HETATM    6  C6  UNL     1     -34.442   5.453   3.905  1.00 20.00     0.235 C 
HETATM    7  C7  UNL     1     -33.473   7.678   6.974  1.00 20.00     0.043 C 
HETATM    8  F8  UNL     1     -35.278   3.150   4.034  1.00 20.00    -0.208 F 
HETATM    9  F9  UNL     1     -35.538   6.096   3.404  1.00 20.00    -0.242 F 
ENDROOT
TORSDOF 0
ENDMDL
MODEL 4
REMARK VINA RESULT:      -4.7      1.996      3.369
REMARK  0 active torsions:
REMARK  status: ('A' for Active; 'I' for Inactive)
ROOT
HETATM    1  C1  UNL     1     -33.493   6.067   5.520  1.00 20.00     0.005 C 
HETATM    2  C2  UNL     1     -32.883   6.858   4.480  1.00 20.00     0.041 C 
HETATM    3  C3  UNL     1     -34.573   5.303   5.282  1.00 20.00    -0.081 C 
HETATM    4  C4  UNL     1     -33.223   6.692   3.196  1.00 20.00     0.128 C 
HETATM    5  C5  UNL     1     -35.184   5.222   3.900  1.00 20.00     0.078 C 
HETATM    6  C6  UNL     1     -34.257   5.696   2.768  1.00 20.00     0.235 C 
HETATM    7  C7  UNL     1     -35.248   4.513   6.363  1.00 20.00     0.043 C 
HETATM    8  F8  UNL     1     -32.615   7.447   2.256  1.00 20.00    -0.208 F 
HETATM    9  F9  UNL     1     -33.629   4.598   2.254  1.00 20.00    -0.242 F 
ENDROOT
TORSDOF 0
ENDMDL
MODEL 5
REMARK VINA RESULT:      -4.6      8.468      9.891
REMARK  0 active torsions:
REMARK  status: ('A' for Active; 'I' for Inactive)
ROOT
HETATM    1  C1  UNL     1     -42.411   5.529  -2.722  1.00 20.00     0.005 C 
HETATM    2  C2  UNL     1     -42.041   6.839  -2.245  1.00 20.00     0.041 C 
HETATM    3  C3  UNL     1     -41.831   4.416  -2.243  1.00 20.00    -0.081 C 
HETATM    4  C4  UNL     1     -41.277   6.988  -1.156  1.00 20.00     0.128 C 
HETATM    5  C5  UNL     1     -40.776   4.488  -1.161  1.00 20.00     0.078 C 
HETATM    6  C6  UNL     1     -40.752   5.816  -0.385  1.00 20.00     0.235 C 
HETATM    7  C7  UNL     1     -42.169   3.050  -2.763  1.00 20.00     0.043 C 
HETATM    8  F8  UNL     1     -40.967   8.235  -0.741  1.00 20.00    -0.208 F 
HETATM    9  F9  UNL     1     -41.504   5.654   0.743  1.00 20.00    -0.242 F 
ENDROOT
TORSDOF 0
ENDMDL
MODEL 6
REMARK VINA RESULT:      -4.5      1.359      2.857
REMARK  0 active torsions:
REMARK  status: ('A' for Active; 'I' for Inactive)
ROOT
HETATM    1  C1  UNL     1     -32.992   6.681   4.526  1.00 20.00     0.005 C 
HETATM    2  C2  UNL     1     -33.319   6.153   3.224  1.00 20.00     0.041 C 
HETATM    3  C3  UNL     1     -33.797   6.490   5.585  1.00 20.00    -0.081 C 
HETATM    4  C4  UNL     1     -34.311   5.269   3.066  1.00 20.00     0.128 C 
HETATM    5  C5  UNL     1     -35.076   5.692   5.462  1.00 20.00     0.078 C 
HETATM    6  C6  UNL     1     -35.144   4.791   4.216  1.00 20.00     0.235 C 
HETATM    7  C7  UNL     1     -33.495   7.074   6.933  1.00 20.00     0.043 C 
HETATM    8  F8  UNL     1     -34.573   4.793   1.829  1.00 20.00    -0.208 F 
HETATM    9  F9  UNL     1     -34.725   3.543   4.579  1.00 20.00    -0.242 F 
ENDROOT
TORSDOF 0
ENDMDL
MODEL 7
REMARK VINA RESULT:      -4.4      8.856     10.157
REMARK  0 active torsions:
REMARK  status: ('A' for Active; 'I' for Inactive)
ROOT
HETATM    1  C1  UNL     1     -40.874   4.642  -1.226  1.00 20.00     0.005 C 
HETATM    2  C2  UNL     1     -40.753   5.961  -0.655  1.00 20.00     0.041 C 
HETATM    3  C3  UNL     1     -41.791   4.364  -2.169  1.00 20.00    -0.081 C 
HETATM    4  C4  UNL     1     -41.387   7.009  -1.195  1.00 20.00     0.128 C 
HETATM    5  C5  UNL     1     -42.725   5.435  -2.690  1.00 20.00     0.078 C 
HETATM    6  C6  UNL     1     -42.264   6.874  -2.402  1.00 20.00     0.235 C 
HETATM    7  C7  UNL     1     -41.962   2.987  -2.736  1.00 20.00     0.043 C 
HETATM    8  F8  UNL     1     -41.233   8.227  -0.633  1.00 20.00    -0.208 F 
HETATM    9  F9  UNL     1     -41.583   7.322  -3.498  1.00 20.00    -0.242 F 
ENDROOT
TORSDOF 0
ENDMDL
MODEL 8
REMARK VINA RESULT:      -4.4     12.021     12.768
REMARK  0 active torsions:
REMARK  status: ('A' for Active; 'I' for Inactive)
ROOT
HETATM    1  C1  UNL     1     -35.318  13.691  -4.313  1.00 20.00     0.005 C 
HETATM    2  C2  UNL     1     -33.890  13.590  -4.141  1.00 20.00     0.041 C 
HETATM    3  C3  UNL     1     -36.032  14.663  -3.719  1.00 20.00    -0.081 C 
HETATM    4  C4  UNL     1     -33.190  14.580  -3.575  1.00 20.00     0.128 C 
HETATM    5  C5  UNL     1     -35.360  15.711  -2.858  1.00 20.00     0.078 C 
HETATM    6  C6  UNL     1     -33.842  15.833  -3.077  1.00 20.00     0.235 C 
HETATM    7  C7  UNL     1     -37.523  14.753  -3.847  1.00 20.00     0.043 C 
HETATM    8  F8  UNL     1     -31.852  14.445  -3.447  1.00 20.00    -0.208 F 
HETATM    9  F9  UNL     1     -33.629  16.835  -3.980  1.00 20.00    -0.242 F 
ENDROOT
TORSDOF 0
ENDMDL
MODEL 9
REMARK VINA RESULT:      -4.3     12.131     13.385
REMARK  0 active torsions:
REMARK  status: ('A' for Active; 'I' for Inactive)
ROOT
HETATM    1  C1  UNL     1     -33.663  16.607  -3.895  1.00 20.00     0.005 C 
HETATM    2  C2  UNL     1     -33.610  16.277  -5.298  1.00 20.00     0.041 C 
HETATM    3  C3  UNL     1     -34.399  15.889  -3.029  1.00 20.00    -0.081 C 
HETATM    4  C4  UNL     1     -34.103  15.119  -5.754  1.00 20.00     0.128 C 
HETATM    5  C5  UNL     1     -35.190  14.683  -3.489  1.00 20.00     0.078 C 
HETATM    6  C6  UNL     1     -34.748  14.115  -4.849  1.00 20.00     0.235 C 
HETATM    7  C7  UNL     1     -34.504  16.248  -1.578  1.00 20.00     0.043 C 
HETATM    8  F8  UNL     1     -34.020  14.848  -7.075  1.00 20.00    -0.208 F 
HETATM    9  F9  UNL     1     -33.865  13.101  -4.611  1.00 20.00    -0.242 F 
ENDROOT
TORSDOF 0
ENDMDL
