MODEL 1
REMARK VINA RESULT:      -3.4      0.000      0.000
REMARK  4 active torsions:
REMARK  status: ('A' for Active; 'I' for Inactive)
REMARK    1  A    between atoms: C3_3  and  C6_6 
REMARK    2  A    between atoms: C5_5  and  C6_6 
REMARK    3  A    between atoms: C5_5  and  O7_7 
REMARK    4  A    between atoms: C6_6  and  S8_8 
ROOT
HETATM    1  C6  UNL     1     -33.945  15.737  -3.563  1.00 20.00     0.072 C 
ENDROOT
BRANCH   1   2
HETATM    2  C3  UNL     1     -33.656  16.409  -2.223  1.00 20.00     0.001 A 
HETATM    3  C1  UNL     1     -34.299  17.725  -1.884  1.00 20.00     0.006 A 
HETATM    4  C2  UNL     1     -34.723  16.474  -1.165  1.00 20.00     0.006 A 
ENDBRANCH   1   2
BRANCH   1   5
HETATM    5  C5  UNL     1     -33.183  14.421  -3.735  1.00 20.00     0.182 C 
BRANCH   5   6
HETATM    6  O7  UNL     1     -34.024  13.301  -3.493  1.00 20.00    -0.395 OA
HETATM    7  C4  UNL     1     -35.193  13.341  -4.302  1.00 20.00     0.201 C 
ENDBRANCH   5   6
ENDBRANCH   1   5
BRANCH   1   8
HETATM    8  S8  UNL     1     -33.531  16.890  -4.919  1.00 20.00    -0.175 SA
HETATM    9  H20 UNL     1     -34.485  17.783  -4.626  1.00 20.00     0.102 HD
ENDBRANCH   1   8
TORSDOF 4
ENDMDL
MODEL 2
REMARK VINA RESULT:      -3.3     11.325     12.047
REMARK  4 active torsions:
REMARK  status: ('A' for Active; 'I' for Inactive)
REMARK    1  A    between atoms: C3_3  and  C6_6 
REMARK    2  A    between atoms: C5_5  and  C6_6 
REMARK    3  A    between atoms: C5_5  and  O7_7 
REMARK    4  A    between atoms: C6_6  and  S8_8 
ROOT
HETATM    1  C6  UNL     1     -33.603   6.546   4.093  1.00 20.00     0.072 C 
ENDROOT
BRANCH   1   2
HETATM    2  C3  UNL     1     -34.476   5.357   3.706  1.00 20.00     0.001 A 
HETATM    3  C1  UNL     1     -35.247   4.610   4.758  1.00 20.00     0.006 A 
HETATM    4  C2  UNL     1     -35.975   5.469   3.762  1.00 20.00     0.006 A 
ENDBRANCH   1   2
BRANCH   1   5
HETATM    5  C5  UNL     1     -32.196   6.459   3.500  1.00 20.00     0.182 C 
BRANCH   5   6
HETATM    6  O7  UNL     1     -31.656   7.752   3.255  1.00 20.00    -0.395 OA
HETATM    7  C4  UNL     1     -32.068   8.259   1.992  1.00 20.00     0.201 C 
ENDBRANCH   5   6
ENDBRANCH   1   5
BRANCH   1   8
HETATM    8  S8  UNL     1     -33.516   6.664   5.915  1.00 20.00    -0.175 SA
HETATM    9  H20 UNL     1     -33.333   7.990   5.951  1.00 20.00     0.102 HD
ENDBRANCH   1   8
TORSDOF 4
ENDMDL
MODEL 3
REMARK VINA RESULT:      -3.3      1.257      1.406
REMARK  4 active torsions:
REMARK  status: ('A' for Active; 'I' for Inactive)
REMARK    1  A    between atoms: C3_3  and  C6_6 
REMARK    2  A    between atoms: C5_5  and  C6_6 
REMARK    3  A    between atoms: C5_5  and  O7_7 
REMARK    4  A    between atoms: C6_6  and  S8_8 
ROOT
HETATM    1  C6  UNL     1     -35.318  16.379  -2.886  1.00 20.00     0.072 C 
ENDROOT
BRANCH   1   2
HETATM    2  C3  UNL     1     -34.435  16.249  -1.649  1.00 20.00     0.001 A 
HETATM    3  C1  UNL     1     -33.633  17.426  -1.166  1.00 20.00     0.006 A 
HETATM    4  C2  UNL     1     -34.816  16.946  -0.372  1.00 20.00     0.006 A 
ENDBRANCH   1   2
BRANCH   1   5
HETATM    5  C5  UNL     1     -35.810  15.025  -3.401  1.00 20.00     0.182 C 
BRANCH   5   6
HETATM    6  O7  UNL     1     -34.753  14.075  -3.452  1.00 20.00    -0.395 OA
HETATM    7  C4  UNL     1     -34.804  13.301  -4.643  1.00 20.00     0.201 C 
ENDBRANCH   5   6
ENDBRANCH   1   5
BRANCH   1   8
HETATM    8  S8  UNL     1     -34.397  17.258  -4.198  1.00 20.00    -0.175 SA
HETATM    9  H20 UNL     1     -34.310  16.208  -5.023  1.00 20.00     0.102 HD
ENDBRANCH   1   8
TORSDOF 4
ENDMDL
MODEL 4
REMARK VINA RESULT:      -3.2      2.040      2.299
REMARK  4 active torsions:
REMARK  status: ('A' for Active; 'I' for Inactive)
REMARK    1  A    between atoms: C3_3  and  C6_6 
REMARK    2  A    between atoms: C5_5  and  C6_6 
REMARK    3  A    between atoms: C5_5  and  O7_7 
REMARK    4  A    between atoms: C6_6  and  S8_8 
ROOT
HETATM    1  C6  UNL     1     -35.505  15.578  -3.777  1.00 20.00     0.072 C 
ENDROOT
BRANCH   1   2
HETATM    2  C3  UNL     1     -34.568  15.513  -2.574  1.00 20.00     0.001 A 
HETATM    3  C1  UNL     1     -33.686  16.683  -2.238  1.00 20.00     0.006 A 
HETATM    4  C2  UNL     1     -34.850  16.340  -1.350  1.00 20.00     0.006 A 
ENDBRANCH   1   2
BRANCH   1   5
HETATM    5  C5  UNL     1     -36.123  14.221  -4.114  1.00 20.00     0.182 C 
BRANCH   5   6
HETATM    6  O7  UNL     1     -37.482  14.154  -3.702  1.00 20.00    -0.395 OA
HETATM    7  C4  UNL     1     -38.077  15.444  -3.654  1.00 20.00     0.201 C 
ENDBRANCH   5   6
ENDBRANCH   1   5
BRANCH   1   8
HETATM    8  S8  UNL     1     -34.592  16.235  -5.218  1.00 20.00    -0.175 SA
HETATM    9  H20 UNL     1     -35.679  16.643  -5.885  1.00 20.00     0.102 HD
ENDBRANCH   1   8
TORSDOF 4
ENDMDL
MODEL 5
REMARK VINA RESULT:      -3.0      3.276      4.452
REMARK  4 active torsions:
REMARK  status: ('A' for Active; 'I' for Inactive)
REMARK    1  A    between atoms: C3_3  and  C6_6 
REMARK    2  A    between atoms: C5_5  and  C6_6 
REMARK    3  A    between atoms: C5_5  and  O7_7 
REMARK    4  A    between atoms: C6_6  and  S8_8 
ROOT
HETATM    1  C6  UNL     1     -35.696  14.197  -4.837  1.00 20.00     0.072 C 
ENDROOT
BRANCH   1   2
HETATM    2  C3  UNL     1     -35.548  15.109  -6.051  1.00 20.00     0.001 A 
HETATM    3  C1  UNL     1     -34.360  14.971  -6.961  1.00 20.00     0.006 A 
HETATM    4  C2  UNL     1     -35.724  14.556  -7.438  1.00 20.00     0.006 A 
ENDBRANCH   1   2
BRANCH   1   5
HETATM    5  C5  UNL     1     -36.613  14.789  -3.766  1.00 20.00     0.182 C 
BRANCH   5   6
HETATM    6  O7  UNL     1     -37.858  14.103  -3.714  1.00 20.00    -0.395 OA
HETATM    7  C4  UNL     1     -38.942  14.965  -4.038  1.00 20.00     0.201 C 
ENDBRANCH   5   6
ENDBRANCH   1   5
BRANCH   1   8
HETATM    8  S8  UNL     1     -34.043  13.853  -4.135  1.00 20.00    -0.175 SA
HETATM    9  H20 UNL     1     -34.481  13.053  -3.155  1.00 20.00     0.102 HD
ENDBRANCH   1   8
TORSDOF 4
ENDMDL
MODEL 6
REMARK VINA RESULT:      -3.0      2.224      2.434
REMARK  4 active torsions:
REMARK  status: ('A' for Active; 'I' for Inactive)
REMARK    1  A    between atoms: C3_3  and  C6_6 
REMARK    2  A    between atoms: C5_5  and  C6_6 
REMARK    3  A    between atoms: C5_5  and  O7_7 
REMARK    4  A    between atoms: C6_6  and  S8_8 
ROOT
HETATM    1  C6  UNL     1     -33.414  15.856  -3.514  1.00 20.00     0.072 C 
ENDROOT
BRANCH   1   2
HETATM    2  C3  UNL     1     -34.205  16.815  -2.629  1.00 20.00     0.001 A 
HETATM    3  C1  UNL     1     -34.730  16.357  -1.297  1.00 20.00     0.006 A 
HETATM    4  C2  UNL     1     -33.599  17.346  -1.359  1.00 20.00     0.006 A 
ENDBRANCH   1   2
BRANCH   1   5
HETATM    5  C5  UNL     1     -33.262  16.370  -4.947  1.00 20.00     0.182 C 
BRANCH   5   6
HETATM    6  O7  UNL     1     -34.476  16.239  -5.675  1.00 20.00    -0.395 OA
HETATM    7  C4  UNL     1     -34.252  15.693  -6.968  1.00 20.00     0.201 C 
ENDBRANCH   5   6
ENDBRANCH   1   5
BRANCH   1   8
HETATM    8  S8  UNL     1     -34.228  14.219  -3.511  1.00 20.00    -0.175 SA
HETATM    9  H20 UNL     1     -33.701  13.814  -2.349  1.00 20.00     0.102 HD
ENDBRANCH   1   8
TORSDOF 4
ENDMDL
MODEL 7
REMARK VINA RESULT:      -3.0     11.608     12.161
REMARK  4 active torsions:
REMARK  status: ('A' for Active; 'I' for Inactive)
REMARK    1  A    between atoms: C3_3  and  C6_6 
REMARK    2  A    between atoms: C5_5  and  C6_6 
REMARK    3  A    between atoms: C5_5  and  O7_7 
REMARK    4  A    between atoms: C6_6  and  S8_8 
ROOT
HETATM    1  C6  UNL     1     -33.295   5.774   4.043  1.00 20.00     0.072 C 
ENDROOT
BRANCH   1   2
HETATM    2  C3  UNL     1     -34.250   5.935   5.222  1.00 20.00     0.001 A 
HETATM    3  C1  UNL     1     -35.237   4.849   5.549  1.00 20.00     0.006 A 
HETATM    4  C2  UNL     1     -34.069   5.103   6.461  1.00 20.00     0.006 A 
ENDBRANCH   1   2
BRANCH   1   5
HETATM    5  C5  UNL     1     -32.462   7.031   3.786  1.00 20.00     0.182 C 
BRANCH   5   6
HETATM    6  O7  UNL     1     -32.109   7.147   2.414  1.00 20.00    -0.395 OA
HETATM    7  C4  UNL     1     -32.142   8.500   1.979  1.00 20.00     0.201 C 
ENDBRANCH   5   6
ENDBRANCH   1   5
BRANCH   1   8
HETATM    8  S8  UNL     1     -34.248   5.329   2.548  1.00 20.00    -0.175 SA
HETATM    9  H20 UNL     1     -35.337   4.915   3.207  1.00 20.00     0.102 HD
ENDBRANCH   1   8
TORSDOF 4
ENDMDL
MODEL 8
REMARK VINA RESULT:      -3.0      1.908      3.743
REMARK  4 active torsions:
REMARK  status: ('A' for Active; 'I' for Inactive)
REMARK    1  A    between atoms: C3_3  and  C6_6 
REMARK    2  A    between atoms: C5_5  and  C6_6 
REMARK    3  A    between atoms: C5_5  and  O7_7 
REMARK    4  A    between atoms: C6_6  and  S8_8 
ROOT
HETATM    1  C6  UNL     1     -34.923  15.921  -3.816  1.00 20.00     0.072 C 
ENDROOT
BRANCH   1   2
HETATM    2  C3  UNL     1     -34.740  14.462  -3.410  1.00 20.00     0.001 A 
HETATM    3  C1  UNL     1     -34.866  13.370  -4.436  1.00 20.00     0.006 A 
HETATM    4  C2  UNL     1     -33.520  13.701  -3.853  1.00 20.00     0.006 A 
ENDBRANCH   1   2
BRANCH   1   5
HETATM    5  C5  UNL     1     -35.018  16.858  -2.610  1.00 20.00     0.182 C 
BRANCH   5   6
HETATM    6  O7  UNL     1     -34.410  16.284  -1.460  1.00 20.00    -0.395 OA
HETATM    7  C4  UNL     1     -34.754  16.997  -0.278  1.00 20.00     0.201 C 
ENDBRANCH   5   6
ENDBRANCH   1   5
BRANCH   1   8
HETATM    8  S8  UNL     1     -36.418  16.076  -4.857  1.00 20.00    -0.175 SA
HETATM    9  H20 UNL     1     -36.983  17.047  -4.130  1.00 20.00     0.102 HD
ENDBRANCH   1   8
TORSDOF 4
ENDMDL
MODEL 9
REMARK VINA RESULT:      -3.0     11.965     13.275
REMARK  4 active torsions:
REMARK  status: ('A' for Active; 'I' for Inactive)
REMARK    1  A    between atoms: C3_3  and  C6_6 
REMARK    2  A    between atoms: C5_5  and  C6_6 
REMARK    3  A    between atoms: C5_5  and  O7_7 
REMARK    4  A    between atoms: C6_6  and  S8_8 
ROOT
HETATM    1  C6  UNL     1     -42.639   5.303  -2.138  1.00 20.00     0.072 C 
ENDROOT
BRANCH   1   2
HETATM    2  C3  UNL     1     -41.305   5.510  -1.426  1.00 20.00     0.001 A 
HETATM    3  C1  UNL     1     -40.964   6.849  -0.833  1.00 20.00     0.006 A 
HETATM    4  C2  UNL     1     -41.264   5.683   0.067  1.00 20.00     0.006 A 
ENDBRANCH   1   2
BRANCH   1   5
HETATM    5  C5  UNL     1     -42.685   3.995  -2.929  1.00 20.00     0.182 C 
BRANCH   5   6
HETATM    6  O7  UNL     1     -41.515   3.217  -2.712  1.00 20.00    -0.395 OA
HETATM    7  C4  UNL     1     -41.503   2.054  -3.529  1.00 20.00     0.201 C 
ENDBRANCH   5   6
ENDBRANCH   1   5
BRANCH   1   8
HETATM    8  S8  UNL     1     -42.962   6.724  -3.243  1.00 20.00    -0.175 SA
HETATM    9  H20 UNL     1     -42.079   6.361  -4.182  1.00 20.00     0.102 HD
ENDBRANCH   1   8
TORSDOF 4
ENDMDL
