MODEL 1
REMARK VINA RESULT:      -4.2      0.000      0.000
REMARK  3 active torsions:
REMARK  status: ('A' for Active; 'I' for Inactive)
REMARK    1  A    between atoms: C5_5  and  C7_7 
REMARK    2  A    between atoms: C5_5  and  O9_9 
REMARK    3  A    between atoms: C6_6  and  C7_7 
ROOT
HETATM    1  C1  UNL     1     -34.627  13.715  -4.327  1.00 20.00     0.088 C 
HETATM    2  C7  UNL     1     -34.136  15.079  -4.021  1.00 20.00     0.149 C 
HETATM    3  N8  UNL     1     -35.016  12.648  -4.564  1.00 20.00    -0.195 NA
HETATM    4 CL10 UNL     1     -32.377  14.913  -3.660  1.00 20.00    -0.100 Cl
ENDROOT
BRANCH   2   5
HETATM    5  C5  UNL     1     -34.848  15.601  -2.757  1.00 20.00     0.208 C 
BRANCH   5   6
HETATM    6  O9  UNL     1     -33.945  16.308  -1.908  1.00 20.00    -0.393 OA
HETATM    7  C4  UNL     1     -34.583  16.733  -0.713  1.00 20.00     0.201 C 
ENDBRANCH   5   6
ENDBRANCH   2   5
BRANCH   2   8
HETATM    8  C6  UNL     1     -34.372  16.022  -5.248  1.00 20.00     0.017 C 
HETATM    9  C2  UNL     1     -33.452  17.251  -5.274  1.00 20.00     0.012 C 
HETATM   10  C3  UNL     1     -34.268  15.308  -6.609  1.00 20.00     0.012 C 
ENDBRANCH   2   8
TORSDOF 3
ENDMDL
MODEL 2
REMARK VINA RESULT:      -4.1      2.465      2.717
REMARK  3 active torsions:
REMARK  status: ('A' for Active; 'I' for Inactive)
REMARK    1  A    between atoms: C5_5  and  C7_7 
REMARK    2  A    between atoms: C5_5  and  O9_9 
REMARK    3  A    between atoms: C6_6  and  C7_7 
ROOT
HETATM    1  C1  UNL     1     -35.053  13.651  -4.522  1.00 20.00     0.088 C 
HETATM    2  C7  UNL     1     -35.486  15.067  -4.458  1.00 20.00     0.149 C 
HETATM    3  N8  UNL     1     -34.718  12.541  -4.575  1.00 20.00    -0.195 NA
HETATM    4 CL10 UNL     1     -35.227  15.598  -2.755  1.00 20.00    -0.100 Cl
ENDROOT
BRANCH   2   5
HETATM    5  C5  UNL     1     -36.993  15.149  -4.773  1.00 20.00     0.208 C 
BRANCH   5   6
HETATM    6  O9  UNL     1     -37.756  14.353  -3.868  1.00 20.00    -0.393 OA
HETATM    7  C4  UNL     1     -38.957  15.007  -3.489  1.00 20.00     0.201 C 
ENDBRANCH   5   6
ENDBRANCH   2   5
BRANCH   2   8
HETATM    8  C6  UNL     1     -34.640  15.931  -5.452  1.00 20.00     0.017 C 
HETATM    9  C2  UNL     1     -33.261  16.333  -4.908  1.00 20.00     0.012 C 
HETATM   10  C3  UNL     1     -34.446  15.276  -6.833  1.00 20.00     0.012 C 
ENDBRANCH   2   8
TORSDOF 3
ENDMDL
MODEL 3
REMARK VINA RESULT:      -4.1      1.601      1.601
REMARK  3 active torsions:
REMARK  status: ('A' for Active; 'I' for Inactive)
REMARK    1  A    between atoms: C5_5  and  C7_7 
REMARK    2  A    between atoms: C5_5  and  O9_9 
REMARK    3  A    between atoms: C6_6  and  C7_7 
ROOT
HETATM    1  C1  UNL     1     -36.381  14.452  -4.071  1.00 20.00     0.088 C 
HETATM    2  C7  UNL     1     -34.930  14.656  -4.293  1.00 20.00     0.149 C 
HETATM    3  N8  UNL     1     -37.517  14.296  -3.894  1.00 20.00    -0.195 NA
HETATM    4 CL10 UNL     1     -34.246  13.032  -4.677  1.00 20.00    -0.100 Cl
ENDROOT
BRANCH   2   5
HETATM    5  C5  UNL     1     -34.286  15.162  -2.986  1.00 20.00     0.208 C 
BRANCH   5   6
HETATM    6  O9  UNL     1     -35.216  15.908  -2.204  1.00 20.00    -0.393 OA
HETATM    7  C4  UNL     1     -34.576  16.555  -1.115  1.00 20.00     0.201 C 
ENDBRANCH   5   6
ENDBRANCH   2   5
BRANCH   2   8
HETATM    8  C6  UNL     1     -34.704  15.656  -5.475  1.00 20.00     0.017 C 
HETATM    9  C2  UNL     1     -33.512  16.603  -5.267  1.00 20.00     0.012 C 
HETATM   10  C3  UNL     1     -34.548  14.972  -6.846  1.00 20.00     0.012 C 
ENDBRANCH   2   8
TORSDOF 3
ENDMDL
MODEL 4
REMARK VINA RESULT:      -4.1      2.678      4.006
REMARK  3 active torsions:
REMARK  status: ('A' for Active; 'I' for Inactive)
REMARK    1  A    between atoms: C5_5  and  C7_7 
REMARK    2  A    between atoms: C5_5  and  O9_9 
REMARK    3  A    between atoms: C6_6  and  C7_7 
ROOT
HETATM    1  C1  UNL     1     -36.704  14.582  -4.068  1.00 20.00     0.088 C 
HETATM    2  C7  UNL     1     -35.331  14.967  -4.472  1.00 20.00     0.149 C 
HETATM    3  N8  UNL     1     -37.778  14.277  -3.754  1.00 20.00    -0.195 NA
HETATM    4 CL10 UNL     1     -35.442  16.655  -5.094  1.00 20.00    -0.100 Cl
ENDROOT
BRANCH   2   5
HETATM    5  C5  UNL     1     -34.868  14.050  -5.623  1.00 20.00     0.208 C 
BRANCH   5   6
HETATM    6  O9  UNL     1     -34.614  14.798  -6.810  1.00 20.00    -0.393 OA
HETATM    7  C4  UNL     1     -35.528  14.459  -7.842  1.00 20.00     0.201 C 
ENDBRANCH   5   6
ENDBRANCH   2   5
BRANCH   2   8
HETATM    8  C6  UNL     1     -34.366  14.882  -3.242  1.00 20.00     0.017 C 
HETATM    9  C2  UNL     1     -32.879  14.986  -3.611  1.00 20.00     0.012 C 
HETATM   10  C3  UNL     1     -34.669  15.918  -2.144  1.00 20.00     0.012 C 
ENDBRANCH   2   8
TORSDOF 3
ENDMDL
MODEL 5
REMARK VINA RESULT:      -4.0      2.344      3.243
REMARK  3 active torsions:
REMARK  status: ('A' for Active; 'I' for Inactive)
REMARK    1  A    between atoms: C5_5  and  C7_7 
REMARK    2  A    between atoms: C5_5  and  O9_9 
REMARK    3  A    between atoms: C6_6  and  C7_7 
ROOT
HETATM    1  C1  UNL     1     -36.985  14.708  -3.687  1.00 20.00     0.088 C 
HETATM    2  C7  UNL     1     -35.554  15.085  -3.760  1.00 20.00     0.149 C 
HETATM    3  N8  UNL     1     -38.106  14.414  -3.635  1.00 20.00    -0.195 NA
HETATM    4 CL10 UNL     1     -35.169  15.910  -2.203  1.00 20.00    -0.100 Cl
ENDROOT
BRANCH   2   5
HETATM    5  C5  UNL     1     -35.355  16.093  -4.910  1.00 20.00     0.208 C 
BRANCH   5   6
HETATM    6  O9  UNL     1     -34.639  17.246  -4.471  1.00 20.00    -0.393 OA
HETATM    7  C4  UNL     1     -33.441  17.424  -5.211  1.00 20.00     0.201 C 
ENDBRANCH   5   6
ENDBRANCH   2   5
BRANCH   2   8
HETATM    8  C6  UNL     1     -34.672  13.807  -3.953  1.00 20.00     0.017 C 
HETATM    9  C2  UNL     1     -34.745  13.209  -5.366  1.00 20.00     0.012 C 
HETATM   10  C3  UNL     1     -33.190  14.015  -3.590  1.00 20.00     0.012 C 
ENDBRANCH   2   8
TORSDOF 3
ENDMDL
MODEL 6
REMARK VINA RESULT:      -3.9      2.849      3.538
REMARK  3 active torsions:
REMARK  status: ('A' for Active; 'I' for Inactive)
REMARK    1  A    between atoms: C5_5  and  C7_7 
REMARK    2  A    between atoms: C5_5  and  O9_9 
REMARK    3  A    between atoms: C6_6  and  C7_7 
ROOT
HETATM    1  C1  UNL     1     -35.646  15.603  -5.569  1.00 20.00     0.088 C 
HETATM    2  C7  UNL     1     -35.497  15.072  -4.194  1.00 20.00     0.149 C 
HETATM    3  N8  UNL     1     -35.766  16.022  -6.645  1.00 20.00    -0.195 NA
HETATM    4 CL10 UNL     1     -35.146  13.312  -4.368  1.00 20.00    -0.100 Cl
ENDROOT
BRANCH   2   5
HETATM    5  C5  UNL     1     -36.835  15.233  -3.443  1.00 20.00     0.208 C 
BRANCH   5   6
HETATM    6  O9  UNL     1     -37.754  14.202  -3.796  1.00 20.00    -0.393 OA
HETATM    7  C4  UNL     1     -39.023  14.736  -4.141  1.00 20.00     0.201 C 
ENDBRANCH   5   6
ENDBRANCH   2   5
BRANCH   2   8
HETATM    8  C6  UNL     1     -34.329  15.809  -3.458  1.00 20.00     0.017 C 
HETATM    9  C2  UNL     1     -34.579  16.027  -1.958  1.00 20.00     0.012 C 
HETATM   10  C3  UNL     1     -32.959  15.126  -3.629  1.00 20.00     0.012 C 
ENDBRANCH   2   8
TORSDOF 3
ENDMDL
MODEL 7
REMARK VINA RESULT:      -3.9      2.253      3.544
REMARK  3 active torsions:
REMARK  status: ('A' for Active; 'I' for Inactive)
REMARK    1  A    between atoms: C5_5  and  C7_7 
REMARK    2  A    between atoms: C5_5  and  O9_9 
REMARK    3  A    between atoms: C6_6  and  C7_7 
ROOT
HETATM    1  C1  UNL     1     -34.515  16.017  -2.085  1.00 20.00     0.088 C 
HETATM    2  C7  UNL     1     -34.355  15.490  -3.461  1.00 20.00     0.149 C 
HETATM    3  N8  UNL     1     -34.643  16.433  -1.010  1.00 20.00    -0.195 NA
HETATM    4 CL10 UNL     1     -32.636  14.964  -3.603  1.00 20.00    -0.100 Cl
ENDROOT
BRANCH   2   5
HETATM    5  C5  UNL     1     -34.603  16.630  -4.470  1.00 20.00     0.208 C 
BRANCH   5   6
HETATM    6  O9  UNL     1     -33.666  16.584  -5.545  1.00 20.00    -0.393 OA
HETATM    7  C4  UNL     1     -34.296  16.225  -6.765  1.00 20.00     0.201 C 
ENDBRANCH   5   6
ENDBRANCH   2   5
BRANCH   2   8
HETATM    8  C6  UNL     1     -35.332  14.290  -3.693  1.00 20.00     0.017 C 
HETATM    9  C2  UNL     1     -36.729  14.711  -4.173  1.00 20.00     0.012 C 
HETATM   10  C3  UNL     1     -34.786  13.223  -4.660  1.00 20.00     0.012 C 
ENDBRANCH   2   8
TORSDOF 3
ENDMDL
MODEL 8
REMARK VINA RESULT:      -3.8      2.427      3.883
REMARK  3 active torsions:
REMARK  status: ('A' for Active; 'I' for Inactive)
REMARK    1  A    between atoms: C5_5  and  C7_7 
REMARK    2  A    between atoms: C5_5  and  O9_9 
REMARK    3  A    between atoms: C6_6  and  C7_7 
ROOT
HETATM    1  C1  UNL     1     -33.524  16.297  -4.695  1.00 20.00     0.088 C 
HETATM    2  C7  UNL     1     -33.915  14.990  -4.117  1.00 20.00     0.149 C 
HETATM    3  N8  UNL     1     -33.221  17.319  -5.151  1.00 20.00    -0.195 NA
HETATM    4 CL10 UNL     1     -32.401  14.244  -3.483  1.00 20.00    -0.100 Cl
ENDROOT
BRANCH   2   5
HETATM    5  C5  UNL     1     -34.472  14.088  -5.238  1.00 20.00     0.208 C 
BRANCH   5   6
HETATM    6  O9  UNL     1     -34.342  14.710  -6.515  1.00 20.00    -0.393 OA
HETATM    7  C4  UNL     1     -35.458  14.425  -7.345  1.00 20.00     0.201 C 
ENDBRANCH   5   6
ENDBRANCH   2   5
BRANCH   2   8
HETATM    8  C6  UNL     1     -34.962  15.201  -2.972  1.00 20.00     0.017 C 
HETATM    9  C2  UNL     1     -34.502  16.183  -1.884  1.00 20.00     0.012 C 
HETATM   10  C3  UNL     1     -36.348  15.646  -3.474  1.00 20.00     0.012 C 
ENDBRANCH   2   8
TORSDOF 3
ENDMDL
MODEL 9
REMARK VINA RESULT:      -3.8      2.082      3.174
REMARK  3 active torsions:
REMARK  status: ('A' for Active; 'I' for Inactive)
REMARK    1  A    between atoms: C5_5  and  C7_7 
REMARK    2  A    between atoms: C5_5  and  O9_9 
REMARK    3  A    between atoms: C6_6  and  C7_7 
ROOT
HETATM    1  C1  UNL     1     -33.570  14.014  -3.904  1.00 20.00     0.088 C 
HETATM    2  C7  UNL     1     -34.287  15.287  -4.151  1.00 20.00     0.149 C 
HETATM    3  N8  UNL     1     -33.005  13.020  -3.709  1.00 20.00    -0.195 NA
HETATM    4 CL10 UNL     1     -35.235  15.046  -5.666  1.00 20.00    -0.100 Cl
ENDROOT
BRANCH   2   5
HETATM    5  C5  UNL     1     -33.257  16.409  -4.392  1.00 20.00     0.208 C 
BRANCH   5   6
HETATM    6  O9  UNL     1     -33.613  17.207  -5.519  1.00 20.00    -0.393 OA
HETATM    7  C4  UNL     1     -33.589  18.590  -5.203  1.00 20.00     0.201 C 
ENDBRANCH   5   6
ENDBRANCH   2   5
BRANCH   2   8
HETATM    8  C6  UNL     1     -35.228  15.616  -2.945  1.00 20.00     0.017 C 
HETATM    9  C2  UNL     1     -34.502  16.238  -1.743  1.00 20.00     0.012 C 
HETATM   10  C3  UNL     1     -36.419  16.519  -3.314  1.00 20.00     0.012 C 
ENDBRANCH   2   8
TORSDOF 3
ENDMDL
