MODEL 1
REMARK VINA RESULT:      -5.2      0.000      0.000
REMARK  3 active torsions:
REMARK  status: ('A' for Active; 'I' for Inactive)
REMARK    1  A    between atoms: C3_3  and  C6_6 
REMARK    2  A    between atoms: C4_4  and  O8_8 
REMARK    3  A    between atoms: C6_6  and  C7_7 
ROOT
HETATM    1  C1  UNL     1     -33.928   5.669   5.212  1.00 20.00     0.036 C 
HETATM    2  C2  UNL     1     -34.654   5.182   3.266  1.00 20.00     0.036 C 
HETATM    3  C3  UNL     1     -33.731   6.298   3.812  1.00 20.00    -0.010 C 
HETATM    4  C4  UNL     1     -35.252   5.067   4.688  1.00 20.00     0.118 C 
ENDROOT
BRANCH   3   5
HETATM    5  C6  UNL     1     -32.314   6.330   3.276  1.00 20.00     0.004 C 
BRANCH   5   6
HETATM    6  C7  UNL     1     -31.784   7.760   3.165  1.00 20.00    -0.004 C 
HETATM    7  C5  UNL     1     -32.081   8.364   1.802  1.00 20.00     0.005 C 
ENDBRANCH   5   6
ENDBRANCH   3   5
BRANCH   4   8
HETATM    8  O8  UNL     1     -35.558   3.738   5.139  1.00 20.00    -0.396 OA
HETATM    9  H22 UNL     1     -36.270   3.835   5.786  1.00 20.00     0.210 HD
ENDBRANCH   4   8
TORSDOF 3
ENDMDL
MODEL 2
REMARK VINA RESULT:      -4.4      2.481      4.249
REMARK  3 active torsions:
REMARK  status: ('A' for Active; 'I' for Inactive)
REMARK    1  A    between atoms: C3_3  and  C6_6 
REMARK    2  A    between atoms: C4_4  and  O8_8 
REMARK    3  A    between atoms: C6_6  and  C7_7 
ROOT
HETATM    1  C1  UNL     1     -33.574   7.456   3.668  1.00 20.00     0.036 C 
HETATM    2  C2  UNL     1     -32.437   5.813   2.920  1.00 20.00     0.036 C 
HETATM    3  C3  UNL     1     -33.512   5.951   4.025  1.00 20.00    -0.010 C 
HETATM    4  C4  UNL     1     -32.140   7.320   3.107  1.00 20.00     0.118 C 
ENDROOT
BRANCH   3   5
HETATM    5  C6  UNL     1     -34.787   5.155   3.835  1.00 20.00     0.004 C 
BRANCH   5   6
HETATM    6  C7  UNL     1     -35.137   4.344   5.083  1.00 20.00    -0.004 C 
HETATM    7  C5  UNL     1     -34.711   5.058   6.355  1.00 20.00     0.005 C 
ENDBRANCH   5   6
ENDBRANCH   3   5
BRANCH   4   8
HETATM    8  O8  UNL     1     -31.862   8.063   1.909  1.00 20.00    -0.396 OA
HETATM    9  H22 UNL     1     -32.630   8.631   1.765  1.00 20.00     0.210 HD
ENDBRANCH   4   8
TORSDOF 3
ENDMDL
MODEL 3
REMARK VINA RESULT:      -4.4     11.027     11.697
REMARK  3 active torsions:
REMARK  status: ('A' for Active; 'I' for Inactive)
REMARK    1  A    between atoms: C3_3  and  C6_6 
REMARK    2  A    between atoms: C4_4  and  O8_8 
REMARK    3  A    between atoms: C6_6  and  C7_7 
ROOT
HETATM    1  C1  UNL     1     -35.274  15.030  -4.008  1.00 20.00     0.036 C 
HETATM    2  C2  UNL     1     -33.409  14.051  -3.664  1.00 20.00     0.036 C 
HETATM    3  C3  UNL     1     -33.834  15.537  -3.754  1.00 20.00    -0.010 C 
HETATM    4  C4  UNL     1     -34.654  13.709  -4.518  1.00 20.00     0.118 C 
ENDROOT
BRANCH   3   5
HETATM    5  C6  UNL     1     -33.619  16.380  -2.514  1.00 20.00     0.004 C 
BRANCH   5   6
HETATM    6  C7  UNL     1     -34.777  16.234  -1.524  1.00 20.00    -0.004 C 
HETATM    7  C5  UNL     1     -34.581  17.111  -0.298  1.00 20.00     0.005 C 
ENDBRANCH   5   6
ENDBRANCH   3   5
BRANCH   4   8
HETATM    8  O8  UNL     1     -35.355  12.507  -4.160  1.00 20.00    -0.396 OA
HETATM    9  H22 UNL     1     -36.278  12.765  -4.040  1.00 20.00     0.210 HD
ENDBRANCH   4   8
TORSDOF 3
ENDMDL
MODEL 4
REMARK VINA RESULT:      -4.2      1.093      1.732
REMARK  3 active torsions:
REMARK  status: ('A' for Active; 'I' for Inactive)
REMARK    1  A    between atoms: C3_3  and  C6_6 
REMARK    2  A    between atoms: C4_4  and  O8_8 
REMARK    3  A    between atoms: C6_6  and  C7_7 
ROOT
HETATM    1  C1  UNL     1     -33.592   5.776   2.669  1.00 20.00     0.036 C 
HETATM    2  C2  UNL     1     -33.688   6.410   4.704  1.00 20.00     0.036 C 
HETATM    3  C3  UNL     1     -32.542   6.319   3.667  1.00 20.00    -0.010 C 
HETATM    4  C4  UNL     1     -34.428   5.322   3.888  1.00 20.00     0.118 C 
ENDROOT
BRANCH   3   5
HETATM    5  C6  UNL     1     -31.861   7.620   3.294  1.00 20.00     0.004 C 
BRANCH   5   6
HETATM    6  C7  UNL     1     -32.066   7.963   1.818  1.00 20.00    -0.004 C 
HETATM    7  C5  UNL     1     -32.397   9.434   1.624  1.00 20.00     0.005 C 
ENDBRANCH   5   6
ENDBRANCH   3   5
BRANCH   4   8
HETATM    8  O8  UNL     1     -35.851   5.481   3.768  1.00 20.00    -0.396 OA
HETATM    9  H22 UNL     1     -36.230   5.090   4.566  1.00 20.00     0.210 HD
ENDBRANCH   4   8
TORSDOF 3
ENDMDL
MODEL 5
REMARK VINA RESULT:      -4.1      2.556      4.218
REMARK  3 active torsions:
REMARK  status: ('A' for Active; 'I' for Inactive)
REMARK    1  A    between atoms: C3_3  and  C6_6 
REMARK    2  A    between atoms: C4_4  and  O8_8 
REMARK    3  A    between atoms: C6_6  and  C7_7 
ROOT
HETATM    1  C1  UNL     1     -32.093   7.249   4.198  1.00 20.00     0.036 C 
HETATM    2  C2  UNL     1     -33.654   6.453   2.979  1.00 20.00     0.036 C 
HETATM    3  C3  UNL     1     -33.164   6.153   4.417  1.00 20.00    -0.010 C 
HETATM    4  C4  UNL     1     -32.238   7.001   2.678  1.00 20.00     0.118 C 
ENDROOT
BRANCH   3   5
HETATM    5  C6  UNL     1     -34.158   6.390   5.535  1.00 20.00     0.004 C 
BRANCH   5   6
HETATM    6  C7  UNL     1     -34.433   5.110   6.327  1.00 20.00    -0.004 C 
HETATM    7  C5  UNL     1     -34.989   4.009   5.438  1.00 20.00     0.005 C 
ENDBRANCH   5   6
ENDBRANCH   3   5
BRANCH   4   8
HETATM    8  O8  UNL     1     -32.177   8.170   1.844  1.00 20.00    -0.396 OA
HETATM    9  H22 UNL     1     -32.947   8.121   1.262  1.00 20.00     0.210 HD
ENDBRANCH   4   8
TORSDOF 3
ENDMDL
MODEL 6
REMARK VINA RESULT:      -3.8     12.107     12.897
REMARK  3 active torsions:
REMARK  status: ('A' for Active; 'I' for Inactive)
REMARK    1  A    between atoms: C3_3  and  C6_6 
REMARK    2  A    between atoms: C4_4  and  O8_8 
REMARK    3  A    between atoms: C6_6  and  C7_7 
ROOT
HETATM    1  C1  UNL     1     -34.170  17.063  -4.060  1.00 20.00     0.036 C 
HETATM    2  C2  UNL     1     -33.213  15.226  -3.547  1.00 20.00     0.036 C 
HETATM    3  C3  UNL     1     -33.721  16.432  -2.720  1.00 20.00    -0.010 C 
HETATM    4  C4  UNL     1     -33.110  16.181  -4.760  1.00 20.00     0.118 C 
ENDROOT
BRANCH   3   5
HETATM    5  C6  UNL     1     -34.809  16.149  -1.705  1.00 20.00     0.004 C 
BRANCH   5   6
HETATM    6  C7  UNL     1     -34.615  16.964  -0.425  1.00 20.00    -0.004 C 
HETATM    7  C5  UNL     1     -33.459  17.942  -0.554  1.00 20.00     0.005 C 
ENDBRANCH   5   6
ENDBRANCH   3   5
BRANCH   4   8
HETATM    8  O8  UNL     1     -33.492  15.631  -6.031  1.00 20.00    -0.396 OA
HETATM    9  H22 UNL     1     -32.914  16.046  -6.684  1.00 20.00     0.210 HD
ENDBRANCH   4   8
TORSDOF 3
ENDMDL
MODEL 7
REMARK VINA RESULT:      -3.7     10.814     12.320
REMARK  3 active torsions:
REMARK  status: ('A' for Active; 'I' for Inactive)
REMARK    1  A    between atoms: C3_3  and  C6_6 
REMARK    2  A    between atoms: C4_4  and  O8_8 
REMARK    3  A    between atoms: C6_6  and  C7_7 
ROOT
HETATM    1  C1  UNL     1     -33.244  14.267  -3.820  1.00 20.00     0.036 C 
HETATM    2  C2  UNL     1     -35.301  14.797  -3.624  1.00 20.00     0.036 C 
HETATM    3  C3  UNL     1     -33.982  15.442  -3.135  1.00 20.00    -0.010 C 
HETATM    4  C4  UNL     1     -34.547  13.447  -3.682  1.00 20.00     0.118 C 
ENDROOT
BRANCH   3   5
HETATM    5  C6  UNL     1     -33.674  16.832  -3.652  1.00 20.00     0.004 C 
BRANCH   5   6
HETATM    6  C7  UNL     1     -33.267  16.809  -5.126  1.00 20.00    -0.004 C 
HETATM    7  C5  UNL     1     -33.830  18.001  -5.883  1.00 20.00     0.005 C 
ENDBRANCH   5   6
ENDBRANCH   3   5
BRANCH   4   8
HETATM    8  O8  UNL     1     -34.869  12.589  -4.789  1.00 20.00    -0.396 OA
HETATM    9  H22 UNL     1     -34.023  12.298  -5.153  1.00 20.00     0.210 HD
ENDBRANCH   4   8
TORSDOF 3
ENDMDL
MODEL 8
REMARK VINA RESULT:      -3.6     11.404     12.083
REMARK  3 active torsions:
REMARK  status: ('A' for Active; 'I' for Inactive)
REMARK    1  A    between atoms: C3_3  and  C6_6 
REMARK    2  A    between atoms: C4_4  and  O8_8 
REMARK    3  A    between atoms: C6_6  and  C7_7 
ROOT
HETATM    1  C1  UNL     1     -36.093  16.085  -3.863  1.00 20.00     0.036 C 
HETATM    2  C2  UNL     1     -35.201  14.154  -3.696  1.00 20.00     0.036 C 
HETATM    3  C3  UNL     1     -34.628  15.586  -3.827  1.00 20.00    -0.010 C 
HETATM    4  C4  UNL     1     -36.496  14.678  -4.361  1.00 20.00     0.118 C 
ENDROOT
BRANCH   3   5
HETATM    5  C6  UNL     1     -33.770  16.081  -2.681  1.00 20.00     0.004 C 
BRANCH   5   6
HETATM    6  C7  UNL     1     -34.603  16.358  -1.429  1.00 20.00    -0.004 C 
HETATM    7  C5  UNL     1     -34.005  17.478  -0.594  1.00 20.00     0.005 C 
ENDBRANCH   5   6
ENDBRANCH   3   5
BRANCH   4   8
HETATM    8  O8  UNL     1     -37.730  14.158  -3.838  1.00 20.00    -0.396 OA
HETATM    9  H22 UNL     1     -38.209  14.918  -3.483  1.00 20.00     0.210 HD
ENDBRANCH   4   8
TORSDOF 3
ENDMDL
MODEL 9
REMARK VINA RESULT:      -3.6      8.931     10.387
REMARK  3 active torsions:
REMARK  status: ('A' for Active; 'I' for Inactive)
REMARK    1  A    between atoms: C3_3  and  C6_6 
REMARK    2  A    between atoms: C4_4  and  O8_8 
REMARK    3  A    between atoms: C6_6  and  C7_7 
ROOT
HETATM    1  C1  UNL     1     -41.971   6.117  -2.151  1.00 20.00     0.036 C 
HETATM    2  C2  UNL     1     -40.741   5.609  -0.483  1.00 20.00     0.036 C 
HETATM    3  C3  UNL     1     -41.666   4.790  -1.416  1.00 20.00    -0.010 C 
HETATM    4  C4  UNL     1     -41.579   6.856  -0.850  1.00 20.00     0.118 C 
ENDROOT
BRANCH   3   5
HETATM    5  C6  UNL     1     -41.009   3.697  -2.234  1.00 20.00     0.004 C 
BRANCH   5   6
HETATM    6  C7  UNL     1     -42.042   2.846  -2.973  1.00 20.00    -0.004 C 
HETATM    7  C5  UNL     1     -41.380   1.804  -3.860  1.00 20.00     0.005 C 
ENDBRANCH   5   6
ENDBRANCH   3   5
BRANCH   4   8
HETATM    8  O8  UNL     1     -40.847   8.081  -1.022  1.00 20.00    -0.396 OA
HETATM    9  H22 UNL     1     -40.857   8.519  -0.160  1.00 20.00     0.210 HD
ENDBRANCH   4   8
TORSDOF 3
ENDMDL
