MODEL 1
REMARK VINA RESULT:      -4.6      0.000      0.000
REMARK  4 active torsions:
REMARK  status: ('A' for Active; 'I' for Inactive)
REMARK    1  A    between atoms: C2_2  and  C6_6 
REMARK    2  A    between atoms: C6_6  and  O10_10 
REMARK    3  A    between atoms: C7_7  and  C8_8 
REMARK    4  A    between atoms: C8_8  and  O10_10 
ROOT
HETATM    1  C5  UNL     1     -34.392   5.350   3.046  1.00 20.00     0.040 C 
HETATM    2  C8  UNL     1     -33.991   6.292   4.177  1.00 20.00     0.120 C 
ENDROOT
BRANCH   2   3
HETATM    3  C7  UNL     1     -33.963   5.612   5.562  1.00 20.00     0.006 C 
HETATM    4  C3  UNL     1     -35.088   4.590   5.736  1.00 20.00     0.012 C 
HETATM    5  C4  UNL     1     -34.046   6.656   6.683  1.00 20.00     0.012 C 
ENDBRANCH   2   3
BRANCH   2   6
HETATM    6  O10 UNL     1     -32.685   6.793   3.888  1.00 20.00    -0.383 OA
BRANCH   6   7
HETATM    7  C6  UNL     1     -32.509   6.993   2.494  1.00 20.00     0.202 C 
BRANCH   7   8
HETATM    8  C2  UNL     1     -31.848   8.337   2.269  1.00 20.00     0.169 A 
HETATM    9  C1  UNL     1     -32.536   9.423   1.491  1.00 20.00     0.202 A 
HETATM   10  O9  UNL     1     -31.505   8.612   0.907  1.00 20.00    -0.379 OA
ENDBRANCH   7   8
ENDBRANCH   6   7
ENDBRANCH   2   6
TORSDOF 4
ENDMDL
MODEL 2
REMARK VINA RESULT:      -4.0     10.635     11.567
REMARK  4 active torsions:
REMARK  status: ('A' for Active; 'I' for Inactive)
REMARK    1  A    between atoms: C2_2  and  C6_6 
REMARK    2  A    between atoms: C6_6  and  O10_10 
REMARK    3  A    between atoms: C7_7  and  C8_8 
REMARK    4  A    between atoms: C8_8  and  O10_10 
ROOT
HETATM    1  C5  UNL     1     -35.521  16.945  -2.809  1.00 20.00     0.040 C 
HETATM    2  C8  UNL     1     -34.014  17.000  -2.583  1.00 20.00     0.120 C 
ENDROOT
BRANCH   2   3
HETATM    3  C7  UNL     1     -33.623  17.366  -1.136  1.00 20.00     0.006 C 
HETATM    4  C3  UNL     1     -34.753  17.101  -0.139  1.00 20.00     0.012 C 
HETATM    5  C4  UNL     1     -33.196  18.837  -1.042  1.00 20.00     0.012 C 
ENDBRANCH   2   3
BRANCH   2   6
HETATM    6  O10 UNL     1     -33.477  15.712  -2.888  1.00 20.00    -0.383 OA
BRANCH   6   7
HETATM    7  C6  UNL     1     -34.510  14.764  -3.109  1.00 20.00     0.202 C 
BRANCH   7   8
HETATM    8  C2  UNL     1     -34.056  13.775  -4.161  1.00 20.00     0.169 A 
HETATM    9  C1  UNL     1     -34.818  13.600  -5.445  1.00 20.00     0.202 A 
HETATM   10  O9  UNL     1     -34.941  12.668  -4.359  1.00 20.00    -0.379 OA
ENDBRANCH   7   8
ENDBRANCH   6   7
ENDBRANCH   2   6
TORSDOF 4
ENDMDL
MODEL 3
REMARK VINA RESULT:      -3.7     10.769     12.192
REMARK  4 active torsions:
REMARK  status: ('A' for Active; 'I' for Inactive)
REMARK    1  A    between atoms: C2_2  and  C6_6 
REMARK    2  A    between atoms: C6_6  and  O10_10 
REMARK    3  A    between atoms: C7_7  and  C8_8 
REMARK    4  A    between atoms: C8_8  and  O10_10 
ROOT
HETATM    1  C5  UNL     1     -34.591  16.359  -1.300  1.00 20.00     0.040 C 
HETATM    2  C8  UNL     1     -34.722  16.201  -2.811  1.00 20.00     0.120 C 
ENDROOT
BRANCH   2   3
HETATM    3  C7  UNL     1     -33.493  15.540  -3.468  1.00 20.00     0.006 C 
HETATM    4  C3  UNL     1     -33.128  16.182  -4.808  1.00 20.00     0.012 C 
HETATM    5  C4  UNL     1     -33.725  14.037  -3.671  1.00 20.00     0.012 C 
ENDBRANCH   2   3
BRANCH   2   6
HETATM    6  O10 UNL     1     -35.869  15.389  -3.069  1.00 20.00    -0.383 OA
BRANCH   6   7
HETATM    7  C6  UNL     1     -36.969  16.176  -3.498  1.00 20.00     0.202 C 
BRANCH   7   8
HETATM    8  C2  UNL     1     -37.877  15.326  -4.362  1.00 20.00     0.169 A 
HETATM    9  C1  UNL     1     -39.307  15.074  -3.976  1.00 20.00     0.202 A 
HETATM   10  O9  UNL     1     -38.282  14.090  -3.765  1.00 20.00    -0.379 OA
ENDBRANCH   7   8
ENDBRANCH   6   7
ENDBRANCH   2   6
TORSDOF 4
ENDMDL
MODEL 4
REMARK VINA RESULT:      -3.6     10.681     11.492
REMARK  4 active torsions:
REMARK  status: ('A' for Active; 'I' for Inactive)
REMARK    1  A    between atoms: C2_2  and  C6_6 
REMARK    2  A    between atoms: C6_6  and  O10_10 
REMARK    3  A    between atoms: C7_7  and  C8_8 
REMARK    4  A    between atoms: C8_8  and  O10_10 
ROOT
HETATM    1  C5  UNL     1     -36.908  14.800  -3.811  1.00 20.00     0.040 C 
HETATM    2  C8  UNL     1     -35.467  14.793  -3.311  1.00 20.00     0.120 C 
ENDROOT
BRANCH   2   3
HETATM    3  C7  UNL     1     -34.617  13.650  -3.904  1.00 20.00     0.006 C 
HETATM    4  C3  UNL     1     -33.119  13.847  -3.661  1.00 20.00     0.012 C 
HETATM    5  C4  UNL     1     -34.873  13.504  -5.410  1.00 20.00     0.012 C 
ENDBRANCH   2   3
BRANCH   2   6
HETATM    6  O10 UNL     1     -34.871  16.040  -3.674  1.00 20.00    -0.383 OA
BRANCH   6   7
HETATM    7  C6  UNL     1     -35.079  17.020  -2.670  1.00 20.00     0.202 C 
BRANCH   7   8
HETATM    8  C2  UNL     1     -34.502  16.519  -1.363  1.00 20.00     0.169 A 
HETATM    9  C1  UNL     1     -34.850  17.173  -0.056  1.00 20.00     0.202 A 
HETATM   10  O9  UNL     1     -33.603  17.428  -0.721  1.00 20.00    -0.379 OA
ENDBRANCH   7   8
ENDBRANCH   6   7
ENDBRANCH   2   6
TORSDOF 4
ENDMDL
MODEL 5
REMARK VINA RESULT:      -3.6     10.783     11.912
REMARK  4 active torsions:
REMARK  status: ('A' for Active; 'I' for Inactive)
REMARK    1  A    between atoms: C2_2  and  C6_6 
REMARK    2  A    between atoms: C6_6  and  O10_10 
REMARK    3  A    between atoms: C7_7  and  C8_8 
REMARK    4  A    between atoms: C8_8  and  O10_10 
ROOT
HETATM    1  C5  UNL     1     -32.861  14.899  -3.673  1.00 20.00     0.040 C 
HETATM    2  C8  UNL     1     -34.208  14.881  -2.959  1.00 20.00     0.120 C 
ENDROOT
BRANCH   2   3
HETATM    3  C7  UNL     1     -34.721  16.287  -2.581  1.00 20.00     0.006 C 
HETATM    4  C3  UNL     1     -33.977  17.401  -3.320  1.00 20.00     0.012 C 
HETATM    5  C4  UNL     1     -34.610  16.518  -1.067  1.00 20.00     0.012 C 
ENDBRANCH   2   3
BRANCH   2   6
HETATM    6  O10 UNL     1     -35.159  14.269  -3.833  1.00 20.00    -0.383 OA
BRANCH   6   7
HETATM    7  C6  UNL     1     -34.522  13.685  -4.957  1.00 20.00     0.202 C 
BRANCH   7   8
HETATM    8  C2  UNL     1     -35.178  14.199  -6.220  1.00 20.00     0.169 A 
HETATM    9  C1  UNL     1     -34.427  15.066  -7.191  1.00 20.00     0.202 A 
HETATM   10  O9  UNL     1     -35.369  15.617  -6.258  1.00 20.00    -0.379 OA
ENDBRANCH   7   8
ENDBRANCH   6   7
ENDBRANCH   2   6
TORSDOF 4
ENDMDL
MODEL 6
REMARK VINA RESULT:      -3.5     10.680     12.317
REMARK  4 active torsions:
REMARK  status: ('A' for Active; 'I' for Inactive)
REMARK    1  A    between atoms: C2_2  and  C6_6 
REMARK    2  A    between atoms: C6_6  and  O10_10 
REMARK    3  A    between atoms: C7_7  and  C8_8 
REMARK    4  A    between atoms: C8_8  and  O10_10 
ROOT
HETATM    1  C5  UNL     1     -34.538  15.934  -2.360  1.00 20.00     0.040 C 
HETATM    2  C8  UNL     1     -34.349  16.080  -3.866  1.00 20.00     0.120 C 
ENDROOT
BRANCH   2   3
HETATM    3  C7  UNL     1     -33.944  14.764  -4.564  1.00 20.00     0.006 C 
HETATM    4  C3  UNL     1     -34.525  14.646  -5.974  1.00 20.00     0.012 C 
HETATM    5  C4  UNL     1     -34.378  13.550  -3.732  1.00 20.00     0.012 C 
ENDBRANCH   2   3
BRANCH   2   6
HETATM    6  O10 UNL     1     -35.586  16.529  -4.423  1.00 20.00    -0.383 OA
BRANCH   6   7
HETATM    7  C6  UNL     1     -36.658  16.335  -3.514  1.00 20.00     0.202 C 
BRANCH   7   8
HETATM    8  C2  UNL     1     -37.744  15.531  -4.196  1.00 20.00     0.169 A 
HETATM    9  C1  UNL     1     -39.007  15.157  -3.473  1.00 20.00     0.202 A 
HETATM   10  O9  UNL     1     -37.937  14.217  -3.663  1.00 20.00    -0.379 OA
ENDBRANCH   7   8
ENDBRANCH   6   7
ENDBRANCH   2   6
TORSDOF 4
ENDMDL
MODEL 7
REMARK VINA RESULT:      -3.5     11.039     12.657
REMARK  4 active torsions:
REMARK  status: ('A' for Active; 'I' for Inactive)
REMARK    1  A    between atoms: C2_2  and  C6_6 
REMARK    2  A    between atoms: C6_6  and  O10_10 
REMARK    3  A    between atoms: C7_7  and  C8_8 
REMARK    4  A    between atoms: C8_8  and  O10_10 
ROOT
HETATM    1  C5  UNL     1     -35.148  17.317  -4.369  1.00 20.00     0.040 C 
HETATM    2  C8  UNL     1     -33.758  16.746  -4.111  1.00 20.00     0.120 C 
ENDROOT
BRANCH   2   3
HETATM    3  C7  UNL     1     -33.712  15.750  -2.933  1.00 20.00     0.006 C 
HETATM    4  C3  UNL     1     -34.179  14.349  -3.332  1.00 20.00     0.012 C 
HETATM    5  C4  UNL     1     -34.563  16.255  -1.759  1.00 20.00     0.012 C 
ENDBRANCH   2   3
BRANCH   2   6
HETATM    6  O10 UNL     1     -33.335  16.069  -5.296  1.00 20.00    -0.383 OA
BRANCH   6   7
HETATM    7  C6  UNL     1     -34.221  16.320  -6.375  1.00 20.00     0.202 C 
BRANCH   7   8
HETATM    8  C2  UNL     1     -34.361  15.060  -7.203  1.00 20.00     0.169 A 
HETATM    9  C1  UNL     1     -35.650  14.724  -7.898  1.00 20.00     0.202 A 
HETATM   10  O9  UNL     1     -35.268  14.093  -6.666  1.00 20.00    -0.379 OA
ENDBRANCH   7   8
ENDBRANCH   6   7
ENDBRANCH   2   6
TORSDOF 4
ENDMDL
MODEL 8
REMARK VINA RESULT:      -3.5     11.117     12.090
REMARK  4 active torsions:
REMARK  status: ('A' for Active; 'I' for Inactive)
REMARK    1  A    between atoms: C2_2  and  C6_6 
REMARK    2  A    between atoms: C6_6  and  O10_10 
REMARK    3  A    between atoms: C7_7  and  C8_8 
REMARK    4  A    between atoms: C8_8  and  O10_10 
ROOT
HETATM    1  C5  UNL     1     -33.369  16.259  -4.336  1.00 20.00     0.040 C 
HETATM    2  C8  UNL     1     -33.766  15.752  -2.954  1.00 20.00     0.120 C 
ENDROOT
BRANCH   2   3
HETATM    3  C7  UNL     1     -33.683  16.832  -1.856  1.00 20.00     0.006 C 
HETATM    4  C3  UNL     1     -34.752  16.654  -0.776  1.00 20.00     0.012 C 
HETATM    5  C4  UNL     1     -33.803  18.237  -2.463  1.00 20.00     0.012 C 
ENDBRANCH   2   3
BRANCH   2   6
HETATM    6  O10 UNL     1     -35.114  15.282  -3.030  1.00 20.00    -0.383 OA
BRANCH   6   7
HETATM    7  C6  UNL     1     -35.759  15.761  -4.199  1.00 20.00     0.202 C 
BRANCH   7   8
HETATM    8  C2  UNL     1     -36.777  14.737  -4.655  1.00 20.00     0.169 A 
HETATM    9  C1  UNL     1     -38.252  15.008  -4.559  1.00 20.00     0.202 A 
HETATM   10  O9  UNL     1     -37.572  14.177  -3.605  1.00 20.00    -0.379 OA
ENDBRANCH   7   8
ENDBRANCH   6   7
ENDBRANCH   2   6
TORSDOF 4
ENDMDL
MODEL 9
REMARK VINA RESULT:      -3.5     10.561     12.137
REMARK  4 active torsions:
REMARK  status: ('A' for Active; 'I' for Inactive)
REMARK    1  A    between atoms: C2_2  and  C6_6 
REMARK    2  A    between atoms: C6_6  and  O10_10 
REMARK    3  A    between atoms: C7_7  and  C8_8 
REMARK    4  A    between atoms: C8_8  and  O10_10 
ROOT
HETATM    1  C5  UNL     1     -36.574  15.575  -4.310  1.00 20.00     0.040 C 
HETATM    2  C8  UNL     1     -35.564  14.854  -3.424  1.00 20.00     0.120 C 
ENDROOT
BRANCH   2   3
HETATM    3  C7  UNL     1     -34.820  13.710  -4.144  1.00 20.00     0.006 C 
HETATM    4  C3  UNL     1     -33.354  13.605  -3.720  1.00 20.00     0.012 C 
HETATM    5  C4  UNL     1     -34.897  13.884  -5.667  1.00 20.00     0.012 C 
ENDBRANCH   2   3
BRANCH   2   6
HETATM    6  O10 UNL     1     -34.603  15.815  -2.982  1.00 20.00    -0.383 OA
BRANCH   6   7
HETATM    7  C6  UNL     1     -34.897  17.106  -3.491  1.00 20.00     0.202 C 
BRANCH   7   8
HETATM    8  C2  UNL     1     -33.650  17.681  -4.128  1.00 20.00     0.169 A 
HETATM    9  C1  UNL     1     -33.589  17.965  -5.602  1.00 20.00     0.202 A 
HETATM   10  O9  UNL     1     -32.980  16.797  -5.031  1.00 20.00    -0.379 OA
ENDBRANCH   7   8
ENDBRANCH   6   7
ENDBRANCH   2   6
TORSDOF 4
ENDMDL
