MODEL 1
REMARK VINA RESULT:      -4.2      0.000      0.000
REMARK  3 active torsions:
REMARK  status: ('A' for Active; 'I' for Inactive)
REMARK    1  A    between atoms: C1_1  and  C6_6 
REMARK    2  A    between atoms: C1_1  and  O8_8 
REMARK    3  A    between atoms: C4_4  and  C6_6 
ROOT
HETATM    1  C1  UNL     1     -34.790   4.931   5.119  1.00 20.00     0.132 C 
HETATM    2  N7  UNL     1     -35.238   3.758   4.820  1.00 20.00    -0.282 NA
HETATM    3  H19 UNL     1     -35.532   3.729   3.838  1.00 20.00     0.189 HD
ENDROOT
BRANCH   1   4
HETATM    4  C6  UNL     1     -34.734   6.071   4.143  1.00 20.00     0.090 C 
BRANCH   4   5
HETATM    5  C4  UNL     1     -33.680   5.869   3.102  1.00 20.00    -0.007 A 
HETATM    6  C2  UNL     1     -32.770   7.003   2.716  1.00 20.00     0.005 A 
HETATM    7  C3  UNL     1     -32.228   5.835   3.491  1.00 20.00     0.005 A 
ENDBRANCH   4   5
ENDBRANCH   1   4
BRANCH   1   8
HETATM    8  O8  UNL     1     -34.340   5.288   6.351  1.00 20.00    -0.343 OA
HETATM    9  C5  UNL     1     -33.965   6.659   6.539  1.00 20.00     0.211 C 
ENDBRANCH   1   8
TORSDOF 3
ENDMDL
MODEL 2
REMARK VINA RESULT:      -4.1      2.103      3.601
REMARK  3 active torsions:
REMARK  status: ('A' for Active; 'I' for Inactive)
REMARK    1  A    between atoms: C1_1  and  C6_6 
REMARK    2  A    between atoms: C1_1  and  O8_8 
REMARK    3  A    between atoms: C4_4  and  C6_6 
ROOT
HETATM    1  C1  UNL     1     -33.299   6.053   3.327  1.00 20.00     0.132 C 
HETATM    2  N7  UNL     1     -34.000   5.431   2.439  1.00 20.00    -0.282 NA
HETATM    3  H19 UNL     1     -34.856   5.057   2.860  1.00 20.00     0.189 HD
ENDROOT
BRANCH   1   4
HETATM    4  C6  UNL     1     -33.707   6.178   4.767  1.00 20.00     0.090 C 
BRANCH   4   5
HETATM    5  C4  UNL     1     -34.887   5.321   5.093  1.00 20.00    -0.007 A 
HETATM    6  C2  UNL     1     -34.689   3.910   5.575  1.00 20.00     0.005 A 
HETATM    7  C3  UNL     1     -35.191   4.964   6.522  1.00 20.00     0.005 A 
ENDBRANCH   4   5
ENDBRANCH   1   4
BRANCH   1   8
HETATM    8  O8  UNL     1     -32.102   6.646   3.081  1.00 20.00    -0.343 OA
HETATM    9  C5  UNL     1     -32.122   7.901   2.389  1.00 20.00     0.211 C 
ENDBRANCH   1   8
TORSDOF 3
ENDMDL
MODEL 3
REMARK VINA RESULT:      -4.0     12.095     12.614
REMARK  3 active torsions:
REMARK  status: ('A' for Active; 'I' for Inactive)
REMARK    1  A    between atoms: C1_1  and  C6_6 
REMARK    2  A    between atoms: C1_1  and  O8_8 
REMARK    3  A    between atoms: C4_4  and  C6_6 
ROOT
HETATM    1  C1  UNL     1     -33.252  14.369  -3.643  1.00 20.00     0.132 C 
HETATM    2  N7  UNL     1     -32.041  14.808  -3.734  1.00 20.00    -0.282 NA
HETATM    3  H19 UNL     1     -31.973  15.750  -3.335  1.00 20.00     0.189 HD
ENDROOT
BRANCH   1   4
HETATM    4  C6  UNL     1     -34.377  15.161  -3.042  1.00 20.00     0.090 C 
BRANCH   4   5
HETATM    5  C4  UNL     1     -33.883  16.320  -2.237  1.00 20.00    -0.007 A 
HETATM    6  C2  UNL     1     -34.724  17.559  -2.097  1.00 20.00     0.005 A 
HETATM    7  C3  UNL     1     -34.521  16.651  -0.917  1.00 20.00     0.005 A 
ENDBRANCH   4   5
ENDBRANCH   1   4
BRANCH   1   8
HETATM    8  O8  UNL     1     -33.664  13.157  -4.099  1.00 20.00    -0.343 OA
HETATM    9  C5  UNL     1     -34.796  13.138  -4.977  1.00 20.00     0.211 C 
ENDBRANCH   1   8
TORSDOF 3
ENDMDL
MODEL 4
REMARK VINA RESULT:      -4.0      1.687      2.157
REMARK  3 active torsions:
REMARK  status: ('A' for Active; 'I' for Inactive)
REMARK    1  A    between atoms: C1_1  and  C6_6 
REMARK    2  A    between atoms: C1_1  and  O8_8 
REMARK    3  A    between atoms: C4_4  and  C6_6 
ROOT
HETATM    1  C1  UNL     1     -34.175   6.245   5.946  1.00 20.00     0.132 C 
HETATM    2  N7  UNL     1     -33.609   7.084   6.748  1.00 20.00    -0.282 NA
HETATM    3  H19 UNL     1     -33.099   7.797   6.215  1.00 20.00     0.189 HD
ENDROOT
BRANCH   1   4
HETATM    4  C6  UNL     1     -34.067   6.326   4.451  1.00 20.00     0.090 C 
BRANCH   4   5
HETATM    5  C4  UNL     1     -32.673   6.628   4.002  1.00 20.00    -0.007 A 
HETATM    6  C2  UNL     1     -32.095   5.928   2.803  1.00 20.00     0.005 A 
HETATM    7  C3  UNL     1     -32.437   7.390   2.728  1.00 20.00     0.005 A 
ENDBRANCH   4   5
ENDBRANCH   1   4
BRANCH   1   8
HETATM    8  O8  UNL     1     -34.910   5.177   6.350  1.00 20.00    -0.343 OA
HETATM    9  C5  UNL     1     -35.038   4.084   5.430  1.00 20.00     0.211 C 
ENDBRANCH   1   8
TORSDOF 3
ENDMDL
MODEL 5
REMARK VINA RESULT:      -4.0      3.020      4.157
REMARK  3 active torsions:
REMARK  status: ('A' for Active; 'I' for Inactive)
REMARK    1  A    between atoms: C1_1  and  C6_6 
REMARK    2  A    between atoms: C1_1  and  O8_8 
REMARK    3  A    between atoms: C4_4  and  C6_6 
ROOT
HETATM    1  C1  UNL     1     -32.124   7.254   2.991  1.00 20.00     0.132 C 
HETATM    2  N7  UNL     1     -31.359   7.742   3.909  1.00 20.00    -0.282 NA
HETATM    3  H19 UNL     1     -31.403   7.164   4.755  1.00 20.00     0.189 HD
ENDROOT
BRANCH   1   4
HETATM    4  C6  UNL     1     -32.957   6.019   3.178  1.00 20.00     0.090 C 
BRANCH   4   5
HETATM    5  C4  UNL     1     -34.160   6.273   4.027  1.00 20.00    -0.007 A 
HETATM    6  C2  UNL     1     -35.096   5.148   4.372  1.00 20.00     0.005 A 
HETATM    7  C3  UNL     1     -34.218   5.748   5.435  1.00 20.00     0.005 A 
ENDBRANCH   4   5
ENDBRANCH   1   4
BRANCH   1   8
HETATM    8  O8  UNL     1     -32.293   7.805   1.761  1.00 20.00    -0.343 OA
HETATM    9  C5  UNL     1     -32.271   9.236   1.676  1.00 20.00     0.211 C 
ENDBRANCH   1   8
TORSDOF 3
ENDMDL
MODEL 6
REMARK VINA RESULT:      -3.9     12.038     12.507
REMARK  3 active torsions:
REMARK  status: ('A' for Active; 'I' for Inactive)
REMARK    1  A    between atoms: C1_1  and  C6_6 
REMARK    2  A    between atoms: C1_1  and  O8_8 
REMARK    3  A    between atoms: C4_4  and  C6_6 
ROOT
HETATM    1  C1  UNL     1     -35.832  13.924  -3.990  1.00 20.00     0.132 C 
HETATM    2  N7  UNL     1     -35.124  12.862  -4.187  1.00 20.00    -0.282 NA
HETATM    3  H19 UNL     1     -34.131  13.105  -4.258  1.00 20.00     0.189 HD
ENDROOT
BRANCH   1   4
HETATM    4  C6  UNL     1     -35.247  15.304  -3.896  1.00 20.00     0.090 C 
BRANCH   4   5
HETATM    5  C4  UNL     1     -34.338  15.451  -2.719  1.00 20.00    -0.007 A 
HETATM    6  C2  UNL     1     -33.692  16.776  -2.421  1.00 20.00     0.005 A 
HETATM    7  C3  UNL     1     -34.773  16.248  -1.521  1.00 20.00     0.005 A 
ENDBRANCH   4   5
ENDBRANCH   1   4
BRANCH   1   8
HETATM    8  O8  UNL     1     -37.185  13.931  -3.869  1.00 20.00    -0.343 OA
HETATM    9  C5  UNL     1     -37.834  15.209  -3.852  1.00 20.00     0.211 C 
ENDBRANCH   1   8
TORSDOF 3
ENDMDL
MODEL 7
REMARK VINA RESULT:      -3.9     12.276     12.861
REMARK  3 active torsions:
REMARK  status: ('A' for Active; 'I' for Inactive)
REMARK    1  A    between atoms: C1_1  and  C6_6 
REMARK    2  A    between atoms: C1_1  and  O8_8 
REMARK    3  A    between atoms: C4_4  and  C6_6 
ROOT
HETATM    1  C1  UNL     1     -35.068  13.910  -4.379  1.00 20.00     0.132 C 
HETATM    2  N7  UNL     1     -35.329  12.663  -4.165  1.00 20.00    -0.282 NA
HETATM    3  H19 UNL     1     -35.850  12.555  -3.288  1.00 20.00     0.189 HD
ENDROOT
BRANCH   1   4
HETATM    4  C6  UNL     1     -35.475  15.014  -3.447  1.00 20.00     0.090 C 
BRANCH   4   5
HETATM    5  C4  UNL     1     -34.332  15.498  -2.614  1.00 20.00    -0.007 A 
HETATM    6  C2  UNL     1     -33.937  16.949  -2.640  1.00 20.00     0.005 A 
HETATM    7  C3  UNL     1     -34.585  16.368  -1.415  1.00 20.00     0.005 A 
ENDBRANCH   4   5
ENDBRANCH   1   4
BRANCH   1   8
HETATM    8  O8  UNL     1     -34.376  14.373  -5.452  1.00 20.00    -0.343 OA
HETATM    9  C5  UNL     1     -35.070  14.431  -6.705  1.00 20.00     0.211 C 
ENDBRANCH   1   8
TORSDOF 3
ENDMDL
MODEL 8
REMARK VINA RESULT:      -3.8      1.622      1.925
REMARK  3 active torsions:
REMARK  status: ('A' for Active; 'I' for Inactive)
REMARK    1  A    between atoms: C1_1  and  C6_6 
REMARK    2  A    between atoms: C1_1  and  O8_8 
REMARK    3  A    between atoms: C4_4  and  C6_6 
ROOT
HETATM    1  C1  UNL     1     -34.568   5.455   3.738  1.00 20.00     0.132 C 
HETATM    2  N7  UNL     1     -34.575   5.057   2.509  1.00 20.00    -0.282 NA
HETATM    3  H19 UNL     1     -33.839   5.534   1.977  1.00 20.00     0.189 HD
ENDROOT
BRANCH   1   4
HETATM    4  C6  UNL     1     -33.610   6.480   4.271  1.00 20.00     0.090 C 
BRANCH   4   5
HETATM    5  C4  UNL     1     -32.377   6.590   3.433  1.00 20.00    -0.007 A 
HETATM    6  C2  UNL     1     -32.190   7.762   2.510  1.00 20.00     0.005 A 
HETATM    7  C3  UNL     1     -31.341   7.634   3.743  1.00 20.00     0.005 A 
ENDBRANCH   4   5
ENDBRANCH   1   4
BRANCH   1   8
HETATM    8  O8  UNL     1     -35.434   5.019   4.688  1.00 20.00    -0.343 OA
HETATM    9  C5  UNL     1     -34.885   4.277   5.785  1.00 20.00     0.211 C 
ENDBRANCH   1   8
TORSDOF 3
ENDMDL
MODEL 9
REMARK VINA RESULT:      -3.7     12.605     13.141
REMARK  3 active torsions:
REMARK  status: ('A' for Active; 'I' for Inactive)
REMARK    1  A    between atoms: C1_1  and  C6_6 
REMARK    2  A    between atoms: C1_1  and  O8_8 
REMARK    3  A    between atoms: C4_4  and  C6_6 
ROOT
HETATM    1  C1  UNL     1     -33.666  15.277  -4.362  1.00 20.00     0.132 C 
HETATM    2  N7  UNL     1     -32.668  15.961  -4.811  1.00 20.00    -0.282 NA
HETATM    3  H19 UNL     1     -32.145  16.379  -4.034  1.00 20.00     0.189 HD
ENDROOT
BRANCH   1   4
HETATM    4  C6  UNL     1     -33.991  15.145  -2.903  1.00 20.00     0.090 C 
BRANCH   4   5
HETATM    5  C4  UNL     1     -34.530  16.416  -2.328  1.00 20.00    -0.007 A 
HETATM    6  C2  UNL     1     -34.698  16.564  -0.841  1.00 20.00     0.005 A 
HETATM    7  C3  UNL     1     -33.629  17.340  -1.558  1.00 20.00     0.005 A 
ENDBRANCH   4   5
ENDBRANCH   1   4
BRANCH   1   8
HETATM    8  O8  UNL     1     -34.557  14.618  -5.147  1.00 20.00    -0.343 OA
HETATM    9  C5  UNL     1     -34.759  13.224  -4.881  1.00 20.00     0.211 C 
ENDBRANCH   1   8
TORSDOF 3
ENDMDL
