MODEL 1
REMARK VINA RESULT:      -4.6      0.000      0.000
REMARK  4 active torsions:
REMARK  status: ('A' for Active; 'I' for Inactive)
REMARK    1  A    between atoms: C1_1  and  C4_4 
REMARK    2  A    between atoms: C1_1  and  C9_9 
REMARK    3  A    between atoms: C9_9  and  C10_10 
REMARK    4  A    between atoms: C10_10  and  C11_11 
ROOT
HETATM    1  C1  UNL     1     -34.642  13.873  -4.821  1.00 20.00     0.135 C 
HETATM    2  O12 UNL     1     -34.785  12.662  -4.934  1.00 20.00    -0.297 OA
ENDROOT
BRANCH   1   3
HETATM    3  C4  UNL     1     -35.180  14.788  -5.870  1.00 20.00     0.017 A 
HETATM    4  C2  UNL     1     -34.683  14.568  -7.279  1.00 20.00     0.018 A 
HETATM    5  C3  UNL     1     -34.198  15.750  -6.496  1.00 20.00     0.018 A 
HETATM    6  C5  UNL     1     -36.599  15.255  -5.697  1.00 20.00     0.023 C 
ENDBRANCH   1   3
BRANCH   1   7
HETATM    7  C9  UNL     1     -33.942  14.556  -3.663  1.00 20.00     0.080 C 
BRANCH   7   8
HETATM    8  C10 UNL     1     -34.934  15.044  -2.604  1.00 20.00     0.015 C 
BRANCH   8   9
HETATM    9  C11 UNL     1     -34.870  16.559  -2.271  1.00 20.00    -0.051 C 
HETATM   10  C6  UNL     1     -34.565  16.708  -0.768  1.00 20.00     0.014 C 
HETATM   11  C7  UNL     1     -36.212  17.249  -2.568  1.00 20.00     0.014 C 
HETATM   12  C8  UNL     1     -33.755  17.257  -3.067  1.00 20.00     0.014 C 
ENDBRANCH   8   9
ENDBRANCH   7   8
ENDBRANCH   1   7
TORSDOF 4
ENDMDL
MODEL 2
REMARK VINA RESULT:      -4.6      0.035      1.253
REMARK  4 active torsions:
REMARK  status: ('A' for Active; 'I' for Inactive)
REMARK    1  A    between atoms: C1_1  and  C4_4 
REMARK    2  A    between atoms: C1_1  and  C9_9 
REMARK    3  A    between atoms: C9_9  and  C10_10 
REMARK    4  A    between atoms: C10_10  and  C11_11 
ROOT
HETATM    1  C1  UNL     1     -34.631  13.876  -4.830  1.00 20.00     0.135 C 
HETATM    2  O12 UNL     1     -34.769  12.663  -4.925  1.00 20.00    -0.297 OA
ENDROOT
BRANCH   1   3
HETATM    3  C4  UNL     1     -35.182  14.774  -5.887  1.00 20.00     0.017 A 
HETATM    4  C2  UNL     1     -34.694  14.537  -7.297  1.00 20.00     0.018 A 
HETATM    5  C3  UNL     1     -34.209  15.732  -6.534  1.00 20.00     0.018 A 
HETATM    6  C5  UNL     1     -36.601  15.237  -5.710  1.00 20.00     0.023 C 
ENDBRANCH   1   3
BRANCH   1   7
HETATM    7  C9  UNL     1     -33.927  14.579  -3.687  1.00 20.00     0.080 C 
BRANCH   7   8
HETATM    8  C10 UNL     1     -34.907  15.028  -2.600  1.00 20.00     0.015 C 
BRANCH   8   9
HETATM    9  C11 UNL     1     -34.867  16.537  -2.241  1.00 20.00    -0.051 C 
HETATM   10  C6  UNL     1     -33.761  17.202  -3.082  1.00 20.00     0.014 C 
HETATM   11  C7  UNL     1     -34.540  16.745  -0.753  1.00 20.00     0.014 C 
HETATM   12  C8  UNL     1     -36.205  17.222  -2.565  1.00 20.00     0.014 C 
ENDBRANCH   8   9
ENDBRANCH   7   8
ENDBRANCH   1   7
TORSDOF 4
ENDMDL
MODEL 3
REMARK VINA RESULT:      -4.4      1.783      2.884
REMARK  4 active torsions:
REMARK  status: ('A' for Active; 'I' for Inactive)
REMARK    1  A    between atoms: C1_1  and  C4_4 
REMARK    2  A    between atoms: C1_1  and  C9_9 
REMARK    3  A    between atoms: C9_9  and  C10_10 
REMARK    4  A    between atoms: C10_10  and  C11_11 
ROOT
HETATM    1  C1  UNL     1     -34.256  16.022  -3.967  1.00 20.00     0.135 C 
HETATM    2  O12 UNL     1     -33.336  16.779  -4.254  1.00 20.00    -0.297 OA
ENDROOT
BRANCH   1   3
HETATM    3  C4  UNL     1     -34.462  14.769  -4.751  1.00 20.00     0.017 A 
HETATM    4  C2  UNL     1     -35.320  13.704  -4.110  1.00 20.00     0.018 A 
HETATM    5  C3  UNL     1     -33.835  13.512  -4.193  1.00 20.00     0.018 A 
HETATM    6  C5  UNL     1     -34.528  14.910  -6.246  1.00 20.00     0.023 C 
ENDBRANCH   1   3
BRANCH   1   7
HETATM    7  C9  UNL     1     -35.242  16.250  -2.840  1.00 20.00     0.080 C 
BRANCH   7   8
HETATM    8  C10 UNL     1     -34.557  16.243  -1.470  1.00 20.00     0.015 C 
BRANCH   8   9
HETATM    9  C11 UNL     1     -34.589  17.587  -0.696  1.00 20.00    -0.051 C 
HETATM   10  C6  UNL     1     -35.525  18.553  -1.448  1.00 20.00     0.014 C 
HETATM   11  C7  UNL     1     -33.190  18.220  -0.624  1.00 20.00     0.014 C 
HETATM   12  C8  UNL     1     -35.131  17.394   0.730  1.00 20.00     0.014 C 
ENDBRANCH   8   9
ENDBRANCH   7   8
ENDBRANCH   1   7
TORSDOF 4
ENDMDL
MODEL 4
REMARK VINA RESULT:      -4.4      1.735      2.640
REMARK  4 active torsions:
REMARK  status: ('A' for Active; 'I' for Inactive)
REMARK    1  A    between atoms: C1_1  and  C4_4 
REMARK    2  A    between atoms: C1_1  and  C9_9 
REMARK    3  A    between atoms: C9_9  and  C10_10 
REMARK    4  A    between atoms: C10_10  and  C11_11 
ROOT
HETATM    1  C1  UNL     1     -34.177  15.877  -4.014  1.00 20.00     0.135 C 
HETATM    2  O12 UNL     1     -33.166  16.536  -4.227  1.00 20.00    -0.297 OA
ENDROOT
BRANCH   1   3
HETATM    3  C4  UNL     1     -34.482  14.686  -4.861  1.00 20.00     0.017 A 
HETATM    4  C2  UNL     1     -35.438  13.670  -4.282  1.00 20.00     0.018 A 
HETATM    5  C3  UNL     1     -33.975  13.353  -4.362  1.00 20.00     0.018 A 
HETATM    6  C5  UNL     1     -34.516  14.905  -6.348  1.00 20.00     0.023 C 
ENDBRANCH   1   3
BRANCH   1   7
HETATM    7  C9  UNL     1     -35.185  16.169  -2.921  1.00 20.00     0.080 C 
BRANCH   7   8
HETATM    8  C10 UNL     1     -34.534  16.201  -1.536  1.00 20.00     0.015 C 
BRANCH   8   9
HETATM    9  C11 UNL     1     -34.597  17.563  -0.795  1.00 20.00    -0.051 C 
HETATM   10  C6  UNL     1     -33.177  18.162  -0.769  1.00 20.00     0.014 C 
HETATM   11  C7  UNL     1     -35.078  17.385   0.654  1.00 20.00     0.014 C 
HETATM   12  C8  UNL     1     -35.529  18.548  -1.520  1.00 20.00     0.014 C 
ENDBRANCH   8   9
ENDBRANCH   7   8
ENDBRANCH   1   7
TORSDOF 4
ENDMDL
MODEL 5
REMARK VINA RESULT:      -4.3      1.689      2.455
REMARK  4 active torsions:
REMARK  status: ('A' for Active; 'I' for Inactive)
REMARK    1  A    between atoms: C1_1  and  C4_4 
REMARK    2  A    between atoms: C1_1  and  C9_9 
REMARK    3  A    between atoms: C9_9  and  C10_10 
REMARK    4  A    between atoms: C10_10  and  C11_11 
ROOT
HETATM    1  C1  UNL     1     -35.710  15.146  -3.513  1.00 20.00     0.135 C 
HETATM    2  O12 UNL     1     -36.710  14.443  -3.435  1.00 20.00    -0.297 OA
ENDROOT
BRANCH   1   3
HETATM    3  C4  UNL     1     -34.553  14.705  -4.346  1.00 20.00     0.017 A 
HETATM    4  C2  UNL     1     -34.588  13.284  -4.857  1.00 20.00     0.018 A 
HETATM    5  C3  UNL     1     -33.650  13.652  -3.747  1.00 20.00     0.018 A 
HETATM    6  C5  UNL     1     -33.919  15.745  -5.228  1.00 20.00     0.023 C 
ENDBRANCH   1   3
BRANCH   1   7
HETATM    7  C9  UNL     1     -35.534  16.479  -2.815  1.00 20.00     0.080 C 
BRANCH   7   8
HETATM    8  C10 UNL     1     -34.764  16.339  -1.499  1.00 20.00     0.015 C 
BRANCH   8   9
HETATM    9  C11 UNL     1     -34.601  17.642  -0.673  1.00 20.00    -0.051 C 
HETATM   10  C6  UNL     1     -35.114  17.373   0.755  1.00 20.00     0.014 C 
HETATM   11  C7  UNL     1     -35.424  18.791  -1.279  1.00 20.00     0.014 C 
HETATM   12  C8  UNL     1     -33.125  18.066  -0.589  1.00 20.00     0.014 C 
ENDBRANCH   8   9
ENDBRANCH   7   8
ENDBRANCH   1   7
TORSDOF 4
ENDMDL
MODEL 6
REMARK VINA RESULT:      -4.3      1.430      3.865
REMARK  4 active torsions:
REMARK  status: ('A' for Active; 'I' for Inactive)
REMARK    1  A    between atoms: C1_1  and  C4_4 
REMARK    2  A    between atoms: C1_1  and  C9_9 
REMARK    3  A    between atoms: C9_9  and  C10_10 
REMARK    4  A    between atoms: C10_10  and  C11_11 
ROOT
HETATM    1  C1  UNL     1     -34.603  13.820  -4.836  1.00 20.00     0.135 C 
HETATM    2  O12 UNL     1     -34.824  12.682  -4.442  1.00 20.00    -0.297 OA
ENDROOT
BRANCH   1   3
HETATM    3  C4  UNL     1     -34.058  14.842  -3.894  1.00 20.00     0.017 A 
HETATM    4  C2  UNL     1     -33.078  15.837  -4.468  1.00 20.00     0.018 A 
HETATM    5  C3  UNL     1     -32.586  14.744  -3.568  1.00 20.00     0.018 A 
HETATM    6  C5  UNL     1     -34.981  15.321  -2.808  1.00 20.00     0.023 C 
ENDBRANCH   1   3
BRANCH   1   7
HETATM    7  C9  UNL     1     -34.839  14.306  -6.252  1.00 20.00     0.080 C 
BRANCH   7   8
HETATM    8  C10 UNL     1     -36.200  14.992  -6.402  1.00 20.00     0.015 C 
BRANCH   8   9
HETATM    9  C11 UNL     1     -36.159  16.471  -6.870  1.00 20.00    -0.051 C 
HETATM   10  C6  UNL     1     -34.825  16.706  -7.603  1.00 20.00     0.014 C 
HETATM   11  C7  UNL     1     -36.236  17.435  -5.675  1.00 20.00     0.014 C 
HETATM   12  C8  UNL     1     -37.311  16.778  -7.842  1.00 20.00     0.014 C 
ENDBRANCH   8   9
ENDBRANCH   7   8
ENDBRANCH   1   7
TORSDOF 4
ENDMDL
MODEL 7
REMARK VINA RESULT:      -4.3      2.186      5.326
REMARK  4 active torsions:
REMARK  status: ('A' for Active; 'I' for Inactive)
REMARK    1  A    between atoms: C1_1  and  C4_4 
REMARK    2  A    between atoms: C1_1  and  C9_9 
REMARK    3  A    between atoms: C9_9  and  C10_10 
REMARK    4  A    between atoms: C10_10  and  C11_11 
ROOT
HETATM    1  C1  UNL     1     -33.985  17.382  -1.905  1.00 20.00     0.135 C 
HETATM    2  O12 UNL     1     -33.665  18.018  -2.901  1.00 20.00    -0.297 OA
ENDROOT
BRANCH   1   3
HETATM    3  C4  UNL     1     -33.970  18.038  -0.564  1.00 20.00     0.017 A 
HETATM    4  C2  UNL     1     -34.864  17.437   0.494  1.00 20.00     0.018 A 
HETATM    5  C3  UNL     1     -35.238  18.742  -0.142  1.00 20.00     0.018 A 
HETATM    6  C5  UNL     1     -32.662  18.631  -0.117  1.00 20.00     0.023 C 
ENDBRANCH   1   3
BRANCH   1   7
HETATM    7  C9  UNL     1     -34.418  15.930  -1.909  1.00 20.00     0.080 C 
BRANCH   7   8
HETATM    8  C10 UNL     1     -35.145  15.553  -3.203  1.00 20.00     0.015 C 
BRANCH   8   9
HETATM    9  C11 UNL     1     -34.362  14.622  -4.167  1.00 20.00    -0.051 C 
HETATM   10  C6  UNL     1     -34.244  15.331  -5.530  1.00 20.00     0.014 C 
HETATM   11  C7  UNL     1     -35.100  13.289  -4.372  1.00 20.00     0.014 C 
HETATM   12  C8  UNL     1     -32.946  14.340  -3.639  1.00 20.00     0.014 C 
ENDBRANCH   8   9
ENDBRANCH   7   8
ENDBRANCH   1   7
TORSDOF 4
ENDMDL
MODEL 8
REMARK VINA RESULT:      -4.2      1.973      4.758
REMARK  4 active torsions:
REMARK  status: ('A' for Active; 'I' for Inactive)
REMARK    1  A    between atoms: C1_1  and  C4_4 
REMARK    2  A    between atoms: C1_1  and  C9_9 
REMARK    3  A    between atoms: C9_9  and  C10_10 
REMARK    4  A    between atoms: C10_10  and  C11_11 
ROOT
HETATM    1  C1  UNL     1     -33.653  17.436  -3.618  1.00 20.00     0.135 C 
HETATM    2  O12 UNL     1     -33.569  18.596  -4.002  1.00 20.00    -0.297 OA
ENDROOT
BRANCH   1   3
HETATM    3  C4  UNL     1     -34.230  17.136  -2.275  1.00 20.00     0.017 A 
HETATM    4  C2  UNL     1     -34.888  15.787  -2.107  1.00 20.00     0.018 A 
HETATM    5  C3  UNL     1     -35.734  17.021  -2.195  1.00 20.00     0.018 A 
HETATM    6  C5  UNL     1     -33.512  17.714  -1.087  1.00 20.00     0.023 C 
ENDBRANCH   1   3
BRANCH   1   7
HETATM    7  C9  UNL     1     -33.211  16.227  -4.417  1.00 20.00     0.080 C 
BRANCH   7   8
HETATM    8  C10 UNL     1     -33.867  16.184  -5.800  1.00 20.00     0.015 C 
BRANCH   8   9
HETATM    9  C11 UNL     1     -34.905  15.052  -6.017  1.00 20.00    -0.051 C 
HETATM   10  C6  UNL     1     -34.917  14.691  -7.515  1.00 20.00     0.014 C 
HETATM   11  C7  UNL     1     -36.317  15.508  -5.613  1.00 20.00     0.014 C 
HETATM   12  C8  UNL     1     -34.531  13.794  -5.215  1.00 20.00     0.014 C 
ENDBRANCH   8   9
ENDBRANCH   7   8
ENDBRANCH   1   7
TORSDOF 4
ENDMDL
MODEL 9
REMARK VINA RESULT:      -4.2      1.382      2.457
REMARK  4 active torsions:
REMARK  status: ('A' for Active; 'I' for Inactive)
REMARK    1  A    between atoms: C1_1  and  C4_4 
REMARK    2  A    between atoms: C1_1  and  C9_9 
REMARK    3  A    between atoms: C9_9  and  C10_10 
REMARK    4  A    between atoms: C10_10  and  C11_11 
ROOT
HETATM    1  C1  UNL     1     -36.279  14.987  -4.238  1.00 20.00     0.135 C 
HETATM    2  O12 UNL     1     -37.134  14.183  -3.886  1.00 20.00    -0.297 OA
ENDROOT
BRANCH   1   3
HETATM    3  C4  UNL     1     -34.978  14.500  -4.783  1.00 20.00     0.017 A 
HETATM    4  C2  UNL     1     -34.715  13.016  -4.683  1.00 20.00     0.018 A 
HETATM    5  C3  UNL     1     -33.984  13.963  -3.780  1.00 20.00     0.018 A 
HETATM    6  C5  UNL     1     -34.433  15.224  -5.983  1.00 20.00     0.023 C 
ENDBRANCH   1   3
BRANCH   1   7
HETATM    7  C9  UNL     1     -36.430  16.493  -4.171  1.00 20.00     0.080 C 
BRANCH   7   8
HETATM    8  C10 UNL     1     -36.505  16.997  -2.727  1.00 20.00     0.015 C 
BRANCH   8   9
HETATM    9  C11 UNL     1     -35.172  17.514  -2.125  1.00 20.00    -0.051 C 
HETATM   10  C6  UNL     1     -35.457  18.840  -1.394  1.00 20.00     0.014 C 
HETATM   11  C7  UNL     1     -34.130  17.777  -3.225  1.00 20.00     0.014 C 
HETATM   12  C8  UNL     1     -34.595  16.512  -1.111  1.00 20.00     0.014 C 
ENDBRANCH   8   9
ENDBRANCH   7   8
ENDBRANCH   1   7
TORSDOF 4
ENDMDL
