MODEL 1
REMARK VINA RESULT:      -5.5      0.000      0.000
REMARK  5 active torsions:
REMARK  status: ('A' for Active; 'I' for Inactive)
REMARK    1  A    between atoms: C2_2  and  C8_8 
REMARK    2  A    between atoms: C2_2  and  C9_9 
REMARK    3  A    between atoms: C3_3  and  C8_8 
REMARK    4  A    between atoms: C3_3  and  C10_10 
REMARK    5  A    between atoms: C6_6  and  C10_10 
ROOT
HETATM    1  C3  UNL     1     -32.622   6.427   3.484  1.00 20.00     0.131 C 
HETATM    2  O11 UNL     1     -32.018   5.366   3.337  1.00 20.00    -0.298 OA
ENDROOT
BRANCH   1   3
HETATM    3  C8  UNL     1     -34.016   6.498   4.100  1.00 20.00     0.111 C 
BRANCH   3   4
HETATM    4  C2  UNL     1     -33.996   6.188   5.573  1.00 20.00    -0.083 C 
HETATM    5  C1  UNL     1     -33.556   7.089   6.467  1.00 20.00     0.014 C 
BRANCH   4   6
HETATM    6  C9  UNL     1     -34.481   4.825   6.013  1.00 20.00     0.029 C 
HETATM    7  C7  UNL     1     -35.205   4.074   4.905  1.00 20.00     0.010 C 
ENDBRANCH   4   6
ENDBRANCH   3   4
ENDBRANCH   1   3
BRANCH   1   8
HETATM    8  C10 UNL     1     -32.011   7.763   3.102  1.00 20.00     0.083 C 
BRANCH   8   9
HETATM    9  C6  UNL     1     -32.572   8.346   1.843  1.00 20.00    -0.008 A 
HETATM   10  C4  UNL     1     -32.426   9.816   1.559  1.00 20.00     0.005 A 
HETATM   11  C5  UNL     1     -31.651   8.812   0.750  1.00 20.00     0.005 A 
ENDBRANCH   8   9
ENDBRANCH   1   8
TORSDOF 5
ENDMDL
MODEL 2
REMARK VINA RESULT:      -5.2      0.476      1.667
REMARK  5 active torsions:
REMARK  status: ('A' for Active; 'I' for Inactive)
REMARK    1  A    between atoms: C2_2  and  C8_8 
REMARK    2  A    between atoms: C2_2  and  C9_9 
REMARK    3  A    between atoms: C3_3  and  C8_8 
REMARK    4  A    between atoms: C3_3  and  C10_10 
REMARK    5  A    between atoms: C6_6  and  C10_10 
ROOT
HETATM    1  C3  UNL     1     -32.647   6.423   3.424  1.00 20.00     0.131 C 
HETATM    2  O11 UNL     1     -32.085   5.329   3.409  1.00 20.00    -0.298 OA
ENDROOT
BRANCH   1   3
HETATM    3  C8  UNL     1     -34.078   6.601   3.922  1.00 20.00     0.111 C 
BRANCH   3   4
HETATM    4  C2  UNL     1     -34.476   5.516   4.887  1.00 20.00    -0.083 C 
HETATM    5  C1  UNL     1     -35.136   4.423   4.469  1.00 20.00     0.014 C 
BRANCH   4   6
HETATM    6  C9  UNL     1     -34.115   5.700   6.344  1.00 20.00     0.029 C 
HETATM    7  C7  UNL     1     -33.721   7.132   6.674  1.00 20.00     0.010 C 
ENDBRANCH   4   6
ENDBRANCH   3   4
ENDBRANCH   1   3
BRANCH   1   8
HETATM    8  C10 UNL     1     -31.947   7.696   2.986  1.00 20.00     0.083 C 
BRANCH   8   9
HETATM    9  C6  UNL     1     -32.592   8.368   1.815  1.00 20.00    -0.008 A 
HETATM   10  C4  UNL     1     -32.423   9.847   1.604  1.00 20.00     0.005 A 
HETATM   11  C5  UNL     1     -31.752   8.873   0.676  1.00 20.00     0.005 A 
ENDBRANCH   8   9
ENDBRANCH   1   8
TORSDOF 5
ENDMDL
MODEL 3
REMARK VINA RESULT:      -4.9      1.194      4.967
REMARK  5 active torsions:
REMARK  status: ('A' for Active; 'I' for Inactive)
REMARK    1  A    between atoms: C2_2  and  C8_8 
REMARK    2  A    between atoms: C2_2  and  C9_9 
REMARK    3  A    between atoms: C3_3  and  C8_8 
REMARK    4  A    between atoms: C3_3  and  C10_10 
REMARK    5  A    between atoms: C6_6  and  C10_10 
ROOT
HETATM    1  C3  UNL     1     -33.657   5.812   3.218  1.00 20.00     0.131 C 
HETATM    2  O11 UNL     1     -34.363   5.344   2.326  1.00 20.00    -0.298 OA
ENDROOT
BRANCH   1   3
HETATM    3  C8  UNL     1     -32.155   6.016   3.050  1.00 20.00     0.111 C 
BRANCH   3   4
HETATM    4  C2  UNL     1     -31.794   7.475   2.950  1.00 20.00    -0.083 C 
HETATM    5  C1  UNL     1     -31.294   8.141   4.004  1.00 20.00     0.014 C 
BRANCH   4   6
HETATM    6  C9  UNL     1     -32.020   8.167   1.625  1.00 20.00     0.029 C 
HETATM    7  C7  UNL     1     -32.524   9.594   1.786  1.00 20.00     0.010 C 
ENDBRANCH   4   6
ENDBRANCH   3   4
ENDBRANCH   1   3
BRANCH   1   8
HETATM    8  C10 UNL     1     -34.231   6.263   4.548  1.00 20.00     0.083 C 
BRANCH   8   9
HETATM    9  C6  UNL     1     -34.100   5.247   5.638  1.00 20.00    -0.008 A 
HETATM   10  C4  UNL     1     -35.257   4.969   6.558  1.00 20.00     0.005 A 
HETATM   11  C5  UNL     1     -34.835   3.939   5.546  1.00 20.00     0.005 A 
ENDBRANCH   8   9
ENDBRANCH   1   8
TORSDOF 5
ENDMDL
MODEL 4
REMARK VINA RESULT:      -4.7      1.063      2.142
REMARK  5 active torsions:
REMARK  status: ('A' for Active; 'I' for Inactive)
REMARK    1  A    between atoms: C2_2  and  C8_8 
REMARK    2  A    between atoms: C2_2  and  C9_9 
REMARK    3  A    between atoms: C3_3  and  C8_8 
REMARK    4  A    between atoms: C3_3  and  C10_10 
REMARK    5  A    between atoms: C6_6  and  C10_10 
ROOT
HETATM    1  C3  UNL     1     -33.658   5.806   3.005  1.00 20.00     0.131 C 
HETATM    2  O11 UNL     1     -33.993   5.118   2.042  1.00 20.00    -0.298 OA
ENDROOT
BRANCH   1   3
HETATM    3  C8  UNL     1     -34.645   6.241   4.083  1.00 20.00     0.111 C 
BRANCH   3   4
HETATM    4  C2  UNL     1     -34.694   5.264   5.228  1.00 20.00    -0.083 C 
HETATM    5  C1  UNL     1     -35.037   3.980   5.031  1.00 20.00     0.014 C 
BRANCH   4   6
HETATM    6  C9  UNL     1     -34.351   5.777   6.608  1.00 20.00     0.029 C 
HETATM    7  C7  UNL     1     -33.639   7.122   6.574  1.00 20.00     0.010 C 
ENDBRANCH   4   6
ENDBRANCH   3   4
ENDBRANCH   1   3
BRANCH   1   8
HETATM    8  C10 UNL     1     -32.221   6.244   3.222  1.00 20.00     0.083 C 
BRANCH   8   9
HETATM    9  C6  UNL     1     -31.987   7.699   2.958  1.00 20.00    -0.008 A 
HETATM   10  C4  UNL     1     -31.596   8.165   1.583  1.00 20.00     0.005 A 
HETATM   11  C5  UNL     1     -32.962   8.482   2.124  1.00 20.00     0.005 A 
ENDBRANCH   8   9
ENDBRANCH   1   8
TORSDOF 5
ENDMDL
MODEL 5
REMARK VINA RESULT:      -4.6     10.579     12.094
REMARK  5 active torsions:
REMARK  status: ('A' for Active; 'I' for Inactive)
REMARK    1  A    between atoms: C2_2  and  C8_8 
REMARK    2  A    between atoms: C2_2  and  C9_9 
REMARK    3  A    between atoms: C3_3  and  C8_8 
REMARK    4  A    between atoms: C3_3  and  C10_10 
REMARK    5  A    between atoms: C6_6  and  C10_10 
ROOT
HETATM    1  C3  UNL     1     -33.901  13.896  -3.741  1.00 20.00     0.131 C 
HETATM    2  O11 UNL     1     -32.986  13.075  -3.755  1.00 20.00    -0.298 OA
ENDROOT
BRANCH   1   3
HETATM    3  C8  UNL     1     -35.295  13.578  -4.271  1.00 20.00     0.111 C 
BRANCH   3   4
HETATM    4  C2  UNL     1     -35.677  14.472  -5.422  1.00 20.00    -0.083 C 
HETATM    5  C1  UNL     1     -36.810  15.193  -5.395  1.00 20.00     0.014 C 
BRANCH   4   6
HETATM    6  C9  UNL     1     -34.745  14.525  -6.611  1.00 20.00     0.029 C 
HETATM    7  C7  UNL     1     -34.257  15.935  -6.912  1.00 20.00     0.010 C 
ENDBRANCH   4   6
ENDBRANCH   3   4
ENDBRANCH   1   3
BRANCH   1   8
HETATM    8  C10 UNL     1     -33.728  15.286  -3.155  1.00 20.00     0.083 C 
BRANCH   8   9
HETATM    9  C6  UNL     1     -34.828  15.689  -2.224  1.00 20.00    -0.008 A 
HETATM   10  C4  UNL     1     -34.538  16.590  -1.055  1.00 20.00     0.005 A 
HETATM   11  C5  UNL     1     -35.336  17.104  -2.221  1.00 20.00     0.005 A 
ENDBRANCH   8   9
ENDBRANCH   1   8
TORSDOF 5
ENDMDL
MODEL 6
REMARK VINA RESULT:      -4.6     10.624     12.748
REMARK  5 active torsions:
REMARK  status: ('A' for Active; 'I' for Inactive)
REMARK    1  A    between atoms: C2_2  and  C8_8 
REMARK    2  A    between atoms: C2_2  and  C9_9 
REMARK    3  A    between atoms: C3_3  and  C8_8 
REMARK    4  A    between atoms: C3_3  and  C10_10 
REMARK    5  A    between atoms: C6_6  and  C10_10 
ROOT
HETATM    1  C3  UNL     1     -34.967  13.692  -4.479  1.00 20.00     0.131 C 
HETATM    2  O11 UNL     1     -34.829  12.503  -4.762  1.00 20.00    -0.298 OA
ENDROOT
BRANCH   1   3
HETATM    3  C8  UNL     1     -35.825  14.638  -5.312  1.00 20.00     0.111 C 
BRANCH   3   4
HETATM    4  C2  UNL     1     -35.167  14.987  -6.621  1.00 20.00    -0.083 C 
HETATM    5  C1  UNL     1     -35.611  14.472  -7.780  1.00 20.00     0.014 C 
BRANCH   4   6
HETATM    6  C9  UNL     1     -33.987  15.931  -6.588  1.00 20.00     0.029 C 
HETATM    7  C7  UNL     1     -34.400  17.380  -6.375  1.00 20.00     0.010 C 
ENDBRANCH   4   6
ENDBRANCH   3   4
ENDBRANCH   1   3
BRANCH   1   8
HETATM    8  C10 UNL     1     -34.326  14.307  -3.248  1.00 20.00     0.083 C 
BRANCH   8   9
HETATM    9  C6  UNL     1     -34.824  15.681  -2.930  1.00 20.00    -0.008 A 
HETATM   10  C4  UNL     1     -34.651  16.249  -1.548  1.00 20.00     0.005 A 
HETATM   11  C5  UNL     1     -33.852  16.803  -2.695  1.00 20.00     0.005 A 
ENDBRANCH   8   9
ENDBRANCH   1   8
TORSDOF 5
ENDMDL
MODEL 7
REMARK VINA RESULT:      -4.6     10.587     11.772
REMARK  5 active torsions:
REMARK  status: ('A' for Active; 'I' for Inactive)
REMARK    1  A    between atoms: C2_2  and  C8_8 
REMARK    2  A    between atoms: C2_2  and  C9_9 
REMARK    3  A    between atoms: C3_3  and  C8_8 
REMARK    4  A    between atoms: C3_3  and  C10_10 
REMARK    5  A    between atoms: C6_6  and  C10_10 
ROOT
HETATM    1  C3  UNL     1     -33.874  13.912  -3.734  1.00 20.00     0.131 C 
HETATM    2  O11 UNL     1     -32.938  13.114  -3.751  1.00 20.00    -0.298 OA
ENDROOT
BRANCH   1   3
HETATM    3  C8  UNL     1     -35.266  13.551  -4.242  1.00 20.00     0.111 C 
BRANCH   3   4
HETATM    4  C2  UNL     1     -35.680  14.413  -5.407  1.00 20.00    -0.083 C 
HETATM    5  C1  UNL     1     -34.962  14.437  -6.542  1.00 20.00     0.014 C 
BRANCH   4   6
HETATM    6  C9  UNL     1     -36.927  15.254  -5.253  1.00 20.00     0.029 C 
HETATM    7  C7  UNL     1     -37.821  14.777  -4.118  1.00 20.00     0.010 C 
ENDBRANCH   4   6
ENDBRANCH   3   4
ENDBRANCH   1   3
BRANCH   1   8
HETATM    8  C10 UNL     1     -33.731  15.311  -3.165  1.00 20.00     0.083 C 
BRANCH   8   9
HETATM    9  C6  UNL     1     -34.788  15.669  -2.169  1.00 20.00    -0.008 A 
HETATM   10  C4  UNL     1     -34.486  16.637  -1.058  1.00 20.00     0.005 A 
HETATM   11  C5  UNL     1     -35.403  17.041  -2.178  1.00 20.00     0.005 A 
ENDBRANCH   8   9
ENDBRANCH   1   8
TORSDOF 5
ENDMDL
MODEL 8
REMARK VINA RESULT:      -4.6     10.614     11.872
REMARK  5 active torsions:
REMARK  status: ('A' for Active; 'I' for Inactive)
REMARK    1  A    between atoms: C2_2  and  C8_8 
REMARK    2  A    between atoms: C2_2  and  C9_9 
REMARK    3  A    between atoms: C3_3  and  C8_8 
REMARK    4  A    between atoms: C3_3  and  C10_10 
REMARK    5  A    between atoms: C6_6  and  C10_10 
ROOT
HETATM    1  C3  UNL     1     -34.540  13.704  -3.928  1.00 20.00     0.131 C 
HETATM    2  O11 UNL     1     -33.666  13.108  -3.300  1.00 20.00    -0.298 OA
ENDROOT
BRANCH   1   3
HETATM    3  C8  UNL     1     -35.360  14.836  -3.319  1.00 20.00     0.111 C 
BRANCH   3   4
HETATM    4  C2  UNL     1     -34.484  15.940  -2.787  1.00 20.00    -0.083 C 
HETATM    5  C1  UNL     1     -33.582  16.550  -3.573  1.00 20.00     0.014 C 
BRANCH   4   6
HETATM    6  C9  UNL     1     -34.650  16.335  -1.337  1.00 20.00     0.029 C 
HETATM    7  C7  UNL     1     -33.724  17.471  -0.928  1.00 20.00     0.010 C 
ENDBRANCH   4   6
ENDBRANCH   3   4
ENDBRANCH   1   3
BRANCH   1   8
HETATM    8  C10 UNL     1     -34.847  13.386  -5.380  1.00 20.00     0.083 C 
BRANCH   8   9
HETATM    9  C6  UNL     1     -35.294  14.572  -6.176  1.00 20.00    -0.008 A 
HETATM   10  C4  UNL     1     -34.336  15.263  -7.108  1.00 20.00     0.005 A 
HETATM   11  C5  UNL     1     -35.478  14.458  -7.664  1.00 20.00     0.005 A 
ENDBRANCH   8   9
ENDBRANCH   1   8
TORSDOF 5
ENDMDL
MODEL 9
REMARK VINA RESULT:      -4.6     10.843     12.090
REMARK  5 active torsions:
REMARK  status: ('A' for Active; 'I' for Inactive)
REMARK    1  A    between atoms: C2_2  and  C8_8 
REMARK    2  A    between atoms: C2_2  and  C9_9 
REMARK    3  A    between atoms: C3_3  and  C8_8 
REMARK    4  A    between atoms: C3_3  and  C10_10 
REMARK    5  A    between atoms: C6_6  and  C10_10 
ROOT
HETATM    1  C3  UNL     1     -35.153  13.747  -4.651  1.00 20.00     0.131 C 
HETATM    2  O11 UNL     1     -34.761  12.585  -4.747  1.00 20.00    -0.298 OA
ENDROOT
BRANCH   1   3
HETATM    3  C8  UNL     1     -35.111  14.519  -3.337  1.00 20.00     0.111 C 
BRANCH   3   4
HETATM    4  C2  UNL     1     -33.811  15.258  -3.160  1.00 20.00    -0.083 C 
HETATM    5  C1  UNL     1     -32.658  14.759  -3.636  1.00 20.00     0.014 C 
BRANCH   4   6
HETATM    6  C9  UNL     1     -33.844  16.578  -2.423  1.00 20.00     0.029 C 
HETATM    7  C7  UNL     1     -34.629  16.503  -1.121  1.00 20.00     0.010 C 
ENDBRANCH   4   6
ENDBRANCH   3   4
ENDBRANCH   1   3
BRANCH   1   8
HETATM    8  C10 UNL     1     -35.674  14.523  -5.847  1.00 20.00     0.083 C 
BRANCH   8   9
HETATM    9  C6  UNL     1     -34.596  15.037  -6.749  1.00 20.00    -0.008 A 
HETATM   10  C4  UNL     1     -34.929  16.006  -7.850  1.00 20.00     0.005 A 
HETATM   11  C5  UNL     1     -34.147  16.469  -6.651  1.00 20.00     0.005 A 
ENDBRANCH   8   9
ENDBRANCH   1   8
TORSDOF 5
ENDMDL
