MODEL 1
REMARK VINA RESULT:      -5.7      0.000      0.000
REMARK  1 active torsions:
REMARK  status: ('A' for Active; 'I' for Inactive)
REMARK    1  A    between atoms: C3_3  and  C7_7 
ROOT
HETATM    1  C1  UNL     1     -32.169   7.900   2.294  1.00 20.00     0.087 C 
HETATM    2  C2  UNL     1     -32.350   6.868   3.253  1.00 20.00     0.090 C 
HETATM    3  C3  UNL     1     -33.559   6.569   3.745  1.00 20.00    -0.011 C 
HETATM    4  N8  UNL     1     -32.018   8.742   1.510  1.00 20.00    -0.192 NA
ENDROOT
BRANCH   3   5
HETATM    5  C7  UNL     1     -33.797   5.510   4.740  1.00 20.00     0.009 C 
HETATM    6  C5  UNL     1     -34.221   5.994   6.150  1.00 20.00     0.008 C 
HETATM    7  C4  UNL     1     -35.163   4.774   6.205  1.00 20.00     0.001 C 
HETATM    8  C6  UNL     1     -35.180   4.814   4.662  1.00 20.00     0.008 C 
ENDBRANCH   3   5
TORSDOF 1
ENDMDL
MODEL 2
REMARK VINA RESULT:      -4.2     11.112     11.867
REMARK  1 active torsions:
REMARK  status: ('A' for Active; 'I' for Inactive)
REMARK    1  A    between atoms: C3_3  and  C7_7 
ROOT
HETATM    1  C1  UNL     1     -34.561  13.873  -3.755  1.00 20.00     0.087 C 
HETATM    2  C2  UNL     1     -34.279  15.135  -3.166  1.00 20.00     0.090 C 
HETATM    3  C3  UNL     1     -35.117  15.703  -2.288  1.00 20.00    -0.011 C 
HETATM    4  N8  UNL     1     -34.788  12.843  -4.238  1.00 20.00    -0.192 NA
ENDROOT
BRANCH   3   5
HETATM    5  C7  UNL     1     -34.869  17.008  -1.651  1.00 20.00     0.009 C 
HETATM    6  C5  UNL     1     -34.856  17.009  -0.102  1.00 20.00     0.008 C 
HETATM    7  C4  UNL     1     -33.709  18.037  -0.185  1.00 20.00     0.001 C 
HETATM    8  C6  UNL     1     -33.385  17.447  -1.574  1.00 20.00     0.008 C 
ENDBRANCH   3   5
TORSDOF 1
ENDMDL
MODEL 3
REMARK VINA RESULT:      -4.1     11.211     11.774
REMARK  1 active torsions:
REMARK  status: ('A' for Active; 'I' for Inactive)
REMARK    1  A    between atoms: C3_3  and  C7_7 
ROOT
HETATM    1  C1  UNL     1     -34.506  17.069  -0.506  1.00 20.00     0.087 C 
HETATM    2  C2  UNL     1     -34.782  16.249  -1.633  1.00 20.00     0.090 C 
HETATM    3  C3  UNL     1     -33.869  16.039  -2.590  1.00 20.00    -0.011 C 
HETATM    4  N8  UNL     1     -34.285  17.738   0.416  1.00 20.00    -0.192 NA
ENDROOT
BRANCH   3   5
HETATM    5  C7  UNL     1     -34.108  15.199  -3.776  1.00 20.00     0.009 C 
HETATM    6  C5  UNL     1     -33.446  13.798  -3.752  1.00 20.00     0.008 C 
HETATM    7  C4  UNL     1     -34.717  13.267  -4.445  1.00 20.00     0.001 C 
HETATM    8  C6  UNL     1     -35.468  14.457  -3.810  1.00 20.00     0.008 C 
ENDBRANCH   3   5
TORSDOF 1
ENDMDL
MODEL 4
REMARK VINA RESULT:      -3.9      9.835     10.838
REMARK  1 active torsions:
REMARK  status: ('A' for Active; 'I' for Inactive)
REMARK    1  A    between atoms: C3_3  and  C7_7 
ROOT
HETATM    1  C1  UNL     1     -41.733   2.154  -3.369  1.00 20.00     0.087 C 
HETATM    2  C2  UNL     1     -42.155   3.355  -2.738  1.00 20.00     0.090 C 
HETATM    3  C3  UNL     1     -41.344   4.043  -1.924  1.00 20.00    -0.011 C 
HETATM    4  N8  UNL     1     -41.392   1.173  -3.886  1.00 20.00    -0.192 NA
ENDROOT
BRANCH   3   5
HETATM    5  C7  UNL     1     -41.735   5.292  -1.247  1.00 20.00     0.009 C 
HETATM    6  C5  UNL     1     -40.653   5.935  -0.345  1.00 20.00     0.008 C 
HETATM    7  C4  UNL     1     -41.158   7.306  -0.841  1.00 20.00     0.001 C 
HETATM    8  C6  UNL     1     -41.652   6.577  -2.109  1.00 20.00     0.008 C 
ENDBRANCH   3   5
TORSDOF 1
ENDMDL
MODEL 5
REMARK VINA RESULT:      -3.8     11.531     12.540
REMARK  1 active torsions:
REMARK  status: ('A' for Active; 'I' for Inactive)
REMARK    1  A    between atoms: C3_3  and  C7_7 
ROOT
HETATM    1  C1  UNL     1     -34.478  16.582  -1.211  1.00 20.00     0.087 C 
HETATM    2  C2  UNL     1     -34.092  16.230  -2.532  1.00 20.00     0.090 C 
HETATM    3  C3  UNL     1     -34.376  15.029  -3.052  1.00 20.00    -0.011 C 
HETATM    4  N8  UNL     1     -34.792  16.872  -0.132  1.00 20.00    -0.192 NA
ENDROOT
BRANCH   3   5
HETATM    5  C7  UNL     1     -33.997  14.619  -4.415  1.00 20.00     0.009 C 
HETATM    6  C5  UNL     1     -35.126  13.983  -5.264  1.00 20.00     0.008 C 
HETATM    7  C4  UNL     1     -34.534  14.728  -6.477  1.00 20.00     0.001 C 
HETATM    8  C6  UNL     1     -33.964  15.752  -5.472  1.00 20.00     0.008 C 
ENDBRANCH   3   5
TORSDOF 1
ENDMDL
MODEL 6
REMARK VINA RESULT:      -3.8      2.382      4.944
REMARK  1 active torsions:
REMARK  status: ('A' for Active; 'I' for Inactive)
REMARK    1  A    between atoms: C3_3  and  C7_7 
ROOT
HETATM    1  C1  UNL     1     -34.247   5.694   4.225  1.00 20.00     0.087 C 
HETATM    2  C2  UNL     1     -33.664   6.887   3.718  1.00 20.00     0.090 C 
HETATM    3  C3  UNL     1     -32.574   6.861   2.941  1.00 20.00    -0.011 C 
HETATM    4  N8  UNL     1     -34.725   4.722   4.641  1.00 20.00    -0.192 NA
ENDROOT
BRANCH   3   5
HETATM    5  C7  UNL     1     -31.935   8.070   2.392  1.00 20.00     0.009 C 
HETATM    6  C5  UNL     1     -31.847   8.141   0.847  1.00 20.00     0.008 C 
HETATM    7  C4  UNL     1     -32.132   9.652   0.974  1.00 20.00     0.001 C 
HETATM    8  C6  UNL     1     -32.836   9.328   2.309  1.00 20.00     0.008 C 
ENDBRANCH   3   5
TORSDOF 1
ENDMDL
MODEL 7
REMARK VINA RESULT:      -3.7     11.717     12.682
REMARK  1 active torsions:
REMARK  status: ('A' for Active; 'I' for Inactive)
REMARK    1  A    between atoms: C3_3  and  C7_7 
ROOT
HETATM    1  C1  UNL     1     -36.895  15.050  -3.534  1.00 20.00     0.087 C 
HETATM    2  C2  UNL     1     -35.842  15.958  -3.241  1.00 20.00     0.090 C 
HETATM    3  C3  UNL     1     -34.974  15.731  -2.247  1.00 20.00    -0.011 C 
HETATM    4  N8  UNL     1     -37.756  14.311  -3.776  1.00 20.00    -0.192 NA
ENDROOT
BRANCH   3   5
HETATM    5  C7  UNL     1     -33.867  16.641  -1.905  1.00 20.00     0.009 C 
HETATM    6  C5  UNL     1     -33.886  18.018  -2.615  1.00 20.00     0.008 C 
HETATM    7  C4  UNL     1     -33.371  18.624  -1.292  1.00 20.00     0.001 C 
HETATM    8  C6  UNL     1     -34.028  17.423  -0.577  1.00 20.00     0.008 C 
ENDBRANCH   3   5
TORSDOF 1
ENDMDL
MODEL 8
REMARK VINA RESULT:      -3.6      9.550     10.205
REMARK  1 active torsions:
REMARK  status: ('A' for Active; 'I' for Inactive)
REMARK    1  A    between atoms: C3_3  and  C7_7 
ROOT
HETATM    1  C1  UNL     1     -42.366   7.892  -3.668  1.00 20.00     0.087 C 
HETATM    2  C2  UNL     1     -42.241   6.988  -2.579  1.00 20.00     0.090 C 
HETATM    3  C3  UNL     1     -41.332   7.173  -1.613  1.00 20.00    -0.011 C 
HETATM    4  N8  UNL     1     -42.471   8.629  -4.559  1.00 20.00    -0.192 NA
ENDROOT
BRANCH   3   5
HETATM    5  C7  UNL     1     -41.164   6.264  -0.466  1.00 20.00     0.009 C 
HETATM    6  C5  UNL     1     -42.473   5.794   0.216  1.00 20.00     0.008 C 
HETATM    7  C4  UNL     1     -41.797   4.419   0.400  1.00 20.00     0.001 C 
HETATM    8  C6  UNL     1     -40.919   4.775  -0.819  1.00 20.00     0.008 C 
ENDBRANCH   3   5
TORSDOF 1
ENDMDL
MODEL 9
REMARK VINA RESULT:      -3.6     10.107     11.185
REMARK  1 active torsions:
REMARK  status: ('A' for Active; 'I' for Inactive)
REMARK    1  A    between atoms: C3_3  and  C7_7 
ROOT
HETATM    1  C1  UNL     1     -40.857   5.221  -0.830  1.00 20.00     0.087 C 
HETATM    2  C2  UNL     1     -41.046   4.136  -1.728  1.00 20.00     0.090 C 
HETATM    3  C3  UNL     1     -42.205   3.950  -2.371  1.00 20.00    -0.011 C 
HETATM    4  N8  UNL     1     -40.700   6.106  -0.095  1.00 20.00    -0.192 NA
ENDROOT
BRANCH   3   5
HETATM    5  C7  UNL     1     -42.449   2.842  -3.311  1.00 20.00     0.009 C 
HETATM    6  C5  UNL     1     -41.203   2.011  -3.708  1.00 20.00     0.008 C 
HETATM    7  C4  UNL     1     -42.114   0.766  -3.678  1.00 20.00     0.001 C 
HETATM    8  C6  UNL     1     -43.006   1.539  -2.682  1.00 20.00     0.008 C 
ENDBRANCH   3   5
TORSDOF 1
ENDMDL
