MODEL 1
REMARK VINA RESULT:      -5.0      0.000      0.000
REMARK  1 active torsions:
REMARK  status: ('A' for Active; 'I' for Inactive)
REMARK    1  A    between atoms: C8_8  and  C9_9 
ROOT
HETATM    1  C1  UNL     1     -34.636  14.563  -5.945  1.00 20.00     0.074 C 
HETATM    2  C2  UNL     1     -34.396  15.871  -5.803  1.00 20.00     0.139 C 
HETATM    3  C3  UNL     1     -34.650  13.730  -4.723  1.00 20.00     0.153 C 
HETATM    4  C4  UNL     1     -34.510  14.455  -3.409  1.00 20.00     0.116 C 
HETATM    5  C9  UNL     1     -33.595  15.660  -3.606  1.00 20.00     0.139 C 
HETATM    6  O10 UNL     1     -34.838  12.519  -4.794  1.00 20.00    -0.293 OA
HETATM    7  O11 UNL     1     -34.068  16.528  -4.646  1.00 20.00    -0.357 OA
ENDROOT
BRANCH   5   8
HETATM    8  C8  UNL     1     -33.526  16.467  -2.327  1.00 20.00     0.015 C 
HETATM    9  C6  UNL     1     -34.736  16.351  -1.364  1.00 20.00     0.007 C 
HETATM   10  C5  UNL     1     -34.538  17.850  -1.054  1.00 20.00     0.001 C 
HETATM   11  C7  UNL     1     -33.870  17.976  -2.438  1.00 20.00     0.007 C 
ENDBRANCH   5   8
TORSDOF 1
ENDMDL
MODEL 2
REMARK VINA RESULT:      -4.7      1.530      2.040
REMARK  1 active torsions:
REMARK  status: ('A' for Active; 'I' for Inactive)
REMARK    1  A    between atoms: C8_8  and  C9_9 
ROOT
HETATM    1  C1  UNL     1     -34.162  14.060  -4.203  1.00 20.00     0.074 C 
HETATM    2  C2  UNL     1     -33.175  14.822  -3.722  1.00 20.00     0.139 C 
HETATM    3  C3  UNL     1     -35.548  14.411  -3.827  1.00 20.00     0.153 C 
HETATM    4  C4  UNL     1     -35.731  15.676  -3.028  1.00 20.00     0.116 C 
HETATM    5  C9  UNL     1     -34.529  15.854  -2.106  1.00 20.00     0.139 C 
HETATM    6  O10 UNL     1     -36.493  13.732  -4.217  1.00 20.00    -0.293 OA
HETATM    7  O11 UNL     1     -33.293  15.858  -2.833  1.00 20.00    -0.357 OA
ENDROOT
BRANCH   5   8
HETATM    8  C8  UNL     1     -34.637  17.173  -1.371  1.00 20.00     0.015 C 
HETATM    9  C6  UNL     1     -33.304  17.880  -1.009  1.00 20.00     0.007 C 
HETATM   10  C5  UNL     1     -33.980  18.319   0.306  1.00 20.00     0.001 C 
HETATM   11  C7  UNL     1     -34.910  17.099   0.154  1.00 20.00     0.007 C 
ENDBRANCH   5   8
TORSDOF 1
ENDMDL
MODEL 3
REMARK VINA RESULT:      -4.7      1.585      1.800
REMARK  1 active torsions:
REMARK  status: ('A' for Active; 'I' for Inactive)
REMARK    1  A    between atoms: C8_8  and  C9_9 
ROOT
HETATM    1  C1  UNL     1     -35.356  13.516  -4.524  1.00 20.00     0.074 C 
HETATM    2  C2  UNL     1     -34.062  13.833  -4.411  1.00 20.00     0.139 C 
HETATM    3  C3  UNL     1     -36.338  14.376  -3.829  1.00 20.00     0.153 C 
HETATM    4  C4  UNL     1     -35.796  15.608  -3.151  1.00 20.00     0.116 C 
HETATM    5  C9  UNL     1     -34.403  15.301  -2.611  1.00 20.00     0.139 C 
HETATM    6  O10 UNL     1     -37.537  14.119  -3.875  1.00 20.00    -0.293 OA
HETATM    7  O11 UNL     1     -33.522  14.829  -3.639  1.00 20.00    -0.357 OA
ENDROOT
BRANCH   5   8
HETATM    8  C8  UNL     1     -33.793  16.555  -2.020  1.00 20.00     0.015 C 
HETATM    9  C6  UNL     1     -34.418  17.080  -0.701  1.00 20.00     0.007 C 
HETATM   10  C5  UNL     1     -34.173  18.505  -1.239  1.00 20.00     0.001 C 
HETATM   11  C7  UNL     1     -34.222  17.903  -2.657  1.00 20.00     0.007 C 
ENDBRANCH   5   8
TORSDOF 1
ENDMDL
MODEL 4
REMARK VINA RESULT:      -4.6      1.216      1.942
REMARK  1 active torsions:
REMARK  status: ('A' for Active; 'I' for Inactive)
REMARK    1  A    between atoms: C8_8  and  C9_9 
ROOT
HETATM    1  C1  UNL     1     -34.801  13.940  -5.637  1.00 20.00     0.074 C 
HETATM    2  C2  UNL     1     -34.843  13.549  -4.359  1.00 20.00     0.139 C 
HETATM    3  C3  UNL     1     -34.228  15.271  -5.930  1.00 20.00     0.153 C 
HETATM    4  C4  UNL     1     -33.632  16.021  -4.766  1.00 20.00     0.116 C 
HETATM    5  C9  UNL     1     -34.434  15.698  -3.509  1.00 20.00     0.139 C 
HETATM    6  O10 UNL     1     -34.188  15.695  -7.081  1.00 20.00    -0.293 OA
HETATM    7  O11 UNL     1     -34.492  14.287  -3.259  1.00 20.00    -0.357 OA
ENDROOT
BRANCH   5   8
HETATM    8  C8  UNL     1     -33.789  16.354  -2.306  1.00 20.00     0.015 C 
HETATM    9  C6  UNL     1     -34.656  16.465  -1.025  1.00 20.00     0.007 C 
HETATM   10  C5  UNL     1     -33.990  17.835  -0.782  1.00 20.00     0.001 C 
HETATM   11  C7  UNL     1     -33.739  17.904  -2.302  1.00 20.00     0.007 C 
ENDBRANCH   5   8
TORSDOF 1
ENDMDL
MODEL 5
REMARK VINA RESULT:      -4.5      2.031      3.531
REMARK  1 active torsions:
REMARK  status: ('A' for Active; 'I' for Inactive)
REMARK    1  A    between atoms: C8_8  and  C9_9 
ROOT
HETATM    1  C1  UNL     1     -33.351  13.997  -3.732  1.00 20.00     0.074 C 
HETATM    2  C2  UNL     1     -32.882  15.248  -3.771  1.00 20.00     0.139 C 
HETATM    3  C3  UNL     1     -34.431  13.636  -4.675  1.00 20.00     0.153 C 
HETATM    4  C4  UNL     1     -34.826  14.686  -5.683  1.00 20.00     0.116 C 
HETATM    5  C9  UNL     1     -34.680  16.063  -5.042  1.00 20.00     0.139 C 
HETATM    6  O10 UNL     1     -34.920  12.511  -4.667  1.00 20.00    -0.293 OA
HETATM    7  O11 UNL     1     -33.355  16.281  -4.537  1.00 20.00    -0.357 OA
ENDROOT
BRANCH   5   8
HETATM    8  C8  UNL     1     -34.965  17.140  -6.068  1.00 20.00     0.015 C 
HETATM    9  C6  UNL     1     -34.669  16.787  -7.549  1.00 20.00     0.007 C 
HETATM   10  C5  UNL     1     -34.201  18.246  -7.726  1.00 20.00     0.001 C 
HETATM   11  C7  UNL     1     -33.902  18.260  -6.214  1.00 20.00     0.007 C 
ENDBRANCH   5   8
TORSDOF 1
ENDMDL
MODEL 6
REMARK VINA RESULT:      -4.5      2.052      4.786
REMARK  1 active torsions:
REMARK  status: ('A' for Active; 'I' for Inactive)
REMARK    1  A    between atoms: C8_8  and  C9_9 
ROOT
HETATM    1  C1  UNL     1     -34.074  17.855  -0.364  1.00 20.00     0.074 C 
HETATM    2  C2  UNL     1     -34.835  16.758  -0.433  1.00 20.00     0.139 C 
HETATM    3  C3  UNL     1     -33.366  18.280  -1.591  1.00 20.00     0.153 C 
HETATM    4  C4  UNL     1     -33.664  17.500  -2.846  1.00 20.00     0.116 C 
HETATM    5  C9  UNL     1     -33.919  16.044  -2.473  1.00 20.00     0.139 C 
HETATM    6  O10 UNL     1     -32.632  19.263  -1.581  1.00 20.00    -0.293 OA
HETATM    7  O11 UNL     1     -34.970  15.915  -1.505  1.00 20.00    -0.357 OA
ENDROOT
BRANCH   5   8
HETATM    8  C8  UNL     1     -34.328  15.262  -3.704  1.00 20.00     0.015 C 
HETATM    9  C6  UNL     1     -35.702  14.543  -3.648  1.00 20.00     0.007 C 
HETATM   10  C5  UNL     1     -35.052  13.398  -4.452  1.00 20.00     0.001 C 
HETATM   11  C7  UNL     1     -33.698  13.855  -3.874  1.00 20.00     0.007 C 
ENDBRANCH   5   8
TORSDOF 1
ENDMDL
MODEL 7
REMARK VINA RESULT:      -4.4     12.086     14.233
REMARK  1 active torsions:
REMARK  status: ('A' for Active; 'I' for Inactive)
REMARK    1  A    between atoms: C8_8  and  C9_9 
ROOT
HETATM    1  C1  UNL     1     -41.682   6.905  -1.738  1.00 20.00     0.074 C 
HETATM    2  C2  UNL     1     -42.399   6.503  -2.793  1.00 20.00     0.139 C 
HETATM    3  C3  UNL     1     -41.033   5.865  -0.910  1.00 20.00     0.153 C 
HETATM    4  C4  UNL     1     -41.142   4.445  -1.403  1.00 20.00     0.116 C 
HETATM    5  C9  UNL     1     -42.491   4.264  -2.093  1.00 20.00     0.139 C 
HETATM    6  O10 UNL     1     -40.385   6.172   0.085  1.00 20.00    -0.293 OA
HETATM    7  O11 UNL     1     -42.682   5.211  -3.153  1.00 20.00    -0.357 OA
ENDROOT
BRANCH   5   8
HETATM    8  C8  UNL     1     -42.580   2.877  -2.692  1.00 20.00     0.015 C 
HETATM    9  C6  UNL     1     -41.304   2.336  -3.389  1.00 20.00     0.007 C 
HETATM   10  C5  UNL     1     -42.239   1.676  -4.424  1.00 20.00     0.001 C 
HETATM   11  C7  UNL     1     -43.278   2.760  -4.073  1.00 20.00     0.007 C 
ENDBRANCH   5   8
TORSDOF 1
ENDMDL
MODEL 8
REMARK VINA RESULT:      -4.4      1.523      1.909
REMARK  1 active torsions:
REMARK  status: ('A' for Active; 'I' for Inactive)
REMARK    1  A    between atoms: C8_8  and  C9_9 
ROOT
HETATM    1  C1  UNL     1     -34.362  17.097  -6.809  1.00 20.00     0.074 C 
HETATM    2  C2  UNL     1     -34.323  17.982  -5.808  1.00 20.00     0.139 C 
HETATM    3  C3  UNL     1     -34.265  15.662  -6.463  1.00 20.00     0.153 C 
HETATM    4  C4  UNL     1     -34.252  15.321  -4.995  1.00 20.00     0.116 C 
HETATM    5  C9  UNL     1     -33.526  16.429  -4.238  1.00 20.00     0.139 C 
HETATM    6  O10 UNL     1     -34.269  14.805  -7.341  1.00 20.00    -0.293 OA
HETATM    7  O11 UNL     1     -34.111  17.716  -4.480  1.00 20.00    -0.357 OA
ENDROOT
BRANCH   5   8
HETATM    8  C8  UNL     1     -33.593  16.165  -2.749  1.00 20.00     0.015 C 
HETATM    9  C6  UNL     1     -34.980  15.774  -2.173  1.00 20.00     0.007 C 
HETATM   10  C5  UNL     1     -34.610  16.598  -0.923  1.00 20.00     0.001 C 
HETATM   11  C7  UNL     1     -33.657  17.408  -1.824  1.00 20.00     0.007 C 
ENDBRANCH   5   8
TORSDOF 1
ENDMDL
MODEL 9
REMARK VINA RESULT:      -4.4      1.552      2.214
REMARK  1 active torsions:
REMARK  status: ('A' for Active; 'I' for Inactive)
REMARK    1  A    between atoms: C8_8  and  C9_9 
ROOT
HETATM    1  C1  UNL     1     -33.316  16.166  -4.935  1.00 20.00     0.074 C 
HETATM    2  C2  UNL     1     -33.559  17.467  -4.748  1.00 20.00     0.139 C 
HETATM    3  C3  UNL     1     -33.502  15.258  -3.783  1.00 20.00     0.153 C 
HETATM    4  C4  UNL     1     -34.067  15.869  -2.526  1.00 20.00     0.116 C 
HETATM    5  C9  UNL     1     -33.563  17.304  -2.406  1.00 20.00     0.139 C 
HETATM    6  O10 UNL     1     -33.268  14.058  -3.887  1.00 20.00    -0.293 OA
HETATM    7  O11 UNL     1     -33.882  18.083  -3.567  1.00 20.00    -0.357 OA
ENDROOT
BRANCH   5   8
HETATM    8  C8  UNL     1     -34.203  17.975  -1.209  1.00 20.00     0.015 C 
HETATM    9  C6  UNL     1     -33.248  18.451  -0.084  1.00 20.00     0.007 C 
HETATM   10  C5  UNL     1     -34.342  18.031   0.920  1.00 20.00     0.001 C 
HETATM   11  C7  UNL     1     -34.845  17.042  -0.150  1.00 20.00     0.007 C 
ENDBRANCH   5   8
TORSDOF 1
ENDMDL
