MODEL 1
REMARK VINA RESULT:      -4.7      0.000      0.000
REMARK  3 active torsions:
REMARK  status: ('A' for Active; 'I' for Inactive)
REMARK    1  A    between atoms: C5_5  and  C8_8 
REMARK    2  A    between atoms: C6_6  and  C8_8 
REMARK    3  A    between atoms: C8_8  and  O9_9 
ROOT
HETATM    1  C8  UNL     1     -33.569   6.024   5.105  1.00 20.00     0.130 C 
ENDROOT
BRANCH   1   2
HETATM    2  C5  UNL     1     -33.234   6.730   3.792  1.00 20.00     0.015 A 
HETATM    3  C1  UNL     1     -31.836   7.219   3.531  1.00 20.00     0.007 A 
HETATM    4  C2  UNL     1     -32.379   6.046   2.763  1.00 20.00     0.007 A 
ENDBRANCH   1   2
BRANCH   1   5
HETATM    5  C6  UNL     1     -34.744   5.095   4.974  1.00 20.00    -0.018 A 
HETATM    6  C3  UNL     1     -35.264   4.429   6.227  1.00 20.00     0.012 A 
HETATM    7  C4  UNL     1     -34.511   3.621   5.209  1.00 20.00     0.012 A 
HETATM    8  C7  UNL     1     -35.743   5.492   3.922  1.00 20.00     0.018 C 
ENDBRANCH   1   5
BRANCH   1   9
HETATM    9  O9  UNL     1     -33.845   7.016   6.097  1.00 20.00    -0.394 OA
HETATM   10  H23 UNL     1     -34.808   7.123   6.114  1.00 20.00     0.210 HD
ENDBRANCH   1   9
TORSDOF 3
ENDMDL
MODEL 2
REMARK VINA RESULT:      -4.6      1.495      2.010
REMARK  3 active torsions:
REMARK  status: ('A' for Active; 'I' for Inactive)
REMARK    1  A    between atoms: C5_5  and  C8_8 
REMARK    2  A    between atoms: C6_6  and  C8_8 
REMARK    3  A    between atoms: C8_8  and  O9_9 
ROOT
HETATM    1  C8  UNL     1     -34.197   6.251   4.137  1.00 20.00     0.130 C 
ENDROOT
BRANCH   1   2
HETATM    2  C5  UNL     1     -32.797   6.201   3.530  1.00 20.00     0.015 A 
HETATM    3  C1  UNL     1     -32.393   7.192   2.473  1.00 20.00     0.007 A 
HETATM    4  C2  UNL     1     -31.795   7.276   3.850  1.00 20.00     0.007 A 
ENDBRANCH   1   2
BRANCH   1   5
HETATM    5  C6  UNL     1     -34.218   5.805   5.573  1.00 20.00    -0.018 A 
HETATM    6  C3  UNL     1     -33.833   4.376   5.876  1.00 20.00     0.012 A 
HETATM    7  C4  UNL     1     -35.269   4.802   5.988  1.00 20.00     0.012 A 
HETATM    8  C7  UNL     1     -33.825   6.866   6.564  1.00 20.00     0.018 C 
ENDBRANCH   1   5
BRANCH   1   9
HETATM    9  O9  UNL     1     -35.060   5.418   3.358  1.00 20.00    -0.394 OA
HETATM   10  H23 UNL     1     -34.791   5.536   2.435  1.00 20.00     0.210 HD
ENDBRANCH   1   9
TORSDOF 3
ENDMDL
MODEL 3
REMARK VINA RESULT:      -4.4     11.818     12.972
REMARK  3 active torsions:
REMARK  status: ('A' for Active; 'I' for Inactive)
REMARK    1  A    between atoms: C5_5  and  C8_8 
REMARK    2  A    between atoms: C6_6  and  C8_8 
REMARK    3  A    between atoms: C8_8  and  O9_9 
ROOT
HETATM    1  C8  UNL     1     -33.832  15.805  -4.117  1.00 20.00     0.130 C 
ENDROOT
BRANCH   1   2
HETATM    2  C5  UNL     1     -33.557  16.160  -2.658  1.00 20.00     0.015 A 
HETATM    3  C1  UNL     1     -33.985  17.493  -2.108  1.00 20.00     0.007 A 
HETATM    4  C2  UNL     1     -34.690  16.239  -1.672  1.00 20.00     0.007 A 
ENDBRANCH   1   2
BRANCH   1   5
HETATM    5  C6  UNL     1     -34.230  14.366  -4.294  1.00 20.00    -0.018 A 
HETATM    6  C3  UNL     1     -34.964  13.983  -5.558  1.00 20.00     0.012 A 
HETATM    7  C4  UNL     1     -35.702  14.027  -4.251  1.00 20.00     0.012 A 
HETATM    8  C7  UNL     1     -33.261  13.373  -3.714  1.00 20.00     0.018 C 
ENDBRANCH   1   5
BRANCH   1   9
HETATM    9  O9  UNL     1     -32.655  16.079  -4.882  1.00 20.00    -0.394 OA
HETATM   10  H23 UNL     1     -32.947  16.571  -5.664  1.00 20.00     0.210 HD
ENDBRANCH   1   9
TORSDOF 3
ENDMDL
MODEL 4
REMARK VINA RESULT:      -4.4     11.762     13.129
REMARK  3 active torsions:
REMARK  status: ('A' for Active; 'I' for Inactive)
REMARK    1  A    between atoms: C5_5  and  C8_8 
REMARK    2  A    between atoms: C6_6  and  C8_8 
REMARK    3  A    between atoms: C8_8  and  O9_9 
ROOT
HETATM    1  C8  UNL     1     -35.183  14.040  -4.590  1.00 20.00     0.130 C 
ENDROOT
BRANCH   1   2
HETATM    2  C5  UNL     1     -34.718  13.975  -6.043  1.00 20.00     0.015 A 
HETATM    3  C1  UNL     1     -35.617  14.459  -7.148  1.00 20.00     0.007 A 
HETATM    4  C2  UNL     1     -34.382  15.237  -6.787  1.00 20.00     0.007 A 
ENDBRANCH   1   2
BRANCH   1   5
HETATM    5  C6  UNL     1     -34.171  14.695  -3.692  1.00 20.00    -0.018 A 
HETATM    6  C3  UNL     1     -34.680  15.484  -2.507  1.00 20.00     0.012 A 
HETATM    7  C4  UNL     1     -34.097  16.204  -3.689  1.00 20.00     0.012 A 
HETATM    8  C7  UNL     1     -32.888  13.926  -3.527  1.00 20.00     0.018 C 
ENDBRANCH   1   5
BRANCH   1   9
HETATM    9  O9  UNL     1     -35.444  12.709  -4.136  1.00 20.00    -0.394 OA
HETATM   10  H23 UNL     1     -36.238  12.413  -4.605  1.00 20.00     0.210 HD
ENDBRANCH   1   9
TORSDOF 3
ENDMDL
MODEL 5
REMARK VINA RESULT:      -4.2     12.342     13.199
REMARK  3 active torsions:
REMARK  status: ('A' for Active; 'I' for Inactive)
REMARK    1  A    between atoms: C5_5  and  C8_8 
REMARK    2  A    between atoms: C6_6  and  C8_8 
REMARK    3  A    between atoms: C8_8  and  O9_9 
ROOT
HETATM    1  C8  UNL     1     -33.538  15.385  -3.861  1.00 20.00     0.130 C 
ENDROOT
BRANCH   1   2
HETATM    2  C5  UNL     1     -34.509  14.630  -4.766  1.00 20.00     0.015 A 
HETATM    3  C1  UNL     1     -34.467  13.128  -4.836  1.00 20.00     0.007 A 
HETATM    4  C2  UNL     1     -35.624  13.817  -4.169  1.00 20.00     0.007 A 
ENDBRANCH   1   2
BRANCH   1   5
HETATM    5  C6  UNL     1     -34.207  16.500  -3.105  1.00 20.00    -0.018 A 
HETATM    6  C3  UNL     1     -33.558  16.977  -1.826  1.00 20.00     0.012 A 
HETATM    7  C4  UNL     1     -34.827  16.176  -1.765  1.00 20.00     0.012 A 
HETATM    8  C7  UNL     1     -34.892  17.521  -3.971  1.00 20.00     0.018 C 
ENDBRANCH   1   5
BRANCH   1   9
HETATM    9  O9  UNL     1     -32.481  15.913  -4.667  1.00 20.00    -0.394 OA
HETATM   10  H23 UNL     1     -31.702  15.965  -4.093  1.00 20.00     0.210 HD
ENDBRANCH   1   9
TORSDOF 3
ENDMDL
MODEL 6
REMARK VINA RESULT:      -4.2     11.962     12.648
REMARK  3 active torsions:
REMARK  status: ('A' for Active; 'I' for Inactive)
REMARK    1  A    between atoms: C5_5  and  C8_8 
REMARK    2  A    between atoms: C6_6  and  C8_8 
REMARK    3  A    between atoms: C8_8  and  O9_9 
ROOT
HETATM    1  C8  UNL     1     -35.571  15.092  -2.782  1.00 20.00     0.130 C 
ENDROOT
BRANCH   1   2
HETATM    2  C5  UNL     1     -35.137  16.471  -2.288  1.00 20.00     0.015 A 
HETATM    3  C1  UNL     1     -34.727  16.668  -0.855  1.00 20.00     0.007 A 
HETATM    4  C2  UNL     1     -33.696  16.733  -1.947  1.00 20.00     0.007 A 
ENDBRANCH   1   2
BRANCH   1   5
HETATM    5  C6  UNL     1     -34.886  14.698  -4.061  1.00 20.00    -0.018 A 
HETATM    6  C3  UNL     1     -34.896  13.237  -4.449  1.00 20.00     0.012 A 
HETATM    7  C4  UNL     1     -33.624  13.871  -3.963  1.00 20.00     0.012 A 
HETATM    8  C7  UNL     1     -34.975  15.719  -5.161  1.00 20.00     0.018 C 
ENDBRANCH   1   5
BRANCH   1   9
HETATM    9  O9  UNL     1     -36.988  15.104  -2.976  1.00 20.00    -0.394 OA
HETATM   10  H23 UNL     1     -37.255  16.036  -2.974  1.00 20.00     0.210 HD
ENDBRANCH   1   9
TORSDOF 3
ENDMDL
MODEL 7
REMARK VINA RESULT:      -4.1      1.577      1.917
REMARK  3 active torsions:
REMARK  status: ('A' for Active; 'I' for Inactive)
REMARK    1  A    between atoms: C5_5  and  C8_8 
REMARK    2  A    between atoms: C6_6  and  C8_8 
REMARK    3  A    between atoms: C8_8  and  O9_9 
ROOT
HETATM    1  C8  UNL     1     -34.256   6.088   3.999  1.00 20.00     0.130 C 
ENDROOT
BRANCH   1   2
HETATM    2  C5  UNL     1     -32.816   6.105   3.492  1.00 20.00     0.015 A 
HETATM    3  C1  UNL     1     -32.390   7.106   2.454  1.00 20.00     0.007 A 
HETATM    4  C2  UNL     1     -31.895   7.233   3.868  1.00 20.00     0.007 A 
ENDBRANCH   1   2
BRANCH   1   5
HETATM    5  C6  UNL     1     -34.416   5.266   5.249  1.00 20.00    -0.018 A 
HETATM    6  C3  UNL     1     -34.700   5.992   6.543  1.00 20.00     0.012 A 
HETATM    7  C4  UNL     1     -33.349   5.379   6.313  1.00 20.00     0.012 A 
HETATM    8  C7  UNL     1     -35.062   3.924   5.037  1.00 20.00     0.018 C 
ENDBRANCH   1   5
BRANCH   1   9
HETATM    9  O9  UNL     1     -35.096   5.566   2.966  1.00 20.00    -0.394 OA
HETATM   10  H23 UNL     1     -35.770   6.241   2.797  1.00 20.00     0.210 HD
ENDBRANCH   1   9
TORSDOF 3
ENDMDL
MODEL 8
REMARK VINA RESULT:      -4.0     11.955     13.060
REMARK  3 active torsions:
REMARK  status: ('A' for Active; 'I' for Inactive)
REMARK    1  A    between atoms: C5_5  and  C8_8 
REMARK    2  A    between atoms: C6_6  and  C8_8 
REMARK    3  A    between atoms: C8_8  and  O9_9 
ROOT
HETATM    1  C8  UNL     1     -34.954  13.874  -4.626  1.00 20.00     0.130 C 
ENDROOT
BRANCH   1   2
HETATM    2  C5  UNL     1     -34.105  14.467  -3.504  1.00 20.00     0.015 A 
HETATM    3  C1  UNL     1     -32.615  14.257  -3.490  1.00 20.00     0.007 A 
HETATM    4  C2  UNL     1     -33.181  15.620  -3.783  1.00 20.00     0.007 A 
ENDBRANCH   1   2
BRANCH   1   5
HETATM    5  C6  UNL     1     -36.140  14.734  -4.965  1.00 20.00    -0.018 A 
HETATM    6  C3  UNL     1     -36.478  14.932  -6.425  1.00 20.00     0.012 A 
HETATM    7  C4  UNL     1     -35.883  16.063  -5.637  1.00 20.00     0.012 A 
HETATM    8  C7  UNL     1     -37.277  14.649  -3.984  1.00 20.00     0.018 C 
ENDBRANCH   1   5
BRANCH   1   9
HETATM    9  O9  UNL     1     -35.398  12.575  -4.223  1.00 20.00    -0.394 OA
HETATM   10  H23 UNL     1     -34.898  11.940  -4.756  1.00 20.00     0.210 HD
ENDBRANCH   1   9
TORSDOF 3
ENDMDL
MODEL 9
REMARK VINA RESULT:      -4.0     12.020     13.104
REMARK  3 active torsions:
REMARK  status: ('A' for Active; 'I' for Inactive)
REMARK    1  A    between atoms: C5_5  and  C8_8 
REMARK    2  A    between atoms: C6_6  and  C8_8 
REMARK    3  A    between atoms: C8_8  and  O9_9 
ROOT
HETATM    1  C8  UNL     1     -35.472  14.053  -3.891  1.00 20.00     0.130 C 
ENDROOT
BRANCH   1   2
HETATM    2  C5  UNL     1     -36.733  14.652  -4.510  1.00 20.00     0.015 A 
HETATM    3  C1  UNL     1     -37.980  14.811  -3.684  1.00 20.00     0.007 A 
HETATM    4  C2  UNL     1     -37.196  16.024  -4.104  1.00 20.00     0.007 A 
ENDBRANCH   1   2
BRANCH   1   5
HETATM    5  C6  UNL     1     -34.217  14.722  -4.380  1.00 20.00    -0.018 A 
HETATM    6  C3  UNL     1     -32.921  14.404  -3.670  1.00 20.00     0.012 A 
HETATM    7  C4  UNL     1     -33.565  15.748  -3.482  1.00 20.00     0.012 A 
HETATM    8  C7  UNL     1     -34.169  14.953  -5.865  1.00 20.00     0.018 C 
ENDBRANCH   1   5
BRANCH   1   9
HETATM    9  O9  UNL     1     -35.430  12.658  -4.204  1.00 20.00    -0.394 OA
HETATM   10  H23 UNL     1     -35.130  12.595  -5.123  1.00 20.00     0.210 HD
ENDBRANCH   1   9
TORSDOF 3
ENDMDL
