MODEL 1
REMARK VINA RESULT:      -5.5      0.000      0.000
REMARK  4 active torsions:
REMARK  status: ('A' for Active; 'I' for Inactive)
REMARK    1  A    between atoms: C2_2  and  C8_8 
REMARK    2  A    between atoms: C3_3  and  C8_8 
REMARK    3  A    between atoms: C3_3  and  C9_9 
REMARK    4  A    between atoms: C6_6  and  C9_9 
ROOT
HETATM    1  C1  UNL     1     -32.155   8.714   1.678  1.00 20.00    -0.111 C 
HETATM    2  C2  UNL     1     -32.121   7.742   2.383  1.00 20.00    -0.100 C 
HETATM    3  C7  UNL     1     -32.195   9.897   0.819  1.00 20.00     0.112 C 
ENDROOT
BRANCH   2   4
HETATM    4  C8  UNL     1     -32.086   6.553   3.242  1.00 20.00     0.172 C 
BRANCH   4   5
HETATM    5  C3  UNL     1     -33.464   5.958   3.470  1.00 20.00     0.138 C 
HETATM    6  O10 UNL     1     -34.070   5.339   2.596  1.00 20.00    -0.297 OA
BRANCH   5   7
HETATM    7  C9  UNL     1     -34.050   6.177   4.854  1.00 20.00     0.083 C 
BRANCH   7   8
HETATM    8  C6  UNL     1     -35.099   5.179   5.230  1.00 20.00    -0.007 A 
HETATM    9  C4  UNL     1     -34.724   3.746   5.484  1.00 20.00     0.005 A 
HETATM   10  C5  UNL     1     -35.149   4.625   6.626  1.00 20.00     0.005 A 
ENDBRANCH   7   8
ENDBRANCH   5   7
ENDBRANCH   4   5
ENDBRANCH   2   4
TORSDOF 4
ENDMDL
MODEL 2
REMARK VINA RESULT:      -4.7     11.106     12.425
REMARK  4 active torsions:
REMARK  status: ('A' for Active; 'I' for Inactive)
REMARK    1  A    between atoms: C2_2  and  C8_8 
REMARK    2  A    between atoms: C3_3  and  C8_8 
REMARK    3  A    between atoms: C3_3  and  C9_9 
REMARK    4  A    between atoms: C6_6  and  C9_9 
ROOT
HETATM    1  C1  UNL     1     -34.258  16.419  -1.629  1.00 20.00    -0.111 C 
HETATM    2  C2  UNL     1     -33.837  15.978  -2.663  1.00 20.00    -0.100 C 
HETATM    3  C7  UNL     1     -34.773  16.956  -0.369  1.00 20.00     0.112 C 
ENDROOT
BRANCH   2   4
HETATM    4  C8  UNL     1     -33.315  15.440  -3.925  1.00 20.00     0.172 C 
BRANCH   4   5
HETATM    5  C3  UNL     1     -33.689  13.984  -4.137  1.00 20.00     0.138 C 
HETATM    6  O10 UNL     1     -33.097  13.062  -3.578  1.00 20.00    -0.297 OA
BRANCH   5   7
HETATM    7  C9  UNL     1     -34.845  13.738  -5.090  1.00 20.00     0.083 C 
BRANCH   7   8
HETATM    8  C6  UNL     1     -35.119  14.881  -6.016  1.00 20.00    -0.007 A 
HETATM    9  C4  UNL     1     -34.444  14.948  -7.357  1.00 20.00     0.005 A 
HETATM   10  C5  UNL     1     -35.917  14.663  -7.270  1.00 20.00     0.005 A 
ENDBRANCH   7   8
ENDBRANCH   5   7
ENDBRANCH   4   5
ENDBRANCH   2   4
TORSDOF 4
ENDMDL
MODEL 3
REMARK VINA RESULT:      -4.6      0.988      5.504
REMARK  4 active torsions:
REMARK  status: ('A' for Active; 'I' for Inactive)
REMARK    1  A    between atoms: C2_2  and  C8_8 
REMARK    2  A    between atoms: C3_3  and  C8_8 
REMARK    3  A    between atoms: C3_3  and  C9_9 
REMARK    4  A    between atoms: C6_6  and  C9_9 
ROOT
HETATM    1  C1  UNL     1     -34.757   5.077   5.404  1.00 20.00    -0.111 C 
HETATM    2  C2  UNL     1     -34.395   5.757   4.484  1.00 20.00    -0.100 C 
HETATM    3  C7  UNL     1     -35.198   4.249   6.527  1.00 20.00     0.112 C 
ENDROOT
BRANCH   2   4
HETATM    4  C8  UNL     1     -33.958   6.589   3.356  1.00 20.00     0.172 C 
BRANCH   4   5
HETATM    5  C3  UNL     1     -32.461   6.506   3.116  1.00 20.00     0.138 C 
HETATM    6  O10 UNL     1     -31.819   5.472   3.298  1.00 20.00    -0.297 OA
BRANCH   5   7
HETATM    7  C9  UNL     1     -31.804   7.787   2.636  1.00 20.00     0.083 C 
BRANCH   7   8
HETATM    8  C6  UNL     1     -32.657   8.592   1.706  1.00 20.00    -0.007 A 
HETATM    9  C4  UNL     1     -32.425  10.068   1.550  1.00 20.00     0.005 A 
HETATM   10  C5  UNL     1     -32.082   9.130   0.426  1.00 20.00     0.005 A 
ENDBRANCH   7   8
ENDBRANCH   5   7
ENDBRANCH   4   5
ENDBRANCH   2   4
TORSDOF 4
ENDMDL
MODEL 4
REMARK VINA RESULT:      -4.4      1.839      2.295
REMARK  4 active torsions:
REMARK  status: ('A' for Active; 'I' for Inactive)
REMARK    1  A    between atoms: C2_2  and  C8_8 
REMARK    2  A    between atoms: C3_3  and  C8_8 
REMARK    3  A    between atoms: C3_3  and  C9_9 
REMARK    4  A    between atoms: C6_6  and  C9_9 
ROOT
HETATM    1  C1  UNL     1     -32.121   6.951   3.431  1.00 20.00    -0.111 C 
HETATM    2  C2  UNL     1     -32.984   6.203   3.063  1.00 20.00    -0.100 C 
HETATM    3  C7  UNL     1     -31.069   7.863   3.881  1.00 20.00     0.112 C 
ENDROOT
BRANCH   2   4
HETATM    4  C8  UNL     1     -34.037   5.288   2.605  1.00 20.00     0.172 C 
BRANCH   4   5
HETATM    5  C3  UNL     1     -35.126   5.088   3.644  1.00 20.00     0.138 C 
HETATM    6  O10 UNL     1     -36.140   5.784   3.682  1.00 20.00    -0.297 OA
BRANCH   5   7
HETATM    7  C9  UNL     1     -34.881   3.968   4.640  1.00 20.00     0.083 C 
BRANCH   7   8
HETATM    8  C6  UNL     1     -34.372   4.438   5.966  1.00 20.00    -0.007 A 
HETATM    9  C4  UNL     1     -34.233   5.909   6.246  1.00 20.00     0.005 A 
HETATM   10  C5  UNL     1     -35.301   5.109   6.938  1.00 20.00     0.005 A 
ENDBRANCH   7   8
ENDBRANCH   5   7
ENDBRANCH   4   5
ENDBRANCH   2   4
TORSDOF 4
ENDMDL
MODEL 5
REMARK VINA RESULT:      -4.3     11.064     11.992
REMARK  4 active torsions:
REMARK  status: ('A' for Active; 'I' for Inactive)
REMARK    1  A    between atoms: C2_2  and  C8_8 
REMARK    2  A    between atoms: C3_3  and  C8_8 
REMARK    3  A    between atoms: C3_3  and  C9_9 
REMARK    4  A    between atoms: C6_6  and  C9_9 
ROOT
HETATM    1  C1  UNL     1     -34.041  16.241  -2.186  1.00 20.00    -0.111 C 
HETATM    2  C2  UNL     1     -33.757  15.326  -2.909  1.00 20.00    -0.100 C 
HETATM    3  C7  UNL     1     -34.388  17.357  -1.306  1.00 20.00     0.112 C 
ENDROOT
BRANCH   2   4
HETATM    4  C8  UNL     1     -33.409  14.202  -3.787  1.00 20.00     0.172 C 
BRANCH   4   5
HETATM    5  C3  UNL     1     -34.588  13.723  -4.614  1.00 20.00     0.138 C 
HETATM    6  O10 UNL     1     -34.993  12.561  -4.577  1.00 20.00    -0.297 OA
BRANCH   5   7
HETATM    7  C9  UNL     1     -35.238  14.774  -5.496  1.00 20.00     0.083 C 
BRANCH   7   8
HETATM    8  C6  UNL     1     -36.687  14.999  -5.200  1.00 20.00    -0.007 A 
HETATM    9  C4  UNL     1     -37.197  14.901  -3.790  1.00 20.00     0.005 A 
HETATM   10  C5  UNL     1     -37.127  16.238  -4.473  1.00 20.00     0.005 A 
ENDBRANCH   7   8
ENDBRANCH   5   7
ENDBRANCH   4   5
ENDBRANCH   2   4
TORSDOF 4
ENDMDL
MODEL 6
REMARK VINA RESULT:      -4.3     11.144     12.610
REMARK  4 active torsions:
REMARK  status: ('A' for Active; 'I' for Inactive)
REMARK    1  A    between atoms: C2_2  and  C8_8 
REMARK    2  A    between atoms: C3_3  and  C8_8 
REMARK    3  A    between atoms: C3_3  and  C9_9 
REMARK    4  A    between atoms: C6_6  and  C9_9 
ROOT
HETATM    1  C1  UNL     1     -34.439  16.819  -6.661  1.00 20.00    -0.111 C 
HETATM    2  C2  UNL     1     -34.755  15.662  -6.602  1.00 20.00    -0.100 C 
HETATM    3  C7  UNL     1     -34.052  18.228  -6.734  1.00 20.00     0.112 C 
ENDROOT
BRANCH   2   4
HETATM    4  C8  UNL     1     -35.148  14.250  -6.525  1.00 20.00     0.172 C 
BRANCH   4   5
HETATM    5  C3  UNL     1     -35.070  13.699  -5.113  1.00 20.00     0.138 C 
HETATM    6  O10 UNL     1     -34.734  12.540  -4.872  1.00 20.00    -0.297 OA
BRANCH   5   7
HETATM    7  C9  UNL     1     -35.436  14.677  -4.009  1.00 20.00     0.083 C 
BRANCH   7   8
HETATM    8  C6  UNL     1     -34.331  14.924  -3.031  1.00 20.00    -0.007 A 
HETATM    9  C4  UNL     1     -32.944  15.236  -3.517  1.00 20.00     0.005 A 
HETATM   10  C5  UNL     1     -33.768  16.306  -2.859  1.00 20.00     0.005 A 
ENDBRANCH   7   8
ENDBRANCH   5   7
ENDBRANCH   4   5
ENDBRANCH   2   4
TORSDOF 4
ENDMDL
MODEL 7
REMARK VINA RESULT:      -4.3     10.980     12.181
REMARK  4 active torsions:
REMARK  status: ('A' for Active; 'I' for Inactive)
REMARK    1  A    between atoms: C2_2  and  C8_8 
REMARK    2  A    between atoms: C3_3  and  C8_8 
REMARK    3  A    between atoms: C3_3  and  C9_9 
REMARK    4  A    between atoms: C6_6  and  C9_9 
ROOT
HETATM    1  C1  UNL     1     -34.787  15.581  -6.884  1.00 20.00    -0.111 C 
HETATM    2  C2  UNL     1     -34.721  14.690  -6.083  1.00 20.00    -0.100 C 
HETATM    3  C7  UNL     1     -34.868  16.667  -7.860  1.00 20.00     0.112 C 
ENDROOT
BRANCH   2   4
HETATM    4  C8  UNL     1     -34.643  13.604  -5.099  1.00 20.00     0.172 C 
BRANCH   4   5
HETATM    5  C3  UNL     1     -33.607  13.868  -4.021  1.00 20.00     0.138 C 
HETATM    6  O10 UNL     1     -32.801  13.014  -3.654  1.00 20.00    -0.297 OA
BRANCH   5   7
HETATM    7  C9  UNL     1     -33.630  15.263  -3.420  1.00 20.00     0.083 C 
BRANCH   7   8
HETATM    8  C6  UNL     1     -34.743  15.481  -2.443  1.00 20.00    -0.007 A 
HETATM    9  C4  UNL     1     -34.623  16.540  -1.383  1.00 20.00     0.005 A 
HETATM   10  C5  UNL     1     -35.587  16.721  -2.522  1.00 20.00     0.005 A 
ENDBRANCH   7   8
ENDBRANCH   5   7
ENDBRANCH   4   5
ENDBRANCH   2   4
TORSDOF 4
ENDMDL
MODEL 8
REMARK VINA RESULT:      -4.3     11.142     12.105
REMARK  4 active torsions:
REMARK  status: ('A' for Active; 'I' for Inactive)
REMARK    1  A    between atoms: C2_2  and  C8_8 
REMARK    2  A    between atoms: C3_3  and  C8_8 
REMARK    3  A    between atoms: C3_3  and  C9_9 
REMARK    4  A    between atoms: C6_6  and  C9_9 
ROOT
HETATM    1  C1  UNL     1     -33.055  18.254  -0.484  1.00 20.00    -0.111 C 
HETATM    2  C2  UNL     1     -33.731  17.426  -1.031  1.00 20.00    -0.100 C 
HETATM    3  C7  UNL     1     -32.232  19.263   0.184  1.00 20.00     0.112 C 
ENDROOT
BRANCH   2   4
HETATM    4  C8  UNL     1     -34.552  16.410  -1.699  1.00 20.00     0.172 C 
BRANCH   4   5
HETATM    5  C3  UNL     1     -34.237  16.288  -3.179  1.00 20.00     0.138 C 
HETATM    6  O10 UNL     1     -34.671  17.080  -4.015  1.00 20.00    -0.297 OA
BRANCH   5   7
HETATM    7  C9  UNL     1     -33.348  15.118  -3.565  1.00 20.00     0.083 C 
BRANCH   7   8
HETATM    8  C6  UNL     1     -34.081  13.821  -3.697  1.00 20.00    -0.007 A 
HETATM    9  C4  UNL     1     -35.550  13.809  -4.015  1.00 20.00     0.005 A 
HETATM   10  C5  UNL     1     -34.553  13.352  -5.044  1.00 20.00     0.005 A 
ENDBRANCH   7   8
ENDBRANCH   5   7
ENDBRANCH   4   5
ENDBRANCH   2   4
TORSDOF 4
ENDMDL
MODEL 9
REMARK VINA RESULT:      -4.2     11.324     12.945
REMARK  4 active torsions:
REMARK  status: ('A' for Active; 'I' for Inactive)
REMARK    1  A    between atoms: C2_2  and  C8_8 
REMARK    2  A    between atoms: C3_3  and  C8_8 
REMARK    3  A    between atoms: C3_3  and  C9_9 
REMARK    4  A    between atoms: C6_6  and  C9_9 
ROOT
HETATM    1  C1  UNL     1     -34.643  16.207  -1.651  1.00 20.00    -0.111 C 
HETATM    2  C2  UNL     1     -34.838  15.416  -2.532  1.00 20.00    -0.100 C 
HETATM    3  C7  UNL     1     -34.406  17.172  -0.577  1.00 20.00     0.112 C 
ENDROOT
BRANCH   2   4
HETATM    4  C8  UNL     1     -35.071  14.444  -3.607  1.00 20.00     0.172 C 
BRANCH   4   5
HETATM    5  C3  UNL     1     -36.436  14.605  -4.252  1.00 20.00     0.138 C 
HETATM    6  O10 UNL     1     -37.471  14.205  -3.719  1.00 20.00    -0.297 OA
BRANCH   5   7
HETATM    7  C9  UNL     1     -36.442  15.295  -5.605  1.00 20.00     0.083 C 
BRANCH   7   8
HETATM    8  C6  UNL     1     -35.076  15.592  -6.138  1.00 20.00    -0.007 A 
HETATM    9  C4  UNL     1     -34.577  14.897  -7.373  1.00 20.00     0.005 A 
HETATM   10  C5  UNL     1     -34.914  16.361  -7.418  1.00 20.00     0.005 A 
ENDBRANCH   7   8
ENDBRANCH   5   7
ENDBRANCH   4   5
ENDBRANCH   2   4
TORSDOF 4
ENDMDL
