MODEL 1
REMARK VINA RESULT:      -4.7      0.000      0.000
REMARK  3 active torsions:
REMARK  status: ('A' for Active; 'I' for Inactive)
REMARK    1  A    between atoms: C3_3  and  C7_7 
REMARK    2  A    between atoms: C6_6  and  C7_7 
REMARK    3  A    between atoms: C7_7  and  O8_8 
ROOT
HETATM    1  C7  UNL     1     -34.400   4.725   5.139  1.00 20.00     0.126 C 
ENDROOT
BRANCH   1   2
HETATM    2  C3  UNL     1     -34.564   5.534   3.881  1.00 20.00    -0.018 A 
HETATM    3  C1  UNL     1     -33.622   5.258   2.732  1.00 20.00     0.012 A 
HETATM    4  C2  UNL     1     -33.479   6.523   3.529  1.00 20.00     0.012 A 
HETATM    5  C4  UNL     1     -35.986   5.900   3.554  1.00 20.00     0.018 C 
ENDBRANCH   1   2
BRANCH   1   6
HETATM    6  C6  UNL     1     -34.746   5.542   6.394  1.00 20.00     0.028 C 
HETATM    7  C5  UNL     1     -33.821   6.735   6.598  1.00 20.00     0.007 C 
ENDBRANCH   1   6
BRANCH   1   8
HETATM    8  O8  UNL     1     -35.262   3.584   5.090  1.00 20.00    -0.395 OA
HETATM    9  H22 UNL     1     -35.205   3.240   4.186  1.00 20.00     0.210 HD
ENDBRANCH   1   8
TORSDOF 3
ENDMDL
MODEL 2
REMARK VINA RESULT:      -4.5      1.759      3.116
REMARK  3 active torsions:
REMARK  status: ('A' for Active; 'I' for Inactive)
REMARK    1  A    between atoms: C3_3  and  C7_7 
REMARK    2  A    between atoms: C6_6  and  C7_7 
REMARK    3  A    between atoms: C7_7  and  O8_8 
ROOT
HETATM    1  C7  UNL     1     -33.334   5.788   4.542  1.00 20.00     0.126 C 
ENDROOT
BRANCH   1   2
HETATM    2  C3  UNL     1     -34.693   5.184   4.770  1.00 20.00    -0.018 A 
HETATM    3  C1  UNL     1     -35.133   4.946   6.196  1.00 20.00     0.012 A 
HETATM    4  C2  UNL     1     -34.761   3.781   5.324  1.00 20.00     0.012 A 
HETATM    5  C4  UNL     1     -35.737   5.598   3.770  1.00 20.00     0.018 C 
ENDBRANCH   1   2
BRANCH   1   6
HETATM    6  C6  UNL     1     -33.087   6.098   3.057  1.00 20.00     0.028 C 
HETATM    7  C5  UNL     1     -32.201   7.318   2.845  1.00 20.00     0.007 C 
ENDBRANCH   1   6
BRANCH   1   8
HETATM    8  O8  UNL     1     -33.221   7.006   5.284  1.00 20.00    -0.395 OA
HETATM    9  H22 UNL     1     -33.836   6.928   6.028  1.00 20.00     0.210 HD
ENDBRANCH   1   8
TORSDOF 3
ENDMDL
MODEL 3
REMARK VINA RESULT:      -4.5      1.402      3.161
REMARK  3 active torsions:
REMARK  status: ('A' for Active; 'I' for Inactive)
REMARK    1  A    between atoms: C3_3  and  C7_7 
REMARK    2  A    between atoms: C6_6  and  C7_7 
REMARK    3  A    between atoms: C7_7  and  O8_8 
ROOT
HETATM    1  C7  UNL     1     -34.134   6.193   4.111  1.00 20.00     0.126 C 
ENDROOT
BRANCH   1   2
HETATM    2  C3  UNL     1     -34.197   5.787   5.558  1.00 20.00    -0.018 A 
HETATM    3  C1  UNL     1     -33.877   4.352   5.906  1.00 20.00     0.012 A 
HETATM    4  C2  UNL     1     -35.295   4.840   5.981  1.00 20.00     0.012 A 
HETATM    5  C4  UNL     1     -33.778   6.858   6.527  1.00 20.00     0.018 C 
ENDBRANCH   1   2
BRANCH   1   6
HETATM    6  C6  UNL     1     -32.704   6.110   3.555  1.00 20.00     0.028 C 
HETATM    7  C5  UNL     1     -32.284   7.367   2.806  1.00 20.00     0.007 C 
ENDBRANCH   1   6
BRANCH   1   8
HETATM    8  O8  UNL     1     -34.973   5.333   3.335  1.00 20.00    -0.395 OA
HETATM    9  H22 UNL     1     -34.454   5.078   2.558  1.00 20.00     0.210 HD
ENDBRANCH   1   8
TORSDOF 3
ENDMDL
MODEL 4
REMARK VINA RESULT:      -4.2     12.397     13.422
REMARK  3 active torsions:
REMARK  status: ('A' for Active; 'I' for Inactive)
REMARK    1  A    between atoms: C3_3  and  C7_7 
REMARK    2  A    between atoms: C6_6  and  C7_7 
REMARK    3  A    between atoms: C7_7  and  O8_8 
ROOT
HETATM    1  C7  UNL     1     -32.955  15.327  -3.551  1.00 20.00     0.126 C 
ENDROOT
BRANCH   1   2
HETATM    2  C3  UNL     1     -33.888  16.397  -3.053  1.00 20.00    -0.018 A 
HETATM    3  C1  UNL     1     -33.718  16.880  -1.632  1.00 20.00     0.012 A 
HETATM    4  C2  UNL     1     -34.896  16.021  -1.993  1.00 20.00     0.012 A 
HETATM    5  C4  UNL     1     -34.301  17.401  -4.094  1.00 20.00     0.018 C 
ENDBRANCH   1   2
BRANCH   1   6
HETATM    6  C6  UNL     1     -33.668  13.975  -3.712  1.00 20.00     0.028 C 
HETATM    7  C5  UNL     1     -34.373  13.832  -5.054  1.00 20.00     0.007 C 
ENDBRANCH   1   6
BRANCH   1   8
HETATM    8  O8  UNL     1     -32.421  15.711  -4.822  1.00 20.00    -0.395 OA
HETATM    9  H22 UNL     1     -31.458  15.679  -4.732  1.00 20.00     0.210 HD
ENDBRANCH   1   8
TORSDOF 3
ENDMDL
MODEL 5
REMARK VINA RESULT:      -4.2     11.785     13.065
REMARK  3 active torsions:
REMARK  status: ('A' for Active; 'I' for Inactive)
REMARK    1  A    between atoms: C3_3  and  C7_7 
REMARK    2  A    between atoms: C6_6  and  C7_7 
REMARK    3  A    between atoms: C7_7  and  O8_8 
ROOT
HETATM    1  C7  UNL     1     -35.307  13.975  -4.481  1.00 20.00     0.126 C 
ENDROOT
BRANCH   1   2
HETATM    2  C3  UNL     1     -34.196  14.627  -3.703  1.00 20.00    -0.018 A 
HETATM    3  C1  UNL     1     -34.573  15.566  -2.581  1.00 20.00     0.012 A 
HETATM    4  C2  UNL     1     -34.004  16.117  -3.857  1.00 20.00     0.012 A 
HETATM    5  C4  UNL     1     -32.972  13.773  -3.527  1.00 20.00     0.018 C 
ENDBRANCH   1   2
BRANCH   1   6
HETATM    6  C6  UNL     1     -35.102  14.113  -5.998  1.00 20.00     0.028 C 
HETATM    7  C5  UNL     1     -36.183  14.951  -6.668  1.00 20.00     0.007 C 
ENDBRANCH   1   6
BRANCH   1   8
HETATM    8  O8  UNL     1     -35.365  12.582  -4.157  1.00 20.00    -0.395 OA
HETATM    9  H22 UNL     1     -34.467  12.240  -4.276  1.00 20.00     0.210 HD
ENDBRANCH   1   8
TORSDOF 3
ENDMDL
MODEL 6
REMARK VINA RESULT:      -4.1      1.813      2.940
REMARK  3 active torsions:
REMARK  status: ('A' for Active; 'I' for Inactive)
REMARK    1  A    between atoms: C3_3  and  C7_7 
REMARK    2  A    between atoms: C6_6  and  C7_7 
REMARK    3  A    between atoms: C7_7  and  O8_8 
ROOT
HETATM    1  C7  UNL     1     -33.913   6.617   4.098  1.00 20.00     0.126 C 
ENDROOT
BRANCH   1   2
HETATM    2  C3  UNL     1     -32.617   6.617   3.334  1.00 20.00    -0.018 A 
HETATM    3  C1  UNL     1     -31.567   7.634   3.718  1.00 20.00     0.012 A 
HETATM    4  C2  UNL     1     -32.327   7.793   2.432  1.00 20.00     0.012 A 
HETATM    5  C4  UNL     1     -32.153   5.257   2.890  1.00 20.00     0.018 C 
ENDBRANCH   1   2
BRANCH   1   6
HETATM    6  C6  UNL     1     -34.826   5.455   3.677  1.00 20.00     0.028 C 
HETATM    7  C5  UNL     1     -35.211   4.551   4.841  1.00 20.00     0.007 C 
ENDBRANCH   1   6
BRANCH   1   8
HETATM    8  O8  UNL     1     -33.643   6.497   5.498  1.00 20.00    -0.395 OA
HETATM    9  H22 UNL     1     -33.008   5.771   5.589  1.00 20.00     0.210 HD
ENDBRANCH   1   8
TORSDOF 3
ENDMDL
MODEL 7
REMARK VINA RESULT:      -4.0     12.173     13.152
REMARK  3 active torsions:
REMARK  status: ('A' for Active; 'I' for Inactive)
REMARK    1  A    between atoms: C3_3  and  C7_7 
REMARK    2  A    between atoms: C6_6  and  C7_7 
REMARK    3  A    between atoms: C7_7  and  O8_8 
ROOT
HETATM    1  C7  UNL     1     -34.650  13.652  -4.741  1.00 20.00     0.126 C 
ENDROOT
BRANCH   1   2
HETATM    2  C3  UNL     1     -35.479  14.556  -5.613  1.00 20.00    -0.018 A 
HETATM    3  C1  UNL     1     -35.418  14.350  -7.109  1.00 20.00     0.012 A 
HETATM    4  C2  UNL     1     -34.757  15.549  -6.492  1.00 20.00     0.012 A 
HETATM    5  C4  UNL     1     -36.793  14.972  -5.011  1.00 20.00     0.018 C 
ENDBRANCH   1   2
BRANCH   1   6
HETATM    6  C6  UNL     1     -34.077  14.397  -3.525  1.00 20.00     0.028 C 
HETATM    7  C5  UNL     1     -32.561  14.530  -3.573  1.00 20.00     0.007 C 
ENDBRANCH   1   6
BRANCH   1   8
HETATM    8  O8  UNL     1     -35.458  12.570  -4.270  1.00 20.00    -0.395 OA
HETATM    9  H22 UNL     1     -34.892  11.785  -4.281  1.00 20.00     0.210 HD
ENDBRANCH   1   8
TORSDOF 3
ENDMDL
MODEL 8
REMARK VINA RESULT:      -4.0     12.381     13.255
REMARK  3 active torsions:
REMARK  status: ('A' for Active; 'I' for Inactive)
REMARK    1  A    between atoms: C3_3  and  C7_7 
REMARK    2  A    between atoms: C6_6  and  C7_7 
REMARK    3  A    between atoms: C7_7  and  O8_8 
ROOT
HETATM    1  C7  UNL     1     -33.557  15.405  -4.028  1.00 20.00     0.126 C 
ENDROOT
BRANCH   1   2
HETATM    2  C3  UNL     1     -34.379  14.678  -5.058  1.00 20.00    -0.018 A 
HETATM    3  C1  UNL     1     -34.344  15.187  -6.480  1.00 20.00     0.012 A 
HETATM    4  C2  UNL     1     -35.574  15.392  -5.643  1.00 20.00     0.012 A 
HETATM    5  C4  UNL     1     -34.481  13.193  -4.842  1.00 20.00     0.018 C 
ENDBRANCH   1   2
BRANCH   1   6
HETATM    6  C6  UNL     1     -34.305  15.542  -2.692  1.00 20.00     0.028 C 
HETATM    7  C5  UNL     1     -33.864  16.758  -1.888  1.00 20.00     0.007 C 
ENDBRANCH   1   6
BRANCH   1   8
HETATM    8  O8  UNL     1     -32.340  14.690  -3.795  1.00 20.00    -0.395 OA
HETATM    9  H22 UNL     1     -31.946  15.079  -3.001  1.00 20.00     0.210 HD
ENDBRANCH   1   8
TORSDOF 3
ENDMDL
MODEL 9
REMARK VINA RESULT:      -4.0     12.115     12.688
REMARK  3 active torsions:
REMARK  status: ('A' for Active; 'I' for Inactive)
REMARK    1  A    between atoms: C3_3  and  C7_7 
REMARK    2  A    between atoms: C6_6  and  C7_7 
REMARK    3  A    between atoms: C7_7  and  O8_8 
ROOT
HETATM    1  C7  UNL     1     -34.895  15.569  -2.296  1.00 20.00     0.126 C 
ENDROOT
BRANCH   1   2
HETATM    2  C3  UNL     1     -34.272  15.213  -3.619  1.00 20.00    -0.018 A 
HETATM    3  C1  UNL     1     -33.757  13.805  -3.803  1.00 20.00     0.012 A 
HETATM    4  C2  UNL     1     -32.787  14.941  -3.651  1.00 20.00     0.012 A 
HETATM    5  C4  UNL     1     -34.889  15.900  -4.806  1.00 20.00     0.018 C 
ENDBRANCH   1   2
BRANCH   1   6
HETATM    6  C6  UNL     1     -34.151  16.722  -1.604  1.00 20.00     0.028 C 
HETATM    7  C5  UNL     1     -34.715  17.050  -0.228  1.00 20.00     0.007 C 
ENDBRANCH   1   6
BRANCH   1   8
HETATM    8  O8  UNL     1     -36.255  15.965  -2.499  1.00 20.00    -0.395 OA
HETATM    9  H22 UNL     1     -36.241  16.632  -3.201  1.00 20.00     0.210 HD
ENDBRANCH   1   8
TORSDOF 3
ENDMDL
