MODEL 1
REMARK VINA RESULT:      -4.8      0.000      0.000
REMARK  3 active torsions:
REMARK  status: ('A' for Active; 'I' for Inactive)
REMARK    1  A    between atoms: C1_1  and  C7_7 
REMARK    2  A    between atoms: C2_2  and  C3_3 
REMARK    3  A    between atoms: C3_3  and  C9_9 
ROOT
HETATM    1  C1  UNL     1     -35.508  15.957  -2.542  1.00 20.00    -0.012 C 
HETATM    2  C3  UNL     1     -35.550  14.913  -3.386  1.00 20.00    -0.024 C 
ENDROOT
BRANCH   1   3
HETATM    3  C7  UNL     1     -34.383  16.351  -1.675  1.00 20.00     0.009 C 
HETATM    4  C5  UNL     1     -33.730  17.718  -2.000  1.00 20.00     0.008 C 
HETATM    5  C4  UNL     1     -33.576  17.922  -0.477  1.00 20.00     0.001 C 
HETATM    6  C6  UNL     1     -34.773  16.964  -0.306  1.00 20.00     0.008 C 
ENDBRANCH   1   3
BRANCH   2   7
HETATM    7  C2  UNL     1     -36.817  14.727  -4.145  1.00 20.00     0.265 C 
HETATM    8  O10 UNL     1     -37.805  14.177  -3.674  1.00 20.00    -0.302 OA
ENDBRANCH   2   7
BRANCH   2   9
HETATM    9  C9  UNL     1     -34.445  13.912  -3.591  1.00 20.00     0.037 C 
HETATM   10  C8  UNL     1     -34.585  13.166  -4.910  1.00 20.00     0.010 C 
ENDBRANCH   2   9
TORSDOF 3
ENDMDL
MODEL 2
REMARK VINA RESULT:      -4.6      1.715      1.845
REMARK  3 active torsions:
REMARK  status: ('A' for Active; 'I' for Inactive)
REMARK    1  A    between atoms: C1_1  and  C7_7 
REMARK    2  A    between atoms: C2_2  and  C3_3 
REMARK    3  A    between atoms: C3_3  and  C9_9 
ROOT
HETATM    1  C1  UNL     1     -34.817  15.611  -2.240  1.00 20.00    -0.012 C 
HETATM    2  C3  UNL     1     -34.380  15.046  -3.379  1.00 20.00    -0.024 C 
ENDROOT
BRANCH   1   3
HETATM    3  C7  UNL     1     -34.138  16.651  -1.449  1.00 20.00     0.009 C 
HETATM    4  C5  UNL     1     -34.379  18.112  -1.908  1.00 20.00     0.008 C 
HETATM    5  C4  UNL     1     -34.398  18.499  -0.414  1.00 20.00     0.001 C 
HETATM    6  C6  UNL     1     -34.833  17.048  -0.122  1.00 20.00     0.008 C 
ENDBRANCH   1   3
BRANCH   2   7
HETATM    7  C2  UNL     1     -35.257  14.004  -3.978  1.00 20.00     0.265 C 
HETATM    8  O10 UNL     1     -34.920  12.832  -4.096  1.00 20.00    -0.302 OA
ENDBRANCH   2   7
BRANCH   2   9
HETATM    9  C9  UNL     1     -33.076  15.357  -4.061  1.00 20.00     0.037 C 
HETATM   10  C8  UNL     1     -33.226  16.444  -5.115  1.00 20.00     0.010 C 
ENDBRANCH   2   9
TORSDOF 3
ENDMDL
MODEL 3
REMARK VINA RESULT:      -4.4      1.285      2.161
REMARK  3 active torsions:
REMARK  status: ('A' for Active; 'I' for Inactive)
REMARK    1  A    between atoms: C1_1  and  C7_7 
REMARK    2  A    between atoms: C2_2  and  C3_3 
REMARK    3  A    between atoms: C3_3  and  C9_9 
ROOT
HETATM    1  C1  UNL     1     -34.128  15.701  -2.653  1.00 20.00    -0.012 C 
HETATM    2  C3  UNL     1     -34.960  14.885  -3.322  1.00 20.00    -0.024 C 
ENDROOT
BRANCH   1   3
HETATM    3  C7  UNL     1     -34.490  16.919  -1.907  1.00 20.00     0.009 C 
HETATM    4  C5  UNL     1     -34.808  16.717  -0.404  1.00 20.00     0.008 C 
HETATM    5  C4  UNL     1     -34.099  18.065  -0.150  1.00 20.00     0.001 C 
HETATM    6  C6  UNL     1     -33.304  17.803  -1.446  1.00 20.00     0.008 C 
ENDBRANCH   1   3
BRANCH   2   7
HETATM    7  C2  UNL     1     -34.335  13.721  -4.006  1.00 20.00     0.265 C 
HETATM    8  O10 UNL     1     -34.954  12.704  -4.297  1.00 20.00    -0.302 OA
ENDBRANCH   2   7
BRANCH   2   9
HETATM    9  C9  UNL     1     -36.446  15.078  -3.460  1.00 20.00     0.037 C 
HETATM   10  C8  UNL     1     -36.821  15.701  -4.796  1.00 20.00     0.010 C 
ENDBRANCH   2   9
TORSDOF 3
ENDMDL
MODEL 4
REMARK VINA RESULT:      -4.4      1.752      2.232
REMARK  3 active torsions:
REMARK  status: ('A' for Active; 'I' for Inactive)
REMARK    1  A    between atoms: C1_1  and  C7_7 
REMARK    2  A    between atoms: C2_2  and  C3_3 
REMARK    3  A    between atoms: C3_3  and  C9_9 
ROOT
HETATM    1  C1  UNL     1     -34.490  15.261  -2.773  1.00 20.00    -0.012 C 
HETATM    2  C3  UNL     1     -34.625  14.917  -4.065  1.00 20.00    -0.024 C 
ENDROOT
BRANCH   1   3
HETATM    3  C7  UNL     1     -34.801  16.567  -2.167  1.00 20.00     0.009 C 
HETATM    4  C5  UNL     1     -34.659  16.645  -0.625  1.00 20.00     0.008 C 
HETATM    5  C4  UNL     1     -34.105  18.072  -0.823  1.00 20.00     0.001 C 
HETATM    6  C6  UNL     1     -33.670  17.625  -2.234  1.00 20.00     0.008 C 
ENDBRANCH   1   3
BRANCH   2   7
HETATM    7  C2  UNL     1     -34.229  13.528  -4.424  1.00 20.00     0.265 C 
HETATM    8  O10 UNL     1     -35.012  12.587  -4.425  1.00 20.00    -0.302 OA
ENDBRANCH   2   7
BRANCH   2   9
HETATM    9  C9  UNL     1     -35.103  15.827  -5.164  1.00 20.00     0.037 C 
HETATM   10  C8  UNL     1     -33.982  16.210  -6.119  1.00 20.00     0.010 C 
ENDBRANCH   2   9
TORSDOF 3
ENDMDL
MODEL 5
REMARK VINA RESULT:      -4.3      2.290      4.858
REMARK  3 active torsions:
REMARK  status: ('A' for Active; 'I' for Inactive)
REMARK    1  A    between atoms: C1_1  and  C7_7 
REMARK    2  A    between atoms: C2_2  and  C3_3 
REMARK    3  A    between atoms: C3_3  and  C9_9 
ROOT
HETATM    1  C1  UNL     1     -33.893  16.235  -2.853  1.00 20.00    -0.012 C 
HETATM    2  C3  UNL     1     -34.043  17.065  -1.806  1.00 20.00    -0.024 C 
ENDROOT
BRANCH   1   3
HETATM    3  C7  UNL     1     -34.381  14.849  -2.962  1.00 20.00     0.009 C 
HETATM    4  C5  UNL     1     -35.571  14.629  -3.930  1.00 20.00     0.008 C 
HETATM    5  C4  UNL     1     -34.908  13.292  -4.322  1.00 20.00     0.001 C 
HETATM    6  C6  UNL     1     -33.565  13.921  -3.897  1.00 20.00     0.008 C 
ENDBRANCH   1   3
BRANCH   2   7
HETATM    7  C2  UNL     1     -33.442  18.419  -1.945  1.00 20.00     0.265 C 
HETATM    8  O10 UNL     1     -33.475  19.063  -2.987  1.00 20.00    -0.302 OA
ENDBRANCH   2   7
BRANCH   2   9
HETATM    9  C9  UNL     1     -34.728  16.720  -0.512  1.00 20.00     0.037 C 
HETATM   10  C8  UNL     1     -34.592  17.829   0.522  1.00 20.00     0.010 C 
ENDBRANCH   2   9
TORSDOF 3
ENDMDL
MODEL 6
REMARK VINA RESULT:      -4.2      2.155      2.432
REMARK  3 active torsions:
REMARK  status: ('A' for Active; 'I' for Inactive)
REMARK    1  A    between atoms: C1_1  and  C7_7 
REMARK    2  A    between atoms: C2_2  and  C3_3 
REMARK    3  A    between atoms: C3_3  and  C9_9 
ROOT
HETATM    1  C1  UNL     1     -33.684  17.104  -3.140  1.00 20.00    -0.012 C 
HETATM    2  C3  UNL     1     -33.357  16.154  -4.032  1.00 20.00    -0.024 C 
ENDROOT
BRANCH   1   3
HETATM    3  C7  UNL     1     -33.597  17.011  -1.672  1.00 20.00     0.009 C 
HETATM    4  C5  UNL     1     -33.820  18.336  -0.900  1.00 20.00     0.008 C 
HETATM    5  C4  UNL     1     -34.567  17.503   0.164  1.00 20.00     0.001 C 
HETATM    6  C6  UNL     1     -34.866  16.484  -0.956  1.00 20.00     0.008 C 
ENDBRANCH   1   3
BRANCH   2   7
HETATM    7  C2  UNL     1     -33.550  16.498  -5.466  1.00 20.00     0.265 C 
HETATM    8  O10 UNL     1     -34.649  16.718  -5.960  1.00 20.00    -0.302 OA
ENDBRANCH   2   7
BRANCH   2   9
HETATM    9  C9  UNL     1     -32.854  14.777  -3.692  1.00 20.00     0.037 C 
HETATM   10  C8  UNL     1     -33.951  13.727  -3.786  1.00 20.00     0.010 C 
ENDBRANCH   2   9
TORSDOF 3
ENDMDL
MODEL 7
REMARK VINA RESULT:      -4.0      2.259      4.641
REMARK  3 active torsions:
REMARK  status: ('A' for Active; 'I' for Inactive)
REMARK    1  A    between atoms: C1_1  and  C7_7 
REMARK    2  A    between atoms: C2_2  and  C3_3 
REMARK    3  A    between atoms: C3_3  and  C9_9 
ROOT
HETATM    1  C1  UNL     1     -34.767  15.508  -2.243  1.00 20.00    -0.012 C 
HETATM    2  C3  UNL     1     -34.405  16.712  -1.770  1.00 20.00    -0.024 C 
ENDROOT
BRANCH   1   3
HETATM    3  C7  UNL     1     -34.587  15.004  -3.616  1.00 20.00     0.009 C 
HETATM    4  C5  UNL     1     -33.576  13.841  -3.779  1.00 20.00     0.008 C 
HETATM    5  C4  UNL     1     -34.537  13.253  -4.835  1.00 20.00     0.001 C 
HETATM    6  C6  UNL     1     -35.670  14.014  -4.116  1.00 20.00     0.008 C 
ENDBRANCH   1   3
BRANCH   2   7
HETATM    7  C2  UNL     1     -34.712  16.980  -0.339  1.00 20.00     0.265 C 
HETATM    8  O10 UNL     1     -34.083  17.780   0.343  1.00 20.00    -0.302 OA
ENDBRANCH   2   7
BRANCH   2   9
HETATM    9  C9  UNL     1     -33.758  17.806  -2.576  1.00 20.00     0.037 C 
HETATM   10  C8  UNL     1     -34.783  18.751  -3.186  1.00 20.00     0.010 C 
ENDBRANCH   2   9
TORSDOF 3
ENDMDL
MODEL 8
REMARK VINA RESULT:      -4.0     12.276     14.438
REMARK  3 active torsions:
REMARK  status: ('A' for Active; 'I' for Inactive)
REMARK    1  A    between atoms: C1_1  and  C7_7 
REMARK    2  A    between atoms: C2_2  and  C3_3 
REMARK    3  A    between atoms: C3_3  and  C9_9 
ROOT
HETATM    1  C1  UNL     1     -42.464   3.677  -3.012  1.00 20.00    -0.012 C 
HETATM    2  C3  UNL     1     -42.075   4.756  -2.312  1.00 20.00    -0.024 C 
ENDROOT
BRANCH   1   3
HETATM    3  C7  UNL     1     -41.942   2.305  -2.888  1.00 20.00     0.009 C 
HETATM    4  C5  UNL     1     -42.992   1.172  -3.012  1.00 20.00     0.008 C 
HETATM    5  C4  UNL     1     -41.920   0.364  -3.776  1.00 20.00     0.001 C 
HETATM    6  C6  UNL     1     -41.288   1.717  -4.165  1.00 20.00     0.008 C 
ENDBRANCH   1   3
BRANCH   2   7
HETATM    7  C2  UNL     1     -42.758   6.037  -2.638  1.00 20.00     0.265 C 
HETATM    8  O10 UNL     1     -43.158   6.316  -3.762  1.00 20.00    -0.302 OA
ENDBRANCH   2   7
BRANCH   2   9
HETATM    9  C9  UNL     1     -40.994   4.773  -1.266  1.00 20.00     0.037 C 
HETATM   10  C8  UNL     1     -40.879   6.128  -0.583  1.00 20.00     0.010 C 
ENDBRANCH   2   9
TORSDOF 3
ENDMDL
MODEL 9
REMARK VINA RESULT:      -4.0      2.836      4.040
REMARK  3 active torsions:
REMARK  status: ('A' for Active; 'I' for Inactive)
REMARK    1  A    between atoms: C1_1  and  C7_7 
REMARK    2  A    between atoms: C2_2  and  C3_3 
REMARK    3  A    between atoms: C3_3  and  C9_9 
ROOT
HETATM    1  C1  UNL     1     -34.544  15.500  -5.163  1.00 20.00    -0.012 C 
HETATM    2  C3  UNL     1     -34.839  14.971  -3.963  1.00 20.00    -0.024 C 
ENDROOT
BRANCH   1   3
HETATM    3  C7  UNL     1     -34.761  16.891  -5.596  1.00 20.00     0.009 C 
HETATM    4  C5  UNL     1     -33.595  17.872  -5.316  1.00 20.00     0.008 C 
HETATM    5  C4  UNL     1     -33.920  18.529  -6.675  1.00 20.00     0.001 C 
HETATM    6  C6  UNL     1     -34.517  17.172  -7.101  1.00 20.00     0.008 C 
ENDBRANCH   1   3
BRANCH   2   7
HETATM    7  C2  UNL     1     -34.529  13.527  -3.782  1.00 20.00     0.265 C 
HETATM    8  O10 UNL     1     -34.871  12.663  -4.580  1.00 20.00    -0.302 OA
ENDBRANCH   2   7
BRANCH   2   9
HETATM    9  C9  UNL     1     -35.483  15.709  -2.820  1.00 20.00     0.037 C 
HETATM   10  C8  UNL     1     -34.458  16.213  -1.814  1.00 20.00     0.010 C 
ENDBRANCH   2   9
TORSDOF 3
ENDMDL
