MODEL 1
REMARK VINA RESULT:      -5.4      0.000      0.000
REMARK  3 active torsions:
REMARK  status: ('A' for Active; 'I' for Inactive)
REMARK    1  A    between atoms: C5_5  and  C8_8 
REMARK    2  A    between atoms: C7_7  and  C8_8 
REMARK    3  A    between atoms: C8_8  and  O9_9 
ROOT
HETATM    1  C1  UNL     1     -32.138   8.320   2.047  1.00 20.00     0.012 C 
HETATM    2  C2  UNL     1     -32.380   7.356   2.721  1.00 20.00    -0.115 C 
HETATM    3  C7  UNL     1     -32.672   6.173   3.546  1.00 20.00     0.125 C 
ENDROOT
BRANCH   3   4
HETATM    4  C8  UNL     1     -34.118   6.174   4.067  1.00 20.00     0.137 C 
BRANCH   4   5
HETATM    5  C5  UNL     1     -34.189   5.795   5.521  1.00 20.00    -0.017 A 
HETATM    6  C3  UNL     1     -33.899   4.358   5.892  1.00 20.00     0.012 A 
HETATM    7  C4  UNL     1     -35.307   4.878   5.960  1.00 20.00     0.012 A 
HETATM    8  C6  UNL     1     -33.745   6.872   6.471  1.00 20.00     0.018 C 
ENDBRANCH   4   5
BRANCH   4   9
HETATM    9  O9  UNL     1     -34.869   5.229   3.295  1.00 20.00    -0.394 OA
HETATM   10  H21 UNL     1     -35.364   5.747   2.644  1.00 20.00     0.210 HD
ENDBRANCH   4   9
ENDBRANCH   3   4
TORSDOF 3
ENDMDL
MODEL 2
REMARK VINA RESULT:      -5.3      1.519      3.469
REMARK  3 active torsions:
REMARK  status: ('A' for Active; 'I' for Inactive)
REMARK    1  A    between atoms: C5_5  and  C8_8 
REMARK    2  A    between atoms: C7_7  and  C8_8 
REMARK    3  A    between atoms: C8_8  and  O9_9 
ROOT
HETATM    1  C1  UNL     1     -33.311   7.457   6.914  1.00 20.00     0.012 C 
HETATM    2  C2  UNL     1     -34.024   6.528   6.651  1.00 20.00    -0.115 C 
HETATM    3  C7  UNL     1     -34.900   5.389   6.334  1.00 20.00     0.125 C 
ENDROOT
BRANCH   3   4
HETATM    4  C8  UNL     1     -34.439   4.638   5.074  1.00 20.00     0.137 C 
BRANCH   4   5
HETATM    5  C5  UNL     1     -34.597   5.475   3.836  1.00 20.00    -0.017 A 
HETATM    6  C3  UNL     1     -33.686   5.186   2.664  1.00 20.00     0.012 A 
HETATM    7  C4  UNL     1     -33.482   6.431   3.479  1.00 20.00     0.012 A 
HETATM    8  C6  UNL     1     -36.009   5.898   3.542  1.00 20.00     0.018 C 
ENDBRANCH   4   5
BRANCH   4   9
HETATM    9  O9  UNL     1     -35.233   3.452   4.948  1.00 20.00    -0.394 OA
HETATM   10  H21 UNL     1     -36.072   3.732   4.556  1.00 20.00     0.210 HD
ENDBRANCH   4   9
ENDBRANCH   3   4
TORSDOF 3
ENDMDL
MODEL 3
REMARK VINA RESULT:      -5.1      1.432      1.779
REMARK  3 active torsions:
REMARK  status: ('A' for Active; 'I' for Inactive)
REMARK    1  A    between atoms: C5_5  and  C8_8 
REMARK    2  A    between atoms: C7_7  and  C8_8 
REMARK    3  A    between atoms: C8_8  and  O9_9 
ROOT
HETATM    1  C1  UNL     1     -32.084   8.211   2.320  1.00 20.00     0.012 C 
HETATM    2  C2  UNL     1     -32.462   7.129   2.676  1.00 20.00    -0.115 C 
HETATM    3  C7  UNL     1     -32.923   5.800   3.108  1.00 20.00     0.125 C 
ENDROOT
BRANCH   3   4
HETATM    4  C8  UNL     1     -33.286   5.771   4.602  1.00 20.00     0.137 C 
BRANCH   4   5
HETATM    5  C5  UNL     1     -34.658   5.201   4.833  1.00 20.00    -0.017 A 
HETATM    6  C3  UNL     1     -35.125   5.037   6.261  1.00 20.00     0.012 A 
HETATM    7  C4  UNL     1     -34.759   3.826   5.452  1.00 20.00     0.012 A 
HETATM    8  C6  UNL     1     -35.678   5.585   3.797  1.00 20.00     0.018 C 
ENDBRANCH   4   5
BRANCH   4   9
HETATM    9  O9  UNL     1     -33.243   7.116   5.095  1.00 20.00    -0.394 OA
HETATM   10  H21 UNL     1     -34.153   7.445   5.056  1.00 20.00     0.210 HD
ENDBRANCH   4   9
ENDBRANCH   3   4
TORSDOF 3
ENDMDL
MODEL 4
REMARK VINA RESULT:      -5.0      0.741      1.525
REMARK  3 active torsions:
REMARK  status: ('A' for Active; 'I' for Inactive)
REMARK    1  A    between atoms: C5_5  and  C8_8 
REMARK    2  A    between atoms: C7_7  and  C8_8 
REMARK    3  A    between atoms: C8_8  and  O9_9 
ROOT
HETATM    1  C1  UNL     1     -32.050   8.205   2.075  1.00 20.00     0.012 C 
HETATM    2  C2  UNL     1     -32.327   7.271   2.778  1.00 20.00    -0.115 C 
HETATM    3  C7  UNL     1     -32.660   6.126   3.639  1.00 20.00     0.125 C 
ENDROOT
BRANCH   3   4
HETATM    4  C8  UNL     1     -34.161   6.068   3.968  1.00 20.00     0.137 C 
BRANCH   4   5
HETATM    5  C5  UNL     1     -34.427   5.285   5.225  1.00 20.00    -0.017 A 
HETATM    6  C3  UNL     1     -34.633   6.056   6.508  1.00 20.00     0.012 A 
HETATM    7  C4  UNL     1     -33.363   5.284   6.297  1.00 20.00     0.012 A 
HETATM    8  C6  UNL     1     -35.226   4.028   5.022  1.00 20.00     0.018 C 
ENDBRANCH   4   5
BRANCH   4   9
HETATM    9  O9  UNL     1     -34.833   5.440   2.869  1.00 20.00    -0.394 OA
HETATM   10  H21 UNL     1     -35.714   5.840   2.830  1.00 20.00     0.210 HD
ENDBRANCH   4   9
ENDBRANCH   3   4
TORSDOF 3
ENDMDL
MODEL 5
REMARK VINA RESULT:      -5.0     11.591     12.898
REMARK  3 active torsions:
REMARK  status: ('A' for Active; 'I' for Inactive)
REMARK    1  A    between atoms: C5_5  and  C8_8 
REMARK    2  A    between atoms: C7_7  and  C8_8 
REMARK    3  A    between atoms: C8_8  and  O9_9 
ROOT
HETATM    1  C1  UNL     1     -34.724  15.813  -2.228  1.00 20.00     0.012 C 
HETATM    2  C2  UNL     1     -34.173  15.052  -2.975  1.00 20.00    -0.115 C 
HETATM    3  C7  UNL     1     -33.492  14.119  -3.888  1.00 20.00     0.125 C 
ENDROOT
BRANCH   3   4
HETATM    4  C8  UNL     1     -34.469  13.465  -4.879  1.00 20.00     0.137 C 
BRANCH   4   5
HETATM    5  C5  UNL     1     -35.146  14.485  -5.752  1.00 20.00    -0.017 A 
HETATM    6  C3  UNL     1     -34.853  14.454  -7.235  1.00 20.00     0.012 A 
HETATM    7  C4  UNL     1     -34.288  15.556  -6.386  1.00 20.00     0.012 A 
HETATM    8  C6  UNL     1     -36.535  14.860  -5.316  1.00 20.00     0.018 C 
ENDBRANCH   4   5
BRANCH   4   9
HETATM    9  O9  UNL     1     -35.460  12.757  -4.124  1.00 20.00    -0.394 OA
HETATM   10  H21 UNL     1     -36.111  12.439  -4.767  1.00 20.00     0.210 HD
ENDBRANCH   4   9
ENDBRANCH   3   4
TORSDOF 3
ENDMDL
MODEL 6
REMARK VINA RESULT:      -5.0     11.875     12.805
REMARK  3 active torsions:
REMARK  status: ('A' for Active; 'I' for Inactive)
REMARK    1  A    between atoms: C5_5  and  C8_8 
REMARK    2  A    between atoms: C7_7  and  C8_8 
REMARK    3  A    between atoms: C8_8  and  O9_9 
ROOT
HETATM    1  C1  UNL     1     -35.038  14.118  -6.185  1.00 20.00     0.012 C 
HETATM    2  C2  UNL     1     -34.444  14.076  -5.143  1.00 20.00    -0.115 C 
HETATM    3  C7  UNL     1     -33.718  14.019  -3.864  1.00 20.00     0.125 C 
ENDROOT
BRANCH   3   4
HETATM    4  C8  UNL     1     -32.954  15.322  -3.574  1.00 20.00     0.137 C 
BRANCH   4   5
HETATM    5  C5  UNL     1     -33.870  16.406  -3.076  1.00 20.00    -0.017 A 
HETATM    6  C3  UNL     1     -33.778  16.794  -1.618  1.00 20.00     0.012 A 
HETATM    7  C4  UNL     1     -34.966  16.018  -2.111  1.00 20.00     0.012 A 
HETATM    8  C6  UNL     1     -34.161  17.489  -4.077  1.00 20.00     0.018 C 
ENDBRANCH   4   5
BRANCH   4   9
HETATM    9  O9  UNL     1     -32.331  15.751  -4.791  1.00 20.00    -0.394 OA
HETATM   10  H21 UNL     1     -31.378  15.666  -4.649  1.00 20.00     0.210 HD
ENDBRANCH   4   9
ENDBRANCH   3   4
TORSDOF 3
ENDMDL
MODEL 7
REMARK VINA RESULT:      -4.9      1.513      4.152
REMARK  3 active torsions:
REMARK  status: ('A' for Active; 'I' for Inactive)
REMARK    1  A    between atoms: C5_5  and  C8_8 
REMARK    2  A    between atoms: C7_7  and  C8_8 
REMARK    3  A    between atoms: C8_8  and  O9_9 
ROOT
HETATM    1  C1  UNL     1     -35.190   4.051   5.957  1.00 20.00     0.012 C 
HETATM    2  C2  UNL     1     -34.989   4.723   4.982  1.00 20.00    -0.115 C 
HETATM    3  C7  UNL     1     -34.746   5.543   3.784  1.00 20.00     0.125 C 
ENDROOT
BRANCH   3   4
HETATM    4  C8  UNL     1     -33.843   6.750   4.085  1.00 20.00     0.137 C 
BRANCH   4   5
HETATM    5  C5  UNL     1     -32.563   6.700   3.296  1.00 20.00    -0.017 A 
HETATM    6  C3  UNL     1     -31.474   7.687   3.649  1.00 20.00     0.012 A 
HETATM    7  C4  UNL     1     -32.252   7.857   2.375  1.00 20.00     0.012 A 
HETATM    8  C6  UNL     1     -32.151   5.322   2.859  1.00 20.00     0.018 C 
ENDBRANCH   4   5
BRANCH   4   9
HETATM    9  O9  UNL     1     -33.536   6.739   5.484  1.00 20.00    -0.394 OA
HETATM   10  H21 UNL     1     -33.291   7.647   5.713  1.00 20.00     0.210 HD
ENDBRANCH   4   9
ENDBRANCH   3   4
TORSDOF 3
ENDMDL
MODEL 8
REMARK VINA RESULT:      -4.8     11.910     12.960
REMARK  3 active torsions:
REMARK  status: ('A' for Active; 'I' for Inactive)
REMARK    1  A    between atoms: C5_5  and  C8_8 
REMARK    2  A    between atoms: C7_7  and  C8_8 
REMARK    3  A    between atoms: C8_8  and  O9_9 
ROOT
HETATM    1  C1  UNL     1     -33.675  17.486  -1.147  1.00 20.00     0.012 C 
HETATM    2  C2  UNL     1     -34.013  16.571  -1.847  1.00 20.00    -0.115 C 
HETATM    3  C7  UNL     1     -34.430  15.449  -2.703  1.00 20.00     0.125 C 
ENDROOT
BRANCH   3   4
HETATM    4  C8  UNL     1     -33.654  15.413  -4.029  1.00 20.00     0.137 C 
BRANCH   4   5
HETATM    5  C5  UNL     1     -34.413  14.679  -5.100  1.00 20.00    -0.017 A 
HETATM    6  C3  UNL     1     -34.326  15.204  -6.515  1.00 20.00     0.012 A 
HETATM    7  C4  UNL     1     -35.597  15.374  -5.733  1.00 20.00     0.012 A 
HETATM    8  C6  UNL     1     -34.491  13.191  -4.904  1.00 20.00     0.018 C 
ENDBRANCH   4   5
BRANCH   4   9
HETATM    9  O9  UNL     1     -32.405  14.751  -3.796  1.00 20.00    -0.394 OA
HETATM   10  H21 UNL     1     -32.410  14.489  -2.864  1.00 20.00     0.210 HD
ENDBRANCH   4   9
ENDBRANCH   3   4
TORSDOF 3
ENDMDL
MODEL 9
REMARK VINA RESULT:      -4.8     11.686     12.632
REMARK  3 active torsions:
REMARK  status: ('A' for Active; 'I' for Inactive)
REMARK    1  A    between atoms: C5_5  and  C8_8 
REMARK    2  A    between atoms: C7_7  and  C8_8 
REMARK    3  A    between atoms: C8_8  and  O9_9 
ROOT
HETATM    1  C1  UNL     1     -34.804  17.051  -0.112  1.00 20.00     0.012 C 
HETATM    2  C2  UNL     1     -34.393  16.705  -1.185  1.00 20.00    -0.115 C 
HETATM    3  C7  UNL     1     -33.884  16.281  -2.499  1.00 20.00     0.125 C 
ENDROOT
BRANCH   3   4
HETATM    4  C8  UNL     1     -35.007  15.770  -3.417  1.00 20.00     0.137 C 
BRANCH   4   5
HETATM    5  C5  UNL     1     -34.505  14.743  -4.394  1.00 20.00    -0.017 A 
HETATM    6  C3  UNL     1     -35.014  13.327  -4.258  1.00 20.00     0.012 A 
HETATM    7  C4  UNL     1     -33.599  13.652  -3.873  1.00 20.00     0.012 A 
HETATM    8  C6  UNL     1     -34.249  15.270  -5.779  1.00 20.00     0.018 C 
ENDBRANCH   4   5
BRANCH   4   9
HETATM    9  O9  UNL     1     -35.537  16.889  -4.137  1.00 20.00    -0.394 OA
HETATM   10  H21 UNL     1     -34.772  17.385  -4.463  1.00 20.00     0.210 HD
ENDBRANCH   4   9
ENDBRANCH   3   4
TORSDOF 3
ENDMDL
