MODEL 1
REMARK VINA RESULT:      -5.0      0.000      0.000
REMARK  6 active torsions:
REMARK  status: ('A' for Active; 'I' for Inactive)
REMARK    1  A    between atoms: C1_1  and  C6_6 
REMARK    2  A    between atoms: C1_1  and  C7_7 
REMARK    3  A    between atoms: C6_6  and  C8_8 
REMARK    4  A    between atoms: C7_7  and  C10_10 
REMARK    5  A    between atoms: C8_8  and  C9_9 
REMARK    6  A    between atoms: C9_9  and  C11_11 
ROOT
HETATM    1  C1  UNL     1     -33.713   5.657   3.052  1.00 20.00     0.127 C 
HETATM    2  O12 UNL     1     -34.063   5.130   1.997  1.00 20.00    -0.298 OA
ENDROOT
BRANCH   1   3
HETATM    3  C6  UNL     1     -32.291   6.144   3.282  1.00 20.00     0.078 C 
BRANCH   3   4
HETATM    4  C8  UNL     1     -32.124   7.633   2.981  1.00 20.00     0.008 C 
BRANCH   4   5
HETATM    5  C9  UNL     1     -31.706   7.860   1.526  1.00 20.00     0.004 C 
BRANCH   5   6
HETATM    6  C11 UNL     1     -32.075   9.258   0.993  1.00 20.00    -0.023 C 
HETATM    7  C4  UNL     1     -32.914   9.123  -0.280  1.00 20.00     0.009 C 
HETATM    8  C5  UNL     1     -32.833  10.094   2.024  1.00 20.00     0.009 C 
ENDBRANCH   5   6
ENDBRANCH   4   5
ENDBRANCH   3   4
ENDBRANCH   1   3
BRANCH   1   9
HETATM    9  C7  UNL     1     -34.685   5.909   4.198  1.00 20.00     0.082 C 
BRANCH   9  10
HETATM   10  C10 UNL     1     -34.171   5.434   5.565  1.00 20.00    -0.016 C 
HETATM   11  C2  UNL     1     -35.106   4.365   6.134  1.00 20.00     0.010 C 
HETATM   12  C3  UNL     1     -34.055   6.597   6.553  1.00 20.00     0.010 C 
ENDBRANCH   9  10
ENDBRANCH   1   9
TORSDOF 6
ENDMDL
MODEL 2
REMARK VINA RESULT:      -4.9      1.390      5.548
REMARK  6 active torsions:
REMARK  status: ('A' for Active; 'I' for Inactive)
REMARK    1  A    between atoms: C1_1  and  C6_6 
REMARK    2  A    between atoms: C1_1  and  C7_7 
REMARK    3  A    between atoms: C6_6  and  C8_8 
REMARK    4  A    between atoms: C7_7  and  C10_10 
REMARK    5  A    between atoms: C8_8  and  C9_9 
REMARK    6  A    between atoms: C9_9  and  C11_11 
ROOT
HETATM    1  C1  UNL     1     -31.887   7.296   3.101  1.00 20.00     0.127 C 
HETATM    2  O12 UNL     1     -31.351   7.660   4.147  1.00 20.00    -0.298 OA
ENDROOT
BRANCH   1   3
HETATM    3  C6  UNL     1     -32.910   6.172   3.064  1.00 20.00     0.078 C 
BRANCH   3   4
HETATM    4  C8  UNL     1     -34.223   6.550   3.748  1.00 20.00     0.008 C 
BRANCH   4   5
HETATM    5  C9  UNL     1     -35.024   5.304   4.137  1.00 20.00     0.004 C 
BRANCH   5   6
HETATM    6  C11 UNL     1     -35.048   5.039   5.655  1.00 20.00    -0.023 C 
HETATM    7  C4  UNL     1     -34.439   3.667   5.952  1.00 20.00     0.009 C 
HETATM    8  C5  UNL     1     -34.303   6.115   6.446  1.00 20.00     0.009 C 
ENDBRANCH   5   6
ENDBRANCH   4   5
ENDBRANCH   3   4
ENDBRANCH   1   3
BRANCH   1   9
HETATM    9  C7  UNL     1     -31.606   7.970   1.765  1.00 20.00     0.082 C 
BRANCH   9  10
HETATM   10  C10 UNL     1     -32.727   8.910   1.295  1.00 20.00    -0.016 C 
HETATM   11  C2  UNL     1     -32.635   9.119  -0.218  1.00 20.00     0.010 C 
HETATM   12  C3  UNL     1     -32.656  10.263   2.008  1.00 20.00     0.010 C 
ENDBRANCH   9  10
ENDBRANCH   1   9
TORSDOF 6
ENDMDL
MODEL 3
REMARK VINA RESULT:      -4.9      1.330      5.520
REMARK  6 active torsions:
REMARK  status: ('A' for Active; 'I' for Inactive)
REMARK    1  A    between atoms: C1_1  and  C6_6 
REMARK    2  A    between atoms: C1_1  and  C7_7 
REMARK    3  A    between atoms: C6_6  and  C8_8 
REMARK    4  A    between atoms: C7_7  and  C10_10 
REMARK    5  A    between atoms: C8_8  and  C9_9 
REMARK    6  A    between atoms: C9_9  and  C11_11 
ROOT
HETATM    1  C1  UNL     1     -32.121   7.137   3.113  1.00 20.00     0.127 C 
HETATM    2  O12 UNL     1     -31.236   7.636   3.807  1.00 20.00    -0.298 OA
ENDROOT
BRANCH   1   3
HETATM    3  C6  UNL     1     -32.521   5.675   3.239  1.00 20.00     0.078 C 
BRANCH   3   4
HETATM    4  C8  UNL     1     -33.978   5.429   2.848  1.00 20.00     0.008 C 
BRANCH   4   5
HETATM    5  C9  UNL     1     -34.913   5.626   4.044  1.00 20.00     0.004 C 
BRANCH   5   6
HETATM    6  C11 UNL     1     -34.287   5.204   5.387  1.00 20.00    -0.023 C 
HETATM    7  C4  UNL     1     -34.154   6.424   6.303  1.00 20.00     0.009 C 
HETATM    8  C5  UNL     1     -35.097   4.116   6.093  1.00 20.00     0.009 C 
ENDBRANCH   5   6
ENDBRANCH   4   5
ENDBRANCH   3   4
ENDBRANCH   1   3
BRANCH   1   9
HETATM    9  C7  UNL     1     -32.921   7.950   2.104  1.00 20.00     0.082 C 
BRANCH   9  10
HETATM   10  C10 UNL     1     -32.077   8.958   1.309  1.00 20.00    -0.016 C 
HETATM   11  C2  UNL     1     -32.442  10.386   1.719  1.00 20.00     0.010 C 
HETATM   12  C3  UNL     1     -32.277   8.787  -0.199  1.00 20.00     0.010 C 
ENDBRANCH   9  10
ENDBRANCH   1   9
TORSDOF 6
ENDMDL
MODEL 4
REMARK VINA RESULT:      -4.8     10.319     12.068
REMARK  6 active torsions:
REMARK  status: ('A' for Active; 'I' for Inactive)
REMARK    1  A    between atoms: C1_1  and  C6_6 
REMARK    2  A    between atoms: C1_1  and  C7_7 
REMARK    3  A    between atoms: C6_6  and  C8_8 
REMARK    4  A    between atoms: C7_7  and  C10_10 
REMARK    5  A    between atoms: C8_8  and  C9_9 
REMARK    6  A    between atoms: C9_9  and  C11_11 
ROOT
HETATM    1  C1  UNL     1     -34.747  13.751  -4.455  1.00 20.00     0.127 C 
HETATM    2  O12 UNL     1     -34.997  12.546  -4.457  1.00 20.00    -0.298 OA
ENDROOT
BRANCH   1   3
HETATM    3  C6  UNL     1     -33.702  14.361  -3.533  1.00 20.00     0.078 C 
BRANCH   3   4
HETATM    4  C8  UNL     1     -33.961  15.840  -3.249  1.00 20.00     0.008 C 
BRANCH   4   5
HETATM    5  C9  UNL     1     -34.746  16.026  -1.948  1.00 20.00     0.004 C 
BRANCH   5   6
HETATM    6  C11 UNL     1     -34.064  16.983  -0.952  1.00 20.00    -0.023 C 
HETATM    7  C4  UNL     1     -33.662  18.275  -1.666  1.00 20.00     0.009 C 
HETATM    8  C5  UNL     1     -34.957  17.312   0.245  1.00 20.00     0.009 C 
ENDBRANCH   5   6
ENDBRANCH   4   5
ENDBRANCH   3   4
ENDBRANCH   1   3
BRANCH   1   9
HETATM    9  C7  UNL     1     -35.428  14.725  -5.407  1.00 20.00     0.082 C 
BRANCH   9  10
HETATM   10  C10 UNL     1     -34.721  14.864  -6.764  1.00 20.00    -0.016 C 
HETATM   11  C2  UNL     1     -34.283  16.314  -6.981  1.00 20.00     0.010 C 
HETATM   12  C3  UNL     1     -35.629  14.421  -7.915  1.00 20.00     0.010 C 
ENDBRANCH   9  10
ENDBRANCH   1   9
TORSDOF 6
ENDMDL
MODEL 5
REMARK VINA RESULT:      -4.7     10.205     12.065
REMARK  6 active torsions:
REMARK  status: ('A' for Active; 'I' for Inactive)
REMARK    1  A    between atoms: C1_1  and  C6_6 
REMARK    2  A    between atoms: C1_1  and  C7_7 
REMARK    3  A    between atoms: C6_6  and  C8_8 
REMARK    4  A    between atoms: C7_7  and  C10_10 
REMARK    5  A    between atoms: C8_8  and  C9_9 
REMARK    6  A    between atoms: C9_9  and  C11_11 
ROOT
HETATM    1  C1  UNL     1     -34.486  13.605  -4.786  1.00 20.00     0.127 C 
HETATM    2  O12 UNL     1     -34.892  12.449  -4.892  1.00 20.00    -0.298 OA
ENDROOT
BRANCH   1   3
HETATM    3  C6  UNL     1     -33.990  14.172  -3.465  1.00 20.00     0.078 C 
BRANCH   3   4
HETATM    4  C8  UNL     1     -33.091  15.394  -3.651  1.00 20.00     0.008 C 
BRANCH   4   5
HETATM    5  C9  UNL     1     -33.706  16.638  -3.003  1.00 20.00     0.004 C 
BRANCH   5   6
HETATM    6  C11 UNL     1     -34.925  16.326  -2.114  1.00 20.00    -0.023 C 
HETATM    7  C4  UNL     1     -34.622  16.711  -0.664  1.00 20.00     0.009 C 
HETATM    8  C5  UNL     1     -36.190  17.046  -2.585  1.00 20.00     0.009 C 
ENDBRANCH   5   6
ENDBRANCH   4   5
ENDBRANCH   3   4
ENDBRANCH   1   3
BRANCH   1   9
HETATM    9  C7  UNL     1     -34.402  14.551  -5.978  1.00 20.00     0.082 C 
BRANCH   9  10
HETATM   10  C10 UNL     1     -35.760  15.122  -6.415  1.00 20.00    -0.016 C 
HETATM   11  C2  UNL     1     -36.071  14.692  -7.849  1.00 20.00     0.010 C 
HETATM   12  C3  UNL     1     -35.780  16.650  -6.318  1.00 20.00     0.010 C 
ENDBRANCH   9  10
ENDBRANCH   1   9
TORSDOF 6
ENDMDL
MODEL 6
REMARK VINA RESULT:      -4.5     10.537     11.838
REMARK  6 active torsions:
REMARK  status: ('A' for Active; 'I' for Inactive)
REMARK    1  A    between atoms: C1_1  and  C6_6 
REMARK    2  A    between atoms: C1_1  and  C7_7 
REMARK    3  A    between atoms: C6_6  and  C8_8 
REMARK    4  A    between atoms: C7_7  and  C10_10 
REMARK    5  A    between atoms: C8_8  and  C9_9 
REMARK    6  A    between atoms: C9_9  and  C11_11 
ROOT
HETATM    1  C1  UNL     1     -33.304  15.705  -3.721  1.00 20.00     0.127 C 
HETATM    2  O12 UNL     1     -32.546  15.940  -4.660  1.00 20.00    -0.298 OA
ENDROOT
BRANCH   1   3
HETATM    3  C6  UNL     1     -33.896  14.325  -3.482  1.00 20.00     0.078 C 
BRANCH   3   4
HETATM    4  C8  UNL     1     -34.531  13.733  -4.740  1.00 20.00     0.008 C 
BRANCH   4   5
HETATM    5  C9  UNL     1     -35.863  14.415  -5.061  1.00 20.00     0.004 C 
BRANCH   5   6
HETATM    6  C11 UNL     1     -35.860  15.161  -6.409  1.00 20.00    -0.023 C 
HETATM    7  C4  UNL     1     -35.933  16.671  -6.167  1.00 20.00     0.009 C 
HETATM    8  C5  UNL     1     -34.629  14.834  -7.255  1.00 20.00     0.009 C 
ENDBRANCH   5   6
ENDBRANCH   4   5
ENDBRANCH   3   4
ENDBRANCH   1   3
BRANCH   1   9
HETATM    9  C7  UNL     1     -33.678  16.765  -2.692  1.00 20.00     0.082 C 
BRANCH   9  10
HETATM   10  C10 UNL     1     -34.924  16.415  -1.864  1.00 20.00    -0.016 C 
HETATM   11  C2  UNL     1     -36.154  17.112  -2.448  1.00 20.00     0.010 C 
HETATM   12  C3  UNL     1     -34.750  16.817  -0.397  1.00 20.00     0.010 C 
ENDBRANCH   9  10
ENDBRANCH   1   9
TORSDOF 6
ENDMDL
MODEL 7
REMARK VINA RESULT:      -4.5     10.446     12.188
REMARK  6 active torsions:
REMARK  status: ('A' for Active; 'I' for Inactive)
REMARK    1  A    between atoms: C1_1  and  C6_6 
REMARK    2  A    between atoms: C1_1  and  C7_7 
REMARK    3  A    between atoms: C6_6  and  C8_8 
REMARK    4  A    between atoms: C7_7  and  C10_10 
REMARK    5  A    between atoms: C8_8  and  C9_9 
REMARK    6  A    between atoms: C9_9  and  C11_11 
ROOT
HETATM    1  C1  UNL     1     -35.073  13.687  -4.983  1.00 20.00     0.127 C 
HETATM    2  O12 UNL     1     -34.819  12.512  -4.725  1.00 20.00    -0.298 OA
ENDROOT
BRANCH   1   3
HETATM    3  C6  UNL     1     -35.105  14.216  -6.408  1.00 20.00     0.078 C 
BRANCH   3   4
HETATM    4  C8  UNL     1     -35.621  15.652  -6.491  1.00 20.00     0.008 C 
BRANCH   4   5
HETATM    5  C9  UNL     1     -34.485  16.631  -6.801  1.00 20.00     0.004 C 
BRANCH   5   6
HETATM    6  C11 UNL     1     -34.679  18.018  -6.159  1.00 20.00    -0.023 C 
HETATM    7  C4  UNL     1     -35.994  18.049  -5.378  1.00 20.00     0.009 C 
HETATM    8  C5  UNL     1     -33.521  18.401  -5.236  1.00 20.00     0.009 C 
ENDBRANCH   5   6
ENDBRANCH   4   5
ENDBRANCH   3   4
ENDBRANCH   1   3
BRANCH   1   9
HETATM    9  C7  UNL     1     -35.423  14.701  -3.901  1.00 20.00     0.082 C 
BRANCH   9  10
HETATM   10  C10 UNL     1     -34.281  14.971  -2.910  1.00 20.00    -0.016 C 
HETATM   11  C2  UNL     1     -34.616  16.186  -2.043  1.00 20.00     0.010 C 
HETATM   12  C3  UNL     1     -32.955  15.207  -3.638  1.00 20.00     0.010 C 
ENDBRANCH   9  10
ENDBRANCH   1   9
TORSDOF 6
ENDMDL
MODEL 8
REMARK VINA RESULT:      -4.4     10.753     11.832
REMARK  6 active torsions:
REMARK  status: ('A' for Active; 'I' for Inactive)
REMARK    1  A    between atoms: C1_1  and  C6_6 
REMARK    2  A    between atoms: C1_1  and  C7_7 
REMARK    3  A    between atoms: C6_6  and  C8_8 
REMARK    4  A    between atoms: C7_7  and  C10_10 
REMARK    5  A    between atoms: C8_8  and  C9_9 
REMARK    6  A    between atoms: C9_9  and  C11_11 
ROOT
HETATM    1  C1  UNL     1     -33.293  16.412  -4.030  1.00 20.00     0.127 C 
HETATM    2  O12 UNL     1     -32.963  16.749  -5.166  1.00 20.00    -0.298 OA
ENDROOT
BRANCH   1   3
HETATM    3  C6  UNL     1     -32.991  15.029  -3.474  1.00 20.00     0.078 C 
BRANCH   3   4
HETATM    4  C8  UNL     1     -33.788  13.928  -4.174  1.00 20.00     0.008 C 
BRANCH   4   5
HETATM    5  C9  UNL     1     -35.290  14.088  -3.922  1.00 20.00     0.004 C 
BRANCH   5   6
HETATM    6  C11 UNL     1     -36.096  14.395  -5.198  1.00 20.00    -0.023 C 
HETATM    7  C4  UNL     1     -36.741  15.779  -5.083  1.00 20.00     0.009 C 
HETATM    8  C5  UNL     1     -35.237  14.330  -6.461  1.00 20.00     0.009 C 
ENDBRANCH   5   6
ENDBRANCH   4   5
ENDBRANCH   3   4
ENDBRANCH   1   3
BRANCH   1   9
HETATM    9  C7  UNL     1     -33.991  17.365  -3.068  1.00 20.00     0.082 C 
BRANCH   9  10
HETATM   10  C10 UNL     1     -33.623  17.139  -1.593  1.00 20.00    -0.016 C 
HETATM   11  C2  UNL     1     -34.827  16.579  -0.834  1.00 20.00     0.010 C 
HETATM   12  C3  UNL     1     -33.153  18.437  -0.930  1.00 20.00     0.010 C 
ENDBRANCH   9  10
ENDBRANCH   1   9
TORSDOF 6
ENDMDL
MODEL 9
REMARK VINA RESULT:      -4.4     10.384     11.980
REMARK  6 active torsions:
REMARK  status: ('A' for Active; 'I' for Inactive)
REMARK    1  A    between atoms: C1_1  and  C6_6 
REMARK    2  A    between atoms: C1_1  and  C7_7 
REMARK    3  A    between atoms: C6_6  and  C8_8 
REMARK    4  A    between atoms: C7_7  and  C10_10 
REMARK    5  A    between atoms: C8_8  and  C9_9 
REMARK    6  A    between atoms: C9_9  and  C11_11 
ROOT
HETATM    1  C1  UNL     1     -34.216  13.902  -4.036  1.00 20.00     0.127 C 
HETATM    2  O12 UNL     1     -33.189  13.288  -3.749  1.00 20.00    -0.298 OA
ENDROOT
BRANCH   1   3
HETATM    3  C6  UNL     1     -34.903  13.746  -5.384  1.00 20.00     0.078 C 
BRANCH   3   4
HETATM    4  C8  UNL     1     -34.418  14.766  -6.413  1.00 20.00     0.008 C 
BRANCH   4   5
HETATM    5  C9  UNL     1     -35.491  15.820  -6.697  1.00 20.00     0.004 C 
BRANCH   5   6
HETATM    6  C11 UNL     1     -36.892  15.418  -6.198  1.00 20.00    -0.023 C 
HETATM    7  C4  UNL     1     -37.434  16.492  -5.251  1.00 20.00     0.009 C 
HETATM    8  C5  UNL     1     -37.879  15.198  -7.345  1.00 20.00     0.009 C 
ENDBRANCH   5   6
ENDBRANCH   4   5
ENDBRANCH   3   4
ENDBRANCH   1   3
BRANCH   1   9
HETATM    9  C7  UNL     1     -34.911  14.833  -3.051  1.00 20.00     0.082 C 
BRANCH   9  10
HETATM   10  C10 UNL     1     -34.009  15.955  -2.515  1.00 20.00    -0.016 C 
HETATM   11  C2  UNL     1     -34.598  16.530  -1.225  1.00 20.00     0.010 C 
HETATM   12  C3  UNL     1     -33.835  17.074  -3.546  1.00 20.00     0.010 C 
ENDBRANCH   9  10
ENDBRANCH   1   9
TORSDOF 6
ENDMDL
