MODEL 1
REMARK VINA RESULT:      -5.5      0.000      0.000
REMARK  3 active torsions:
REMARK  status: ('A' for Active; 'I' for Inactive)
REMARK    1  A    between atoms: C3_3  and  C7_7 
REMARK    2  A    between atoms: C3_3  and  C8_8 
REMARK    3  A    between atoms: C6_6  and  C8_8 
ROOT
HETATM    1  C1  UNL     1     -32.160   8.787   1.231  1.00 20.00     0.012 C 
HETATM    2  C2  UNL     1     -32.061   8.061   2.182  1.00 20.00    -0.110 C 
HETATM    3  C7  UNL     1     -31.933   7.178   3.347  1.00 20.00     0.171 C 
ENDROOT
BRANCH   3   4
HETATM    4  C3  UNL     1     -33.143   6.281   3.534  1.00 20.00     0.138 C 
HETATM    5  O9  UNL     1     -33.631   5.627   2.611  1.00 20.00    -0.297 OA
BRANCH   4   6
HETATM    6  C8  UNL     1     -33.717   6.240   4.939  1.00 20.00     0.083 C 
BRANCH   6   7
HETATM    7  C6  UNL     1     -34.901   5.338   5.082  1.00 20.00    -0.007 A 
HETATM    8  C4  UNL     1     -34.710   3.864   5.307  1.00 20.00     0.005 A 
HETATM    9  C5  UNL     1     -35.234   4.731   6.417  1.00 20.00     0.005 A 
ENDBRANCH   6   7
ENDBRANCH   4   6
ENDBRANCH   3   4
TORSDOF 3
ENDMDL
MODEL 2
REMARK VINA RESULT:      -5.1      1.598      4.055
REMARK  3 active torsions:
REMARK  status: ('A' for Active; 'I' for Inactive)
REMARK    1  A    between atoms: C3_3  and  C7_7 
REMARK    2  A    between atoms: C3_3  and  C8_8 
REMARK    3  A    between atoms: C6_6  and  C8_8 
ROOT
HETATM    1  C1  UNL     1     -33.480   7.354   6.766  1.00 20.00     0.012 C 
HETATM    2  C2  UNL     1     -34.093   6.342   6.561  1.00 20.00    -0.110 C 
HETATM    3  C7  UNL     1     -34.844   5.106   6.319  1.00 20.00     0.171 C 
ENDROOT
BRANCH   3   4
HETATM    4  C3  UNL     1     -34.922   4.750   4.845  1.00 20.00     0.138 C 
HETATM    5  O9  UNL     1     -35.087   3.594   4.452  1.00 20.00    -0.297 OA
BRANCH   4   6
HETATM    6  C8  UNL     1     -34.783   5.915   3.882  1.00 20.00     0.083 C 
BRANCH   6   7
HETATM    7  C6  UNL     1     -33.596   5.812   2.977  1.00 20.00    -0.007 A 
HETATM    8  C4  UNL     1     -32.810   7.041   2.615  1.00 20.00     0.005 A 
HETATM    9  C5  UNL     1     -32.209   6.005   3.523  1.00 20.00     0.005 A 
ENDBRANCH   6   7
ENDBRANCH   4   6
ENDBRANCH   3   4
TORSDOF 3
ENDMDL
MODEL 3
REMARK VINA RESULT:      -5.0      0.582      4.932
REMARK  3 active torsions:
REMARK  status: ('A' for Active; 'I' for Inactive)
REMARK    1  A    between atoms: C3_3  and  C7_7 
REMARK    2  A    between atoms: C3_3  and  C8_8 
REMARK    3  A    between atoms: C6_6  and  C8_8 
ROOT
HETATM    1  C1  UNL     1     -35.025   4.398   5.949  1.00 20.00     0.012 C 
HETATM    2  C2  UNL     1     -34.432   5.345   5.510  1.00 20.00    -0.110 C 
HETATM    3  C7  UNL     1     -33.707   6.506   4.981  1.00 20.00     0.171 C 
ENDROOT
BRANCH   3   4
HETATM    4  C3  UNL     1     -33.308   6.332   3.527  1.00 20.00     0.138 C 
HETATM    5  O9  UNL     1     -33.836   5.498   2.792  1.00 20.00    -0.297 OA
BRANCH   4   6
HETATM    6  C8  UNL     1     -32.210   7.258   3.035  1.00 20.00     0.083 C 
BRANCH   6   7
HETATM    7  C6  UNL     1     -32.584   8.048   1.821  1.00 20.00    -0.007 A 
HETATM    8  C4  UNL     1     -32.476   9.547   1.829  1.00 20.00     0.005 A 
HETATM    9  C5  UNL     1     -31.522   8.730   1.004  1.00 20.00     0.005 A 
ENDBRANCH   6   7
ENDBRANCH   4   6
ENDBRANCH   3   4
TORSDOF 3
ENDMDL
MODEL 4
REMARK VINA RESULT:      -4.7      1.374      1.700
REMARK  3 active torsions:
REMARK  status: ('A' for Active; 'I' for Inactive)
REMARK    1  A    between atoms: C3_3  and  C7_7 
REMARK    2  A    between atoms: C3_3  and  C8_8 
REMARK    3  A    between atoms: C6_6  and  C8_8 
ROOT
HETATM    1  C1  UNL     1     -32.571  10.031   1.461  1.00 20.00     0.012 C 
HETATM    2  C2  UNL     1     -32.279   8.880   1.635  1.00 20.00    -0.110 C 
HETATM    3  C7  UNL     1     -31.921   7.472   1.841  1.00 20.00     0.171 C 
ENDROOT
BRANCH   3   4
HETATM    4  C3  UNL     1     -32.128   7.021   3.275  1.00 20.00     0.138 C 
HETATM    5  O9  UNL     1     -31.597   7.589   4.230  1.00 20.00    -0.297 OA
BRANCH   4   6
HETATM    6  C8  UNL     1     -33.035   5.817   3.458  1.00 20.00     0.083 C 
BRANCH   6   7
HETATM    7  C6  UNL     1     -34.255   6.099   4.277  1.00 20.00    -0.007 A 
HETATM    8  C4  UNL     1     -35.267   5.016   4.527  1.00 20.00     0.005 A 
HETATM    9  C5  UNL     1     -34.398   5.505   5.651  1.00 20.00     0.005 A 
ENDBRANCH   6   7
ENDBRANCH   4   6
ENDBRANCH   3   4
TORSDOF 3
ENDMDL
MODEL 5
REMARK VINA RESULT:      -4.6      1.837      4.557
REMARK  3 active torsions:
REMARK  status: ('A' for Active; 'I' for Inactive)
REMARK    1  A    between atoms: C3_3  and  C7_7 
REMARK    2  A    between atoms: C3_3  and  C8_8 
REMARK    3  A    between atoms: C6_6  and  C8_8 
ROOT
HETATM    1  C1  UNL     1     -34.956   3.577   4.817  1.00 20.00     0.012 C 
HETATM    2  C2  UNL     1     -34.838   4.459   5.623  1.00 20.00    -0.110 C 
HETATM    3  C7  UNL     1     -34.699   5.533   6.613  1.00 20.00     0.171 C 
ENDROOT
BRANCH   3   4
HETATM    4  C3  UNL     1     -33.823   6.671   6.121  1.00 20.00     0.138 C 
HETATM    5  O9  UNL     1     -33.144   7.359   6.883  1.00 20.00    -0.297 OA
BRANCH   4   6
HETATM    6  C8  UNL     1     -33.840   6.908   4.622  1.00 20.00     0.083 C 
BRANCH   6   7
HETATM    7  C6  UNL     1     -32.494   6.796   3.978  1.00 20.00    -0.007 A 
HETATM    8  C4  UNL     1     -32.302   5.927   2.766  1.00 20.00     0.005 A 
HETATM    9  C5  UNL     1     -32.242   7.423   2.634  1.00 20.00     0.005 A 
ENDBRANCH   6   7
ENDBRANCH   4   6
ENDBRANCH   3   4
TORSDOF 3
ENDMDL
MODEL 6
REMARK VINA RESULT:      -4.4     11.562     12.171
REMARK  3 active torsions:
REMARK  status: ('A' for Active; 'I' for Inactive)
REMARK    1  A    between atoms: C3_3  and  C7_7 
REMARK    2  A    between atoms: C3_3  and  C8_8 
REMARK    3  A    between atoms: C6_6  and  C8_8 
ROOT
HETATM    1  C1  UNL     1     -34.423  15.024  -6.669  1.00 20.00     0.012 C 
HETATM    2  C2  UNL     1     -34.824  14.467  -5.684  1.00 20.00    -0.110 C 
HETATM    3  C7  UNL     1     -35.308  13.782  -4.481  1.00 20.00     0.171 C 
ENDROOT
BRANCH   3   4
HETATM    4  C3  UNL     1     -36.418  14.545  -3.781  1.00 20.00     0.138 C 
HETATM    5  O9  UNL     1     -37.585  14.151  -3.768  1.00 20.00    -0.297 OA
BRANCH   4   6
HETATM    6  C8  UNL     1     -35.995  15.830  -3.093  1.00 20.00     0.083 C 
BRANCH   6   7
HETATM    7  C6  UNL     1     -34.818  15.670  -2.184  1.00 20.00    -0.007 A 
HETATM    8  C4  UNL     1     -33.725  16.702  -2.169  1.00 20.00     0.005 A 
HETATM    9  C5  UNL     1     -34.652  16.574  -0.993  1.00 20.00     0.005 A 
ENDBRANCH   6   7
ENDBRANCH   4   6
ENDBRANCH   3   4
TORSDOF 3
ENDMDL
MODEL 7
REMARK VINA RESULT:      -4.4     11.214     12.550
REMARK  3 active torsions:
REMARK  status: ('A' for Active; 'I' for Inactive)
REMARK    1  A    between atoms: C3_3  and  C7_7 
REMARK    2  A    between atoms: C3_3  and  C8_8 
REMARK    3  A    between atoms: C6_6  and  C8_8 
ROOT
HETATM    1  C1  UNL     1     -34.634  16.313  -1.543  1.00 20.00     0.012 C 
HETATM    2  C2  UNL     1     -34.052  15.901  -2.509  1.00 20.00    -0.110 C 
HETATM    3  C7  UNL     1     -33.336  15.405  -3.690  1.00 20.00     0.171 C 
ENDROOT
BRANCH   3   4
HETATM    4  C3  UNL     1     -33.687  13.966  -4.023  1.00 20.00     0.138 C 
HETATM    5  O9  UNL     1     -33.042  13.011  -3.590  1.00 20.00    -0.297 OA
BRANCH   4   6
HETATM    6  C8  UNL     1     -34.890  13.779  -4.931  1.00 20.00     0.083 C 
BRANCH   6   7
HETATM    7  C6  UNL     1     -35.111  14.913  -5.881  1.00 20.00    -0.007 A 
HETATM    8  C4  UNL     1     -34.416  14.932  -7.214  1.00 20.00     0.005 A 
HETATM    9  C5  UNL     1     -35.899  14.700  -7.144  1.00 20.00     0.005 A 
ENDBRANCH   6   7
ENDBRANCH   4   6
ENDBRANCH   3   4
TORSDOF 3
ENDMDL
MODEL 8
REMARK VINA RESULT:      -4.4     11.023     11.933
REMARK  3 active torsions:
REMARK  status: ('A' for Active; 'I' for Inactive)
REMARK    1  A    between atoms: C3_3  and  C7_7 
REMARK    2  A    between atoms: C3_3  and  C8_8 
REMARK    3  A    between atoms: C6_6  and  C8_8 
ROOT
HETATM    1  C1  UNL     1     -35.203  14.400  -6.988  1.00 20.00     0.012 C 
HETATM    2  C2  UNL     1     -35.175  14.062  -5.836  1.00 20.00    -0.110 C 
HETATM    3  C7  UNL     1     -35.149  13.647  -4.430  1.00 20.00     0.171 C 
ENDROOT
BRANCH   3   4
HETATM    4  C3  UNL     1     -33.801  13.885  -3.775  1.00 20.00     0.138 C 
HETATM    5  O9  UNL     1     -32.917  13.029  -3.753  1.00 20.00    -0.297 OA
BRANCH   4   6
HETATM    6  C8  UNL     1     -33.611  15.254  -3.147  1.00 20.00     0.083 C 
BRANCH   6   7
HETATM    7  C6  UNL     1     -34.791  15.726  -2.358  1.00 20.00    -0.007 A 
HETATM    8  C4  UNL     1     -34.593  16.531  -1.104  1.00 20.00     0.005 A 
HETATM    9  C5  UNL     1     -35.154  17.185  -2.336  1.00 20.00     0.005 A 
ENDBRANCH   6   7
ENDBRANCH   4   6
ENDBRANCH   3   4
TORSDOF 3
ENDMDL
MODEL 9
REMARK VINA RESULT:      -4.4     11.580     12.396
REMARK  3 active torsions:
REMARK  status: ('A' for Active; 'I' for Inactive)
REMARK    1  A    between atoms: C3_3  and  C7_7 
REMARK    2  A    between atoms: C3_3  and  C8_8 
REMARK    3  A    between atoms: C6_6  and  C8_8 
ROOT
HETATM    1  C1  UNL     1     -35.021  13.231  -4.404  1.00 20.00     0.012 C 
HETATM    2  C2  UNL     1     -34.140  13.984  -4.090  1.00 20.00    -0.110 C 
HETATM    3  C7  UNL     1     -33.060  14.898  -3.704  1.00 20.00     0.171 C 
ENDROOT
BRANCH   3   4
HETATM    4  C3  UNL     1     -33.363  16.343  -4.057  1.00 20.00     0.138 C 
HETATM    5  O9  UNL     1     -32.999  16.855  -5.116  1.00 20.00    -0.297 OA
BRANCH   4   6
HETATM    6  C8  UNL     1     -34.148  17.121  -3.016  1.00 20.00     0.083 C 
BRANCH   6   7
HETATM    7  C6  UNL     1     -33.788  16.776  -1.606  1.00 20.00    -0.007 A 
HETATM    8  C4  UNL     1     -33.571  17.863  -0.591  1.00 20.00     0.005 A 
HETATM    9  C5  UNL     1     -34.784  16.980  -0.498  1.00 20.00     0.005 A 
ENDBRANCH   6   7
ENDBRANCH   4   6
ENDBRANCH   3   4
TORSDOF 3
ENDMDL
