MODEL 1
REMARK VINA RESULT:      -4.5      0.000      0.000
REMARK  2 active torsions:
REMARK  status: ('A' for Active; 'I' for Inactive)
REMARK    1  A    between atoms: C6_6  and  C8_8 
REMARK    2  A    between atoms: C7_7  and  C9_9 
ROOT
HETATM    1  C4  UNL     1     -34.444  18.047  -3.299  1.00 20.00     0.034 C 
HETATM    2  C5  UNL     1     -33.551  18.123  -4.519  1.00 20.00     0.168 C 
HETATM    3  C7  UNL     1     -33.776  16.947  -2.500  1.00 20.00     0.031 C 
HETATM    4  C8  UNL     1     -33.320  15.984  -3.595  1.00 20.00     0.130 C 
HETATM    5  O10 UNL     1     -33.033  16.804  -4.745  1.00 20.00    -0.385 OA
ENDROOT
BRANCH   4   6
HETATM    6  C6  UNL     1     -34.373  14.961  -4.009  1.00 20.00     0.015 C 
HETATM    7  C2  UNL     1     -34.051  13.473  -3.710  1.00 20.00     0.007 C 
HETATM    8  C1  UNL     1     -34.746  13.133  -5.046  1.00 20.00     0.001 C 
HETATM    9  C3  UNL     1     -34.403  14.564  -5.508  1.00 20.00     0.007 C 
ENDBRANCH   4   6
BRANCH   3  10
HETATM   10  C9  UNL     1     -34.641  16.373  -1.393  1.00 20.00     0.121 C 
HETATM   11 CL11 UNL     1     -34.506  17.364   0.074  1.00 20.00    -0.130 Cl
ENDBRANCH   3  10
TORSDOF 2
ENDMDL
MODEL 2
REMARK VINA RESULT:      -4.3      2.221      3.918
REMARK  2 active torsions:
REMARK  status: ('A' for Active; 'I' for Inactive)
REMARK    1  A    between atoms: C6_6  and  C8_8 
REMARK    2  A    between atoms: C7_7  and  C9_9 
ROOT
HETATM    1  C4  UNL     1     -33.194  16.557  -5.192  1.00 20.00     0.034 C 
HETATM    2  C5  UNL     1     -33.809  17.939  -5.262  1.00 20.00     0.168 C 
HETATM    3  C7  UNL     1     -34.254  15.790  -4.428  1.00 20.00     0.031 C 
HETATM    4  C8  UNL     1     -34.744  16.832  -3.423  1.00 20.00     0.130 C 
HETATM    5  O10 UNL     1     -34.603  18.107  -4.079  1.00 20.00    -0.385 OA
ENDROOT
BRANCH   4   6
HETATM    6  C6  UNL     1     -33.937  16.885  -2.131  1.00 20.00     0.015 C 
HETATM    7  C2  UNL     1     -34.718  16.641  -0.813  1.00 20.00     0.007 C 
HETATM    8  C1  UNL     1     -33.806  17.704  -0.164  1.00 20.00     0.001 C 
HETATM    9  C3  UNL     1     -33.609  18.295  -1.575  1.00 20.00     0.007 C 
ENDBRANCH   4   6
BRANCH   3  10
HETATM   10  C9  UNL     1     -33.775  14.463  -3.869  1.00 20.00     0.121 C 
HETATM   11 CL11 UNL     1     -34.972  13.191  -4.185  1.00 20.00    -0.130 Cl
ENDBRANCH   3  10
TORSDOF 2
ENDMDL
MODEL 3
REMARK VINA RESULT:      -4.3      1.889      3.428
REMARK  2 active torsions:
REMARK  status: ('A' for Active; 'I' for Inactive)
REMARK    1  A    between atoms: C6_6  and  C8_8 
REMARK    2  A    between atoms: C7_7  and  C9_9 
ROOT
HETATM    1  C4  UNL     1     -33.722  13.846  -3.742  1.00 20.00     0.034 C 
HETATM    2  C5  UNL     1     -34.599  13.148  -4.759  1.00 20.00     0.168 C 
HETATM    3  C7  UNL     1     -34.598  15.012  -3.333  1.00 20.00     0.031 C 
HETATM    4  C8  UNL     1     -35.270  15.389  -4.652  1.00 20.00     0.130 C 
HETATM    5  O10 UNL     1     -35.394  14.159  -5.394  1.00 20.00    -0.385 OA
ENDROOT
BRANCH   4   6
HETATM    6  C6  UNL     1     -34.472  16.367  -5.507  1.00 20.00     0.015 C 
HETATM    7  C2  UNL     1     -35.183  17.688  -5.900  1.00 20.00     0.007 C 
HETATM    8  C1  UNL     1     -34.467  17.580  -7.263  1.00 20.00     0.001 C 
HETATM    9  C3  UNL     1     -34.394  16.057  -7.024  1.00 20.00     0.007 C 
ENDBRANCH   4   6
BRANCH   3  10
HETATM   10  C9  UNL     1     -33.858  16.115  -2.596  1.00 20.00     0.121 C 
HETATM   11 CL11 UNL     1     -34.621  16.429  -1.025  1.00 20.00    -0.130 Cl
ENDBRANCH   3  10
TORSDOF 2
ENDMDL
MODEL 4
REMARK VINA RESULT:      -4.1      2.609      4.249
REMARK  2 active torsions:
REMARK  status: ('A' for Active; 'I' for Inactive)
REMARK    1  A    between atoms: C6_6  and  C8_8 
REMARK    2  A    between atoms: C7_7  and  C9_9 
ROOT
HETATM    1  C4  UNL     1     -34.656  14.885  -5.503  1.00 20.00     0.034 C 
HETATM    2  C5  UNL     1     -34.093  13.802  -4.610  1.00 20.00     0.168 C 
HETATM    3  C7  UNL     1     -33.628  15.984  -5.335  1.00 20.00     0.031 C 
HETATM    4  C8  UNL     1     -33.256  15.855  -3.859  1.00 20.00     0.130 C 
HETATM    5  O10 UNL     1     -33.398  14.457  -3.540  1.00 20.00    -0.385 OA
ENDROOT
BRANCH   4   6
HETATM    6  C6  UNL     1     -34.160  16.639  -2.914  1.00 20.00     0.015 C 
HETATM    7  C2  UNL     1     -33.478  17.292  -1.682  1.00 20.00     0.007 C 
HETATM    8  C1  UNL     1     -34.753  16.943  -0.886  1.00 20.00     0.001 C 
HETATM    9  C3  UNL     1     -34.994  15.809  -1.904  1.00 20.00     0.007 C 
ENDBRANCH   4   6
BRANCH   3  10
HETATM   10  C9  UNL     1     -34.094  17.348  -5.813  1.00 20.00     0.121 C 
HETATM   11 CL11 UNL     1     -34.495  17.295  -7.541  1.00 20.00    -0.130 Cl
ENDBRANCH   3  10
TORSDOF 2
ENDMDL
MODEL 5
REMARK VINA RESULT:      -4.0      2.307      3.316
REMARK  2 active torsions:
REMARK  status: ('A' for Active; 'I' for Inactive)
REMARK    1  A    between atoms: C6_6  and  C8_8 
REMARK    2  A    between atoms: C7_7  and  C9_9 
ROOT
HETATM    1  C4  UNL     1     -34.944  15.554  -2.644  1.00 20.00     0.034 C 
HETATM    2  C5  UNL     1     -33.743  16.476  -2.638  1.00 20.00     0.168 C 
HETATM    3  C7  UNL     1     -34.517  14.506  -3.651  1.00 20.00     0.031 C 
HETATM    4  C8  UNL     1     -33.762  15.340  -4.685  1.00 20.00     0.130 C 
HETATM    5  O10 UNL     1     -33.170  16.431  -3.952  1.00 20.00    -0.385 OA
ENDROOT
BRANCH   4   6
HETATM    6  C6  UNL     1     -34.645  15.940  -5.773  1.00 20.00     0.015 C 
HETATM    7  C2  UNL     1     -34.457  15.381  -7.208  1.00 20.00     0.007 C 
HETATM    8  C1  UNL     1     -34.700  16.818  -7.719  1.00 20.00     0.001 C 
HETATM    9  C3  UNL     1     -34.207  17.314  -6.343  1.00 20.00     0.007 C 
ENDBRANCH   4   6
BRANCH   3  10
HETATM   10  C9  UNL     1     -35.653  13.638  -4.162  1.00 20.00     0.121 C 
HETATM   11 CL11 UNL     1     -37.207  14.474  -3.964  1.00 20.00    -0.130 Cl
ENDBRANCH   3  10
TORSDOF 2
ENDMDL
MODEL 6
REMARK VINA RESULT:      -4.0      2.340      3.263
REMARK  2 active torsions:
REMARK  status: ('A' for Active; 'I' for Inactive)
REMARK    1  A    between atoms: C6_6  and  C8_8 
REMARK    2  A    between atoms: C7_7  and  C9_9 
ROOT
HETATM    1  C4  UNL     1     -33.552  14.703  -3.654  1.00 20.00     0.034 C 
HETATM    2  C5  UNL     1     -33.855  13.371  -4.305  1.00 20.00     0.168 C 
HETATM    3  C7  UNL     1     -34.849  14.990  -2.926  1.00 20.00     0.031 C 
HETATM    4  C8  UNL     1     -35.892  14.454  -3.905  1.00 20.00     0.130 C 
HETATM    5  O10 UNL     1     -35.262  13.350  -4.585  1.00 20.00    -0.385 OA
ENDROOT
BRANCH   4   6
HETATM    6  C6  UNL     1     -36.334  15.458  -4.964  1.00 20.00     0.015 C 
HETATM    7  C2  UNL     1     -37.863  15.626  -5.168  1.00 20.00     0.007 C 
HETATM    8  C1  UNL     1     -37.567  15.793  -6.674  1.00 20.00     0.001 C 
HETATM    9  C3  UNL     1     -36.276  14.982  -6.439  1.00 20.00     0.007 C 
ENDBRANCH   4   6
BRANCH   3  10
HETATM   10  C9  UNL     1     -35.001  16.431  -2.476  1.00 20.00     0.121 C 
HETATM   11 CL11 UNL     1     -34.633  16.582  -0.747  1.00 20.00    -0.130 Cl
ENDBRANCH   3  10
TORSDOF 2
ENDMDL
MODEL 7
REMARK VINA RESULT:      -4.0      3.354      4.622
REMARK  2 active torsions:
REMARK  status: ('A' for Active; 'I' for Inactive)
REMARK    1  A    between atoms: C6_6  and  C8_8 
REMARK    2  A    between atoms: C7_7  and  C9_9 
ROOT
HETATM    1  C4  UNL     1     -37.844  15.669  -5.252  1.00 20.00     0.034 C 
HETATM    2  C5  UNL     1     -38.213  14.857  -4.029  1.00 20.00     0.168 C 
HETATM    3  C7  UNL     1     -36.517  15.050  -5.640  1.00 20.00     0.031 C 
HETATM    4  C8  UNL     1     -35.887  14.758  -4.279  1.00 20.00     0.130 C 
HETATM    5  O10 UNL     1     -36.986  14.477  -3.390  1.00 20.00    -0.385 OA
ENDROOT
BRANCH   4   6
HETATM    6  C6  UNL     1     -35.102  15.924  -3.688  1.00 20.00     0.015 C 
HETATM    7  C2  UNL     1     -33.590  15.687  -3.433  1.00 20.00     0.007 C 
HETATM    8  C1  UNL     1     -33.746  16.547  -2.161  1.00 20.00     0.001 C 
HETATM    9  C3  UNL     1     -35.237  16.148  -2.160  1.00 20.00     0.007 C 
ENDBRANCH   4   6
BRANCH   3  10
HETATM   10  C9  UNL     1     -35.704  15.886  -6.612  1.00 20.00     0.121 C 
HETATM   11 CL11 UNL     1     -34.281  14.982  -7.165  1.00 20.00    -0.130 Cl
ENDBRANCH   3  10
TORSDOF 2
ENDMDL
MODEL 8
REMARK VINA RESULT:      -3.9      2.181      4.171
REMARK  2 active torsions:
REMARK  status: ('A' for Active; 'I' for Inactive)
REMARK    1  A    between atoms: C6_6  and  C8_8 
REMARK    2  A    between atoms: C7_7  and  C9_9 
ROOT
HETATM    1  C4  UNL     1     -35.122  13.636  -4.180  1.00 20.00     0.034 C 
HETATM    2  C5  UNL     1     -33.649  13.625  -3.833  1.00 20.00     0.168 C 
HETATM    3  C7  UNL     1     -35.236  14.917  -4.981  1.00 20.00     0.031 C 
HETATM    4  C8  UNL     1     -34.270  15.844  -4.246  1.00 20.00     0.130 C 
HETATM    5  O10 UNL     1     -33.232  14.993  -3.722  1.00 20.00    -0.385 OA
ENDROOT
BRANCH   4   6
HETATM    6  C6  UNL     1     -34.890  16.594  -3.072  1.00 20.00     0.015 C 
HETATM    7  C2  UNL     1     -34.319  18.003  -2.767  1.00 20.00     0.007 C 
HETATM    8  C1  UNL     1     -34.514  17.676  -1.272  1.00 20.00     0.001 C 
HETATM    9  C3  UNL     1     -34.408  16.186  -1.656  1.00 20.00     0.007 C 
ENDBRANCH   4   6
BRANCH   3  10
HETATM   10  C9  UNL     1     -36.661  15.408  -5.163  1.00 20.00     0.121 C 
HETATM   11 CL11 UNL     1     -37.746  14.598  -4.016  1.00 20.00    -0.130 Cl
ENDBRANCH   3  10
TORSDOF 2
ENDMDL
MODEL 9
REMARK VINA RESULT:      -3.9      2.762      3.636
REMARK  2 active torsions:
REMARK  status: ('A' for Active; 'I' for Inactive)
REMARK    1  A    between atoms: C6_6  and  C8_8 
REMARK    2  A    between atoms: C7_7  and  C9_9 
ROOT
HETATM    1  C4  UNL     1     -34.451  15.107  -3.025  1.00 20.00     0.034 C 
HETATM    2  C5  UNL     1     -33.477  14.084  -3.568  1.00 20.00     0.168 C 
HETATM    3  C7  UNL     1     -35.776  14.552  -3.504  1.00 20.00     0.031 C 
HETATM    4  C8  UNL     1     -35.413  13.996  -4.881  1.00 20.00     0.130 C 
HETATM    5  O10 UNL     1     -34.041  13.569  -4.782  1.00 20.00    -0.385 OA
ENDROOT
BRANCH   4   6
HETATM    6  C6  UNL     1     -35.500  15.015  -6.012  1.00 20.00     0.015 C 
HETATM    7  C2  UNL     1     -35.647  14.449  -7.448  1.00 20.00     0.007 C 
HETATM    8  C1  UNL     1     -34.741  15.607  -7.917  1.00 20.00     0.001 C 
HETATM    9  C3  UNL     1     -34.163  15.640  -6.486  1.00 20.00     0.007 C 
ENDBRANCH   4   6
BRANCH   3  10
HETATM   10  C9  UNL     1     -36.923  15.544  -3.441  1.00 20.00     0.121 C 
HETATM   11 CL11 UNL     1     -38.453  14.749  -3.861  1.00 20.00    -0.130 Cl
ENDBRANCH   3  10
TORSDOF 2
ENDMDL
