MODEL 1
REMARK VINA RESULT:      -4.7      0.000      0.000
REMARK  2 active torsions:
REMARK  status: ('A' for Active; 'I' for Inactive)
REMARK    1  A    between atoms: C6_6  and  C8_8 
REMARK    2  A    between atoms: C7_7  and  C9_9 
ROOT
HETATM    1  C4  UNL     1     -33.141  15.144  -3.765  1.00 20.00     0.034 C 
HETATM    2  C5  UNL     1     -33.348  16.508  -4.382  1.00 20.00     0.168 C 
HETATM    3  C7  UNL     1     -34.426  14.920  -2.991  1.00 20.00     0.031 C 
HETATM    4  C8  UNL     1     -34.789  16.337  -2.547  1.00 20.00     0.130 C 
HETATM    5  O10 UNL     1     -34.191  17.246  -3.488  1.00 20.00    -0.385 OA
ENDROOT
BRANCH   4   6
HETATM    6  C6  UNL     1     -34.224  16.648  -1.164  1.00 20.00     0.015 C 
HETATM    7  C2  UNL     1     -35.192  17.315  -0.153  1.00 20.00     0.007 C 
HETATM    8  C1  UNL     1     -33.984  18.132   0.352  1.00 20.00     0.001 C 
HETATM    9  C3  UNL     1     -33.353  17.925  -1.041  1.00 20.00     0.007 C 
ENDBRANCH   4   6
BRANCH   3  10
HETATM   10  C9  UNL     1     -35.517  14.316  -3.878  1.00 20.00     0.121 C 
HETATM   11 CL11 UNL     1     -34.806  13.196  -5.056  1.00 20.00    -0.130 Cl
ENDBRANCH   3  10
TORSDOF 2
ENDMDL
MODEL 2
REMARK VINA RESULT:      -4.4      1.114      1.366
REMARK  2 active torsions:
REMARK  status: ('A' for Active; 'I' for Inactive)
REMARK    1  A    between atoms: C6_6  and  C8_8 
REMARK    2  A    between atoms: C7_7  and  C9_9 
ROOT
HETATM    1  C4  UNL     1     -33.287  16.742  -5.241  1.00 20.00     0.034 C 
HETATM    2  C5  UNL     1     -34.524  17.611  -5.222  1.00 20.00     0.168 C 
HETATM    3  C7  UNL     1     -33.692  15.553  -4.391  1.00 20.00     0.031 C 
HETATM    4  C8  UNL     1     -34.630  16.191  -3.366  1.00 20.00     0.130 C 
HETATM    5  O10 UNL     1     -35.178  17.377  -3.969  1.00 20.00    -0.385 OA
ENDROOT
BRANCH   4   6
HETATM    6  C6  UNL     1     -33.877  16.605  -2.105  1.00 20.00     0.015 C 
HETATM    7  C2  UNL     1     -34.673  16.560  -0.775  1.00 20.00     0.007 C 
HETATM    8  C1  UNL     1     -33.902  17.830  -0.356  1.00 20.00     0.001 C 
HETATM    9  C3  UNL     1     -33.721  18.129  -1.859  1.00 20.00     0.007 C 
ENDBRANCH   4   6
BRANCH   3  10
HETATM   10  C9  UNL     1     -34.412  14.489  -5.221  1.00 20.00     0.121 C 
HETATM   11 CL11 UNL     1     -35.105  13.245  -4.163  1.00 20.00    -0.130 Cl
ENDBRANCH   3  10
TORSDOF 2
ENDMDL
MODEL 3
REMARK VINA RESULT:      -4.4      1.898      2.333
REMARK  2 active torsions:
REMARK  status: ('A' for Active; 'I' for Inactive)
REMARK    1  A    between atoms: C6_6  and  C8_8 
REMARK    2  A    between atoms: C7_7  and  C9_9 
ROOT
HETATM    1  C4  UNL     1     -35.157  13.506  -4.160  1.00 20.00     0.034 C 
HETATM    2  C5  UNL     1     -34.515  14.095  -5.396  1.00 20.00     0.168 C 
HETATM    3  C7  UNL     1     -35.940  14.673  -3.592  1.00 20.00     0.031 C 
HETATM    4  C8  UNL     1     -35.062  15.867  -3.971  1.00 20.00     0.130 C 
HETATM    5  O10 UNL     1     -34.300  15.487  -5.130  1.00 20.00    -0.385 OA
ENDROOT
BRANCH   4   6
HETATM    6  C6  UNL     1     -34.083  16.214  -2.853  1.00 20.00     0.015 C 
HETATM    7  C2  UNL     1     -34.657  16.246  -1.413  1.00 20.00     0.007 C 
HETATM    8  C1  UNL     1     -33.718  17.441  -1.144  1.00 20.00     0.001 C 
HETATM    9  C3  UNL     1     -33.753  17.717  -2.662  1.00 20.00     0.007 C 
ENDBRANCH   4   6
BRANCH   3  10
HETATM   10  C9  UNL     1     -37.329  14.779  -4.223  1.00 20.00     0.121 C 
HETATM   11 CL11 UNL     1     -37.634  16.438  -4.773  1.00 20.00    -0.130 Cl
ENDBRANCH   3  10
TORSDOF 2
ENDMDL
MODEL 4
REMARK VINA RESULT:      -4.3      2.722      4.672
REMARK  2 active torsions:
REMARK  status: ('A' for Active; 'I' for Inactive)
REMARK    1  A    between atoms: C6_6  and  C8_8 
REMARK    2  A    between atoms: C7_7  and  C9_9 
ROOT
HETATM    1  C4  UNL     1     -35.025  17.447  -0.268  1.00 20.00     0.034 C 
HETATM    2  C5  UNL     1     -36.012  17.861  -1.337  1.00 20.00     0.168 C 
HETATM    3  C7  UNL     1     -33.698  17.473  -1.000  1.00 20.00     0.031 C 
HETATM    4  C8  UNL     1     -34.099  17.056  -2.415  1.00 20.00     0.130 C 
HETATM    5  O10 UNL     1     -35.482  17.410  -2.590  1.00 20.00    -0.385 OA
ENDROOT
BRANCH   4   6
HETATM    6  C6  UNL     1     -33.968  15.548  -2.608  1.00 20.00     0.015 C 
HETATM    7  C2  UNL     1     -32.973  15.071  -3.697  1.00 20.00     0.007 C 
HETATM    8  C1  UNL     1     -33.975  13.940  -4.013  1.00 20.00     0.001 C 
HETATM    9  C3  UNL     1     -35.078  14.856  -3.441  1.00 20.00     0.007 C 
ENDBRANCH   4   6
BRANCH   3  10
HETATM   10  C9  UNL     1     -33.076  18.871  -0.985  1.00 20.00     0.121 C 
HETATM   11 CL11 UNL     1     -31.818  18.975   0.261  1.00 20.00    -0.130 Cl
ENDBRANCH   3  10
TORSDOF 2
ENDMDL
MODEL 5
REMARK VINA RESULT:      -4.3      2.910      4.948
REMARK  2 active torsions:
REMARK  status: ('A' for Active; 'I' for Inactive)
REMARK    1  A    between atoms: C6_6  and  C8_8 
REMARK    2  A    between atoms: C7_7  and  C9_9 
ROOT
HETATM    1  C4  UNL     1     -33.169  15.173  -3.594  1.00 20.00     0.034 C 
HETATM    2  C5  UNL     1     -33.113  13.666  -3.485  1.00 20.00     0.168 C 
HETATM    3  C7  UNL     1     -34.620  15.436  -3.947  1.00 20.00     0.031 C 
HETATM    4  C8  UNL     1     -34.976  14.210  -4.790  1.00 20.00     0.130 C 
HETATM    5  O10 UNL     1     -34.096  13.146  -4.390  1.00 20.00    -0.385 OA
ENDROOT
BRANCH   4   6
HETATM    6  C6  UNL     1     -34.756  14.475  -6.276  1.00 20.00     0.015 C 
HETATM    7  C2  UNL     1     -34.277  15.897  -6.664  1.00 20.00     0.007 C 
HETATM    8  C1  UNL     1     -35.169  15.776  -7.918  1.00 20.00     0.001 C 
HETATM    9  C3  UNL     1     -36.021  14.763  -7.125  1.00 20.00     0.007 C 
ENDBRANCH   4   6
BRANCH   3  10
HETATM   10  C9  UNL     1     -35.495  15.527  -2.696  1.00 20.00     0.121 C 
HETATM   11 CL11 UNL     1     -34.589  16.265  -1.361  1.00 20.00    -0.130 Cl
ENDBRANCH   3  10
TORSDOF 2
ENDMDL
MODEL 6
REMARK VINA RESULT:      -4.3      3.077      4.133
REMARK  2 active torsions:
REMARK  status: ('A' for Active; 'I' for Inactive)
REMARK    1  A    between atoms: C6_6  and  C8_8 
REMARK    2  A    between atoms: C7_7  and  C9_9 
ROOT
HETATM    1  C4  UNL     1     -37.373  16.181  -4.500  1.00 20.00     0.034 C 
HETATM    2  C5  UNL     1     -38.047  14.978  -3.879  1.00 20.00     0.168 C 
HETATM    3  C7  UNL     1     -36.312  15.558  -5.386  1.00 20.00     0.031 C 
HETATM    4  C8  UNL     1     -35.927  14.304  -4.599  1.00 20.00     0.130 C 
HETATM    5  O10 UNL     1     -37.056  13.948  -3.783  1.00 20.00    -0.385 OA
ENDROOT
BRANCH   4   6
HETATM    6  C6  UNL     1     -34.741  14.571  -3.676  1.00 20.00     0.015 C 
HETATM    7  C2  UNL     1     -33.792  15.727  -4.083  1.00 20.00     0.007 C 
HETATM    8  C1  UNL     1     -32.629  14.860  -3.555  1.00 20.00     0.001 C 
HETATM    9  C3  UNL     1     -33.518  13.629  -3.828  1.00 20.00     0.007 C 
ENDBRANCH   4   6
BRANCH   3  10
HETATM   10  C9  UNL     1     -36.871  15.201  -6.765  1.00 20.00     0.121 C 
HETATM   11 CL11 UNL     1     -35.629  14.399  -7.746  1.00 20.00    -0.130 Cl
ENDBRANCH   3  10
TORSDOF 2
ENDMDL
MODEL 7
REMARK VINA RESULT:      -4.3      2.506      4.424
REMARK  2 active torsions:
REMARK  status: ('A' for Active; 'I' for Inactive)
REMARK    1  A    between atoms: C6_6  and  C8_8 
REMARK    2  A    between atoms: C7_7  and  C9_9 
ROOT
HETATM    1  C4  UNL     1     -35.668  17.552  -2.575  1.00 20.00     0.034 C 
HETATM    2  C5  UNL     1     -34.648  17.991  -3.601  1.00 20.00     0.168 C 
HETATM    3  C7  UNL     1     -34.885  16.586  -1.707  1.00 20.00     0.031 C 
HETATM    4  C8  UNL     1     -33.922  15.953  -2.713  1.00 20.00     0.130 C 
HETATM    5  O10 UNL     1     -33.742  16.896  -3.783  1.00 20.00    -0.385 OA
ENDROOT
BRANCH   4   6
HETATM    6  C6  UNL     1     -34.499  14.670  -3.303  1.00 20.00     0.015 C 
HETATM    7  C2  UNL     1     -33.478  13.601  -3.770  1.00 20.00     0.007 C 
HETATM    8  C1  UNL     1     -34.441  13.297  -4.937  1.00 20.00     0.001 C 
HETATM    9  C3  UNL     1     -34.972  14.737  -4.778  1.00 20.00     0.007 C 
ENDBRANCH   4   6
BRANCH   3  10
HETATM   10  C9  UNL     1     -34.131  17.316  -0.594  1.00 20.00     0.121 C 
HETATM   11 CL11 UNL     1     -35.113  17.378   0.881  1.00 20.00    -0.130 Cl
ENDBRANCH   3  10
TORSDOF 2
ENDMDL
MODEL 8
REMARK VINA RESULT:      -4.2      1.802      2.447
REMARK  2 active torsions:
REMARK  status: ('A' for Active; 'I' for Inactive)
REMARK    1  A    between atoms: C6_6  and  C8_8 
REMARK    2  A    between atoms: C7_7  and  C9_9 
ROOT
HETATM    1  C4  UNL     1     -34.768  13.290  -4.141  1.00 20.00     0.034 C 
HETATM    2  C5  UNL     1     -33.343  13.652  -3.790  1.00 20.00     0.168 C 
HETATM    3  C7  UNL     1     -35.289  14.553  -4.800  1.00 20.00     0.031 C 
HETATM    4  C8  UNL     1     -34.535  15.648  -4.045  1.00 20.00     0.130 C 
HETATM    5  O10 UNL     1     -33.319  15.064  -3.546  1.00 20.00    -0.385 OA
ENDROOT
BRANCH   4   6
HETATM    6  C6  UNL     1     -35.341  16.156  -2.853  1.00 20.00     0.015 C 
HETATM    7  C2  UNL     1     -35.573  17.687  -2.775  1.00 20.00     0.007 C 
HETATM    8  C1  UNL     1     -35.420  17.558  -1.245  1.00 20.00     0.001 C 
HETATM    9  C3  UNL     1     -34.581  16.290  -1.508  1.00 20.00     0.007 C 
ENDBRANCH   4   6
BRANCH   3  10
HETATM   10  C9  UNL     1     -34.963  14.580  -6.295  1.00 20.00     0.121 C 
HETATM   11 CL11 UNL     1     -34.147  16.096  -6.722  1.00 20.00    -0.130 Cl
ENDBRANCH   3  10
TORSDOF 2
ENDMDL
MODEL 9
REMARK VINA RESULT:      -4.2      1.805      2.788
REMARK  2 active torsions:
REMARK  status: ('A' for Active; 'I' for Inactive)
REMARK    1  A    between atoms: C6_6  and  C8_8 
REMARK    2  A    between atoms: C7_7  and  C9_9 
ROOT
HETATM    1  C4  UNL     1     -36.865  15.813  -5.372  1.00 20.00     0.034 C 
HETATM    2  C5  UNL     1     -37.638  14.937  -4.413  1.00 20.00     0.168 C 
HETATM    3  C7  UNL     1     -35.420  15.496  -5.037  1.00 20.00     0.031 C 
HETATM    4  C8  UNL     1     -35.489  15.220  -3.534  1.00 20.00     0.130 C 
HETATM    5  O10 UNL     1     -36.829  14.789  -3.240  1.00 20.00    -0.385 OA
ENDROOT
BRANCH   4   6
HETATM    6  C6  UNL     1     -35.209  16.482  -2.724  1.00 20.00     0.015 C 
HETATM    7  C2  UNL     1     -33.876  17.216  -3.022  1.00 20.00     0.007 C 
HETATM    8  C1  UNL     1     -33.794  17.524  -1.512  1.00 20.00     0.001 C 
HETATM    9  C3  UNL     1     -34.674  16.278  -1.283  1.00 20.00     0.007 C 
ENDBRANCH   4   6
BRANCH   3  10
HETATM   10  C9  UNL     1     -34.921  14.271  -5.807  1.00 20.00     0.121 C 
HETATM   11 CL11 UNL     1     -34.142  13.122  -4.702  1.00 20.00    -0.130 Cl
ENDBRANCH   3  10
TORSDOF 2
ENDMDL
