MODEL 1
REMARK VINA RESULT:      -4.1      0.000      0.000
REMARK  3 active torsions:
REMARK  status: ('A' for Active; 'I' for Inactive)
REMARK    1  A    between atoms: C3_3  and  C8_8 
REMARK    2  A    between atoms: C8_8  and  C9_9 
REMARK    3  A    between atoms: C8_8  and  O10_10 
ROOT
HETATM    1  C8  UNL     1     -34.039  15.961  -4.871  1.00 20.00     0.133 C 
ENDROOT
BRANCH   1   2
HETATM    2  C3  UNL     1     -33.745  15.453  -3.461  1.00 20.00    -0.017 A 
HETATM    3  C1  UNL     1     -34.870  15.470  -2.452  1.00 20.00     0.012 A 
HETATM    4  C2  UNL     1     -33.743  16.456  -2.331  1.00 20.00     0.012 A 
HETATM    5  C4  UNL     1     -32.759  14.318  -3.398  1.00 20.00     0.018 C 
ENDBRANCH   1   2
BRANCH   1   6
HETATM    6  C9  UNL     1     -34.910  15.022  -5.757  1.00 20.00    -0.025 C 
HETATM    7  C5  UNL     1     -36.377  15.490  -5.760  1.00 20.00     0.017 C 
HETATM    8  C6  UNL     1     -34.386  15.068  -7.209  1.00 20.00     0.017 C 
HETATM    9  C7  UNL     1     -34.860  13.558  -5.282  1.00 20.00     0.017 C 
ENDBRANCH   1   6
BRANCH   1  10
HETATM   10  O10 UNL     1     -32.790  16.241  -5.507  1.00 20.00    -0.394 OA
HETATM   11  H28 UNL     1     -32.231  15.464  -5.363  1.00 20.00     0.210 HD
ENDBRANCH   1  10
TORSDOF 3
ENDMDL
MODEL 2
REMARK VINA RESULT:      -4.1      1.220      3.279
REMARK  3 active torsions:
REMARK  status: ('A' for Active; 'I' for Inactive)
REMARK    1  A    between atoms: C3_3  and  C8_8 
REMARK    2  A    between atoms: C8_8  and  C9_9 
REMARK    3  A    between atoms: C8_8  and  O10_10 
ROOT
HETATM    1  C8  UNL     1     -33.565  15.435  -3.974  1.00 20.00     0.133 C 
ENDROOT
BRANCH   1   2
HETATM    2  C3  UNL     1     -34.474  14.611  -4.884  1.00 20.00    -0.017 A 
HETATM    3  C1  UNL     1     -35.585  13.814  -4.241  1.00 20.00     0.012 A 
HETATM    4  C2  UNL     1     -34.384  13.105  -4.801  1.00 20.00     0.012 A 
HETATM    5  C4  UNL     1     -34.737  15.229  -6.231  1.00 20.00     0.018 C 
ENDBRANCH   1   2
BRANCH   1   6
HETATM    6  C9  UNL     1     -34.206  16.717  -3.363  1.00 20.00    -0.025 C 
HETATM    7  C5  UNL     1     -33.829  16.852  -1.876  1.00 20.00     0.017 C 
HETATM    8  C6  UNL     1     -33.668  17.956  -4.112  1.00 20.00     0.017 C 
HETATM    9  C7  UNL     1     -35.741  16.717  -3.486  1.00 20.00     0.017 C 
ENDBRANCH   1   6
BRANCH   1  10
HETATM   10  O10 UNL     1     -32.385  15.763  -4.711  1.00 20.00    -0.394 OA
HETATM   11  H28 UNL     1     -31.641  15.396  -4.212  1.00 20.00     0.210 HD
ENDBRANCH   1  10
TORSDOF 3
ENDMDL
MODEL 3
REMARK VINA RESULT:      -4.1      1.095      1.262
REMARK  3 active torsions:
REMARK  status: ('A' for Active; 'I' for Inactive)
REMARK    1  A    between atoms: C3_3  and  C8_8 
REMARK    2  A    between atoms: C8_8  and  C9_9 
REMARK    3  A    between atoms: C8_8  and  O10_10 
ROOT
HETATM    1  C8  UNL     1     -33.864  16.302  -4.682  1.00 20.00     0.133 C 
ENDROOT
BRANCH   1   2
HETATM    2  C3  UNL     1     -34.356  15.524  -3.463  1.00 20.00    -0.017 A 
HETATM    3  C1  UNL     1     -35.511  16.098  -2.675  1.00 20.00     0.012 A 
HETATM    4  C2  UNL     1     -34.124  16.126  -2.097  1.00 20.00     0.012 A 
HETATM    5  C4  UNL     1     -34.270  14.028  -3.599  1.00 20.00     0.018 C 
ENDBRANCH   1   2
BRANCH   1   6
HETATM    6  C9  UNL     1     -34.728  16.154  -5.970  1.00 20.00    -0.025 C 
HETATM    7  C5  UNL     1     -36.226  16.138  -5.616  1.00 20.00     0.017 C 
HETATM    8  C6  UNL     1     -34.463  17.360  -6.897  1.00 20.00     0.017 C 
HETATM    9  C7  UNL     1     -34.392  14.871  -6.753  1.00 20.00     0.017 C 
ENDBRANCH   1   6
BRANCH   1  10
HETATM   10  O10 UNL     1     -32.511  15.914  -4.935  1.00 20.00    -0.394 OA
HETATM   11  H28 UNL     1     -32.325  16.160  -5.852  1.00 20.00     0.210 HD
ENDBRANCH   1  10
TORSDOF 3
ENDMDL
MODEL 4
REMARK VINA RESULT:      -4.0      1.957      3.138
REMARK  3 active torsions:
REMARK  status: ('A' for Active; 'I' for Inactive)
REMARK    1  A    between atoms: C3_3  and  C8_8 
REMARK    2  A    between atoms: C8_8  and  C9_9 
REMARK    3  A    between atoms: C8_8  and  O10_10 
ROOT
HETATM    1  C8  UNL     1     -35.105  15.408  -2.658  1.00 20.00     0.133 C 
ENDROOT
BRANCH   1   2
HETATM    2  C3  UNL     1     -34.914  16.802  -2.065  1.00 20.00    -0.017 A 
HETATM    3  C1  UNL     1     -33.601  17.106  -1.381  1.00 20.00     0.012 A 
HETATM    4  C2  UNL     1     -34.847  16.929  -0.561  1.00 20.00     0.012 A 
HETATM    5  C4  UNL     1     -35.579  17.908  -2.838  1.00 20.00     0.018 C 
ENDBRANCH   1   2
BRANCH   1   6
HETATM    6  C9  UNL     1     -34.296  15.111  -3.956  1.00 20.00    -0.025 C 
HETATM    7  C5  UNL     1     -33.530  13.782  -3.822  1.00 20.00     0.017 C 
HETATM    8  C6  UNL     1     -35.275  14.986  -5.144  1.00 20.00     0.017 C 
HETATM    9  C7  UNL     1     -33.290  16.229  -4.286  1.00 20.00     0.017 C 
ENDBRANCH   1   6
BRANCH   1  10
HETATM   10  O10 UNL     1     -36.504  15.212  -2.880  1.00 20.00    -0.394 OA
HETATM   11  H28 UNL     1     -36.621  14.269  -3.063  1.00 20.00     0.210 HD
ENDBRANCH   1  10
TORSDOF 3
ENDMDL
MODEL 5
REMARK VINA RESULT:      -4.0      1.504      1.962
REMARK  3 active torsions:
REMARK  status: ('A' for Active; 'I' for Inactive)
REMARK    1  A    between atoms: C3_3  and  C8_8 
REMARK    2  A    between atoms: C8_8  and  C9_9 
REMARK    3  A    between atoms: C8_8  and  O10_10 
ROOT
HETATM    1  C8  UNL     1     -33.859  16.023  -4.679  1.00 20.00     0.133 C 
ENDROOT
BRANCH   1   2
HETATM    2  C3  UNL     1     -34.112  17.020  -3.550  1.00 20.00    -0.017 A 
HETATM    3  C1  UNL     1     -35.263  17.987  -3.705  1.00 20.00     0.012 A 
HETATM    4  C2  UNL     1     -33.849  18.482  -3.823  1.00 20.00     0.012 A 
HETATM    5  C4  UNL     1     -33.814  16.494  -2.172  1.00 20.00     0.018 C 
ENDBRANCH   1   2
BRANCH   1   6
HETATM    6  C9  UNL     1     -34.550  14.636  -4.523  1.00 20.00    -0.025 C 
HETATM    7  C5  UNL     1     -35.838  14.766  -3.689  1.00 20.00     0.017 C 
HETATM    8  C6  UNL     1     -34.931  14.101  -5.920  1.00 20.00     0.017 C 
HETATM    9  C7  UNL     1     -33.630  13.598  -3.852  1.00 20.00     0.017 C 
ENDBRANCH   1   6
BRANCH   1  10
HETATM   10  O10 UNL     1     -32.444  15.869  -4.820  1.00 20.00    -0.394 OA
HETATM   11  H28 UNL     1     -32.075  15.920  -3.927  1.00 20.00     0.210 HD
ENDBRANCH   1  10
TORSDOF 3
ENDMDL
MODEL 6
REMARK VINA RESULT:      -4.0      1.780      3.745
REMARK  3 active torsions:
REMARK  status: ('A' for Active; 'I' for Inactive)
REMARK    1  A    between atoms: C3_3  and  C8_8 
REMARK    2  A    between atoms: C8_8  and  C9_9 
REMARK    3  A    between atoms: C8_8  and  O10_10 
ROOT
HETATM    1  C8  UNL     1     -35.476  15.678  -3.985  1.00 20.00     0.133 C 
ENDROOT
BRANCH   1   2
HETATM    2  C3  UNL     1     -35.232  14.630  -5.069  1.00 20.00    -0.017 A 
HETATM    3  C1  UNL     1     -34.495  15.059  -6.316  1.00 20.00     0.012 A 
HETATM    4  C2  UNL     1     -35.971  14.778  -6.378  1.00 20.00     0.012 A 
HETATM    5  C4  UNL     1     -34.989  13.239  -4.549  1.00 20.00     0.018 C 
ENDBRANCH   1   2
BRANCH   1   6
HETATM    6  C9  UNL     1     -34.207  16.181  -3.235  1.00 20.00    -0.025 C 
HETATM    7  C5  UNL     1     -33.827  17.597  -3.705  1.00 20.00     0.017 C 
HETATM    8  C6  UNL     1     -34.505  16.238  -1.721  1.00 20.00     0.017 C 
HETATM    9  C7  UNL     1     -32.998  15.250  -3.445  1.00 20.00     0.017 C 
ENDBRANCH   1   6
BRANCH   1  10
HETATM   10  O10 UNL     1     -36.429  15.145  -3.063  1.00 20.00    -0.394 OA
HETATM   11  H28 UNL     1     -36.241  14.198  -2.994  1.00 20.00     0.210 HD
ENDBRANCH   1  10
TORSDOF 3
ENDMDL
MODEL 7
REMARK VINA RESULT:      -4.0     12.390     13.487
REMARK  3 active torsions:
REMARK  status: ('A' for Active; 'I' for Inactive)
REMARK    1  A    between atoms: C3_3  and  C8_8 
REMARK    2  A    between atoms: C8_8  and  C9_9 
REMARK    3  A    between atoms: C8_8  and  O10_10 
ROOT
HETATM    1  C8  UNL     1     -41.293   4.767  -1.754  1.00 20.00     0.133 C 
ENDROOT
BRANCH   1   2
HETATM    2  C3  UNL     1     -41.742   5.852  -0.778  1.00 20.00    -0.017 A 
HETATM    3  C1  UNL     1     -42.387   7.095  -1.349  1.00 20.00     0.012 A 
HETATM    4  C2  UNL     1     -40.996   7.166  -0.785  1.00 20.00     0.012 A 
HETATM    5  C4  UNL     1     -42.251   5.337   0.540  1.00 20.00     0.018 C 
ENDBRANCH   1   2
BRANCH   1   6
HETATM    6  C9  UNL     1     -42.416   3.825  -2.281  1.00 20.00    -0.025 C 
HETATM    7  C5  UNL     1     -43.348   4.584  -3.244  1.00 20.00     0.017 C 
HETATM    8  C6  UNL     1     -41.773   2.654  -3.054  1.00 20.00     0.017 C 
HETATM    9  C7  UNL     1     -43.263   3.232  -1.139  1.00 20.00     0.017 C 
ENDBRANCH   1   6
BRANCH   1  10
HETATM   10  O10 UNL     1     -40.255   4.011  -1.123  1.00 20.00    -0.394 OA
HETATM   11  H28 UNL     1     -39.420   4.346  -1.479  1.00 20.00     0.210 HD
ENDBRANCH   1  10
TORSDOF 3
ENDMDL
MODEL 8
REMARK VINA RESULT:      -4.0      1.649      3.670
REMARK  3 active torsions:
REMARK  status: ('A' for Active; 'I' for Inactive)
REMARK    1  A    between atoms: C3_3  and  C8_8 
REMARK    2  A    between atoms: C8_8  and  C9_9 
REMARK    3  A    between atoms: C8_8  and  O10_10 
ROOT
HETATM    1  C8  UNL     1     -35.363  14.316  -4.098  1.00 20.00     0.133 C 
ENDROOT
BRANCH   1   2
HETATM    2  C3  UNL     1     -35.967  14.816  -5.409  1.00 20.00    -0.017 A 
HETATM    3  C1  UNL     1     -36.512  16.225  -5.445  1.00 20.00     0.012 A 
HETATM    4  C2  UNL     1     -37.457  15.057  -5.456  1.00 20.00     0.012 A 
HETATM    5  C4  UNL     1     -35.297  14.287  -6.648  1.00 20.00     0.018 C 
ENDBRANCH   1   2
BRANCH   1   6
HETATM    6  C9  UNL     1     -34.002  14.958  -3.694  1.00 20.00    -0.025 C 
HETATM    7  C5  UNL     1     -34.142  15.730  -2.369  1.00 20.00     0.017 C 
HETATM    8  C6  UNL     1     -32.956  13.840  -3.493  1.00 20.00     0.017 C 
HETATM    9  C7  UNL     1     -33.468  15.920  -4.772  1.00 20.00     0.017 C 
ENDBRANCH   1   6
BRANCH   1  10
HETATM   10  O10 UNL     1     -35.244  12.894  -4.182  1.00 20.00    -0.394 OA
HETATM   11  H28 UNL     1     -35.631  12.639  -5.031  1.00 20.00     0.210 HD
ENDBRANCH   1  10
TORSDOF 3
ENDMDL
MODEL 9
REMARK VINA RESULT:      -3.9      1.809      3.764
REMARK  3 active torsions:
REMARK  status: ('A' for Active; 'I' for Inactive)
REMARK    1  A    between atoms: C3_3  and  C8_8 
REMARK    2  A    between atoms: C8_8  and  C9_9 
REMARK    3  A    between atoms: C8_8  and  O10_10 
ROOT
HETATM    1  C8  UNL     1     -35.549  15.720  -3.884  1.00 20.00     0.133 C 
ENDROOT
BRANCH   1   2
HETATM    2  C3  UNL     1     -35.282  14.658  -4.949  1.00 20.00    -0.017 A 
HETATM    3  C1  UNL     1     -34.502  15.067  -6.177  1.00 20.00     0.012 A 
HETATM    4  C2  UNL     1     -35.978  14.801  -6.283  1.00 20.00     0.012 A 
HETATM    5  C4  UNL     1     -35.071  13.269  -4.410  1.00 20.00     0.018 C 
ENDBRANCH   1   2
BRANCH   1   6
HETATM    6  C9  UNL     1     -34.299  16.209  -3.093  1.00 20.00    -0.025 C 
HETATM    7  C5  UNL     1     -33.100  15.278  -3.348  1.00 20.00     0.017 C 
HETATM    8  C6  UNL     1     -33.920  17.627  -3.573  1.00 20.00     0.017 C 
HETATM    9  C7  UNL     1     -34.559  16.276  -1.576  1.00 20.00     0.017 C 
ENDBRANCH   1   6
BRANCH   1  10
HETATM   10  O10 UNL     1     -36.542  15.209  -2.992  1.00 20.00    -0.394 OA
HETATM   11  H28 UNL     1     -37.341  15.076  -3.522  1.00 20.00     0.210 HD
ENDBRANCH   1  10
TORSDOF 3
ENDMDL
