MODEL 1
REMARK VINA RESULT:      -4.5      0.000      0.000
REMARK  3 active torsions:
REMARK  status: ('A' for Active; 'I' for Inactive)
REMARK    1  A    between atoms: C1_1  and  C4_4 
REMARK    2  A    between atoms: C1_1  and  C7_7 
REMARK    3  A    between atoms: C7_7  and  O9_9 
ROOT
HETATM    1  C1  UNL     1     -33.775   5.869   4.046  1.00 20.00     0.158 C 
HETATM    2  O8  UNL     1     -34.417   5.409   3.102  1.00 20.00    -0.295 OA
ENDROOT
BRANCH   1   3
HETATM    3  C4  UNL     1     -34.180   5.614   5.449  1.00 20.00     0.019 A 
HETATM    4  C2  UNL     1     -34.030   4.196   5.961  1.00 20.00     0.018 A 
HETATM    5  C3  UNL     1     -35.395   4.736   5.663  1.00 20.00     0.018 A 
HETATM    6  C5  UNL     1     -33.956   6.727   6.440  1.00 20.00     0.023 C 
ENDBRANCH   1   3
BRANCH   1   7
HETATM    7  C7  UNL     1     -32.537   6.717   3.848  1.00 20.00     0.246 C 
BRANCH   7   8
HETATM    8  O9  UNL     1     -32.247   6.864   2.474  1.00 20.00    -0.389 OA
HETATM    9  C6  UNL     1     -32.119   8.233   2.102  1.00 20.00     0.202 C 
ENDBRANCH   7   8
ENDBRANCH   1   7
TORSDOF 3
ENDMDL
MODEL 2
REMARK VINA RESULT:      -4.3      1.447      1.800
REMARK  3 active torsions:
REMARK  status: ('A' for Active; 'I' for Inactive)
REMARK    1  A    between atoms: C1_1  and  C4_4 
REMARK    2  A    between atoms: C1_1  and  C7_7 
REMARK    3  A    between atoms: C7_7  and  O9_9 
ROOT
HETATM    1  C1  UNL     1     -33.531   6.202   4.765  1.00 20.00     0.158 C 
HETATM    2  O8  UNL     1     -33.196   6.913   5.712  1.00 20.00    -0.295 OA
ENDROOT
BRANCH   1   3
HETATM    3  C4  UNL     1     -34.709   5.305   4.854  1.00 20.00     0.019 A 
HETATM    4  C2  UNL     1     -35.182   4.929   6.243  1.00 20.00     0.018 A 
HETATM    5  C3  UNL     1     -34.471   3.914   5.402  1.00 20.00     0.018 A 
HETATM    6  C5  UNL     1     -35.763   5.450   3.787  1.00 20.00     0.023 C 
ENDBRANCH   1   3
BRANCH   1   7
HETATM    7  C7  UNL     1     -32.776   6.189   3.454  1.00 20.00     0.246 C 
BRANCH   7   8
HETATM    8  O9  UNL     1     -31.865   7.266   3.392  1.00 20.00    -0.389 OA
HETATM    9  C6  UNL     1     -32.068   8.068   2.232  1.00 20.00     0.202 C 
ENDBRANCH   7   8
ENDBRANCH   1   7
TORSDOF 3
ENDMDL
MODEL 3
REMARK VINA RESULT:      -4.1     11.637     12.421
REMARK  3 active torsions:
REMARK  status: ('A' for Active; 'I' for Inactive)
REMARK    1  A    between atoms: C1_1  and  C4_4 
REMARK    2  A    between atoms: C1_1  and  C7_7 
REMARK    3  A    between atoms: C7_7  and  O9_9 
ROOT
HETATM    1  C1  UNL     1     -35.217  14.019  -4.060  1.00 20.00     0.158 C 
HETATM    2  O8  UNL     1     -34.934  12.826  -4.159  1.00 20.00    -0.295 OA
ENDROOT
BRANCH   1   3
HETATM    3  C4  UNL     1     -34.263  14.990  -3.470  1.00 20.00     0.019 A 
HETATM    4  C2  UNL     1     -33.345  15.721  -4.429  1.00 20.00     0.018 A 
HETATM    5  C3  UNL     1     -32.791  14.640  -3.552  1.00 20.00     0.018 A 
HETATM    6  C5  UNL     1     -34.720  15.745  -2.249  1.00 20.00     0.023 C 
ENDBRANCH   1   3
BRANCH   1   7
HETATM    7  C7  UNL     1     -36.542  14.581  -4.527  1.00 20.00     0.246 C 
BRANCH   7   8
HETATM    8  O9  UNL     1     -37.598  14.104  -3.721  1.00 20.00    -0.389 OA
HETATM    9  C6  UNL     1     -38.700  15.008  -3.700  1.00 20.00     0.202 C 
ENDBRANCH   7   8
ENDBRANCH   1   7
TORSDOF 3
ENDMDL
MODEL 4
REMARK VINA RESULT:      -3.8     11.744     13.138
REMARK  3 active torsions:
REMARK  status: ('A' for Active; 'I' for Inactive)
REMARK    1  A    between atoms: C1_1  and  C4_4 
REMARK    2  A    between atoms: C1_1  and  C7_7 
REMARK    3  A    between atoms: C7_7  and  O9_9 
ROOT
HETATM    1  C1  UNL     1     -34.511  13.796  -4.842  1.00 20.00     0.158 C 
HETATM    2  O8  UNL     1     -34.783  12.599  -4.922  1.00 20.00    -0.295 OA
ENDROOT
BRANCH   1   3
HETATM    3  C4  UNL     1     -35.067  14.777  -5.805  1.00 20.00     0.019 A 
HETATM    4  C2  UNL     1     -34.490  14.768  -7.206  1.00 20.00     0.018 A 
HETATM    5  C3  UNL     1     -34.140  15.883  -6.268  1.00 20.00     0.018 A 
HETATM    6  C5  UNL     1     -36.528  15.121  -5.668  1.00 20.00     0.023 C 
ENDBRANCH   1   3
BRANCH   1   7
HETATM    7  C7  UNL     1     -33.602  14.351  -3.767  1.00 20.00     0.246 C 
BRANCH   7   8
HETATM    8  O9  UNL     1     -34.350  15.044  -2.790  1.00 20.00    -0.389 OA
HETATM    9  C6  UNL     1     -33.811  16.336  -2.526  1.00 20.00     0.202 C 
ENDBRANCH   7   8
ENDBRANCH   1   7
TORSDOF 3
ENDMDL
MODEL 5
REMARK VINA RESULT:      -3.7     11.954     13.186
REMARK  3 active torsions:
REMARK  status: ('A' for Active; 'I' for Inactive)
REMARK    1  A    between atoms: C1_1  and  C4_4 
REMARK    2  A    between atoms: C1_1  and  C7_7 
REMARK    3  A    between atoms: C7_7  and  O9_9 
ROOT
HETATM    1  C1  UNL     1     -33.844  15.827  -4.960  1.00 20.00     0.158 C 
HETATM    2  O8  UNL     1     -32.812  16.492  -5.028  1.00 20.00    -0.295 OA
ENDROOT
BRANCH   1   3
HETATM    3  C4  UNL     1     -34.132  14.969  -3.786  1.00 20.00     0.019 A 
HETATM    4  C2  UNL     1     -33.381  13.657  -3.692  1.00 20.00     0.018 A 
HETATM    5  C3  UNL     1     -34.835  13.655  -4.053  1.00 20.00     0.018 A 
HETATM    6  C5  UNL     1     -34.456  15.668  -2.490  1.00 20.00     0.023 C 
ENDBRANCH   1   3
BRANCH   1   7
HETATM    7  C7  UNL     1     -34.887  15.835  -6.057  1.00 20.00     0.246 C 
BRANCH   7   8
HETATM    8  O9  UNL     1     -34.424  15.131  -7.190  1.00 20.00    -0.389 OA
HETATM    9  C6  UNL     1     -35.484  14.466  -7.872  1.00 20.00     0.202 C 
ENDBRANCH   7   8
ENDBRANCH   1   7
TORSDOF 3
ENDMDL
MODEL 6
REMARK VINA RESULT:      -3.6     11.479     12.675
REMARK  3 active torsions:
REMARK  status: ('A' for Active; 'I' for Inactive)
REMARK    1  A    between atoms: C1_1  and  C4_4 
REMARK    2  A    between atoms: C1_1  and  C7_7 
REMARK    3  A    between atoms: C7_7  and  O9_9 
ROOT
HETATM    1  C1  UNL     1     -33.365  15.711  -3.910  1.00 20.00     0.158 C 
HETATM    2  O8  UNL     1     -32.781  16.244  -4.852  1.00 20.00    -0.295 OA
ENDROOT
BRANCH   1   3
HETATM    3  C4  UNL     1     -34.390  16.442  -3.126  1.00 20.00     0.019 A 
HETATM    4  C2  UNL     1     -33.891  17.478  -2.140  1.00 20.00     0.018 A 
HETATM    5  C3  UNL     1     -34.432  16.175  -1.636  1.00 20.00     0.018 A 
HETATM    6  C5  UNL     1     -35.704  16.722  -3.809  1.00 20.00     0.023 C 
ENDBRANCH   1   3
BRANCH   1   7
HETATM    7  C7  UNL     1     -33.086  14.285  -3.485  1.00 20.00     0.246 C 
BRANCH   7   8
HETATM    8  O9  UNL     1     -34.255  13.500  -3.577  1.00 20.00    -0.389 OA
HETATM    9  C6  UNL     1     -34.594  13.209  -4.930  1.00 20.00     0.202 C 
ENDBRANCH   7   8
ENDBRANCH   1   7
TORSDOF 3
ENDMDL
MODEL 7
REMARK VINA RESULT:      -3.6     12.028     13.466
REMARK  3 active torsions:
REMARK  status: ('A' for Active; 'I' for Inactive)
REMARK    1  A    between atoms: C1_1  and  C4_4 
REMARK    2  A    between atoms: C1_1  and  C7_7 
REMARK    3  A    between atoms: C7_7  and  O9_9 
ROOT
HETATM    1  C1  UNL     1     -35.425  13.984  -4.692  1.00 20.00     0.158 C 
HETATM    2  O8  UNL     1     -34.985  12.840  -4.589  1.00 20.00    -0.295 OA
ENDROOT
BRANCH   1   3
HETATM    3  C4  UNL     1     -35.069  14.845  -5.846  1.00 20.00     0.019 A 
HETATM    4  C2  UNL     1     -33.859  15.742  -5.687  1.00 20.00     0.018 A 
HETATM    5  C3  UNL     1     -35.233  16.339  -5.662  1.00 20.00     0.018 A 
HETATM    6  C5  UNL     1     -35.336  14.291  -7.222  1.00 20.00     0.023 C 
ENDBRANCH   1   3
BRANCH   1   7
HETATM    7  C7  UNL     1     -36.352  14.592  -3.662  1.00 20.00     0.246 C 
BRANCH   7   8
HETATM    8  O9  UNL     1     -37.653  14.059  -3.786  1.00 20.00    -0.389 OA
HETATM    9  C6  UNL     1     -38.596  15.050  -4.187  1.00 20.00     0.202 C 
ENDBRANCH   7   8
ENDBRANCH   1   7
TORSDOF 3
ENDMDL
MODEL 8
REMARK VINA RESULT:      -3.6     11.574     12.699
REMARK  3 active torsions:
REMARK  status: ('A' for Active; 'I' for Inactive)
REMARK    1  A    between atoms: C1_1  and  C4_4 
REMARK    2  A    between atoms: C1_1  and  C7_7 
REMARK    3  A    between atoms: C7_7  and  O9_9 
ROOT
HETATM    1  C1  UNL     1     -33.766  16.186  -3.948  1.00 20.00     0.158 C 
HETATM    2  O8  UNL     1     -32.851  16.329  -4.758  1.00 20.00    -0.295 OA
ENDROOT
BRANCH   1   3
HETATM    3  C4  UNL     1     -34.644  14.992  -3.983  1.00 20.00     0.019 A 
HETATM    4  C2  UNL     1     -34.012  13.662  -3.627  1.00 20.00     0.018 A 
HETATM    5  C3  UNL     1     -34.357  13.960  -5.054  1.00 20.00     0.018 A 
HETATM    6  C5  UNL     1     -36.087  15.190  -3.592  1.00 20.00     0.023 C 
ENDBRANCH   1   3
BRANCH   1   7
HETATM    7  C7  UNL     1     -34.060  17.204  -2.868  1.00 20.00     0.246 C 
BRANCH   7   8
HETATM    8  O9  UNL     1     -33.595  16.750  -1.615  1.00 20.00    -0.389 OA
HETATM    9  C6  UNL     1     -34.605  16.829  -0.613  1.00 20.00     0.202 C 
ENDBRANCH   7   8
ENDBRANCH   1   7
TORSDOF 3
ENDMDL
MODEL 9
REMARK VINA RESULT:      -3.6     11.638     12.851
REMARK  3 active torsions:
REMARK  status: ('A' for Active; 'I' for Inactive)
REMARK    1  A    between atoms: C1_1  and  C4_4 
REMARK    2  A    between atoms: C1_1  and  C7_7 
REMARK    3  A    between atoms: C7_7  and  O9_9 
ROOT
HETATM    1  C1  UNL     1     -35.646  15.125  -3.771  1.00 20.00     0.158 C 
HETATM    2  O8  UNL     1     -35.666  15.658  -2.663  1.00 20.00    -0.295 OA
ENDROOT
BRANCH   1   3
HETATM    3  C4  UNL     1     -34.365  14.808  -4.449  1.00 20.00     0.019 A 
HETATM    4  C2  UNL     1     -33.530  13.693  -3.854  1.00 20.00     0.018 A 
HETATM    5  C3  UNL     1     -33.092  15.116  -3.688  1.00 20.00     0.018 A 
HETATM    6  C5  UNL     1     -34.324  14.970  -5.947  1.00 20.00     0.023 C 
ENDBRANCH   1   3
BRANCH   1   7
HETATM    7  C7  UNL     1     -36.909  14.756  -4.517  1.00 20.00     0.246 C 
BRANCH   7   8
HETATM    8  O9  UNL     1     -37.886  14.257  -3.628  1.00 20.00    -0.389 OA
HETATM    9  C6  UNL     1     -39.054  15.072  -3.611  1.00 20.00     0.202 C 
ENDBRANCH   7   8
ENDBRANCH   1   7
TORSDOF 3
ENDMDL
