MODEL 1
REMARK VINA RESULT:      -4.8      0.000      0.000
REMARK  2 active torsions:
REMARK  status: ('A' for Active; 'I' for Inactive)
REMARK    1  A    between atoms: C7_7  and  C9_9 
REMARK    2  A    between atoms: C9_9  and  O11_11 
ROOT
HETATM    1  C1  UNL     1     -34.477  16.762  -0.738  1.00 20.00     0.010 A 
HETATM    2  C2  UNL     1     -36.090  16.256  -2.755  1.00 20.00     0.012 C 
HETATM    3  C3  UNL     1     -33.773  15.517  -2.947  1.00 20.00     0.012 C 
HETATM    4  C5  UNL     1     -35.225  17.198  -1.970  1.00 20.00    -0.010 A 
HETATM    5  C6  UNL     1     -33.810  16.747  -2.088  1.00 20.00    -0.010 A 
HETATM    6  C7  UNL     1     -35.225  14.998  -2.972  1.00 20.00     0.021 C 
ENDROOT
BRANCH   6   7
HETATM    7  C9  UNL     1     -35.563  14.267  -4.233  1.00 20.00     0.065 A 
HETATM    8  C4  UNL     1     -36.787  14.660  -5.006  1.00 20.00     0.045 A 
HETATM    9  C8  UNL     1     -35.418  14.969  -5.553  1.00 20.00     0.019 A 
HETATM   10  C10 UNL     1     -34.914  14.248  -6.756  1.00 20.00     0.013 C 
BRANCH   7  11
HETATM   11  O11 UNL     1     -35.263  12.869  -4.171  1.00 20.00    -0.389 OA
HETATM   12  H27 UNL     1     -34.776  12.662  -4.983  1.00 20.00     0.210 HD
ENDBRANCH   7  11
ENDBRANCH   6   7
TORSDOF 2
ENDMDL
MODEL 2
REMARK VINA RESULT:      -4.8      1.703      2.272
REMARK  2 active torsions:
REMARK  status: ('A' for Active; 'I' for Inactive)
REMARK    1  A    between atoms: C7_7  and  C9_9 
REMARK    2  A    between atoms: C9_9  and  O11_11 
ROOT
HETATM    1  C1  UNL     1     -34.140  17.984  -0.465  1.00 20.00     0.010 A 
HETATM    2  C2  UNL     1     -34.757  15.838  -1.858  1.00 20.00     0.012 C 
HETATM    3  C3  UNL     1     -33.697  17.689  -3.043  1.00 20.00     0.012 C 
HETATM    4  C5  UNL     1     -35.145  17.120  -1.179  1.00 20.00    -0.010 A 
HETATM    5  C6  UNL     1     -34.498  18.250  -1.903  1.00 20.00    -0.010 A 
HETATM    6  C7  UNL     1     -33.526  16.191  -2.717  1.00 20.00     0.021 C 
ENDROOT
BRANCH   6   7
HETATM    7  C9  UNL     1     -33.404  15.338  -3.940  1.00 20.00     0.065 A 
HETATM    8  C4  UNL     1     -33.387  13.845  -3.797  1.00 20.00     0.045 A 
HETATM    9  C8  UNL     1     -34.585  14.531  -4.398  1.00 20.00     0.019 A 
HETATM   10  C10 UNL     1     -34.890  14.369  -5.848  1.00 20.00     0.013 C 
BRANCH   7  11
HETATM   11  O11 UNL     1     -32.539  15.898  -4.933  1.00 20.00    -0.389 OA
HETATM   12  H27 UNL     1     -32.536  16.855  -4.780  1.00 20.00     0.210 HD
ENDBRANCH   7  11
ENDBRANCH   6   7
TORSDOF 2
ENDMDL
MODEL 3
REMARK VINA RESULT:      -4.7     11.125     11.972
REMARK  2 active torsions:
REMARK  status: ('A' for Active; 'I' for Inactive)
REMARK    1  A    between atoms: C7_7  and  C9_9 
REMARK    2  A    between atoms: C9_9  and  O11_11 
ROOT
HETATM    1  C1  UNL     1     -34.826   4.216   5.346  1.00 20.00     0.010 A 
HETATM    2  C2  UNL     1     -34.246   5.610   3.191  1.00 20.00     0.012 C 
HETATM    3  C3  UNL     1     -33.526   6.504   5.345  1.00 20.00     0.012 C 
HETATM    4  C5  UNL     1     -35.219   5.159   4.241  1.00 20.00    -0.010 A 
HETATM    5  C6  UNL     1     -34.780   5.706   5.556  1.00 20.00    -0.010 A 
HETATM    6  C7  UNL     1     -32.991   6.059   3.968  1.00 20.00     0.021 C 
ENDROOT
BRANCH   6   7
HETATM    7  C9  UNL     1     -32.222   7.132   3.266  1.00 20.00     0.065 A 
HETATM    8  C4  UNL     1     -31.905   6.977   1.808  1.00 20.00     0.045 A 
HETATM    9  C8  UNL     1     -32.918   7.998   2.255  1.00 20.00     0.019 A 
HETATM   10  C10 UNL     1     -32.611   9.452   2.145  1.00 20.00     0.013 C 
BRANCH   7  11
HETATM   11  O11 UNL     1     -31.208   7.726   4.084  1.00 20.00    -0.389 OA
HETATM   12  H27 UNL     1     -31.544   7.699   4.992  1.00 20.00     0.210 HD
ENDBRANCH   7  11
ENDBRANCH   6   7
TORSDOF 2
ENDMDL
MODEL 4
REMARK VINA RESULT:      -4.7      1.782      2.501
REMARK  2 active torsions:
REMARK  status: ('A' for Active; 'I' for Inactive)
REMARK    1  A    between atoms: C7_7  and  C9_9 
REMARK    2  A    between atoms: C9_9  and  O11_11 
ROOT
HETATM    1  C1  UNL     1     -32.722  18.375  -0.104  1.00 20.00     0.010 A 
HETATM    2  C2  UNL     1     -34.642  16.665  -0.664  1.00 20.00     0.012 C 
HETATM    3  C3  UNL     1     -33.761  18.015  -2.495  1.00 20.00     0.012 C 
HETATM    4  C5  UNL     1     -34.173  17.976  -0.103  1.00 20.00    -0.010 A 
HETATM    5  C6  UNL     1     -33.636  18.801  -1.222  1.00 20.00    -0.010 A 
HETATM    6  C7  UNL     1     -33.973  16.554  -2.049  1.00 20.00     0.021 C 
ENDROOT
BRANCH   6   7
HETATM    7  C9  UNL     1     -34.778  15.756  -3.025  1.00 20.00     0.065 A 
HETATM    8  C4  UNL     1     -34.525  15.919  -4.495  1.00 20.00     0.045 A 
HETATM    9  C8  UNL     1     -34.118  14.649  -3.795  1.00 20.00     0.019 A 
HETATM   10  C10 UNL     1     -34.837  13.375  -4.081  1.00 20.00     0.013 C 
BRANCH   7  11
HETATM   11  O11 UNL     1     -36.140  15.583  -2.622  1.00 20.00    -0.389 OA
HETATM   12  H27 UNL     1     -36.597  15.185  -3.379  1.00 20.00     0.210 HD
ENDBRANCH   7  11
ENDBRANCH   6   7
TORSDOF 2
ENDMDL
MODEL 5
REMARK VINA RESULT:      -4.7      2.037      4.377
REMARK  2 active torsions:
REMARK  status: ('A' for Active; 'I' for Inactive)
REMARK    1  A    between atoms: C7_7  and  C9_9 
REMARK    2  A    between atoms: C9_9  and  O11_11 
ROOT
HETATM    1  C1  UNL     1     -34.487  13.775  -5.245  1.00 20.00     0.010 A 
HETATM    2  C2  UNL     1     -35.813  15.001  -3.331  1.00 20.00     0.012 C 
HETATM    3  C3  UNL     1     -33.382  15.203  -3.331  1.00 20.00     0.012 C 
HETATM    4  C5  UNL     1     -35.234  13.756  -3.938  1.00 20.00    -0.010 A 
HETATM    5  C6  UNL     1     -33.749  13.880  -3.937  1.00 20.00    -0.010 A 
HETATM    6  C7  UNL     1     -34.676  16.041  -3.377  1.00 20.00     0.021 C 
ENDROOT
BRANCH   6   7
HETATM    7  C9  UNL     1     -34.760  17.047  -2.273  1.00 20.00     0.065 A 
HETATM    8  C4  UNL     1     -34.760  16.578  -0.848  1.00 20.00     0.045 A 
HETATM    9  C8  UNL     1     -33.558  17.294  -1.407  1.00 20.00     0.019 A 
HETATM   10  C10 UNL     1     -33.219  18.666  -0.933  1.00 20.00     0.013 C 
BRANCH   7  11
HETATM   11  O11 UNL     1     -35.609  18.156  -2.585  1.00 20.00    -0.389 OA
HETATM   12  H27 UNL     1     -35.243  18.560  -3.386  1.00 20.00     0.210 HD
ENDBRANCH   7  11
ENDBRANCH   6   7
TORSDOF 2
ENDMDL
MODEL 6
REMARK VINA RESULT:      -4.6      1.737      2.081
REMARK  2 active torsions:
REMARK  status: ('A' for Active; 'I' for Inactive)
REMARK    1  A    between atoms: C7_7  and  C9_9 
REMARK    2  A    between atoms: C9_9  and  O11_11 
ROOT
HETATM    1  C1  UNL     1     -35.358  17.864  -1.131  1.00 20.00     0.010 A 
HETATM    2  C2  UNL     1     -33.689  17.594  -3.147  1.00 20.00     0.012 C 
HETATM    3  C3  UNL     1     -34.687  15.567  -2.226  1.00 20.00     0.012 C 
HETATM    4  C5  UNL     1     -33.960  17.820  -1.688  1.00 20.00    -0.010 A 
HETATM    5  C6  UNL     1     -34.569  16.582  -1.126  1.00 20.00    -0.010 A 
HETATM    6  C7  UNL     1     -34.547  16.372  -3.534  1.00 20.00     0.021 C 
ENDROOT
BRANCH   6   7
HETATM    7  C9  UNL     1     -33.954  15.572  -4.651  1.00 20.00     0.065 A 
HETATM    8  C4  UNL     1     -34.230  14.100  -4.729  1.00 20.00     0.045 A 
HETATM    9  C8  UNL     1     -34.849  15.038  -5.732  1.00 20.00     0.019 A 
HETATM   10  C10 UNL     1     -34.405  15.010  -7.155  1.00 20.00     0.013 C 
BRANCH   7  11
HETATM   11  O11 UNL     1     -32.636  15.998  -5.011  1.00 20.00    -0.389 OA
HETATM   12  H27 UNL     1     -32.135  16.054  -4.183  1.00 20.00     0.210 HD
ENDBRANCH   7  11
ENDBRANCH   6   7
TORSDOF 2
ENDMDL
MODEL 7
REMARK VINA RESULT:      -4.6     12.229     13.313
REMARK  2 active torsions:
REMARK  status: ('A' for Active; 'I' for Inactive)
REMARK    1  A    between atoms: C7_7  and  C9_9 
REMARK    2  A    between atoms: C9_9  and  O11_11 
ROOT
HETATM    1  C1  UNL     1     -41.021   7.117  -0.936  1.00 20.00     0.010 A 
HETATM    2  C2  UNL     1     -40.779   4.507  -1.168  1.00 20.00     0.012 C 
HETATM    3  C3  UNL     1     -43.026   5.449  -1.286  1.00 20.00     0.012 C 
HETATM    4  C5  UNL     1     -40.815   5.753  -0.333  1.00 20.00    -0.010 A 
HETATM    5  C6  UNL     1     -42.188   6.328  -0.404  1.00 20.00    -0.010 A 
HETATM    6  C7  UNL     1     -42.018   4.596  -2.083  1.00 20.00     0.021 C 
ENDROOT
BRANCH   6   7
HETATM    7  C9  UNL     1     -42.560   3.256  -2.464  1.00 20.00     0.065 A 
HETATM    8  C4  UNL     1     -43.340   3.112  -3.738  1.00 20.00     0.045 A 
HETATM    9  C8  UNL     1     -41.959   2.521  -3.628  1.00 20.00     0.019 A 
HETATM   10  C10 UNL     1     -41.780   1.042  -3.595  1.00 20.00     0.013 C 
BRANCH   7  11
HETATM   11  O11 UNL     1     -43.015   2.492  -1.343  1.00 20.00    -0.389 OA
HETATM   12  H27 UNL     1     -42.494   2.792  -0.583  1.00 20.00     0.210 HD
ENDBRANCH   7  11
ENDBRANCH   6   7
TORSDOF 2
ENDMDL
MODEL 8
REMARK VINA RESULT:      -4.6      1.985      4.551
REMARK  2 active torsions:
REMARK  status: ('A' for Active; 'I' for Inactive)
REMARK    1  A    between atoms: C7_7  and  C9_9 
REMARK    2  A    between atoms: C9_9  and  O11_11 
ROOT
HETATM    1  C1  UNL     1     -34.733  13.263  -4.169  1.00 20.00     0.010 A 
HETATM    2  C2  UNL     1     -33.577  15.499  -3.401  1.00 20.00     0.012 C 
HETATM    3  C3  UNL     1     -36.014  15.404  -3.332  1.00 20.00     0.012 C 
HETATM    4  C5  UNL     1     -34.046  14.566  -4.479  1.00 20.00    -0.010 A 
HETATM    5  C6  UNL     1     -35.534  14.509  -4.438  1.00 20.00    -0.010 A 
HETATM    6  C7  UNL     1     -34.777  15.647  -2.443  1.00 20.00     0.021 C 
ENDROOT
BRANCH   6   7
HETATM    7  C9  UNL     1     -34.808  16.970  -1.747  1.00 20.00     0.065 A 
HETATM    8  C4  UNL     1     -34.792  17.013  -0.247  1.00 20.00     0.045 A 
HETATM    9  C8  UNL     1     -33.582  17.455  -1.028  1.00 20.00     0.019 A 
HETATM   10  C10 UNL     1     -33.194  18.893  -1.053  1.00 20.00     0.013 C 
BRANCH   7  11
HETATM   11  O11 UNL     1     -35.632  17.935  -2.408  1.00 20.00    -0.389 OA
HETATM   12  H27 UNL     1     -36.452  17.989  -1.894  1.00 20.00     0.210 HD
ENDBRANCH   7  11
ENDBRANCH   6   7
TORSDOF 2
ENDMDL
MODEL 9
REMARK VINA RESULT:      -4.5      1.590      4.249
REMARK  2 active torsions:
REMARK  status: ('A' for Active; 'I' for Inactive)
REMARK    1  A    between atoms: C7_7  and  C9_9 
REMARK    2  A    between atoms: C9_9  and  O11_11 
ROOT
HETATM    1  C1  UNL     1     -35.206  16.167  -7.918  1.00 20.00     0.010 A 
HETATM    2  C2  UNL     1     -35.080  14.424  -5.951  1.00 20.00     0.012 C 
HETATM    3  C3  UNL     1     -34.552  16.750  -5.437  1.00 20.00     0.012 C 
HETATM    4  C5  UNL     1     -34.500  15.062  -7.179  1.00 20.00    -0.010 A 
HETATM    5  C6  UNL     1     -34.177  16.482  -6.865  1.00 20.00    -0.010 A 
HETATM    6  C7  UNL     1     -35.502  15.600  -5.045  1.00 20.00     0.021 C 
ENDROOT
BRANCH   6   7
HETATM    7  C9  UNL     1     -35.444  15.265  -3.588  1.00 20.00     0.065 A 
HETATM    8  C4  UNL     1     -34.307  14.435  -3.068  1.00 20.00     0.045 A 
HETATM    9  C8  UNL     1     -34.391  15.900  -2.726  1.00 20.00     0.019 A 
HETATM   10  C10 UNL     1     -34.692  16.325  -1.330  1.00 20.00     0.013 C 
BRANCH   7  11
HETATM   11  O11 UNL     1     -36.732  15.020  -3.015  1.00 20.00    -0.389 OA
HETATM   12  H27 UNL     1     -36.622  15.107  -2.056  1.00 20.00     0.210 HD
ENDBRANCH   7  11
ENDBRANCH   6   7
TORSDOF 2
ENDMDL
