MODEL 1
REMARK VINA RESULT:      -4.8      0.000      0.000
REMARK  3 active torsions:
REMARK  status: ('A' for Active; 'I' for Inactive)
REMARK    1  A    between atoms: C1_1  and  C7_7 
REMARK    2  A    between atoms: C2_2  and  C3_3 
REMARK    3  A    between atoms: C3_3  and  C10_10 
ROOT
HETATM    1  C1  UNL     1     -35.717  15.890  -2.554  1.00 20.00    -0.012 C 
HETATM    2  C3  UNL     1     -35.710  15.178  -3.696  1.00 20.00    -0.020 C 
ENDROOT
BRANCH   2   3
HETATM    3  C2  UNL     1     -37.068  14.922  -4.258  1.00 20.00     0.265 C 
HETATM    4  O11 UNL     1     -37.896  14.184  -3.737  1.00 20.00    -0.302 OA
ENDBRANCH   2   3
BRANCH   2   5
HETATM    5  C10 UNL     1     -34.481  14.648  -4.410  1.00 20.00     0.013 C 
HETATM    6  C8  UNL     1     -34.122  15.485  -5.641  1.00 20.00     0.015 C 
HETATM    7  C9  UNL     1     -34.614  13.166  -4.770  1.00 20.00     0.015 C 
ENDBRANCH   2   5
BRANCH   1   8
HETATM    8  C7  UNL     1     -34.481  16.250  -1.839  1.00 20.00     0.009 C 
HETATM    9  C5  UNL     1     -33.833  17.596  -2.251  1.00 20.00     0.008 C 
HETATM   10  C4  UNL     1     -33.482  17.796  -0.762  1.00 20.00     0.001 C 
HETATM   11  C6  UNL     1     -34.675  16.876  -0.434  1.00 20.00     0.008 C 
ENDBRANCH   1   8
TORSDOF 3
ENDMDL
MODEL 2
REMARK VINA RESULT:      -4.7      0.997      1.072
REMARK  3 active torsions:
REMARK  status: ('A' for Active; 'I' for Inactive)
REMARK    1  A    between atoms: C1_1  and  C7_7 
REMARK    2  A    between atoms: C2_2  and  C3_3 
REMARK    3  A    between atoms: C3_3  and  C10_10 
ROOT
HETATM    1  C1  UNL     1     -35.412  16.249  -1.955  1.00 20.00    -0.012 C 
HETATM    2  C3  UNL     1     -35.127  15.519  -3.049  1.00 20.00    -0.020 C 
ENDROOT
BRANCH   2   3
HETATM    3  C2  UNL     1     -36.317  15.206  -3.893  1.00 20.00     0.265 C 
HETATM    4  O11 UNL     1     -37.249  14.500  -3.527  1.00 20.00    -0.302 OA
ENDBRANCH   2   3
BRANCH   2   5
HETATM    5  C10 UNL     1     -33.755  15.021  -3.458  1.00 20.00     0.013 C 
HETATM    6  C8  UNL     1     -33.070  15.962  -4.454  1.00 20.00     0.015 C 
HETATM    7  C9  UNL     1     -33.793  13.586  -3.991  1.00 20.00     0.015 C 
ENDBRANCH   2   5
BRANCH   1   8
HETATM    8  C7  UNL     1     -34.379  16.665  -0.991  1.00 20.00     0.009 C 
HETATM    9  C5  UNL     1     -33.684  18.017  -1.291  1.00 20.00     0.008 C 
HETATM   10  C4  UNL     1     -33.685  18.270   0.230  1.00 20.00     0.001 C 
HETATM   11  C6  UNL     1     -34.901  17.325   0.311  1.00 20.00     0.008 C 
ENDBRANCH   1   8
TORSDOF 3
ENDMDL
MODEL 3
REMARK VINA RESULT:      -4.5      1.336      2.225
REMARK  3 active torsions:
REMARK  status: ('A' for Active; 'I' for Inactive)
REMARK    1  A    between atoms: C1_1  and  C7_7 
REMARK    2  A    between atoms: C2_2  and  C3_3 
REMARK    3  A    between atoms: C3_3  and  C10_10 
ROOT
HETATM    1  C1  UNL     1     -34.368  15.224  -2.727  1.00 20.00    -0.012 C 
HETATM    2  C3  UNL     1     -34.556  14.902  -4.019  1.00 20.00    -0.020 C 
ENDROOT
BRANCH   2   3
HETATM    3  C2  UNL     1     -34.121  13.518  -4.367  1.00 20.00     0.265 C 
HETATM    4  O11 UNL     1     -34.894  12.600  -4.616  1.00 20.00    -0.302 OA
ENDBRANCH   2   3
BRANCH   2   5
HETATM    5  C10 UNL     1     -35.147  15.802  -5.088  1.00 20.00     0.013 C 
HETATM    6  C8  UNL     1     -36.651  15.578  -5.266  1.00 20.00     0.015 C 
HETATM    7  C9  UNL     1     -34.408  15.678  -6.423  1.00 20.00     0.015 C 
ENDBRANCH   2   5
BRANCH   1   8
HETATM    8  C7  UNL     1     -34.731  16.543  -2.180  1.00 20.00     0.009 C 
HETATM    9  C5  UNL     1     -34.690  16.666  -0.635  1.00 20.00     0.008 C 
HETATM   10  C4  UNL     1     -34.141  18.092  -0.838  1.00 20.00     0.001 C 
HETATM   11  C6  UNL     1     -33.610  17.613  -2.205  1.00 20.00     0.008 C 
ENDBRANCH   1   8
TORSDOF 3
ENDMDL
MODEL 4
REMARK VINA RESULT:      -4.4      2.108      2.802
REMARK  3 active torsions:
REMARK  status: ('A' for Active; 'I' for Inactive)
REMARK    1  A    between atoms: C1_1  and  C7_7 
REMARK    2  A    between atoms: C2_2  and  C3_3 
REMARK    3  A    between atoms: C3_3  and  C10_10 
ROOT
HETATM    1  C1  UNL     1     -33.672  17.069  -2.519  1.00 20.00    -0.012 C 
HETATM    2  C3  UNL     1     -33.805  16.106  -3.449  1.00 20.00    -0.020 C 
ENDROOT
BRANCH   2   3
HETATM    3  C2  UNL     1     -33.267  16.482  -4.789  1.00 20.00     0.265 C 
HETATM    4  O11 UNL     1     -33.352  17.606  -5.269  1.00 20.00    -0.302 OA
ENDBRANCH   2   3
BRANCH   2   5
HETATM    5  C10 UNL     1     -34.429  14.740  -3.239  1.00 20.00     0.013 C 
HETATM    6  C8  UNL     1     -33.604  13.621  -3.882  1.00 20.00     0.015 C 
HETATM    7  C9  UNL     1     -35.886  14.689  -3.705  1.00 20.00     0.015 C 
ENDBRANCH   2   5
BRANCH   1   8
HETATM    8  C7  UNL     1     -34.138  16.898  -1.132  1.00 20.00     0.009 C 
HETATM    9  C5  UNL     1     -33.585  17.919  -0.106  1.00 20.00     0.008 C 
HETATM   10  C4  UNL     1     -34.978  17.894   0.556  1.00 20.00     0.001 C 
HETATM   11  C6  UNL     1     -35.541  17.477  -0.818  1.00 20.00     0.008 C 
ENDBRANCH   1   8
TORSDOF 3
ENDMDL
MODEL 5
REMARK VINA RESULT:      -4.3      1.969      2.297
REMARK  3 active torsions:
REMARK  status: ('A' for Active; 'I' for Inactive)
REMARK    1  A    between atoms: C1_1  and  C7_7 
REMARK    2  A    between atoms: C2_2  and  C3_3 
REMARK    3  A    between atoms: C3_3  and  C10_10 
ROOT
HETATM    1  C1  UNL     1     -34.008  16.933  -3.267  1.00 20.00    -0.012 C 
HETATM    2  C3  UNL     1     -34.306  15.848  -4.006  1.00 20.00    -0.020 C 
ENDROOT
BRANCH   2   3
HETATM    3  C2  UNL     1     -34.581  16.151  -5.441  1.00 20.00     0.265 C 
HETATM    4  O11 UNL     1     -33.786  15.939  -6.349  1.00 20.00    -0.302 OA
ENDBRANCH   2   3
BRANCH   2   5
HETATM    5  C10 UNL     1     -34.376  14.418  -3.506  1.00 20.00     0.013 C 
HETATM    6  C8  UNL     1     -33.012  13.723  -3.550  1.00 20.00     0.015 C 
HETATM    7  C9  UNL     1     -35.437  13.598  -4.243  1.00 20.00     0.015 C 
ENDBRANCH   2   5
BRANCH   1   8
HETATM    8  C7  UNL     1     -33.705  16.850  -1.828  1.00 20.00     0.009 C 
HETATM    9  C5  UNL     1     -33.443  18.202  -1.117  1.00 20.00     0.008 C 
HETATM   10  C4  UNL     1     -34.192  17.620   0.100  1.00 20.00     0.001 C 
HETATM   11  C6  UNL     1     -34.929  16.695  -0.891  1.00 20.00     0.008 C 
ENDBRANCH   1   8
TORSDOF 3
ENDMDL
MODEL 6
REMARK VINA RESULT:      -4.1      1.601      2.412
REMARK  3 active torsions:
REMARK  status: ('A' for Active; 'I' for Inactive)
REMARK    1  A    between atoms: C1_1  and  C7_7 
REMARK    2  A    between atoms: C2_2  and  C3_3 
REMARK    3  A    between atoms: C3_3  and  C10_10 
ROOT
HETATM    1  C1  UNL     1     -34.678  16.066  -1.593  1.00 20.00    -0.012 C 
HETATM    2  C3  UNL     1     -34.510  15.929  -2.921  1.00 20.00    -0.020 C 
ENDROOT
BRANCH   2   3
HETATM    3  C2  UNL     1     -34.488  14.510  -3.384  1.00 20.00     0.265 C 
HETATM    4  O11 UNL     1     -35.445  13.944  -3.899  1.00 20.00    -0.302 OA
ENDBRANCH   2   3
BRANCH   2   5
HETATM    5  C10 UNL     1     -34.350  17.055  -3.924  1.00 20.00     0.013 C 
HETATM    6  C8  UNL     1     -35.680  17.439  -4.580  1.00 20.00     0.015 C 
HETATM    7  C9  UNL     1     -33.283  16.748  -4.977  1.00 20.00     0.015 C 
ENDBRANCH   2   5
BRANCH   1   8
HETATM    8  C7  UNL     1     -34.728  17.384  -0.936  1.00 20.00     0.009 C 
HETATM    9  C5  UNL     1     -34.951  17.361   0.598  1.00 20.00     0.008 C 
HETATM   10  C4  UNL     1     -33.971  18.550   0.681  1.00 20.00     0.001 C 
HETATM   11  C6  UNL     1     -33.356  18.039  -0.637  1.00 20.00     0.008 C 
ENDBRANCH   1   8
TORSDOF 3
ENDMDL
MODEL 7
REMARK VINA RESULT:      -4.1      1.821      4.360
REMARK  3 active torsions:
REMARK  status: ('A' for Active; 'I' for Inactive)
REMARK    1  A    between atoms: C1_1  and  C7_7 
REMARK    2  A    between atoms: C2_2  and  C3_3 
REMARK    3  A    between atoms: C3_3  and  C10_10 
ROOT
HETATM    1  C1  UNL     1     -35.499  16.115  -2.713  1.00 20.00    -0.012 C 
HETATM    2  C3  UNL     1     -35.469  17.034  -1.731  1.00 20.00    -0.020 C 
ENDROOT
BRANCH   2   3
HETATM    3  C2  UNL     1     -36.480  18.120  -1.888  1.00 20.00     0.265 C 
HETATM    4  O11 UNL     1     -37.597  17.951  -2.362  1.00 20.00    -0.302 OA
ENDBRANCH   2   3
BRANCH   2   5
HETATM    5  C10 UNL     1     -34.528  17.040  -0.541  1.00 20.00     0.013 C 
HETATM    6  C8  UNL     1     -35.252  17.374   0.767  1.00 20.00     0.015 C 
HETATM    7  C9  UNL     1     -33.325  17.961  -0.757  1.00 20.00     0.015 C 
ENDBRANCH   2   5
BRANCH   1   8
HETATM    8  C7  UNL     1     -34.583  14.961  -2.745  1.00 20.00     0.009 C 
HETATM    9  C5  UNL     1     -34.931  13.854  -3.772  1.00 20.00     0.008 C 
HETATM   10  C4  UNL     1     -33.414  13.702  -4.009  1.00 20.00     0.001 C 
HETATM   11  C6  UNL     1     -33.271  15.166  -3.544  1.00 20.00     0.008 C 
ENDBRANCH   1   8
TORSDOF 3
ENDMDL
MODEL 8
REMARK VINA RESULT:      -4.1     12.345     14.507
REMARK  3 active torsions:
REMARK  status: ('A' for Active; 'I' for Inactive)
REMARK    1  A    between atoms: C1_1  and  C7_7 
REMARK    2  A    between atoms: C2_2  and  C3_3 
REMARK    3  A    between atoms: C3_3  and  C10_10 
ROOT
HETATM    1  C1  UNL     1     -42.462   3.805  -3.116  1.00 20.00    -0.012 C 
HETATM    2  C3  UNL     1     -42.267   4.800  -2.232  1.00 20.00    -0.020 C 
ENDROOT
BRANCH   2   3
HETATM    3  C2  UNL     1     -42.841   6.110  -2.660  1.00 20.00     0.265 C 
HETATM    4  O11 UNL     1     -43.224   6.349  -3.799  1.00 20.00    -0.302 OA
ENDBRANCH   2   3
BRANCH   2   5
HETATM    5  C10 UNL     1     -41.545   4.688  -0.903  1.00 20.00     0.013 C 
HETATM    6  C8  UNL     1     -42.497   4.342   0.246  1.00 20.00     0.015 C 
HETATM    7  C9  UNL     1     -40.723   5.938  -0.581  1.00 20.00     0.015 C 
ENDBRANCH   2   5
BRANCH   1   8
HETATM    8  C7  UNL     1     -41.974   2.434  -2.882  1.00 20.00     0.009 C 
HETATM    9  C5  UNL     1     -43.058   1.327  -2.876  1.00 20.00     0.008 C 
HETATM   10  C4  UNL     1     -42.032   0.424  -3.591  1.00 20.00     0.001 C 
HETATM   11  C6  UNL     1     -41.374   1.716  -4.117  1.00 20.00     0.008 C 
ENDBRANCH   1   8
TORSDOF 3
ENDMDL
MODEL 9
REMARK VINA RESULT:      -4.0      1.839      4.158
REMARK  3 active torsions:
REMARK  status: ('A' for Active; 'I' for Inactive)
REMARK    1  A    between atoms: C1_1  and  C7_7 
REMARK    2  A    between atoms: C2_2  and  C3_3 
REMARK    3  A    between atoms: C3_3  and  C10_10 
ROOT
HETATM    1  C1  UNL     1     -36.553  14.414  -3.935  1.00 20.00    -0.012 C 
HETATM    2  C3  UNL     1     -35.287  14.755  -3.633  1.00 20.00    -0.020 C 
ENDROOT
BRANCH   2   3
HETATM    3  C2  UNL     1     -34.304  13.646  -3.807  1.00 20.00     0.265 C 
HETATM    4  O11 UNL     1     -34.468  12.700  -4.569  1.00 20.00    -0.302 OA
ENDBRANCH   2   3
BRANCH   2   5
HETATM    5  C10 UNL     1     -34.818  16.115  -3.153  1.00 20.00     0.013 C 
HETATM    6  C8  UNL     1     -33.523  16.557  -3.841  1.00 20.00     0.015 C 
HETATM    7  C9  UNL     1     -34.682  16.178  -1.629  1.00 20.00     0.015 C 
ENDBRANCH   2   5
BRANCH   1   8
HETATM    8  C7  UNL     1     -37.674  15.363  -3.830  1.00 20.00     0.009 C 
HETATM    9  C5  UNL     1     -37.941  16.231  -5.086  1.00 20.00     0.008 C 
HETATM   10  C4  UNL     1     -39.445  16.076  -4.782  1.00 20.00     0.001 C 
HETATM   11  C6  UNL     1     -39.085  14.764  -4.055  1.00 20.00     0.008 C 
ENDBRANCH   1   8
TORSDOF 3
ENDMDL
