MODEL 1
REMARK VINA RESULT:      -3.8      0.000      0.000
REMARK  4 active torsions:
REMARK  status: ('A' for Active; 'I' for Inactive)
REMARK    1  A    between atoms: C3_3  and  C7_7 
REMARK    2  A    between atoms: C6_6  and  C7_7 
REMARK    3  A    between atoms: C6_6  and  O9_9 
REMARK    4  A    between atoms: C7_7  and  C8_8 
ROOT
HETATM    1  C7  UNL     1     -34.226  15.827  -3.247  1.00 20.00     0.032 C 
ENDROOT
BRANCH   1   2
HETATM    2  C3  UNL     1     -33.749  16.425  -1.940  1.00 20.00    -0.007 A 
HETATM    3  C1  UNL     1     -34.174  17.810  -1.540  1.00 20.00     0.005 A 
HETATM    4  C2  UNL     1     -34.711  16.617  -0.800  1.00 20.00     0.005 A 
ENDBRANCH   1   2
BRANCH   1   5
HETATM    5  C6  UNL     1     -33.309  14.667  -3.673  1.00 20.00     0.173 C 
BRANCH   5   6
HETATM    6  O9  UNL     1     -33.979  13.428  -3.462  1.00 20.00    -0.396 OA
HETATM    7  C5  UNL     1     -35.124  13.309  -4.292  1.00 20.00     0.201 C 
ENDBRANCH   5   6
ENDBRANCH   1   5
BRANCH   1   8
HETATM    8  C8  UNL     1     -34.371  16.867  -4.385  1.00 20.00     0.084 C 
HETATM    9  C4  UNL     1     -33.539  16.539  -5.622  1.00 20.00     0.027 C 
HETATM   10 CL10 UNL     1     -36.078  17.111  -4.873  1.00 20.00    -0.125 Cl
ENDBRANCH   1   8
TORSDOF 4
ENDMDL
MODEL 2
REMARK VINA RESULT:      -3.8      2.896      4.334
REMARK  4 active torsions:
REMARK  status: ('A' for Active; 'I' for Inactive)
REMARK    1  A    between atoms: C3_3  and  C7_7 
REMARK    2  A    between atoms: C6_6  and  C7_7 
REMARK    3  A    between atoms: C6_6  and  O9_9 
REMARK    4  A    between atoms: C7_7  and  C8_8 
ROOT
HETATM    1  C7  UNL     1     -35.560  14.723  -4.572  1.00 20.00     0.032 C 
ENDROOT
BRANCH   1   2
HETATM    2  C3  UNL     1     -35.627  15.270  -5.983  1.00 20.00    -0.007 A 
HETATM    3  C1  UNL     1     -34.382  15.359  -6.821  1.00 20.00     0.005 A 
HETATM    4  C2  UNL     1     -35.445  14.351  -7.159  1.00 20.00     0.005 A 
ENDBRANCH   1   2
BRANCH   1   5
HETATM    5  C6  UNL     1     -36.784  15.181  -3.760  1.00 20.00     0.173 C 
BRANCH   5   6
HETATM    6  O9  UNL     1     -37.787  14.171  -3.802  1.00 20.00    -0.396 OA
HETATM    7  C5  UNL     1     -39.045  14.705  -4.182  1.00 20.00     0.201 C 
ENDBRANCH   5   6
ENDBRANCH   1   5
BRANCH   1   8
HETATM    8  C8  UNL     1     -34.243  15.074  -3.836  1.00 20.00     0.084 C 
HETATM    9  C4  UNL     1     -34.459  15.692  -2.458  1.00 20.00     0.027 C 
HETATM   10 CL10 UNL     1     -33.151  13.661  -3.681  1.00 20.00    -0.125 Cl
ENDBRANCH   1   8
TORSDOF 4
ENDMDL
MODEL 3
REMARK VINA RESULT:      -3.8      2.261      3.132
REMARK  4 active torsions:
REMARK  status: ('A' for Active; 'I' for Inactive)
REMARK    1  A    between atoms: C3_3  and  C7_7 
REMARK    2  A    between atoms: C6_6  and  C7_7 
REMARK    3  A    between atoms: C6_6  and  O9_9 
REMARK    4  A    between atoms: C7_7  and  C8_8 
ROOT
HETATM    1  C7  UNL     1     -33.671  15.913  -3.034  1.00 20.00     0.032 C 
ENDROOT
BRANCH   1   2
HETATM    2  C3  UNL     1     -34.307  16.967  -2.151  1.00 20.00    -0.007 A 
HETATM    3  C1  UNL     1     -34.660  16.648  -0.725  1.00 20.00     0.005 A 
HETATM    4  C2  UNL     1     -33.522  17.583  -1.026  1.00 20.00     0.005 A 
ENDBRANCH   1   2
BRANCH   1   5
HETATM    5  C6  UNL     1     -33.331  16.502  -4.413  1.00 20.00     0.173 C 
BRANCH   5   6
HETATM    6  O9  UNL     1     -33.928  17.789  -4.541  1.00 20.00    -0.396 OA
HETATM    7  C5  UNL     1     -33.657  18.363  -5.810  1.00 20.00     0.201 C 
ENDBRANCH   5   6
ENDBRANCH   1   5
BRANCH   1   8
HETATM    8  C8  UNL     1     -34.527  14.629  -3.175  1.00 20.00     0.084 C 
HETATM    9  C4  UNL     1     -35.949  14.893  -3.658  1.00 20.00     0.027 C 
HETATM   10 CL10 UNL     1     -33.759  13.412  -4.244  1.00 20.00    -0.125 Cl
ENDBRANCH   1   8
TORSDOF 4
ENDMDL
MODEL 4
REMARK VINA RESULT:      -3.8      2.619      3.558
REMARK  4 active torsions:
REMARK  status: ('A' for Active; 'I' for Inactive)
REMARK    1  A    between atoms: C3_3  and  C7_7 
REMARK    2  A    between atoms: C6_6  and  C7_7 
REMARK    3  A    between atoms: C6_6  and  O9_9 
REMARK    4  A    between atoms: C7_7  and  C8_8 
ROOT
HETATM    1  C7  UNL     1     -35.452  15.197  -3.383  1.00 20.00     0.032 C 
ENDROOT
BRANCH   1   2
HETATM    2  C3  UNL     1     -34.250  14.764  -4.195  1.00 20.00    -0.007 A 
HETATM    3  C1  UNL     1     -32.859  15.025  -3.688  1.00 20.00     0.005 A 
HETATM    4  C2  UNL     1     -33.393  13.620  -3.726  1.00 20.00     0.005 A 
ENDBRANCH   1   2
BRANCH   1   5
HETATM    5  C6  UNL     1     -36.718  15.201  -4.257  1.00 20.00     0.173 C 
BRANCH   5   6
HETATM    6  O9  UNL     1     -37.661  14.271  -3.733  1.00 20.00    -0.396 OA
HETATM    7  C5  UNL     1     -38.990  14.750  -3.862  1.00 20.00     0.201 C 
ENDBRANCH   5   6
ENDBRANCH   1   5
BRANCH   1   8
HETATM    8  C8  UNL     1     -35.260  16.563  -2.678  1.00 20.00     0.084 C 
HETATM    9  C4  UNL     1     -36.504  17.447  -2.710  1.00 20.00     0.027 C 
HETATM   10 CL10 UNL     1     -34.712  16.384  -0.981  1.00 20.00    -0.125 Cl
ENDBRANCH   1   8
TORSDOF 4
ENDMDL
MODEL 5
REMARK VINA RESULT:      -3.7      1.898      2.165
REMARK  4 active torsions:
REMARK  status: ('A' for Active; 'I' for Inactive)
REMARK    1  A    between atoms: C3_3  and  C7_7 
REMARK    2  A    between atoms: C6_6  and  C7_7 
REMARK    3  A    between atoms: C6_6  and  O9_9 
REMARK    4  A    between atoms: C7_7  and  C8_8 
ROOT
HETATM    1  C7  UNL     1     -35.205  15.367  -4.039  1.00 20.00     0.032 C 
ENDROOT
BRANCH   1   2
HETATM    2  C3  UNL     1     -34.439  15.395  -2.732  1.00 20.00    -0.007 A 
HETATM    3  C1  UNL     1     -33.624  16.602  -2.357  1.00 20.00     0.005 A 
HETATM    4  C2  UNL     1     -34.891  16.290  -1.610  1.00 20.00     0.005 A 
ENDBRANCH   1   2
BRANCH   1   5
HETATM    5  C6  UNL     1     -35.882  14.000  -4.235  1.00 20.00     0.173 C 
BRANCH   5   6
HETATM    6  O9  UNL     1     -37.236  14.072  -3.800  1.00 20.00    -0.396 OA
HETATM    7  C5  UNL     1     -37.904  15.189  -4.366  1.00 20.00     0.201 C 
ENDBRANCH   5   6
ENDBRANCH   1   5
BRANCH   1   8
HETATM    8  C8  UNL     1     -34.341  15.741  -5.268  1.00 20.00     0.084 C 
HETATM    9  C4  UNL     1     -34.555  14.822  -6.467  1.00 20.00     0.027 C 
HETATM   10 CL10 UNL     1     -34.584  17.441  -5.781  1.00 20.00    -0.125 Cl
ENDBRANCH   1   8
TORSDOF 4
ENDMDL
MODEL 6
REMARK VINA RESULT:      -3.6      2.087      3.860
REMARK  4 active torsions:
REMARK  status: ('A' for Active; 'I' for Inactive)
REMARK    1  A    between atoms: C3_3  and  C7_7 
REMARK    2  A    between atoms: C6_6  and  C7_7 
REMARK    3  A    between atoms: C6_6  and  O9_9 
REMARK    4  A    between atoms: C7_7  and  C8_8 
ROOT
HETATM    1  C7  UNL     1     -34.319  16.118  -3.410  1.00 20.00     0.032 C 
ENDROOT
BRANCH   1   2
HETATM    2  C3  UNL     1     -33.343  16.454  -4.518  1.00 20.00    -0.007 A 
HETATM    3  C1  UNL     1     -33.754  16.314  -5.958  1.00 20.00     0.005 A 
HETATM    4  C2  UNL     1     -33.552  17.680  -5.364  1.00 20.00     0.005 A 
ENDBRANCH   1   2
BRANCH   1   5
HETATM    5  C6  UNL     1     -33.842  16.714  -2.075  1.00 20.00     0.173 C 
BRANCH   5   6
HETATM    6  O9  UNL     1     -34.663  16.230  -1.017  1.00 20.00    -0.396 OA
HETATM    7  C5  UNL     1     -34.837  17.210  -0.005  1.00 20.00     0.201 C 
ENDBRANCH   5   6
ENDBRANCH   1   5
BRANCH   1   8
HETATM    8  C8  UNL     1     -34.598  14.600  -3.272  1.00 20.00     0.084 C 
HETATM    9  C4  UNL     1     -35.826  14.132  -4.047  1.00 20.00     0.027 C 
HETATM   10 CL10 UNL     1     -33.188  13.603  -3.748  1.00 20.00    -0.125 Cl
ENDBRANCH   1   8
TORSDOF 4
ENDMDL
MODEL 7
REMARK VINA RESULT:      -3.5      2.449      3.778
REMARK  4 active torsions:
REMARK  status: ('A' for Active; 'I' for Inactive)
REMARK    1  A    between atoms: C3_3  and  C7_7 
REMARK    2  A    between atoms: C6_6  and  C7_7 
REMARK    3  A    between atoms: C6_6  and  O9_9 
REMARK    4  A    between atoms: C7_7  and  C8_8 
ROOT
HETATM    1  C7  UNL     1     -35.235  15.535  -2.830  1.00 20.00     0.032 C 
ENDROOT
BRANCH   1   2
HETATM    2  C3  UNL     1     -34.658  14.785  -4.013  1.00 20.00    -0.007 A 
HETATM    3  C1  UNL     1     -33.512  13.831  -3.820  1.00 20.00     0.005 A 
HETATM    4  C2  UNL     1     -34.880  13.304  -4.151  1.00 20.00     0.005 A 
ENDBRANCH   1   2
BRANCH   1   5
HETATM    5  C6  UNL     1     -36.408  16.423  -3.278  1.00 20.00     0.173 C 
BRANCH   5   6
HETATM    6  O9  UNL     1     -36.488  16.424  -4.700  1.00 20.00    -0.396 OA
HETATM    7  C5  UNL     1     -37.390  17.415  -5.168  1.00 20.00     0.201 C 
ENDBRANCH   5   6
ENDBRANCH   1   5
BRANCH   1   8
HETATM    8  C8  UNL     1     -34.181  16.359  -2.049  1.00 20.00     0.084 C 
HETATM    9  C4  UNL     1     -33.779  17.655  -2.747  1.00 20.00     0.027 C 
HETATM   10 CL10 UNL     1     -34.711  16.733  -0.378  1.00 20.00    -0.125 Cl
ENDBRANCH   1   8
TORSDOF 4
ENDMDL
MODEL 8
REMARK VINA RESULT:      -3.5      1.627      3.414
REMARK  4 active torsions:
REMARK  status: ('A' for Active; 'I' for Inactive)
REMARK    1  A    between atoms: C3_3  and  C7_7 
REMARK    2  A    between atoms: C6_6  and  C7_7 
REMARK    3  A    between atoms: C6_6  and  O9_9 
REMARK    4  A    between atoms: C7_7  and  C8_8 
ROOT
HETATM    1  C7  UNL     1     -33.929  16.049  -3.591  1.00 20.00     0.032 C 
ENDROOT
BRANCH   1   2
HETATM    2  C3  UNL     1     -34.297  14.621  -3.244  1.00 20.00    -0.007 A 
HETATM    3  C1  UNL     1     -34.890  13.716  -4.289  1.00 20.00     0.005 A 
HETATM    4  C2  UNL     1     -33.491  13.477  -3.795  1.00 20.00     0.005 A 
ENDBRANCH   1   2
BRANCH   1   5
HETATM    5  C6  UNL     1     -33.896  16.918  -2.323  1.00 20.00     0.173 C 
BRANCH   5   6
HETATM    6  O9  UNL     1     -34.577  16.245  -1.267  1.00 20.00    -0.396 OA
HETATM    7  C5  UNL     1     -34.774  17.098  -0.151  1.00 20.00     0.201 C 
ENDBRANCH   5   6
ENDBRANCH   1   5
BRANCH   1   8
HETATM    8  C8  UNL     1     -34.845  16.677  -4.671  1.00 20.00     0.084 C 
HETATM    9  C4  UNL     1     -35.364  18.063  -4.300  1.00 20.00     0.027 C 
HETATM   10 CL10 UNL     1     -34.051  16.757  -6.276  1.00 20.00    -0.125 Cl
ENDBRANCH   1   8
TORSDOF 4
ENDMDL
MODEL 9
REMARK VINA RESULT:      -3.5      2.581      4.554
REMARK  4 active torsions:
REMARK  status: ('A' for Active; 'I' for Inactive)
REMARK    1  A    between atoms: C3_3  and  C7_7 
REMARK    2  A    between atoms: C6_6  and  C7_7 
REMARK    3  A    between atoms: C6_6  and  O9_9 
REMARK    4  A    between atoms: C7_7  and  C8_8 
ROOT
HETATM    1  C7  UNL     1     -34.351  15.514  -5.520  1.00 20.00     0.032 C 
ENDROOT
BRANCH   1   2
HETATM    2  C3  UNL     1     -34.212  15.427  -7.026  1.00 20.00    -0.007 A 
HETATM    3  C1  UNL     1     -35.226  14.670  -7.838  1.00 20.00     0.005 A 
HETATM    4  C2  UNL     1     -35.170  16.170  -7.917  1.00 20.00     0.005 A 
ENDBRANCH   1   2
BRANCH   1   5
HETATM    5  C6  UNL     1     -33.138  16.236  -4.910  1.00 20.00     0.173 C 
BRANCH   5   6
HETATM    6  O9  UNL     1     -33.421  17.627  -4.794  1.00 20.00    -0.396 OA
HETATM    7  C5  UNL     1     -34.693  17.850  -4.206  1.00 20.00     0.201 C 
ENDBRANCH   5   6
ENDBRANCH   1   5
BRANCH   1   8
HETATM    8  C8  UNL     1     -34.578  14.140  -4.842  1.00 20.00     0.084 C 
HETATM    9  C4  UNL     1     -33.513  13.785  -3.809  1.00 20.00     0.027 C 
HETATM   10 CL10 UNL     1     -36.197  14.014  -4.083  1.00 20.00    -0.125 Cl
ENDBRANCH   1   8
TORSDOF 4
ENDMDL
