MODEL 1
REMARK VINA RESULT:      -4.2      0.000      0.000
REMARK  5 active torsions:
REMARK  status: ('A' for Active; 'I' for Inactive)
REMARK    1  A    between atoms: C1_1  and  C7_7 
REMARK    2  A    between atoms: C1_1  and  C9_9 
REMARK    3  A    between atoms: C4_4  and  C9_9 
REMARK    4  A    between atoms: C8_8  and  C9_9 
REMARK    5  A    between atoms: C8_8  and  O11_11 
ROOT
HETATM    1  C9  UNL     1     -35.525  13.804  -4.501  1.00 20.00     0.083 C 
ENDROOT
BRANCH   1   2
HETATM    2  C1  UNL     1     -34.321  14.082  -3.595  1.00 20.00     0.133 C 
HETATM    3  O10 UNL     1     -33.345  13.331  -3.567  1.00 20.00    -0.297 OA
BRANCH   2   4
HETATM    4  C7  UNL     1     -34.406  15.313  -2.707  1.00 20.00     0.074 C 
HETATM    5  C5  UNL     1     -33.537  16.453  -3.209  1.00 20.00     0.013 C 
ENDBRANCH   2   4
ENDBRANCH   1   2
BRANCH   1   6
HETATM    6  C4  UNL     1     -35.146  13.856  -5.959  1.00 20.00    -0.001 A 
HETATM    7  C2  UNL     1     -35.873  14.777  -6.900  1.00 20.00     0.006 A 
HETATM    8  C3  UNL     1     -34.447  15.064  -6.518  1.00 20.00     0.006 A 
ENDBRANCH   1   6
BRANCH   1   9
HETATM    9  C8  UNL     1     -36.648  14.801  -4.200  1.00 20.00     0.179 C 
BRANCH   9  10
HETATM   10  O11 UNL     1     -37.804  14.096  -3.763  1.00 20.00    -0.395 OA
HETATM   11  C6  UNL     1     -38.997  14.740  -4.188  1.00 20.00     0.201 C 
ENDBRANCH   9  10
ENDBRANCH   1   9
TORSDOF 5
ENDMDL
MODEL 2
REMARK VINA RESULT:      -4.1      2.072      2.572
REMARK  5 active torsions:
REMARK  status: ('A' for Active; 'I' for Inactive)
REMARK    1  A    between atoms: C1_1  and  C7_7 
REMARK    2  A    between atoms: C1_1  and  C9_9 
REMARK    3  A    between atoms: C4_4  and  C9_9 
REMARK    4  A    between atoms: C8_8  and  C9_9 
REMARK    5  A    between atoms: C8_8  and  O11_11 
ROOT
HETATM    1  C9  UNL     1     -35.765  14.900  -3.409  1.00 20.00     0.083 C 
ENDROOT
BRANCH   1   2
HETATM    2  C1  UNL     1     -35.580  16.231  -2.672  1.00 20.00     0.133 C 
HETATM    3  O10 UNL     1     -36.342  17.181  -2.851  1.00 20.00    -0.297 OA
BRANCH   2   4
HETATM    4  C7  UNL     1     -34.387  16.329  -1.733  1.00 20.00     0.074 C 
HETATM    5  C5  UNL     1     -34.753  16.942  -0.392  1.00 20.00     0.013 C 
ENDBRANCH   2   4
ENDBRANCH   1   2
BRANCH   1   6
HETATM    6  C4  UNL     1     -34.557  14.557  -4.245  1.00 20.00    -0.001 A 
HETATM    7  C2  UNL     1     -33.574  13.523  -3.769  1.00 20.00     0.006 A 
HETATM    8  C3  UNL     1     -34.471  13.225  -4.939  1.00 20.00     0.006 A 
ENDBRANCH   1   6
BRANCH   1   9
HETATM    9  C8  UNL     1     -37.025  14.953  -4.278  1.00 20.00     0.179 C 
BRANCH   9  10
HETATM   10  O11 UNL     1     -38.094  14.300  -3.605  1.00 20.00    -0.395 OA
HETATM   11  C6  UNL     1     -39.234  15.142  -3.500  1.00 20.00     0.201 C 
ENDBRANCH   9  10
ENDBRANCH   1   9
TORSDOF 5
ENDMDL
MODEL 3
REMARK VINA RESULT:      -4.0      2.715      3.803
REMARK  5 active torsions:
REMARK  status: ('A' for Active; 'I' for Inactive)
REMARK    1  A    between atoms: C1_1  and  C7_7 
REMARK    2  A    between atoms: C1_1  and  C9_9 
REMARK    3  A    between atoms: C4_4  and  C9_9 
REMARK    4  A    between atoms: C8_8  and  C9_9 
REMARK    5  A    between atoms: C8_8  and  O11_11 
ROOT
HETATM    1  C9  UNL     1     -34.327  16.029  -3.659  1.00 20.00     0.083 C 
ENDROOT
BRANCH   1   2
HETATM    2  C1  UNL     1     -34.135  16.961  -2.459  1.00 20.00     0.133 C 
HETATM    3  O10 UNL     1     -33.594  18.061  -2.573  1.00 20.00    -0.297 OA
BRANCH   2   4
HETATM    4  C7  UNL     1     -34.618  16.444  -1.112  1.00 20.00     0.074 C 
HETATM    5  C5  UNL     1     -34.536  17.499  -0.022  1.00 20.00     0.013 C 
ENDBRANCH   2   4
ENDBRANCH   1   2
BRANCH   1   6
HETATM    6  C4  UNL     1     -34.402  14.584  -3.234  1.00 20.00    -0.001 A 
HETATM    7  C2  UNL     1     -34.973  13.548  -4.164  1.00 20.00     0.006 A 
HETATM    8  C3  UNL     1     -33.499  13.561  -3.865  1.00 20.00     0.006 A 
ENDBRANCH   1   6
BRANCH   1   9
HETATM    9  C8  UNL     1     -33.194  16.235  -4.669  1.00 20.00     0.179 C 
BRANCH   9  10
HETATM   10  O11 UNL     1     -33.683  16.962  -5.790  1.00 20.00    -0.395 OA
HETATM   11  C6  UNL     1     -34.264  16.098  -6.757  1.00 20.00     0.201 C 
ENDBRANCH   9  10
ENDBRANCH   1   9
TORSDOF 5
ENDMDL
MODEL 4
REMARK VINA RESULT:      -4.0      1.247      3.164
REMARK  5 active torsions:
REMARK  status: ('A' for Active; 'I' for Inactive)
REMARK    1  A    between atoms: C1_1  and  C7_7 
REMARK    2  A    between atoms: C1_1  and  C9_9 
REMARK    3  A    between atoms: C4_4  and  C9_9 
REMARK    4  A    between atoms: C8_8  and  C9_9 
REMARK    5  A    between atoms: C8_8  and  O11_11 
ROOT
HETATM    1  C9  UNL     1     -35.453  15.042  -4.049  1.00 20.00     0.083 C 
ENDROOT
BRANCH   1   2
HETATM    2  C1  UNL     1     -35.139  13.819  -4.916  1.00 20.00     0.133 C 
HETATM    3  O10 UNL     1     -34.996  12.698  -4.427  1.00 20.00    -0.297 OA
BRANCH   2   4
HETATM    4  C7  UNL     1     -34.980  14.065  -6.409  1.00 20.00     0.074 C 
HETATM    5  C5  UNL     1     -34.336  15.408  -6.710  1.00 20.00     0.013 C 
ENDBRANCH   2   4
ENDBRANCH   1   2
BRANCH   1   6
HETATM    6  C4  UNL     1     -34.508  15.151  -2.879  1.00 20.00    -0.001 A 
HETATM    7  C2  UNL     1     -33.630  16.362  -2.723  1.00 20.00     0.006 A 
HETATM    8  C3  UNL     1     -34.777  16.137  -1.776  1.00 20.00     0.006 A 
ENDBRANCH   1   6
BRANCH   1   9
HETATM    9  C8  UNL     1     -36.905  14.983  -3.565  1.00 20.00     0.179 C 
BRANCH   9  10
HETATM   10  O11 UNL     1     -37.738  15.697  -4.471  1.00 20.00    -0.395 OA
HETATM   11  C6  UNL     1     -37.206  16.981  -4.764  1.00 20.00     0.201 C 
ENDBRANCH   9  10
ENDBRANCH   1   9
TORSDOF 5
ENDMDL
MODEL 5
REMARK VINA RESULT:      -3.9      2.115      4.157
REMARK  5 active torsions:
REMARK  status: ('A' for Active; 'I' for Inactive)
REMARK    1  A    between atoms: C1_1  and  C7_7 
REMARK    2  A    between atoms: C1_1  and  C9_9 
REMARK    3  A    between atoms: C4_4  and  C9_9 
REMARK    4  A    between atoms: C8_8  and  C9_9 
REMARK    5  A    between atoms: C8_8  and  O11_11 
ROOT
HETATM    1  C9  UNL     1     -34.158  15.752  -3.419  1.00 20.00     0.083 C 
ENDROOT
BRANCH   1   2
HETATM    2  C1  UNL     1     -34.080  16.704  -4.616  1.00 20.00     0.133 C 
HETATM    3  O10 UNL     1     -33.001  17.062  -5.089  1.00 20.00    -0.297 OA
BRANCH   2   4
HETATM    4  C7  UNL     1     -35.402  17.212  -5.169  1.00 20.00     0.074 C 
HETATM    5  C5  UNL     1     -36.600  16.586  -4.478  1.00 20.00     0.013 C 
ENDBRANCH   2   4
ENDBRANCH   1   2
BRANCH   1   6
HETATM    6  C4  UNL     1     -33.708  16.423  -2.145  1.00 20.00    -0.001 A 
HETATM    7  C2  UNL     1     -34.250  17.774  -1.767  1.00 20.00     0.006 A 
HETATM    8  C3  UNL     1     -34.654  16.555  -0.984  1.00 20.00     0.006 A 
ENDBRANCH   1   6
BRANCH   1   9
HETATM    9  C8  UNL     1     -33.322  14.497  -3.691  1.00 20.00     0.179 C 
BRANCH   9  10
HETATM   10  O11 UNL     1     -34.110  13.339  -3.446  1.00 20.00    -0.395 OA
HETATM   11  C6  UNL     1     -35.132  13.189  -4.423  1.00 20.00     0.201 C 
ENDBRANCH   9  10
ENDBRANCH   1   9
TORSDOF 5
ENDMDL
MODEL 6
REMARK VINA RESULT:      -3.9      2.295      4.817
REMARK  5 active torsions:
REMARK  status: ('A' for Active; 'I' for Inactive)
REMARK    1  A    between atoms: C1_1  and  C7_7 
REMARK    2  A    between atoms: C1_1  and  C9_9 
REMARK    3  A    between atoms: C4_4  and  C9_9 
REMARK    4  A    between atoms: C8_8  and  C9_9 
REMARK    5  A    between atoms: C8_8  and  O11_11 
ROOT
HETATM    1  C9  UNL     1     -33.996  16.193  -2.470  1.00 20.00     0.083 C 
ENDROOT
BRANCH   1   2
HETATM    2  C1  UNL     1     -34.773  15.054  -3.139  1.00 20.00     0.133 C 
HETATM    3  O10 UNL     1     -36.000  15.083  -3.245  1.00 20.00    -0.297 OA
BRANCH   2   4
HETATM    4  C7  UNL     1     -33.956  13.871  -3.635  1.00 20.00     0.074 C 
HETATM    5  C5  UNL     1     -34.583  13.198  -4.843  1.00 20.00     0.013 C 
ENDBRANCH   2   4
ENDBRANCH   1   2
BRANCH   1   6
HETATM    6  C4  UNL     1     -34.523  16.488  -1.089  1.00 20.00    -0.001 A 
HETATM    7  C2  UNL     1     -33.978  17.647  -0.300  1.00 20.00     0.006 A 
HETATM    8  C3  UNL     1     -35.377  17.702  -0.847  1.00 20.00     0.006 A 
ENDBRANCH   1   6
BRANCH   1   9
HETATM    9  C8  UNL     1     -34.047  17.448  -3.346  1.00 20.00     0.179 C 
BRANCH   9  10
HETATM   10  O11 UNL     1     -33.354  17.206  -4.565  1.00 20.00    -0.395 OA
HETATM   11  C6  UNL     1     -33.607  18.228  -5.519  1.00 20.00     0.201 C 
ENDBRANCH   9  10
ENDBRANCH   1   9
TORSDOF 5
ENDMDL
MODEL 7
REMARK VINA RESULT:      -3.9      2.242      3.949
REMARK  5 active torsions:
REMARK  status: ('A' for Active; 'I' for Inactive)
REMARK    1  A    between atoms: C1_1  and  C7_7 
REMARK    2  A    between atoms: C1_1  and  C9_9 
REMARK    3  A    between atoms: C4_4  and  C9_9 
REMARK    4  A    between atoms: C8_8  and  C9_9 
REMARK    5  A    between atoms: C8_8  and  O11_11 
ROOT
HETATM    1  C9  UNL     1     -34.621  16.898  -3.036  1.00 20.00     0.083 C 
ENDROOT
BRANCH   1   2
HETATM    2  C1  UNL     1     -33.892  16.108  -4.127  1.00 20.00     0.133 C 
HETATM    3  O10 UNL     1     -34.124  16.290  -5.323  1.00 20.00    -0.297 OA
BRANCH   2   4
HETATM    4  C7  UNL     1     -32.890  15.064  -3.657  1.00 20.00     0.074 C 
HETATM    5  C5  UNL     1     -33.405  13.646  -3.833  1.00 20.00     0.013 C 
ENDBRANCH   2   4
ENDBRANCH   1   2
BRANCH   1   6
HETATM    6  C4  UNL     1     -34.073  16.589  -1.666  1.00 20.00    -0.001 A 
HETATM    7  C2  UNL     1     -33.539  17.693  -0.795  1.00 20.00     0.006 A 
HETATM    8  C3  UNL     1     -34.829  17.009  -0.435  1.00 20.00     0.006 A 
ENDBRANCH   1   6
BRANCH   1   9
HETATM    9  C8  UNL     1     -36.124  16.607  -3.094  1.00 20.00     0.179 C 
BRANCH   9  10
HETATM   10  O11 UNL     1     -36.337  15.201  -3.075  1.00 20.00    -0.395 OA
HETATM   11  C6  UNL     1     -37.416  14.827  -3.921  1.00 20.00     0.201 C 
ENDBRANCH   9  10
ENDBRANCH   1   9
TORSDOF 5
ENDMDL
MODEL 8
REMARK VINA RESULT:      -3.9      2.639      4.562
REMARK  5 active torsions:
REMARK  status: ('A' for Active; 'I' for Inactive)
REMARK    1  A    between atoms: C1_1  and  C7_7 
REMARK    2  A    between atoms: C1_1  and  C9_9 
REMARK    3  A    between atoms: C4_4  and  C9_9 
REMARK    4  A    between atoms: C8_8  and  C9_9 
REMARK    5  A    between atoms: C8_8  and  O11_11 
ROOT
HETATM    1  C9  UNL     1     -33.733  16.332  -2.814  1.00 20.00     0.083 C 
ENDROOT
BRANCH   1   2
HETATM    2  C1  UNL     1     -33.439  14.930  -3.358  1.00 20.00     0.133 C 
HETATM    3  O10 UNL     1     -32.291  14.557  -3.600  1.00 20.00    -0.297 OA
BRANCH   2   4
HETATM    4  C7  UNL     1     -34.641  14.035  -3.616  1.00 20.00     0.074 C 
HETATM    5  C5  UNL     1     -34.534  13.284  -4.932  1.00 20.00     0.013 C 
ENDBRANCH   2   4
ENDBRANCH   1   2
BRANCH   1   6
HETATM    6  C4  UNL     1     -34.701  16.288  -1.659  1.00 20.00    -0.001 A 
HETATM    7  C2  UNL     1     -34.432  17.087  -0.413  1.00 20.00     0.006 A 
HETATM    8  C3  UNL     1     -35.550  17.487  -1.336  1.00 20.00     0.006 A 
ENDBRANCH   1   6
BRANCH   1   9
HETATM    9  C8  UNL     1     -34.271  17.227  -3.934  1.00 20.00     0.179 C 
BRANCH   9  10
HETATM   10  O11 UNL     1     -33.287  17.356  -4.954  1.00 20.00    -0.395 OA
HETATM   11  C6  UNL     1     -33.697  18.272  -5.959  1.00 20.00     0.201 C 
ENDBRANCH   9  10
ENDBRANCH   1   9
TORSDOF 5
ENDMDL
MODEL 9
REMARK VINA RESULT:      -3.9      1.696      4.088
REMARK  5 active torsions:
REMARK  status: ('A' for Active; 'I' for Inactive)
REMARK    1  A    between atoms: C1_1  and  C7_7 
REMARK    2  A    between atoms: C1_1  and  C9_9 
REMARK    3  A    between atoms: C4_4  and  C9_9 
REMARK    4  A    between atoms: C8_8  and  C9_9 
REMARK    5  A    between atoms: C8_8  and  O11_11 
ROOT
HETATM    1  C9  UNL     1     -34.192  15.053  -3.231  1.00 20.00     0.083 C 
ENDROOT
BRANCH   1   2
HETATM    2  C1  UNL     1     -35.306  14.131  -3.737  1.00 20.00     0.133 C 
HETATM    3  O10 UNL     1     -35.066  13.002  -4.167  1.00 20.00    -0.297 OA
BRANCH   2   4
HETATM    4  C7  UNL     1     -36.719  14.692  -3.712  1.00 20.00     0.074 C 
HETATM    5  C5  UNL     1     -37.224  15.056  -5.097  1.00 20.00     0.013 C 
ENDBRANCH   2   4
ENDBRANCH   1   2
BRANCH   1   6
HETATM    6  C4  UNL     1     -34.751  16.271  -2.541  1.00 20.00    -0.001 A 
HETATM    7  C2  UNL     1     -34.681  16.395  -1.043  1.00 20.00     0.006 A 
HETATM    8  C3  UNL     1     -33.826  17.277  -1.911  1.00 20.00     0.006 A 
ENDBRANCH   1   6
BRANCH   1   9
HETATM    9  C8  UNL     1     -33.281  15.461  -4.393  1.00 20.00     0.179 C 
BRANCH   9  10
HETATM   10  O11 UNL     1     -33.968  16.379  -5.235  1.00 20.00    -0.395 OA
HETATM   11  C6  UNL     1     -33.994  15.929  -6.583  1.00 20.00     0.201 C 
ENDBRANCH   9  10
ENDBRANCH   1   9
TORSDOF 5
ENDMDL
