MODEL 1
REMARK VINA RESULT:      -3.8      0.000      0.000
REMARK  2 active torsions:
REMARK  status: ('A' for Active; 'I' for Inactive)
REMARK    1  A    between atoms: C1_1  and  C3_3 
REMARK       I    between atoms: C3_3  and  N7_7 
REMARK    2  A    between atoms: N7_7  and  O9_9 
ROOT
HETATM    1  C3  UNL     1     -34.239  14.559  -3.739  1.00 20.00     0.266 C 
HETATM    2  C5  UNL     1     -35.071  14.116  -6.051  1.00 20.00     0.189 C 
HETATM    3  N7  UNL     1     -34.660  14.999  -4.972  1.00 20.00    -0.228 N 
HETATM    4  O8  UNL     1     -34.171  13.368  -3.433  1.00 20.00    -0.266 OA
ENDROOT
BRANCH   1   5
HETATM    5  C1  UNL     1     -33.862  15.617  -2.754  1.00 20.00     0.072 C 
HETATM    6  C2  UNL     1     -34.735  16.004  -1.812  1.00 20.00    -0.025 C 
HETATM    7  C4  UNL     1     -34.431  17.053  -0.792  1.00 20.00     0.036 C 
ENDBRANCH   1   5
BRANCH   3   8
HETATM    8  O9  UNL     1     -34.743  16.356  -5.335  1.00 20.00    -0.281 OA
HETATM    9  C6  UNL     1     -34.339  16.497  -6.695  1.00 20.00     0.238 C 
ENDBRANCH   3   8
TORSDOF 2
ENDMDL
MODEL 2
REMARK VINA RESULT:      -3.8      1.302      2.121
REMARK  2 active torsions:
REMARK  status: ('A' for Active; 'I' for Inactive)
REMARK    1  A    between atoms: C1_1  and  C3_3 
REMARK       I    between atoms: C3_3  and  N7_7 
REMARK    2  A    between atoms: N7_7  and  O9_9 
ROOT
HETATM    1  C3  UNL     1     -33.662  15.751  -4.181  1.00 20.00     0.266 C 
HETATM    2  C5  UNL     1     -34.602  14.617  -6.197  1.00 20.00     0.189 C 
HETATM    3  N7  UNL     1     -34.499  14.827  -4.763  1.00 20.00    -0.228 N 
HETATM    4  O8  UNL     1     -32.918  16.491  -4.827  1.00 20.00    -0.266 OA
ENDROOT
BRANCH   1   5
HETATM    5  C1  UNL     1     -33.689  15.819  -2.689  1.00 20.00     0.072 C 
HETATM    6  C2  UNL     1     -34.483  16.702  -2.067  1.00 20.00    -0.025 C 
HETATM    7  C4  UNL     1     -34.566  16.829  -0.581  1.00 20.00     0.036 C 
ENDBRANCH   1   5
BRANCH   3   8
HETATM    8  O9  UNL     1     -35.353  13.976  -4.038  1.00 20.00    -0.281 OA
HETATM    9  C6  UNL     1     -36.688  14.464  -4.141  1.00 20.00     0.238 C 
ENDBRANCH   3   8
TORSDOF 2
ENDMDL
MODEL 3
REMARK VINA RESULT:      -3.7      1.900      3.107
REMARK  2 active torsions:
REMARK  status: ('A' for Active; 'I' for Inactive)
REMARK    1  A    between atoms: C1_1  and  C3_3 
REMARK       I    between atoms: C3_3  and  N7_7 
REMARK    2  A    between atoms: N7_7  and  O9_9 
ROOT
HETATM    1  C3  UNL     1     -33.933  17.049  -2.314  1.00 20.00     0.266 C 
HETATM    2  C5  UNL     1     -33.169  16.101  -4.493  1.00 20.00     0.189 C 
HETATM    3  N7  UNL     1     -33.827  16.004  -3.201  1.00 20.00    -0.228 N 
HETATM    4  O8  UNL     1     -33.475  18.172  -2.533  1.00 20.00    -0.266 OA
ENDROOT
BRANCH   1   5
HETATM    5  C1  UNL     1     -34.641  16.758  -1.031  1.00 20.00     0.072 C 
HETATM    6  C2  UNL     1     -34.584  17.630  -0.015  1.00 20.00    -0.025 C 
HETATM    7  C4  UNL     1     -35.266  17.411   1.296  1.00 20.00     0.036 C 
ENDBRANCH   1   5
BRANCH   3   8
HETATM    8  O9  UNL     1     -34.345  14.717  -2.964  1.00 20.00    -0.281 OA
HETATM    9  C6  UNL     1     -33.832  13.823  -3.948  1.00 20.00     0.238 C 
ENDBRANCH   3   8
TORSDOF 2
ENDMDL
MODEL 4
REMARK VINA RESULT:      -3.6     12.731     14.138
REMARK  2 active torsions:
REMARK  status: ('A' for Active; 'I' for Inactive)
REMARK    1  A    between atoms: C1_1  and  C3_3 
REMARK       I    between atoms: C3_3  and  N7_7 
REMARK    2  A    between atoms: N7_7  and  O9_9 
ROOT
HETATM    1  C3  UNL     1     -42.421   4.265  -2.947  1.00 20.00     0.266 C 
HETATM    2  C5  UNL     1     -42.278   6.597  -2.068  1.00 20.00     0.189 C 
HETATM    3  N7  UNL     1     -41.816   5.223  -2.168  1.00 20.00    -0.228 N 
HETATM    4  O8  UNL     1     -43.417   4.485  -3.638  1.00 20.00    -0.266 OA
ENDROOT
BRANCH   1   5
HETATM    5  C1  UNL     1     -41.806   2.904  -2.917  1.00 20.00     0.072 C 
HETATM    6  C2  UNL     1     -42.108   2.005  -3.865  1.00 20.00    -0.025 C 
HETATM    7  C4  UNL     1     -41.533   0.627  -3.904  1.00 20.00     0.036 C 
ENDBRANCH   1   5
BRANCH   3   8
HETATM    8  O9  UNL     1     -40.678   4.986  -1.374  1.00 20.00    -0.281 OA
HETATM    9  C6  UNL     1     -40.662   5.920  -0.298  1.00 20.00     0.238 C 
ENDBRANCH   3   8
TORSDOF 2
ENDMDL
MODEL 5
REMARK VINA RESULT:      -3.5     12.356     13.638
REMARK  2 active torsions:
REMARK  status: ('A' for Active; 'I' for Inactive)
REMARK    1  A    between atoms: C1_1  and  C3_3 
REMARK       I    between atoms: C3_3  and  N7_7 
REMARK    2  A    between atoms: N7_7  and  O9_9 
ROOT
HETATM    1  C3  UNL     1     -41.537   4.423  -2.032  1.00 20.00     0.266 C 
HETATM    2  C5  UNL     1     -41.604   6.913  -1.868  1.00 20.00     0.189 C 
HETATM    3  N7  UNL     1     -42.034   5.643  -2.428  1.00 20.00    -0.228 N 
HETATM    4  O8  UNL     1     -40.675   4.294  -1.162  1.00 20.00    -0.266 OA
ENDROOT
BRANCH   1   5
HETATM    5  C1  UNL     1     -42.097   3.225  -2.727  1.00 20.00     0.072 C 
HETATM    6  C2  UNL     1     -41.285   2.385  -3.385  1.00 20.00    -0.025 C 
HETATM    7  C4  UNL     1     -41.769   1.167  -4.102  1.00 20.00     0.036 C 
ENDBRANCH   1   5
BRANCH   3   8
HETATM    8  O9  UNL     1     -43.018   5.805  -3.420  1.00 20.00    -0.281 OA
HETATM    9  C6  UNL     1     -43.094   7.183  -3.776  1.00 20.00     0.238 C 
ENDBRANCH   3   8
TORSDOF 2
ENDMDL
MODEL 6
REMARK VINA RESULT:      -3.5     11.165     12.398
REMARK  2 active torsions:
REMARK  status: ('A' for Active; 'I' for Inactive)
REMARK    1  A    between atoms: C1_1  and  C3_3 
REMARK       I    between atoms: C3_3  and  N7_7 
REMARK    2  A    between atoms: N7_7  and  O9_9 
ROOT
HETATM    1  C3  UNL     1     -33.594   5.817   3.151  1.00 20.00     0.266 C 
HETATM    2  C5  UNL     1     -35.157   4.857   4.844  1.00 20.00     0.189 C 
HETATM    3  N7  UNL     1     -34.093   5.756   4.432  1.00 20.00    -0.228 N 
HETATM    4  O8  UNL     1     -34.006   5.110   2.231  1.00 20.00    -0.266 OA
ENDROOT
BRANCH   1   5
HETATM    5  C1  UNL     1     -32.494   6.800   2.918  1.00 20.00     0.072 C 
HETATM    6  C2  UNL     1     -32.669   7.820   2.064  1.00 20.00    -0.025 C 
HETATM    7  C4  UNL     1     -31.619   8.843   1.779  1.00 20.00     0.036 C 
ENDBRANCH   1   5
BRANCH   3   8
HETATM    8  O9  UNL     1     -33.632   6.557   5.493  1.00 20.00    -0.281 OA
HETATM    9  C6  UNL     1     -34.309   6.176   6.688  1.00 20.00     0.238 C 
ENDBRANCH   3   8
TORSDOF 2
ENDMDL
MODEL 7
REMARK VINA RESULT:      -3.4      1.799      2.077
REMARK  2 active torsions:
REMARK  status: ('A' for Active; 'I' for Inactive)
REMARK    1  A    between atoms: C1_1  and  C3_3 
REMARK       I    between atoms: C3_3  and  N7_7 
REMARK    2  A    between atoms: N7_7  and  O9_9 
ROOT
HETATM    1  C3  UNL     1     -33.571  16.295  -3.303  1.00 20.00     0.266 C 
HETATM    2  C5  UNL     1     -33.803  16.428  -5.785  1.00 20.00     0.189 C 
HETATM    3  N7  UNL     1     -33.927  16.974  -4.444  1.00 20.00    -0.228 N 
HETATM    4  O8  UNL     1     -33.111  15.152  -3.312  1.00 20.00    -0.266 OA
ENDROOT
BRANCH   1   5
HETATM    5  C1  UNL     1     -33.776  17.018  -2.012  1.00 20.00     0.072 C 
HETATM    6  C2  UNL     1     -34.634  16.541  -1.099  1.00 20.00    -0.025 C 
HETATM    7  C4  UNL     1     -34.892  17.206   0.213  1.00 20.00     0.036 C 
ENDBRANCH   1   5
BRANCH   3   8
HETATM    8  O9  UNL     1     -34.452  18.279  -4.449  1.00 20.00    -0.281 OA
HETATM    9  C6  UNL     1     -33.554  19.138  -5.146  1.00 20.00     0.238 C 
ENDBRANCH   3   8
TORSDOF 2
ENDMDL
MODEL 8
REMARK VINA RESULT:      -3.4      2.247      2.973
REMARK  2 active torsions:
REMARK  status: ('A' for Active; 'I' for Inactive)
REMARK    1  A    between atoms: C1_1  and  C3_3 
REMARK       I    between atoms: C3_3  and  N7_7 
REMARK    2  A    between atoms: N7_7  and  O9_9 
ROOT
HETATM    1  C3  UNL     1     -35.166  13.959  -4.327  1.00 20.00     0.266 C 
HETATM    2  C5  UNL     1     -32.808  14.413  -3.644  1.00 20.00     0.189 C 
HETATM    3  N7  UNL     1     -34.142  14.831  -4.039  1.00 20.00    -0.228 N 
HETATM    4  O8  UNL     1     -35.045  12.734  -4.276  1.00 20.00    -0.266 OA
ENDROOT
BRANCH   1   5
HETATM    5  C1  UNL     1     -36.468  14.576  -4.722  1.00 20.00     0.072 C 
HETATM    6  C2  UNL     1     -37.463  14.682  -3.829  1.00 20.00    -0.025 C 
HETATM    7  C4  UNL     1     -38.792  15.287  -4.147  1.00 20.00     0.036 C 
ENDBRANCH   1   5
BRANCH   3   8
HETATM    8  O9  UNL     1     -34.266  16.232  -4.093  1.00 20.00    -0.281 OA
HETATM    9  C6  UNL     1     -33.340  16.742  -5.048  1.00 20.00     0.238 C 
ENDBRANCH   3   8
TORSDOF 2
ENDMDL
MODEL 9
REMARK VINA RESULT:      -3.4     10.727     11.992
REMARK  2 active torsions:
REMARK  status: ('A' for Active; 'I' for Inactive)
REMARK    1  A    between atoms: C1_1  and  C3_3 
REMARK       I    between atoms: C3_3  and  N7_7 
REMARK    2  A    between atoms: N7_7  and  O9_9 
ROOT
HETATM    1  C3  UNL     1     -32.463   7.113   3.998  1.00 20.00     0.266 C 
HETATM    2  C5  UNL     1     -33.907   6.118   5.775  1.00 20.00     0.189 C 
HETATM    3  N7  UNL     1     -33.542   6.354   4.389  1.00 20.00    -0.228 N 
HETATM    4  O8  UNL     1     -31.702   7.666   4.793  1.00 20.00    -0.266 OA
ENDROOT
BRANCH   1   5
HETATM    5  C1  UNL     1     -32.250   7.249   2.526  1.00 20.00     0.072 C 
HETATM    6  C2  UNL     1     -32.140   8.463   1.968  1.00 20.00    -0.025 C 
HETATM    7  C4  UNL     1     -31.924   8.680   0.506  1.00 20.00     0.036 C 
ENDBRANCH   1   5
BRANCH   3   8
HETATM    8  O9  UNL     1     -34.420   5.717   3.492  1.00 20.00    -0.281 OA
HETATM    9  C6  UNL     1     -35.393   4.989   4.236  1.00 20.00     0.238 C 
ENDBRANCH   3   8
TORSDOF 2
ENDMDL
