MODEL 1
REMARK VINA RESULT:      -4.4      0.000      0.000
REMARK  3 active torsions:
REMARK  status: ('A' for Active; 'I' for Inactive)
REMARK    1  A    between atoms: C1_1  and  C6_6 
REMARK    2  A    between atoms: C2_2  and  C8_8 
REMARK    3  A    between atoms: C2_2  and  C9_9 
ROOT
HETATM    1  C1  UNL     1     -35.611  15.990  -2.590  1.00 20.00    -0.018 C 
HETATM    2  C2  UNL     1     -35.633  14.945  -3.440  1.00 20.00    -0.070 C 
ENDROOT
BRANCH   1   3
HETATM    3  C6  UNL     1     -34.445  16.307  -1.747  1.00 20.00     0.008 C 
HETATM    4  C4  UNL     1     -33.718  17.635  -2.078  1.00 20.00     0.008 C 
HETATM    5  C3  UNL     1     -33.516  17.818  -0.560  1.00 20.00     0.001 C 
HETATM    6  C5  UNL     1     -34.765  16.932  -0.365  1.00 20.00     0.008 C 
ENDBRANCH   1   3
BRANCH   2   7
HETATM    7  C8  UNL     1     -34.417  14.046  -3.550  1.00 20.00     0.030 C 
HETATM    8  C7  UNL     1     -34.438  13.185  -4.805  1.00 20.00     0.010 C 
ENDBRANCH   2   7
BRANCH   2   9
HETATM    9  C9  UNL     1     -36.805  14.596  -4.319  1.00 20.00     0.148 C 
HETATM   10 CL10 UNL     1     -38.334  15.025  -3.516  1.00 20.00    -0.126 Cl
ENDBRANCH   2   9
TORSDOF 3
ENDMDL
MODEL 2
REMARK VINA RESULT:      -4.3      1.760      1.933
REMARK  3 active torsions:
REMARK  status: ('A' for Active; 'I' for Inactive)
REMARK    1  A    between atoms: C1_1  and  C6_6 
REMARK    2  A    between atoms: C2_2  and  C8_8 
REMARK    3  A    between atoms: C2_2  and  C9_9 
ROOT
HETATM    1  C1  UNL     1     -34.910  16.311  -1.838  1.00 20.00    -0.018 C 
HETATM    2  C2  UNL     1     -34.705  15.533  -2.919  1.00 20.00    -0.070 C 
ENDROOT
BRANCH   1   3
HETATM    3  C6  UNL     1     -33.830  17.080  -1.194  1.00 20.00     0.008 C 
HETATM    4  C4  UNL     1     -33.614  18.517  -1.733  1.00 20.00     0.008 C 
HETATM    5  C3  UNL     1     -33.328  18.940  -0.278  1.00 20.00     0.001 C 
HETATM    6  C5  UNL     1     -34.192  17.739   0.161  1.00 20.00     0.008 C 
ENDBRANCH   1   3
BRANCH   2   7
HETATM    7  C8  UNL     1     -33.314  15.429  -3.512  1.00 20.00     0.030 C 
HETATM    8  C7  UNL     1     -33.154  16.265  -4.775  1.00 20.00     0.010 C 
ENDBRANCH   2   7
BRANCH   2   9
HETATM    9  C9  UNL     1     -35.787  14.740  -3.604  1.00 20.00     0.148 C 
HETATM   10 CL10 UNL     1     -35.132  13.210  -4.235  1.00 20.00    -0.126 Cl
ENDBRANCH   2   9
TORSDOF 3
ENDMDL
MODEL 3
REMARK VINA RESULT:      -4.3      2.697      4.998
REMARK  3 active torsions:
REMARK  status: ('A' for Active; 'I' for Inactive)
REMARK    1  A    between atoms: C1_1  and  C6_6 
REMARK    2  A    between atoms: C2_2  and  C8_8 
REMARK    3  A    between atoms: C2_2  and  C9_9 
ROOT
HETATM    1  C1  UNL     1     -33.741  16.557  -2.677  1.00 20.00    -0.018 C 
HETATM    2  C2  UNL     1     -33.933  17.343  -1.600  1.00 20.00    -0.070 C 
ENDROOT
BRANCH   1   3
HETATM    3  C6  UNL     1     -34.240  15.173  -2.754  1.00 20.00     0.008 C 
HETATM    4  C4  UNL     1     -35.544  14.973  -3.567  1.00 20.00     0.008 C 
HETATM    5  C3  UNL     1     -34.940  13.647  -4.072  1.00 20.00     0.001 C 
HETATM    6  C5  UNL     1     -33.552  14.268  -3.808  1.00 20.00     0.008 C 
ENDBRANCH   1   3
BRANCH   2   7
HETATM    7  C8  UNL     1     -34.693  16.799  -0.406  1.00 20.00     0.030 C 
HETATM    8  C7  UNL     1     -35.524  17.867   0.293  1.00 20.00     0.010 C 
ENDBRANCH   2   7
BRANCH   2   9
HETATM    9  C9  UNL     1     -33.442  18.762  -1.492  1.00 20.00     0.148 C 
HETATM   10 CL10 UNL     1     -32.186  18.892  -0.238  1.00 20.00    -0.126 Cl
ENDBRANCH   2   9
TORSDOF 3
ENDMDL
MODEL 4
REMARK VINA RESULT:      -4.2      2.061      2.376
REMARK  3 active torsions:
REMARK  status: ('A' for Active; 'I' for Inactive)
REMARK    1  A    between atoms: C1_1  and  C6_6 
REMARK    2  A    between atoms: C2_2  and  C8_8 
REMARK    3  A    between atoms: C2_2  and  C9_9 
ROOT
HETATM    1  C1  UNL     1     -33.781  17.191  -3.215  1.00 20.00    -0.018 C 
HETATM    2  C2  UNL     1     -33.414  16.267  -4.124  1.00 20.00    -0.070 C 
ENDROOT
BRANCH   1   3
HETATM    3  C6  UNL     1     -33.650  16.976  -1.763  1.00 20.00     0.008 C 
HETATM    4  C4  UNL     1     -33.675  18.256  -0.890  1.00 20.00     0.008 C 
HETATM    5  C3  UNL     1     -34.480  17.445   0.146  1.00 20.00     0.001 C 
HETATM    6  C5  UNL     1     -34.948  16.557  -1.026  1.00 20.00     0.008 C 
ENDBRANCH   1   3
BRANCH   2   7
HETATM    7  C8  UNL     1     -32.839  14.945  -3.655  1.00 20.00     0.030 C 
HETATM    8  C7  UNL     1     -33.828  13.796  -3.792  1.00 20.00     0.010 C 
ENDBRANCH   2   7
BRANCH   2   9
HETATM    9  C9  UNL     1     -33.529  16.456  -5.614  1.00 20.00     0.148 C 
HETATM   10 CL10 UNL     1     -35.219  16.269  -6.136  1.00 20.00    -0.126 Cl
ENDBRANCH   2   9
TORSDOF 3
ENDMDL
MODEL 5
REMARK VINA RESULT:      -4.2     10.942     11.815
REMARK  3 active torsions:
REMARK  status: ('A' for Active; 'I' for Inactive)
REMARK    1  A    between atoms: C1_1  and  C6_6 
REMARK    2  A    between atoms: C2_2  and  C8_8 
REMARK    3  A    between atoms: C2_2  and  C9_9 
ROOT
HETATM    1  C1  UNL     1     -34.037   6.746   3.404  1.00 20.00    -0.018 C 
HETATM    2  C2  UNL     1     -32.945   7.364   2.914  1.00 20.00    -0.070 C 
ENDROOT
BRANCH   1   3
HETATM    3  C6  UNL     1     -33.959   5.651   4.387  1.00 20.00     0.008 C 
HETATM    4  C4  UNL     1     -34.172   6.060   5.867  1.00 20.00     0.008 C 
HETATM    5  C3  UNL     1     -34.936   4.731   6.047  1.00 20.00     0.001 C 
HETATM    6  C5  UNL     1     -35.239   4.789   4.535  1.00 20.00     0.008 C 
ENDBRANCH   1   3
BRANCH   2   7
HETATM    7  C8  UNL     1     -31.568   6.930   3.379  1.00 20.00     0.030 C 
HETATM    8  C7  UNL     1     -30.937   7.925   4.344  1.00 20.00     0.010 C 
ENDBRANCH   2   7
BRANCH   2   9
HETATM    9  C9  UNL     1     -32.989   8.489   1.913  1.00 20.00     0.148 C 
HETATM   10 CL10 UNL     1     -31.537   8.466   0.885  1.00 20.00    -0.126 Cl
ENDBRANCH   2   9
TORSDOF 3
ENDMDL
MODEL 6
REMARK VINA RESULT:      -4.1      1.893      2.649
REMARK  3 active torsions:
REMARK  status: ('A' for Active; 'I' for Inactive)
REMARK    1  A    between atoms: C1_1  and  C6_6 
REMARK    2  A    between atoms: C2_2  and  C8_8 
REMARK    3  A    between atoms: C2_2  and  C9_9 
ROOT
HETATM    1  C1  UNL     1     -34.279  15.877  -2.166  1.00 20.00    -0.018 C 
HETATM    2  C2  UNL     1     -35.137  15.331  -3.049  1.00 20.00    -0.070 C 
ENDROOT
BRANCH   1   3
HETATM    3  C6  UNL     1     -34.560  17.136  -1.455  1.00 20.00     0.008 C 
HETATM    4  C4  UNL     1     -34.903  16.996   0.050  1.00 20.00     0.008 C 
HETATM    5  C3  UNL     1     -34.102  18.295   0.278  1.00 20.00     0.001 C 
HETATM    6  C5  UNL     1     -33.317  17.945  -1.003  1.00 20.00     0.008 C 
ENDBRANCH   1   3
BRANCH   2   7
HETATM    7  C8  UNL     1     -36.454  16.025  -3.337  1.00 20.00     0.030 C 
HETATM    8  C7  UNL     1     -37.567  15.046  -3.686  1.00 20.00     0.010 C 
ENDBRANCH   2   7
BRANCH   2   9
HETATM    9  C9  UNL     1     -34.883  14.043  -3.787  1.00 20.00     0.148 C 
HETATM   10 CL10 UNL     1     -33.157  13.619  -3.723  1.00 20.00    -0.126 Cl
ENDBRANCH   2   9
TORSDOF 3
ENDMDL
MODEL 7
REMARK VINA RESULT:      -4.1      2.048      4.519
REMARK  3 active torsions:
REMARK  status: ('A' for Active; 'I' for Inactive)
REMARK    1  A    between atoms: C1_1  and  C6_6 
REMARK    2  A    between atoms: C2_2  and  C8_8 
REMARK    3  A    between atoms: C2_2  and  C9_9 
ROOT
HETATM    1  C1  UNL     1     -34.132  15.696  -2.356  1.00 20.00    -0.018 C 
HETATM    2  C2  UNL     1     -33.902  17.014  -2.200  1.00 20.00    -0.070 C 
ENDROOT
BRANCH   1   3
HETATM    3  C6  UNL     1     -34.317  15.070  -3.677  1.00 20.00     0.008 C 
HETATM    4  C4  UNL     1     -33.617  13.702  -3.877  1.00 20.00     0.008 C 
HETATM    5  C3  UNL     1     -34.856  13.270  -4.689  1.00 20.00     0.001 C 
HETATM    6  C5  UNL     1     -35.655  14.314  -3.881  1.00 20.00     0.008 C 
ENDBRANCH   1   3
BRANCH   2   7
HETATM    7  C8  UNL     1     -33.827  17.909  -3.421  1.00 20.00     0.030 C 
HETATM    8  C7  UNL     1     -35.085  18.746  -3.611  1.00 20.00     0.010 C 
ENDBRANCH   2   7
BRANCH   2   9
HETATM    9  C9  UNL     1     -33.703  17.684  -0.865  1.00 20.00     0.148 C 
HETATM   10 CL10 UNL     1     -34.955  17.162   0.286  1.00 20.00    -0.126 Cl
ENDBRANCH   2   9
TORSDOF 3
ENDMDL
MODEL 8
REMARK VINA RESULT:      -4.0     12.057     14.100
REMARK  3 active torsions:
REMARK  status: ('A' for Active; 'I' for Inactive)
REMARK    1  A    between atoms: C1_1  and  C6_6 
REMARK    2  A    between atoms: C2_2  and  C8_8 
REMARK    3  A    between atoms: C2_2  and  C9_9 
ROOT
HETATM    1  C1  UNL     1     -41.377   4.277  -1.851  1.00 20.00    -0.018 C 
HETATM    2  C2  UNL     1     -41.578   4.812  -0.632  1.00 20.00    -0.070 C 
ENDROOT
BRANCH   1   3
HETATM    3  C6  UNL     1     -42.196   3.173  -2.382  1.00 20.00     0.008 C 
HETATM    4  C4  UNL     1     -43.210   3.561  -3.488  1.00 20.00     0.008 C 
HETATM    5  C3  UNL     1     -42.878   2.214  -4.162  1.00 20.00     0.001 C 
HETATM    6  C5  UNL     1     -41.512   2.281  -3.449  1.00 20.00     0.008 C 
ENDBRANCH   1   3
BRANCH   2   7
HETATM    7  C8  UNL     1     -42.688   4.271   0.248  1.00 20.00     0.030 C 
HETATM    8  C7  UNL     1     -43.266   5.330   1.176  1.00 20.00     0.010 C 
ENDBRANCH   2   7
BRANCH   2   9
HETATM    9  C9  UNL     1     -40.763   5.943  -0.062  1.00 20.00     0.148 C 
HETATM   10 CL10 UNL     1     -41.137   7.465  -0.904  1.00 20.00    -0.126 Cl
ENDBRANCH   2   9
TORSDOF 3
ENDMDL
MODEL 9
REMARK VINA RESULT:      -3.9     11.614     13.736
REMARK  3 active torsions:
REMARK  status: ('A' for Active; 'I' for Inactive)
REMARK    1  A    between atoms: C1_1  and  C6_6 
REMARK    2  A    between atoms: C2_2  and  C8_8 
REMARK    3  A    between atoms: C2_2  and  C9_9 
ROOT
HETATM    1  C1  UNL     1     -41.713   4.484  -2.060  1.00 20.00    -0.018 C 
HETATM    2  C2  UNL     1     -41.958   5.803  -2.171  1.00 20.00    -0.070 C 
ENDROOT
BRANCH   1   3
HETATM    3  C6  UNL     1     -42.380   3.475  -2.902  1.00 20.00     0.008 C 
HETATM    4  C4  UNL     1     -41.498   2.282  -3.348  1.00 20.00     0.008 C 
HETATM    5  C3  UNL     1     -42.741   1.387  -3.159  1.00 20.00     0.001 C 
HETATM    6  C5  UNL     1     -43.246   2.435  -2.145  1.00 20.00     0.008 C 
ENDBRANCH   1   3
BRANCH   2   7
HETATM    7  C8  UNL     1     -42.960   6.293  -3.198  1.00 20.00     0.030 C 
HETATM    8  C7  UNL     1     -42.603   7.663  -3.757  1.00 20.00     0.010 C 
ENDBRANCH   2   7
BRANCH   2   9
HETATM    9  C9  UNL     1     -41.290   6.860  -1.332  1.00 20.00     0.148 C 
HETATM   10 CL10 UNL     1     -40.606   6.141   0.145  1.00 20.00    -0.126 Cl
ENDBRANCH   2   9
TORSDOF 3
ENDMDL
