MODEL 1
REMARK VINA RESULT:      -5.3      0.000      0.000
REMARK  2 active torsions:
REMARK  status: ('A' for Active; 'I' for Inactive)
REMARK    1  A    between atoms: C1_1  and  C5_5 
REMARK    2  A    between atoms: C1_1  and  C8_8 
ROOT
HETATM    1  C2  UNL     1     -33.560   6.368   5.591  1.00 20.00     0.017 C 
HETATM    2  C3  UNL     1     -34.267   5.495   3.421  1.00 20.00     0.017 C 
HETATM    3  C4  UNL     1     -34.854   4.079   5.557  1.00 20.00     0.010 A 
HETATM    4  C5  UNL     1     -33.030   5.960   4.206  1.00 20.00     0.057 C 
HETATM    5  C6  UNL     1     -34.815   5.568   5.784  1.00 20.00    -0.009 A 
HETATM    6  C7  UNL     1     -35.246   5.035   4.462  1.00 20.00    -0.009 A 
ENDROOT
BRANCH   4   7
HETATM    7  C1  UNL     1     -32.326   7.089   3.523  1.00 20.00     0.144 C 
HETATM    8  O9  UNL     1     -31.287   7.552   3.990  1.00 20.00    -0.296 OA
BRANCH   7   9
HETATM    9  C8  UNL     1     -32.978   7.600   2.258  1.00 20.00     0.193 C 
HETATM   10 CL10 UNL     1     -31.845   8.589   1.326  1.00 20.00    -0.123 Cl
ENDBRANCH   7   9
ENDBRANCH   4   7
TORSDOF 2
ENDMDL
MODEL 2
REMARK VINA RESULT:      -4.9     11.558     12.168
REMARK  2 active torsions:
REMARK  status: ('A' for Active; 'I' for Inactive)
REMARK    1  A    between atoms: C1_1  and  C5_5 
REMARK    2  A    between atoms: C1_1  and  C8_8 
ROOT
HETATM    1  C2  UNL     1     -33.581  15.301  -3.357  1.00 20.00     0.017 C 
HETATM    2  C3  UNL     1     -36.010  15.524  -3.199  1.00 20.00     0.017 C 
HETATM    3  C4  UNL     1     -34.568  16.407  -1.185  1.00 20.00     0.010 A 
HETATM    4  C5  UNL     1     -34.889  14.491  -3.403  1.00 20.00     0.057 C 
HETATM    5  C6  UNL     1     -33.897  16.512  -2.529  1.00 20.00    -0.009 A 
HETATM    6  C7  UNL     1     -35.377  16.648  -2.432  1.00 20.00    -0.009 A 
ENDROOT
BRANCH   4   7
HETATM    7  C1  UNL     1     -35.040  13.749  -4.692  1.00 20.00     0.144 C 
HETATM    8  O9  UNL     1     -34.731  12.561  -4.771  1.00 20.00    -0.296 OA
BRANCH   7   9
HETATM    9  C8  UNL     1     -35.580  14.554  -5.853  1.00 20.00     0.193 C 
HETATM   10 CL10 UNL     1     -34.284  14.970  -6.983  1.00 20.00    -0.123 Cl
ENDBRANCH   7   9
ENDBRANCH   4   7
TORSDOF 2
ENDMDL
MODEL 3
REMARK VINA RESULT:      -4.2     11.401     12.272
REMARK  2 active torsions:
REMARK  status: ('A' for Active; 'I' for Inactive)
REMARK    1  A    between atoms: C1_1  and  C5_5 
REMARK    2  A    between atoms: C1_1  and  C8_8 
ROOT
HETATM    1  C2  UNL     1     -33.231  15.116  -3.645  1.00 20.00     0.017 C 
HETATM    2  C3  UNL     1     -35.673  15.199  -3.694  1.00 20.00     0.017 C 
HETATM    3  C4  UNL     1     -34.488  13.280  -5.045  1.00 20.00     0.010 A 
HETATM    4  C5  UNL     1     -34.416  16.033  -3.993  1.00 20.00     0.057 C 
HETATM    5  C6  UNL     1     -33.753  13.718  -3.806  1.00 20.00    -0.009 A 
HETATM    6  C7  UNL     1     -35.241  13.768  -3.836  1.00 20.00    -0.009 A 
ENDROOT
BRANCH   4   7
HETATM    7  C1  UNL     1     -34.388  17.304  -3.206  1.00 20.00     0.144 C 
HETATM    8  O9  UNL     1     -33.626  18.217  -3.519  1.00 20.00    -0.296 OA
BRANCH   7   9
HETATM    9  C8  UNL     1     -35.338  17.370  -2.032  1.00 20.00     0.193 C 
HETATM   10 CL10 UNL     1     -34.618  16.619  -0.601  1.00 20.00    -0.123 Cl
ENDBRANCH   7   9
ENDBRANCH   4   7
TORSDOF 2
ENDMDL
MODEL 4
REMARK VINA RESULT:      -4.2      1.576      2.192
REMARK  2 active torsions:
REMARK  status: ('A' for Active; 'I' for Inactive)
REMARK    1  A    between atoms: C1_1  and  C5_5 
REMARK    2  A    between atoms: C1_1  and  C8_8 
ROOT
HETATM    1  C2  UNL     1     -34.704   4.197   4.460  1.00 20.00     0.017 C 
HETATM    2  C3  UNL     1     -33.657   6.173   5.446  1.00 20.00     0.017 C 
HETATM    3  C4  UNL     1     -35.574   4.997   6.808  1.00 20.00     0.010 A 
HETATM    4  C5  UNL     1     -34.399   5.682   4.192  1.00 20.00     0.057 C 
HETATM    5  C6  UNL     1     -34.753   4.068   5.954  1.00 20.00    -0.009 A 
HETATM    6  C7  UNL     1     -34.115   5.273   6.555  1.00 20.00    -0.009 A 
ENDROOT
BRANCH   4   7
HETATM    7  C1  UNL     1     -33.586   5.869   2.951  1.00 20.00     0.144 C 
HETATM    8  O9  UNL     1     -33.978   5.426   1.873  1.00 20.00    -0.296 OA
BRANCH   7   9
HETATM    9  C8  UNL     1     -32.285   6.619   3.126  1.00 20.00     0.193 C 
HETATM   10 CL10 UNL     1     -32.267   8.082   2.130  1.00 20.00    -0.123 Cl
ENDBRANCH   7   9
ENDBRANCH   4   7
TORSDOF 2
ENDMDL
MODEL 5
REMARK VINA RESULT:      -4.2     11.533     12.474
REMARK  2 active torsions:
REMARK  status: ('A' for Active; 'I' for Inactive)
REMARK    1  A    between atoms: C1_1  and  C5_5 
REMARK    2  A    between atoms: C1_1  and  C8_8 
ROOT
HETATM    1  C2  UNL     1     -33.858  17.798  -2.680  1.00 20.00     0.017 C 
HETATM    2  C3  UNL     1     -34.654  16.624  -0.690  1.00 20.00     0.017 C 
HETATM    3  C4  UNL     1     -32.796  18.456  -0.366  1.00 20.00     0.010 A 
HETATM    4  C5  UNL     1     -34.027  16.394  -2.076  1.00 20.00     0.057 C 
HETATM    5  C6  UNL     1     -33.747  18.723  -1.503  1.00 20.00    -0.009 A 
HETATM    6  C7  UNL     1     -34.231  18.007  -0.290  1.00 20.00    -0.009 A 
ENDROOT
BRANCH   4   7
HETATM    7  C1  UNL     1     -34.880  15.516  -2.936  1.00 20.00     0.144 C 
HETATM    8  O9  UNL     1     -36.104  15.633  -2.930  1.00 20.00    -0.296 OA
BRANCH   7   9
HETATM    9  C8  UNL     1     -34.138  14.505  -3.780  1.00 20.00     0.193 C 
HETATM   10 CL10 UNL     1     -32.392  14.633  -3.520  1.00 20.00    -0.123 Cl
ENDBRANCH   7   9
ENDBRANCH   4   7
TORSDOF 2
ENDMDL
MODEL 6
REMARK VINA RESULT:      -4.1     10.239     11.166
REMARK  2 active torsions:
REMARK  status: ('A' for Active; 'I' for Inactive)
REMARK    1  A    between atoms: C1_1  and  C5_5 
REMARK    2  A    between atoms: C1_1  and  C8_8 
ROOT
HETATM    1  C2  UNL     1     -41.868   5.990  -2.275  1.00 20.00     0.017 C 
HETATM    2  C3  UNL     1     -42.280   4.306  -0.553  1.00 20.00     0.017 C 
HETATM    3  C4  UNL     1     -40.612   6.256   0.019  1.00 20.00     0.010 A 
HETATM    4  C5  UNL     1     -41.806   4.477  -2.005  1.00 20.00     0.057 C 
HETATM    5  C6  UNL     1     -41.718   6.637  -0.930  1.00 20.00    -0.009 A 
HETATM    6  C7  UNL     1     -41.969   5.611   0.121  1.00 20.00    -0.009 A 
ENDROOT
BRANCH   4   7
HETATM    7  C1  UNL     1     -42.653   3.704  -2.965  1.00 20.00     0.144 C 
HETATM    8  O9  UNL     1     -43.417   4.285  -3.734  1.00 20.00    -0.296 OA
BRANCH   7   9
HETATM    9  C8  UNL     1     -42.502   2.200  -2.911  1.00 20.00     0.193 C 
HETATM   10 CL10 UNL     1     -41.259   1.655  -4.046  1.00 20.00    -0.123 Cl
ENDBRANCH   7   9
ENDBRANCH   4   7
TORSDOF 2
ENDMDL
MODEL 7
REMARK VINA RESULT:      -4.0     11.495     13.539
REMARK  2 active torsions:
REMARK  status: ('A' for Active; 'I' for Inactive)
REMARK    1  A    between atoms: C1_1  and  C5_5 
REMARK    2  A    between atoms: C1_1  and  C8_8 
ROOT
HETATM    1  C2  UNL     1     -36.349  15.219  -5.603  1.00 20.00     0.017 C 
HETATM    2  C3  UNL     1     -34.035  15.526  -6.329  1.00 20.00     0.017 C 
HETATM    3  C4  UNL     1     -35.940  16.397  -7.918  1.00 20.00     0.010 A 
HETATM    4  C5  UNL     1     -35.046  14.453  -5.891  1.00 20.00     0.057 C 
HETATM    5  C6  UNL     1     -36.274  16.455  -6.451  1.00 20.00    -0.009 A 
HETATM    6  C7  UNL     1     -34.864  16.642  -6.893  1.00 20.00    -0.009 A 
ENDROOT
BRANCH   4   7
HETATM    7  C1  UNL     1     -34.570  13.693  -4.693  1.00 20.00     0.144 C 
HETATM    8  O9  UNL     1     -35.011  12.571  -4.449  1.00 20.00    -0.296 OA
BRANCH   7   9
HETATM    9  C8  UNL     1     -33.542  14.395  -3.836  1.00 20.00     0.193 C 
HETATM   10 CL10 UNL     1     -34.329  15.445  -2.649  1.00 20.00    -0.123 Cl
ENDBRANCH   7   9
ENDBRANCH   4   7
TORSDOF 2
ENDMDL
MODEL 8
REMARK VINA RESULT:      -4.0      3.011      4.285
REMARK  2 active torsions:
REMARK  status: ('A' for Active; 'I' for Inactive)
REMARK    1  A    between atoms: C1_1  and  C5_5 
REMARK    2  A    between atoms: C1_1  and  C8_8 
ROOT
HETATM    1  C2  UNL     1     -33.054   6.981   4.709  1.00 20.00     0.017 C 
HETATM    2  C3  UNL     1     -33.519   5.663   2.705  1.00 20.00     0.017 C 
HETATM    3  C4  UNL     1     -32.069   7.839   2.427  1.00 20.00     0.010 A 
HETATM    4  C5  UNL     1     -34.203   6.402   3.867  1.00 20.00     0.057 C 
HETATM    5  C6  UNL     1     -31.908   7.145   3.754  1.00 20.00    -0.009 A 
HETATM    6  C7  UNL     1     -32.192   6.342   2.532  1.00 20.00    -0.009 A 
ENDROOT
BRANCH   4   7
HETATM    7  C1  UNL     1     -35.079   5.494   4.669  1.00 20.00     0.144 C 
HETATM    8  O9  UNL     1     -36.043   4.934   4.149  1.00 20.00    -0.296 OA
BRANCH   7   9
HETATM    9  C8  UNL     1     -34.698   5.329   6.123  1.00 20.00     0.193 C 
HETATM   10 CL10 UNL     1     -33.981   3.736   6.405  1.00 20.00    -0.123 Cl
ENDBRANCH   7   9
ENDBRANCH   4   7
TORSDOF 2
ENDMDL
MODEL 9
REMARK VINA RESULT:      -4.0     11.622     12.235
REMARK  2 active torsions:
REMARK  status: ('A' for Active; 'I' for Inactive)
REMARK    1  A    between atoms: C1_1  and  C5_5 
REMARK    2  A    between atoms: C1_1  and  C8_8 
ROOT
HETATM    1  C2  UNL     1     -35.885  15.294  -3.288  1.00 20.00     0.017 C 
HETATM    2  C3  UNL     1     -33.470  15.258  -3.662  1.00 20.00     0.017 C 
HETATM    3  C4  UNL     1     -34.884  13.256  -4.614  1.00 20.00     0.010 A 
HETATM    4  C5  UNL     1     -34.533  15.336  -2.554  1.00 20.00     0.057 C 
HETATM    5  C6  UNL     1     -35.612  14.574  -4.576  1.00 20.00    -0.009 A 
HETATM    6  C7  UNL     1     -34.141  14.551  -4.804  1.00 20.00    -0.009 A 
ENDROOT
BRANCH   4   7
HETATM    7  C1  UNL     1     -34.387  16.572  -1.725  1.00 20.00     0.144 C 
HETATM    8  O9  UNL     1     -34.679  16.562  -0.530  1.00 20.00    -0.296 OA
BRANCH   7   9
HETATM    9  C8  UNL     1     -33.873  17.794  -2.452  1.00 20.00     0.193 C 
HETATM   10 CL10 UNL     1     -35.204  18.888  -2.856  1.00 20.00    -0.123 Cl
ENDBRANCH   7   9
ENDBRANCH   4   7
TORSDOF 2
ENDMDL
