MODEL 1
REMARK VINA RESULT:      -4.4      0.000      0.000
REMARK  5 active torsions:
REMARK  status: ('A' for Active; 'I' for Inactive)
REMARK    1  A    between atoms: C3_3  and  C9_9 
REMARK    2  A    between atoms: C7_7  and  C10_10 
REMARK    3  A    between atoms: C8_8  and  C10_10 
REMARK    4  A    between atoms: C9_9  and  C10_10 
REMARK    5  A    between atoms: C9_9  and  O11_11 
ROOT
HETATM    1  C9  UNL     1     -33.397  16.404  -4.195  1.00 20.00     0.130 C 
ENDROOT
BRANCH   1   2
HETATM    2  C3  UNL     1     -33.978  17.033  -5.457  1.00 20.00    -0.018 A 
HETATM    3  C1  UNL     1     -33.558  18.442  -5.805  1.00 20.00     0.012 A 
HETATM    4  C2  UNL     1     -34.947  18.181  -5.296  1.00 20.00     0.012 A 
HETATM    5  C4  UNL     1     -34.210  16.067  -6.587  1.00 20.00     0.018 C 
ENDBRANCH   1   2
BRANCH   1   6
HETATM    6  C10 UNL     1     -34.411  15.545  -3.396  1.00 20.00     0.014 C 
BRANCH   6   7
HETATM    7  C7  UNL     1     -34.581  16.002  -1.931  1.00 20.00     0.002 C 
HETATM    8  C5  UNL     1     -33.798  17.251  -1.553  1.00 20.00     0.005 C 
ENDBRANCH   6   7
BRANCH   6   9
HETATM    9  C8  UNL     1     -34.046  14.044  -3.525  1.00 20.00     0.002 C 
HETATM   10  C6  UNL     1     -35.027  13.231  -4.359  1.00 20.00     0.005 C 
ENDBRANCH   6   9
ENDBRANCH   1   6
BRANCH   1  11
HETATM   11  O11 UNL     1     -32.306  15.567  -4.594  1.00 20.00    -0.394 OA
HETATM   12  H31 UNL     1     -31.498  16.042  -4.353  1.00 20.00     0.210 HD
ENDBRANCH   1  11
TORSDOF 5
ENDMDL
MODEL 2
REMARK VINA RESULT:      -4.2      1.534      2.925
REMARK  5 active torsions:
REMARK  status: ('A' for Active; 'I' for Inactive)
REMARK    1  A    between atoms: C3_3  and  C9_9 
REMARK    2  A    between atoms: C7_7  and  C10_10 
REMARK    3  A    between atoms: C8_8  and  C10_10 
REMARK    4  A    between atoms: C9_9  and  C10_10 
REMARK    5  A    between atoms: C9_9  and  O11_11 
ROOT
HETATM    1  C9  UNL     1     -34.185  15.831  -4.649  1.00 20.00     0.130 C 
ENDROOT
BRANCH   1   2
HETATM    2  C3  UNL     1     -34.598  14.714  -5.601  1.00 20.00    -0.018 A 
HETATM    3  C1  UNL     1     -34.304  14.890  -7.072  1.00 20.00     0.012 A 
HETATM    4  C2  UNL     1     -35.718  14.990  -6.577  1.00 20.00     0.012 A 
HETATM    5  C4  UNL     1     -34.493  13.329  -5.023  1.00 20.00     0.018 C 
ENDBRANCH   1   2
BRANCH   1   6
HETATM    6  C10 UNL     1     -34.714  15.653  -3.203  1.00 20.00     0.014 C 
BRANCH   6   7
HETATM    7  C7  UNL     1     -36.225  15.942  -3.063  1.00 20.00     0.002 C 
HETATM    8  C5  UNL     1     -36.704  17.208  -3.757  1.00 20.00     0.005 C 
ENDBRANCH   6   7
BRANCH   6   9
HETATM    9  C8  UNL     1     -33.845  16.479  -2.219  1.00 20.00     0.002 C 
HETATM   10  C6  UNL     1     -34.480  16.689  -0.852  1.00 20.00     0.005 C 
ENDBRANCH   6   9
ENDBRANCH   1   6
BRANCH   1  11
HETATM   11  O11 UNL     1     -32.755  15.859  -4.611  1.00 20.00    -0.394 OA
HETATM   12  H31 UNL     1     -32.460  14.966  -4.843  1.00 20.00     0.210 HD
ENDBRANCH   1  11
TORSDOF 5
ENDMDL
MODEL 3
REMARK VINA RESULT:      -4.1      0.697      1.149
REMARK  5 active torsions:
REMARK  status: ('A' for Active; 'I' for Inactive)
REMARK    1  A    between atoms: C3_3  and  C9_9 
REMARK    2  A    between atoms: C7_7  and  C10_10 
REMARK    3  A    between atoms: C8_8  and  C10_10 
REMARK    4  A    between atoms: C9_9  and  C10_10 
REMARK    5  A    between atoms: C9_9  and  O11_11 
ROOT
HETATM    1  C9  UNL     1     -33.852  16.563  -4.228  1.00 20.00     0.130 C 
ENDROOT
BRANCH   1   2
HETATM    2  C3  UNL     1     -34.674  16.938  -5.456  1.00 20.00    -0.018 A 
HETATM    3  C1  UNL     1     -34.152  16.524  -6.812  1.00 20.00     0.012 A 
HETATM    4  C2  UNL     1     -34.105  17.968  -6.403  1.00 20.00     0.012 A 
HETATM    5  C4  UNL     1     -36.163  16.925  -5.240  1.00 20.00     0.018 C 
ENDBRANCH   1   2
BRANCH   1   6
HETATM    6  C10 UNL     1     -34.590  15.621  -3.241  1.00 20.00     0.014 C 
BRANCH   6   7
HETATM    7  C7  UNL     1     -34.506  16.088  -1.771  1.00 20.00     0.002 C 
HETATM    8  C5  UNL     1     -33.713  17.367  -1.547  1.00 20.00     0.005 C 
ENDBRANCH   6   7
BRANCH   6   9
HETATM    9  C8  UNL     1     -34.105  14.163  -3.443  1.00 20.00     0.002 C 
HETATM   10  C6  UNL     1     -35.023  13.314  -4.312  1.00 20.00     0.005 C 
ENDBRANCH   6   9
ENDBRANCH   1   6
BRANCH   1  11
HETATM   11  O11 UNL     1     -32.668  15.903  -4.687  1.00 20.00    -0.394 OA
HETATM   12  H31 UNL     1     -32.810  14.957  -4.541  1.00 20.00     0.210 HD
ENDBRANCH   1  11
TORSDOF 5
ENDMDL
MODEL 4
REMARK VINA RESULT:      -4.1      1.120      2.846
REMARK  5 active torsions:
REMARK  status: ('A' for Active; 'I' for Inactive)
REMARK    1  A    between atoms: C3_3  and  C9_9 
REMARK    2  A    between atoms: C7_7  and  C10_10 
REMARK    3  A    between atoms: C8_8  and  C10_10 
REMARK    4  A    between atoms: C9_9  and  C10_10 
REMARK    5  A    between atoms: C9_9  and  O11_11 
ROOT
HETATM    1  C9  UNL     1     -33.530  16.127  -4.999  1.00 20.00     0.130 C 
ENDROOT
BRANCH   1   2
HETATM    2  C3  UNL     1     -34.363  15.045  -5.679  1.00 20.00    -0.018 A 
HETATM    3  C1  UNL     1     -34.376  15.005  -7.189  1.00 20.00     0.012 A 
HETATM    4  C2  UNL     1     -35.593  15.474  -6.445  1.00 20.00     0.012 A 
HETATM    5  C4  UNL     1     -34.413  13.737  -4.939  1.00 20.00     0.018 C 
ENDBRANCH   1   2
BRANCH   1   6
HETATM    6  C10 UNL     1     -34.238  16.802  -3.796  1.00 20.00     0.014 C 
BRANCH   6   7
HETATM    7  C7  UNL     1     -34.160  18.344  -3.825  1.00 20.00     0.002 C 
HETATM    8  C5  UNL     1     -33.537  18.932  -5.083  1.00 20.00     0.005 C 
ENDBRANCH   6   7
BRANCH   6   9
HETATM    9  C8  UNL     1     -33.715  16.193  -2.469  1.00 20.00     0.002 C 
HETATM   10  C6  UNL     1     -34.594  16.483  -1.260  1.00 20.00     0.005 C 
ENDBRANCH   6   9
ENDBRANCH   1   6
BRANCH   1  11
HETATM   11  O11 UNL     1     -32.325  15.513  -4.532  1.00 20.00    -0.394 OA
HETATM   12  H31 UNL     1     -31.924  15.082  -5.301  1.00 20.00     0.210 HD
ENDBRANCH   1  11
TORSDOF 5
ENDMDL
MODEL 5
REMARK VINA RESULT:      -4.0      1.911      3.458
REMARK  5 active torsions:
REMARK  status: ('A' for Active; 'I' for Inactive)
REMARK    1  A    between atoms: C3_3  and  C9_9 
REMARK    2  A    between atoms: C7_7  and  C10_10 
REMARK    3  A    between atoms: C8_8  and  C10_10 
REMARK    4  A    between atoms: C9_9  and  C10_10 
REMARK    5  A    between atoms: C9_9  and  O11_11 
ROOT
HETATM    1  C9  UNL     1     -35.364  16.190  -3.091  1.00 20.00     0.130 C 
ENDROOT
BRANCH   1   2
HETATM    2  C3  UNL     1     -35.319  17.182  -1.934  1.00 20.00    -0.018 A 
HETATM    3  C1  UNL     1     -36.521  18.070  -1.714  1.00 20.00     0.012 A 
HETATM    4  C2  UNL     1     -35.252  18.655  -2.264  1.00 20.00     0.012 A 
HETATM    5  C4  UNL     1     -34.571  16.697  -0.723  1.00 20.00     0.018 C 
ENDBRANCH   1   2
BRANCH   1   6
HETATM    6  C10 UNL     1     -34.105  15.292  -3.198  1.00 20.00     0.014 C 
BRANCH   6   7
HETATM    7  C7  UNL     1     -33.063  15.815  -4.212  1.00 20.00     0.002 C 
HETATM    8  C5  UNL     1     -33.547  16.950  -5.103  1.00 20.00     0.005 C 
ENDBRANCH   6   7
BRANCH   6   9
HETATM    9  C8  UNL     1     -34.527  13.824  -3.465  1.00 20.00     0.002 C 
HETATM   10  C6  UNL     1     -34.424  13.400  -4.924  1.00 20.00     0.005 C 
ENDBRANCH   6   9
ENDBRANCH   1   6
BRANCH   1  11
HETATM   11  O11 UNL     1     -36.506  15.351  -2.895  1.00 20.00    -0.394 OA
HETATM   12  H31 UNL     1     -37.019  15.753  -2.180  1.00 20.00     0.210 HD
ENDBRANCH   1  11
TORSDOF 5
ENDMDL
MODEL 6
REMARK VINA RESULT:      -4.0      1.422      3.295
REMARK  5 active torsions:
REMARK  status: ('A' for Active; 'I' for Inactive)
REMARK    1  A    between atoms: C3_3  and  C9_9 
REMARK    2  A    between atoms: C7_7  and  C10_10 
REMARK    3  A    between atoms: C8_8  and  C10_10 
REMARK    4  A    between atoms: C9_9  and  C10_10 
REMARK    5  A    between atoms: C9_9  and  O11_11 
ROOT
HETATM    1  C9  UNL     1     -33.758  16.150  -4.082  1.00 20.00     0.130 C 
ENDROOT
BRANCH   1   2
HETATM    2  C3  UNL     1     -34.585  16.844  -3.006  1.00 20.00    -0.018 A 
HETATM    3  C1  UNL     1     -33.850  17.525  -1.875  1.00 20.00     0.012 A 
HETATM    4  C2  UNL     1     -34.591  16.244  -1.619  1.00 20.00     0.012 A 
HETATM    5  C4  UNL     1     -35.854  17.479  -3.505  1.00 20.00     0.018 C 
ENDBRANCH   1   2
BRANCH   1   6
HETATM    6  C10 UNL     1     -34.600  15.323  -5.088  1.00 20.00     0.014 C 
BRANCH   6   7
HETATM    7  C7  UNL     1     -34.514  13.799  -4.852  1.00 20.00     0.002 C 
HETATM    8  C5  UNL     1     -33.495  13.368  -3.806  1.00 20.00     0.005 C 
ENDBRANCH   6   7
BRANCH   6   9
HETATM    9  C8  UNL     1     -34.241  15.734  -6.539  1.00 20.00     0.002 C 
HETATM   10  C6  UNL     1     -34.818  14.817  -7.608  1.00 20.00     0.005 C 
ENDBRANCH   6   9
ENDBRANCH   1   6
BRANCH   1  11
HETATM   11  O11 UNL     1     -33.053  17.164  -4.805  1.00 20.00    -0.394 OA
HETATM   12  H31 UNL     1     -32.791  16.765  -5.647  1.00 20.00     0.210 HD
ENDBRANCH   1  11
TORSDOF 5
ENDMDL
MODEL 7
REMARK VINA RESULT:      -4.0      2.234      3.608
REMARK  5 active torsions:
REMARK  status: ('A' for Active; 'I' for Inactive)
REMARK    1  A    between atoms: C3_3  and  C9_9 
REMARK    2  A    between atoms: C7_7  and  C10_10 
REMARK    3  A    between atoms: C8_8  and  C10_10 
REMARK    4  A    between atoms: C9_9  and  C10_10 
REMARK    5  A    between atoms: C9_9  and  O11_11 
ROOT
HETATM    1  C9  UNL     1     -35.807  15.333  -3.665  1.00 20.00     0.130 C 
ENDROOT
BRANCH   1   2
HETATM    2  C3  UNL     1     -36.248  15.922  -5.001  1.00 20.00    -0.018 A 
HETATM    3  C1  UNL     1     -37.562  15.457  -5.582  1.00 20.00     0.012 A 
HETATM    4  C2  UNL     1     -36.271  15.011  -6.206  1.00 20.00     0.012 A 
HETATM    5  C4  UNL     1     -35.853  17.359  -5.210  1.00 20.00     0.018 C 
ENDBRANCH   1   2
BRANCH   1   6
HETATM    6  C10 UNL     1     -34.516  15.970  -3.091  1.00 20.00     0.014 C 
BRANCH   6   7
HETATM    7  C7  UNL     1     -33.233  15.190  -3.456  1.00 20.00     0.002 C 
HETATM    8  C5  UNL     1     -33.454  13.734  -3.837  1.00 20.00     0.005 C 
ENDBRANCH   6   7
BRANCH   6   9
HETATM    9  C8  UNL     1     -34.675  16.198  -1.566  1.00 20.00     0.002 C 
HETATM   10  C6  UNL     1     -33.847  17.353  -1.018  1.00 20.00     0.005 C 
ENDBRANCH   6   9
ENDBRANCH   1   6
BRANCH   1  11
HETATM   11  O11 UNL     1     -36.872  15.540  -2.731  1.00 20.00    -0.394 OA
HETATM   12  H31 UNL     1     -36.612  16.297  -2.187  1.00 20.00     0.210 HD
ENDBRANCH   1  11
TORSDOF 5
ENDMDL
MODEL 8
REMARK VINA RESULT:      -4.0      2.027      3.732
REMARK  5 active torsions:
REMARK  status: ('A' for Active; 'I' for Inactive)
REMARK    1  A    between atoms: C3_3  and  C9_9 
REMARK    2  A    between atoms: C7_7  and  C10_10 
REMARK    3  A    between atoms: C8_8  and  C10_10 
REMARK    4  A    between atoms: C9_9  and  C10_10 
REMARK    5  A    between atoms: C9_9  and  O11_11 
ROOT
HETATM    1  C9  UNL     1     -35.304  15.262  -2.755  1.00 20.00     0.130 C 
ENDROOT
BRANCH   1   2
HETATM    2  C3  UNL     1     -34.577  14.749  -3.994  1.00 20.00    -0.018 A 
HETATM    3  C1  UNL     1     -34.868  13.340  -4.454  1.00 20.00     0.012 A 
HETATM    4  C2  UNL     1     -33.548  13.658  -3.812  1.00 20.00     0.012 A 
HETATM    5  C4  UNL     1     -34.318  15.794  -5.044  1.00 20.00     0.018 C 
ENDBRANCH   1   2
BRANCH   1   6
HETATM    6  C10 UNL     1     -34.971  16.732  -2.394  1.00 20.00     0.014 C 
BRANCH   6   7
HETATM    7  C7  UNL     1     -34.121  16.870  -1.111  1.00 20.00     0.002 C 
HETATM    8  C5  UNL     1     -34.899  17.266   0.136  1.00 20.00     0.005 C 
ENDBRANCH   6   7
BRANCH   6   9
HETATM    9  C8  UNL     1     -36.273  17.572  -2.352  1.00 20.00     0.002 C 
HETATM   10  C6  UNL     1     -36.320  18.702  -3.371  1.00 20.00     0.005 C 
ENDBRANCH   6   9
ENDBRANCH   1   6
BRANCH   1  11
HETATM   11  O11 UNL     1     -36.709  15.162  -3.008  1.00 20.00    -0.394 OA
HETATM   12  H31 UNL     1     -36.861  14.268  -3.345  1.00 20.00     0.210 HD
ENDBRANCH   1  11
TORSDOF 5
ENDMDL
MODEL 9
REMARK VINA RESULT:      -4.0      1.109      4.249
REMARK  5 active torsions:
REMARK  status: ('A' for Active; 'I' for Inactive)
REMARK    1  A    between atoms: C3_3  and  C9_9 
REMARK    2  A    between atoms: C7_7  and  C10_10 
REMARK    3  A    between atoms: C8_8  and  C10_10 
REMARK    4  A    between atoms: C9_9  and  C10_10 
REMARK    5  A    between atoms: C9_9  and  O11_11 
ROOT
HETATM    1  C9  UNL     1     -33.861  15.672  -5.097  1.00 20.00     0.130 C 
ENDROOT
BRANCH   1   2
HETATM    2  C3  UNL     1     -34.219  14.812  -3.890  1.00 20.00    -0.018 A 
HETATM    3  C1  UNL     1     -33.474  13.512  -3.699  1.00 20.00     0.012 A 
HETATM    4  C2  UNL     1     -34.909  13.491  -4.139  1.00 20.00     0.012 A 
HETATM    5  C4  UNL     1     -34.607  15.589  -2.661  1.00 20.00     0.018 C 
ENDBRANCH   1   2
BRANCH   1   6
HETATM    6  C10 UNL     1     -34.620  17.023  -5.154  1.00 20.00     0.014 C 
BRANCH   6   7
HETATM    7  C7  UNL     1     -35.771  17.037  -6.185  1.00 20.00     0.002 C 
HETATM    8  C5  UNL     1     -35.796  15.848  -7.134  1.00 20.00     0.005 C 
ENDBRANCH   6   7
BRANCH   6   9
HETATM    9  C8  UNL     1     -33.613  18.185  -5.354  1.00 20.00     0.002 C 
HETATM   10  C6  UNL     1     -33.595  19.199  -4.219  1.00 20.00     0.005 C 
ENDBRANCH   6   9
ENDBRANCH   1   6
BRANCH   1  11
HETATM   11  O11 UNL     1     -32.457  15.941  -5.033  1.00 20.00    -0.394 OA
HETATM   12  H31 UNL     1     -32.122  15.451  -4.269  1.00 20.00     0.210 HD
ENDBRANCH   1  11
TORSDOF 5
ENDMDL
