MODEL 1
REMARK VINA RESULT:      -5.2      0.000      0.000
REMARK  6 active torsions:
REMARK  status: ('A' for Active; 'I' for Inactive)
REMARK    1  A    between atoms: C5_5  and  C10_10 
REMARK    2  A    between atoms: C6_6  and  C7_7 
REMARK    3  A    between atoms: C6_6  and  C10_10 
REMARK    4  A    between atoms: C7_7  and  C11_11 
REMARK    5  A    between atoms: C8_8  and  C9_9 
REMARK    6  A    between atoms: C8_8  and  C11_11 
ROOT
HETATM    1  C7  UNL     1     -33.039   6.125   3.099  1.00 20.00     0.020 C 
ENDROOT
BRANCH   1   2
HETATM    2  C6  UNL     1     -34.313   6.113   3.959  1.00 20.00     0.005 C 
BRANCH   2   3
HETATM    3  C10 UNL     1     -34.215   5.162   5.170  1.00 20.00    -0.019 C 
HETATM    4  C4  UNL     1     -35.157   3.961   5.036  1.00 20.00     0.010 C 
BRANCH   3   5
HETATM    5  C5  UNL     1     -34.442   5.910   6.500  1.00 20.00    -0.000 C 
HETATM    6  C1  UNL     1     -33.627   7.183   6.681  1.00 20.00     0.005 C 
ENDBRANCH   3   5
ENDBRANCH   2   3
ENDBRANCH   1   2
BRANCH   1   7
HETATM    7  C11 UNL     1     -32.403   7.520   2.970  1.00 20.00     0.082 C 
HETATM    8 CL12 UNL     1     -31.102   7.732   4.195  1.00 20.00    -0.125 Cl
BRANCH   7   9
HETATM    9  C8  UNL     1     -31.782   7.778   1.585  1.00 20.00     0.024 C 
BRANCH   9  10
HETATM   10  C9  UNL     1     -32.060   9.163   0.968  1.00 20.00    -0.021 C 
HETATM   11  C2  UNL     1     -32.783  10.101   1.937  1.00 20.00     0.009 C 
HETATM   12  C3  UNL     1     -32.890   9.002  -0.309  1.00 20.00     0.009 C 
ENDBRANCH   9  10
ENDBRANCH   7   9
ENDBRANCH   1   7
TORSDOF 6
ENDMDL
MODEL 2
REMARK VINA RESULT:      -4.6      0.739      1.567
REMARK  6 active torsions:
REMARK  status: ('A' for Active; 'I' for Inactive)
REMARK    1  A    between atoms: C5_5  and  C10_10 
REMARK    2  A    between atoms: C6_6  and  C7_7 
REMARK    3  A    between atoms: C6_6  and  C10_10 
REMARK    4  A    between atoms: C7_7  and  C11_11 
REMARK    5  A    between atoms: C8_8  and  C9_9 
REMARK    6  A    between atoms: C8_8  and  C11_11 
ROOT
HETATM    1  C7  UNL     1     -32.534   6.033   3.133  1.00 20.00     0.020 C 
ENDROOT
BRANCH   1   2
HETATM    2  C6  UNL     1     -34.033   5.741   2.966  1.00 20.00     0.005 C 
BRANCH   2   3
HETATM    3  C10 UNL     1     -34.802   5.743   4.304  1.00 20.00    -0.019 C 
HETATM    4  C4  UNL     1     -34.017   6.442   5.418  1.00 20.00     0.010 C 
BRANCH   3   5
HETATM    5  C5  UNL     1     -35.223   4.318   4.720  1.00 20.00    -0.000 C 
HETATM    6  C1  UNL     1     -34.859   3.919   6.144  1.00 20.00     0.005 C 
ENDBRANCH   3   5
ENDBRANCH   2   3
ENDBRANCH   1   2
BRANCH   1   7
HETATM    7  C11 UNL     1     -32.179   7.520   2.966  1.00 20.00     0.082 C 
HETATM    8 CL12 UNL     1     -30.944   8.010   4.180  1.00 20.00    -0.125 Cl
BRANCH   7   9
HETATM    9  C8  UNL     1     -31.620   7.858   1.573  1.00 20.00     0.024 C 
BRANCH   9  10
HETATM   10  C9  UNL     1     -32.047   9.218   0.985  1.00 20.00    -0.021 C 
HETATM   11  C2  UNL     1     -32.841  10.063   1.983  1.00 20.00     0.009 C 
HETATM   12  C3  UNL     1     -32.880   8.995  -0.280  1.00 20.00     0.009 C 
ENDBRANCH   9  10
ENDBRANCH   7   9
ENDBRANCH   1   7
TORSDOF 6
ENDMDL
MODEL 3
REMARK VINA RESULT:      -4.5     10.486     11.753
REMARK  6 active torsions:
REMARK  status: ('A' for Active; 'I' for Inactive)
REMARK    1  A    between atoms: C5_5  and  C10_10 
REMARK    2  A    between atoms: C6_6  and  C7_7 
REMARK    3  A    between atoms: C6_6  and  C10_10 
REMARK    4  A    between atoms: C7_7  and  C11_11 
REMARK    5  A    between atoms: C8_8  and  C9_9 
REMARK    6  A    between atoms: C8_8  and  C11_11 
ROOT
HETATM    1  C7  UNL     1     -33.322  15.275  -3.614  1.00 20.00     0.020 C 
ENDROOT
BRANCH   1   2
HETATM    2  C6  UNL     1     -34.201  14.041  -3.354  1.00 20.00     0.005 C 
BRANCH   2   3
HETATM    3  C10 UNL     1     -35.211  13.769  -4.489  1.00 20.00    -0.019 C 
HETATM    4  C4  UNL     1     -34.708  14.280  -5.842  1.00 20.00     0.010 C 
BRANCH   3   5
HETATM    5  C5  UNL     1     -36.606  14.338  -4.155  1.00 20.00    -0.000 C 
HETATM    6  C1  UNL     1     -37.187  15.293  -5.190  1.00 20.00     0.005 C 
ENDBRANCH   3   5
ENDBRANCH   2   3
ENDBRANCH   1   2
BRANCH   1   7
HETATM    7  C11 UNL     1     -33.800  16.533  -2.870  1.00 20.00     0.082 C 
HETATM    8 CL12 UNL     1     -34.723  17.606  -3.982  1.00 20.00    -0.125 Cl
BRANCH   7   9
HETATM    9  C8  UNL     1     -34.709  16.220  -1.669  1.00 20.00     0.024 C 
BRANCH   9  10
HETATM   10  C9  UNL     1     -34.482  17.079  -0.408  1.00 20.00    -0.021 C 
HETATM   11  C2  UNL     1     -35.711  17.912  -0.040  1.00 20.00     0.009 C 
HETATM   12  C3  UNL     1     -33.278  18.002  -0.622  1.00 20.00     0.009 C 
ENDBRANCH   9  10
ENDBRANCH   7   9
ENDBRANCH   1   7
TORSDOF 6
ENDMDL
MODEL 4
REMARK VINA RESULT:      -4.4     10.681     11.534
REMARK  6 active torsions:
REMARK  status: ('A' for Active; 'I' for Inactive)
REMARK    1  A    between atoms: C5_5  and  C10_10 
REMARK    2  A    between atoms: C6_6  and  C7_7 
REMARK    3  A    between atoms: C6_6  and  C10_10 
REMARK    4  A    between atoms: C7_7  and  C11_11 
REMARK    5  A    between atoms: C8_8  and  C9_9 
REMARK    6  A    between atoms: C8_8  and  C11_11 
ROOT
HETATM    1  C7  UNL     1     -33.630  16.486  -2.210  1.00 20.00     0.020 C 
ENDROOT
BRANCH   1   2
HETATM    2  C6  UNL     1     -34.708  16.515  -1.116  1.00 20.00     0.005 C 
BRANCH   2   3
HETATM    3  C10 UNL     1     -34.366  17.475   0.043  1.00 20.00    -0.019 C 
HETATM    4  C4  UNL     1     -35.620  17.963   0.774  1.00 20.00     0.010 C 
BRANCH   3   5
HETATM    5  C5  UNL     1     -33.497  18.657  -0.436  1.00 20.00    -0.000 C 
HETATM    6  C1  UNL     1     -32.182  18.845   0.308  1.00 20.00     0.005 C 
ENDBRANCH   3   5
ENDBRANCH   2   3
ENDBRANCH   1   2
BRANCH   1   7
HETATM    7  C11 UNL     1     -34.122  15.881  -3.536  1.00 20.00     0.082 C 
HETATM    8 CL12 UNL     1     -33.104  16.457  -4.904  1.00 20.00    -0.125 Cl
BRANCH   7   9
HETATM    9  C8  UNL     1     -34.091  14.343  -3.551  1.00 20.00     0.024 C 
BRANCH   9  10
HETATM   10  C9  UNL     1     -35.262  13.650  -4.278  1.00 20.00    -0.021 C 
HETATM   11  C2  UNL     1     -35.048  13.574  -5.790  1.00 20.00     0.009 C 
HETATM   12  C3  UNL     1     -36.567  14.394  -3.978  1.00 20.00     0.009 C 
ENDBRANCH   9  10
ENDBRANCH   7   9
ENDBRANCH   1   7
TORSDOF 6
ENDMDL
MODEL 5
REMARK VINA RESULT:      -4.4     10.405     12.271
REMARK  6 active torsions:
REMARK  status: ('A' for Active; 'I' for Inactive)
REMARK    1  A    between atoms: C5_5  and  C10_10 
REMARK    2  A    between atoms: C6_6  and  C7_7 
REMARK    3  A    between atoms: C6_6  and  C10_10 
REMARK    4  A    between atoms: C7_7  and  C11_11 
REMARK    5  A    between atoms: C8_8  and  C9_9 
REMARK    6  A    between atoms: C8_8  and  C11_11 
ROOT
HETATM    1  C7  UNL     1     -34.409  13.993  -3.390  1.00 20.00     0.020 C 
ENDROOT
BRANCH   1   2
HETATM    2  C6  UNL     1     -33.357  15.079  -3.667  1.00 20.00     0.005 C 
BRANCH   2   3
HETATM    3  C10 UNL     1     -33.595  16.370  -2.856  1.00 20.00    -0.019 C 
HETATM    4  C4  UNL     1     -34.636  16.172  -1.750  1.00 20.00     0.010 C 
BRANCH   3   5
HETATM    5  C5  UNL     1     -33.967  17.555  -3.773  1.00 20.00    -0.000 C 
HETATM    6  C1  UNL     1     -35.446  17.916  -3.808  1.00 20.00     0.005 C 
ENDBRANCH   3   5
ENDBRANCH   2   3
ENDBRANCH   1   2
BRANCH   1   7
HETATM    7  C11 UNL     1     -35.343  13.730  -4.584  1.00 20.00     0.082 C 
HETATM    8 CL12 UNL     1     -36.886  14.635  -4.384  1.00 20.00    -0.125 Cl
BRANCH   7   9
HETATM    9  C8  UNL     1     -34.734  14.145  -5.935  1.00 20.00     0.024 C 
BRANCH   9  10
HETATM   10  C9  UNL     1     -35.486  15.249  -6.704  1.00 20.00    -0.021 C 
HETATM   11  C2  UNL     1     -36.242  14.706  -7.917  1.00 20.00     0.009 C 
HETATM   12  C3  UNL     1     -34.498  16.330  -7.153  1.00 20.00     0.009 C 
ENDBRANCH   9  10
ENDBRANCH   7   9
ENDBRANCH   1   7
TORSDOF 6
ENDMDL
MODEL 6
REMARK VINA RESULT:      -4.3     10.906     11.849
REMARK  6 active torsions:
REMARK  status: ('A' for Active; 'I' for Inactive)
REMARK    1  A    between atoms: C5_5  and  C10_10 
REMARK    2  A    between atoms: C6_6  and  C7_7 
REMARK    3  A    between atoms: C6_6  and  C10_10 
REMARK    4  A    between atoms: C7_7  and  C11_11 
REMARK    5  A    between atoms: C8_8  and  C9_9 
REMARK    6  A    between atoms: C8_8  and  C11_11 
ROOT
HETATM    1  C7  UNL     1     -34.145  15.900  -2.596  1.00 20.00     0.020 C 
ENDROOT
BRANCH   1   2
HETATM    2  C6  UNL     1     -33.855  17.364  -2.232  1.00 20.00     0.005 C 
BRANCH   2   3
HETATM    3  C10 UNL     1     -33.584  17.570  -0.727  1.00 20.00    -0.019 C 
HETATM    4  C4  UNL     1     -34.828  17.300   0.125  1.00 20.00     0.010 C 
BRANCH   3   5
HETATM    5  C5  UNL     1     -33.000  18.970  -0.441  1.00 20.00    -0.000 C 
HETATM    6  C1  UNL     1     -31.806  18.999   0.504  1.00 20.00     0.005 C 
ENDBRANCH   3   5
ENDBRANCH   2   3
ENDBRANCH   1   2
BRANCH   1   7
HETATM    7  C11 UNL     1     -33.307  15.388  -3.780  1.00 20.00     0.082 C 
HETATM    8 CL12 UNL     1     -33.242  13.589  -3.771  1.00 20.00    -0.125 Cl
BRANCH   7   9
HETATM    9  C8  UNL     1     -33.859  15.825  -5.148  1.00 20.00     0.024 C 
BRANCH   9  10
HETATM   10  C9  UNL     1     -34.700  14.776  -5.904  1.00 20.00    -0.021 C 
HETATM   11  C2  UNL     1     -34.550  14.889  -7.422  1.00 20.00     0.009 C 
HETATM   12  C3  UNL     1     -36.176  14.923  -5.519  1.00 20.00     0.009 C 
ENDBRANCH   9  10
ENDBRANCH   7   9
ENDBRANCH   1   7
TORSDOF 6
ENDMDL
MODEL 7
REMARK VINA RESULT:      -4.3     10.819     12.467
REMARK  6 active torsions:
REMARK  status: ('A' for Active; 'I' for Inactive)
REMARK    1  A    between atoms: C5_5  and  C10_10 
REMARK    2  A    between atoms: C6_6  and  C7_7 
REMARK    3  A    between atoms: C6_6  and  C10_10 
REMARK    4  A    between atoms: C7_7  and  C11_11 
REMARK    5  A    between atoms: C8_8  and  C9_9 
REMARK    6  A    between atoms: C8_8  and  C11_11 
ROOT
HETATM    1  C7  UNL     1     -33.345  16.432  -5.365  1.00 20.00     0.020 C 
ENDROOT
BRANCH   1   2
HETATM    2  C6  UNL     1     -33.789  16.955  -3.990  1.00 20.00     0.005 C 
BRANCH   2   3
HETATM    3  C10 UNL     1     -33.667  15.897  -2.874  1.00 20.00    -0.019 C 
HETATM    4  C4  UNL     1     -33.629  14.472  -3.433  1.00 20.00     0.010 C 
BRANCH   3   5
HETATM    5  C5  UNL     1     -34.780  16.056  -1.816  1.00 20.00    -0.000 C 
HETATM    6  C1  UNL     1     -34.439  16.964  -0.642  1.00 20.00     0.005 C 
ENDBRANCH   3   5
ENDBRANCH   2   3
ENDBRANCH   1   2
BRANCH   1   7
HETATM    7  C11 UNL     1     -34.476  16.419  -6.408  1.00 20.00     0.082 C 
HETATM    8 CL12 UNL     1     -34.428  14.896  -7.367  1.00 20.00    -0.125 Cl
BRANCH   7   9
HETATM    9  C8  UNL     1     -35.879  16.529  -5.784  1.00 20.00     0.024 C 
BRANCH   9  10
HETATM   10  C9  UNL     1     -36.731  15.245  -5.807  1.00 20.00    -0.021 C 
HETATM   11  C2  UNL     1     -37.950  15.369  -6.722  1.00 20.00     0.009 C 
HETATM   12  C3  UNL     1     -37.187  14.902  -4.385  1.00 20.00     0.009 C 
ENDBRANCH   9  10
ENDBRANCH   7   9
ENDBRANCH   1   7
TORSDOF 6
ENDMDL
MODEL 8
REMARK VINA RESULT:      -4.2     10.570     12.528
REMARK  6 active torsions:
REMARK  status: ('A' for Active; 'I' for Inactive)
REMARK    1  A    between atoms: C5_5  and  C10_10 
REMARK    2  A    between atoms: C6_6  and  C7_7 
REMARK    3  A    between atoms: C6_6  and  C10_10 
REMARK    4  A    between atoms: C7_7  and  C11_11 
REMARK    5  A    between atoms: C8_8  and  C9_9 
REMARK    6  A    between atoms: C8_8  and  C11_11 
ROOT
HETATM    1  C7  UNL     1     -33.356  16.657  -5.363  1.00 20.00     0.020 C 
ENDROOT
BRANCH   1   2
HETATM    2  C6  UNL     1     -33.612  17.798  -4.367  1.00 20.00     0.005 C 
BRANCH   2   3
HETATM    3  C10 UNL     1     -34.570  17.399  -3.225  1.00 20.00    -0.019 C 
HETATM    4  C4  UNL     1     -35.622  18.478  -2.952  1.00 20.00     0.010 C 
BRANCH   3   5
HETATM    5  C5  UNL     1     -33.799  17.027  -1.940  1.00 20.00    -0.000 C 
HETATM    6  C1  UNL     1     -34.664  16.616  -0.756  1.00 20.00     0.005 C 
ENDBRANCH   3   5
ENDBRANCH   2   3
ENDBRANCH   1   2
BRANCH   1   7
HETATM    7  C11 UNL     1     -34.645  15.991  -5.874  1.00 20.00     0.082 C 
HETATM    8 CL12 UNL     1     -35.009  16.534  -7.551  1.00 20.00    -0.125 Cl
BRANCH   7   9
HETATM    9  C8  UNL     1     -34.570  14.455  -5.891  1.00 20.00     0.024 C 
BRANCH   9  10
HETATM   10  C9  UNL     1     -35.174  13.735  -4.668  1.00 20.00    -0.021 C 
HETATM   11  C2  UNL     1     -36.426  14.436  -4.137  1.00 20.00     0.009 C 
HETATM   12  C3  UNL     1     -34.125  13.640  -3.555  1.00 20.00     0.009 C 
ENDBRANCH   9  10
ENDBRANCH   7   9
ENDBRANCH   1   7
TORSDOF 6
ENDMDL
MODEL 9
REMARK VINA RESULT:      -4.2     10.144     12.590
REMARK  6 active torsions:
REMARK  status: ('A' for Active; 'I' for Inactive)
REMARK    1  A    between atoms: C5_5  and  C10_10 
REMARK    2  A    between atoms: C6_6  and  C7_7 
REMARK    3  A    between atoms: C6_6  and  C10_10 
REMARK    4  A    between atoms: C7_7  and  C11_11 
REMARK    5  A    between atoms: C8_8  and  C9_9 
REMARK    6  A    between atoms: C8_8  and  C11_11 
ROOT
HETATM    1  C7  UNL     1     -33.915  17.465  -3.301  1.00 20.00     0.020 C 
ENDROOT
BRANCH   1   2
HETATM    2  C6  UNL     1     -35.270  17.808  -3.938  1.00 20.00     0.005 C 
BRANCH   2   3
HETATM    3  C10 UNL     1     -35.306  17.547  -5.458  1.00 20.00    -0.019 C 
HETATM    4  C4  UNL     1     -36.529  16.724  -5.872  1.00 20.00     0.010 C 
BRANCH   3   5
HETATM    5  C5  UNL     1     -33.997  16.899  -5.955  1.00 20.00    -0.000 C 
HETATM    6  C1  UNL     1     -34.169  15.757  -6.947  1.00 20.00     0.005 C 
ENDBRANCH   3   5
ENDBRANCH   2   3
ENDBRANCH   1   2
BRANCH   1   7
HETATM    7  C11 UNL     1     -33.976  16.259  -2.347  1.00 20.00     0.082 C 
HETATM    8 CL12 UNL     1     -34.423  16.794  -0.688  1.00 20.00    -0.125 Cl
BRANCH   7   9
HETATM    9  C8  UNL     1     -34.997  15.193  -2.781  1.00 20.00     0.024 C 
BRANCH   9  10
HETATM   10  C9  UNL     1     -34.408  13.877  -3.329  1.00 20.00    -0.021 C 
HETATM   11  C2  UNL     1     -32.945  14.023  -3.754  1.00 20.00     0.009 C 
HETATM   12  C3  UNL     1     -35.244  13.393  -4.517  1.00 20.00     0.009 C 
ENDBRANCH   9  10
ENDBRANCH   7   9
ENDBRANCH   1   7
TORSDOF 6
ENDMDL
