MODEL 1
REMARK VINA RESULT:      -4.2      0.000      0.000
REMARK  4 active torsions:
REMARK  status: ('A' for Active; 'I' for Inactive)
REMARK    1  A    between atoms: C5_5  and  C8_8 
REMARK    2  A    between atoms: C6_6  and  C8_8 
REMARK    3  A    between atoms: C7_7  and  C8_8 
REMARK    4  A    between atoms: C8_8  and  N9_9 
ROOT
HETATM    1  C8  UNL     1     -34.483  15.046  -4.471  1.00 20.00     0.217 C 
ENDROOT
BRANCH   1   2
HETATM    2  C5  UNL     1     -35.247  15.421  -5.775  1.00 20.00     0.043 C 
HETATM    3  C1  UNL     1     -35.307  14.343  -6.853  1.00 20.00     0.008 C 
ENDBRANCH   1   2
BRANCH   1   4
HETATM    4  C6  UNL     1     -35.282  15.410  -3.170  1.00 20.00     0.021 C 
HETATM    5  C2  UNL     1     -36.462  16.366  -3.402  1.00 20.00     0.012 C 
HETATM    6  C3  UNL     1     -34.404  15.995  -2.049  1.00 20.00     0.012 C 
ENDBRANCH   1   4
BRANCH   1   7
HETATM    7  C7  UNL     1     -34.108  13.553  -4.540  1.00 20.00     0.391 C 
HETATM    8  F10 UNL     1     -32.976  13.320  -3.823  1.00 20.00    -0.212 F 
HETATM    9  F11 UNL     1     -35.073  12.789  -3.970  1.00 20.00    -0.212 F 
ENDBRANCH   1   7
BRANCH   1  10
HETATM   10  N9  UNL     1     -33.203  15.782  -4.449  1.00 20.00     0.094 N 
HETATM   11  C4  UNL     1     -33.291  16.967  -5.280  1.00 20.00     0.307 C 
HETATM   12  H28 UNL     1     -32.478  15.166  -4.797  1.00 20.00     0.316 HD
ENDBRANCH   1  10
TORSDOF 4
ENDMDL
MODEL 2
REMARK VINA RESULT:      -4.2      1.200      2.289
REMARK  4 active torsions:
REMARK  status: ('A' for Active; 'I' for Inactive)
REMARK    1  A    between atoms: C5_5  and  C8_8 
REMARK    2  A    between atoms: C6_6  and  C8_8 
REMARK    3  A    between atoms: C7_7  and  C8_8 
REMARK    4  A    between atoms: C8_8  and  N9_9 
ROOT
HETATM    1  C8  UNL     1     -34.323  15.045  -4.770  1.00 20.00     0.217 C 
ENDROOT
BRANCH   1   2
HETATM    2  C5  UNL     1     -35.841  15.391  -4.831  1.00 20.00     0.043 C 
HETATM    3  C1  UNL     1     -36.746  14.618  -3.875  1.00 20.00     0.008 C 
ENDBRANCH   1   2
BRANCH   1   4
HETATM    4  C6  UNL     1     -33.476  16.141  -4.032  1.00 20.00     0.021 C 
HETATM    5  C2  UNL     1     -33.805  16.291  -2.540  1.00 20.00     0.012 C 
HETATM    6  C3  UNL     1     -33.564  17.531  -4.686  1.00 20.00     0.012 C 
ENDBRANCH   1   4
BRANCH   1   7
HETATM    7  C7  UNL     1     -34.169  13.648  -4.137  1.00 20.00     0.391 C 
HETATM    8  F10 UNL     1     -34.450  12.684  -5.054  1.00 20.00    -0.212 F 
HETATM    9  F11 UNL     1     -32.886  13.434  -3.753  1.00 20.00    -0.212 F 
ENDBRANCH   1   7
BRANCH   1  10
HETATM   10  N9  UNL     1     -33.816  14.919  -6.151  1.00 20.00     0.094 N 
HETATM   11  C4  UNL     1     -34.894  15.108  -7.101  1.00 20.00     0.307 C 
HETATM   12  H28 UNL     1     -33.415  13.994  -6.258  1.00 20.00     0.316 HD
ENDBRANCH   1  10
TORSDOF 4
ENDMDL
MODEL 3
REMARK VINA RESULT:      -4.1      1.190      3.022
REMARK  4 active torsions:
REMARK  status: ('A' for Active; 'I' for Inactive)
REMARK    1  A    between atoms: C5_5  and  C8_8 
REMARK    2  A    between atoms: C6_6  and  C8_8 
REMARK    3  A    between atoms: C7_7  and  C8_8 
REMARK    4  A    between atoms: C8_8  and  N9_9 
ROOT
HETATM    1  C8  UNL     1     -34.548  15.150  -4.192  1.00 20.00     0.217 C 
ENDROOT
BRANCH   1   2
HETATM    2  C5  UNL     1     -33.644  15.721  -3.059  1.00 20.00     0.043 C 
HETATM    3  C1  UNL     1     -34.366  16.240  -1.819  1.00 20.00     0.008 C 
ENDBRANCH   1   2
BRANCH   1   4
HETATM    4  C6  UNL     1     -34.529  16.032  -5.490  1.00 20.00     0.021 C 
HETATM    5  C2  UNL     1     -34.222  15.251  -6.777  1.00 20.00     0.012 C 
HETATM    6  C3  UNL     1     -33.561  17.225  -5.411  1.00 20.00     0.012 C 
ENDBRANCH   1   4
BRANCH   1   7
HETATM    7  C7  UNL     1     -34.129  13.690  -4.458  1.00 20.00     0.391 C 
HETATM    8  F10 UNL     1     -33.020  13.382  -3.733  1.00 20.00    -0.212 F 
HETATM    9  F11 UNL     1     -35.095  12.832  -4.046  1.00 20.00    -0.212 F 
ENDBRANCH   1   7
BRANCH   1  10
HETATM   10  N9  UNL     1     -35.937  15.086  -3.696  1.00 20.00     0.094 N 
HETATM   11  C4  UNL     1     -36.832  15.755  -4.620  1.00 20.00     0.307 C 
HETATM   12  H28 UNL     1     -35.971  15.539  -2.790  1.00 20.00     0.316 HD
ENDBRANCH   1  10
TORSDOF 4
ENDMDL
MODEL 4
REMARK VINA RESULT:      -4.0      1.287      3.299
REMARK  4 active torsions:
REMARK  status: ('A' for Active; 'I' for Inactive)
REMARK    1  A    between atoms: C5_5  and  C8_8 
REMARK    2  A    between atoms: C6_6  and  C8_8 
REMARK    3  A    between atoms: C7_7  and  C8_8 
REMARK    4  A    between atoms: C8_8  and  N9_9 
ROOT
HETATM    1  C8  UNL     1     -34.849  15.196  -4.274  1.00 20.00     0.217 C 
ENDROOT
BRANCH   1   2
HETATM    2  C5  UNL     1     -35.161  16.286  -3.205  1.00 20.00     0.043 C 
HETATM    3  C1  UNL     1     -34.482  16.112  -1.850  1.00 20.00     0.008 C 
ENDBRANCH   1   2
BRANCH   1   4
HETATM    4  C6  UNL     1     -33.856  15.695  -5.383  1.00 20.00     0.021 C 
HETATM    5  C2  UNL     1     -33.546  17.198  -5.320  1.00 20.00     0.012 C 
HETATM    6  C3  UNL     1     -34.310  15.358  -6.814  1.00 20.00     0.012 C 
ENDBRANCH   1   4
BRANCH   1   7
HETATM    7  C7  UNL     1     -34.344  13.934  -3.547  1.00 20.00     0.391 C 
HETATM    8  F10 UNL     1     -35.004  12.836  -4.002  1.00 20.00    -0.212 F 
HETATM    9  F11 UNL     1     -33.032  13.719  -3.817  1.00 20.00    -0.212 F 
ENDBRANCH   1   7
BRANCH   1  10
HETATM   10  N9  UNL     1     -36.114  14.805  -4.927  1.00 20.00     0.094 N 
HETATM   11  C4  UNL     1     -37.245  15.220  -4.120  1.00 20.00     0.307 C 
HETATM   12  H28 UNL     1     -36.116  13.798  -5.037  1.00 20.00     0.316 HD
ENDBRANCH   1  10
TORSDOF 4
ENDMDL
MODEL 5
REMARK VINA RESULT:      -4.0      1.907      3.517
REMARK  4 active torsions:
REMARK  status: ('A' for Active; 'I' for Inactive)
REMARK    1  A    between atoms: C5_5  and  C8_8 
REMARK    2  A    between atoms: C6_6  and  C8_8 
REMARK    3  A    between atoms: C7_7  and  C8_8 
REMARK    4  A    between atoms: C8_8  and  N9_9 
ROOT
HETATM    1  C8  UNL     1     -34.817  15.582  -3.713  1.00 20.00     0.217 C 
ENDROOT
BRANCH   1   2
HETATM    2  C5  UNL     1     -33.940  16.244  -2.609  1.00 20.00     0.043 C 
HETATM    3  C1  UNL     1     -34.604  16.437  -1.248  1.00 20.00     0.008 C 
ENDBRANCH   1   2
BRANCH   1   4
HETATM    4  C6  UNL     1     -34.540  14.045  -3.871  1.00 20.00     0.021 C 
HETATM    5  C2  UNL     1     -33.093  13.631  -3.568  1.00 20.00     0.012 C 
HETATM    6  C3  UNL     1     -34.919  13.489  -5.255  1.00 20.00     0.012 C 
ENDBRANCH   1   4
BRANCH   1   7
HETATM    7  C7  UNL     1     -36.297  15.891  -3.408  1.00 20.00     0.391 C 
HETATM    8  F10 UNL     1     -36.895  16.441  -4.498  1.00 20.00    -0.212 F 
HETATM    9  F11 UNL     1     -36.980  14.749  -3.144  1.00 20.00    -0.212 F 
ENDBRANCH   1   7
BRANCH   1  10
HETATM   10  N9  UNL     1     -34.526  16.240  -5.001  1.00 20.00     0.094 N 
HETATM   11  C4  UNL     1     -33.448  17.197  -4.844  1.00 20.00     0.307 C 
HETATM   12  H28 UNL     1     -35.367  16.711  -5.314  1.00 20.00     0.316 HD
ENDBRANCH   1  10
TORSDOF 4
ENDMDL
MODEL 6
REMARK VINA RESULT:      -3.9      1.091      2.682
REMARK  4 active torsions:
REMARK  status: ('A' for Active; 'I' for Inactive)
REMARK    1  A    between atoms: C5_5  and  C8_8 
REMARK    2  A    between atoms: C6_6  and  C8_8 
REMARK    3  A    between atoms: C7_7  and  C8_8 
REMARK    4  A    between atoms: C8_8  and  N9_9 
ROOT
HETATM    1  C8  UNL     1     -34.631  15.078  -4.517  1.00 20.00     0.217 C 
ENDROOT
BRANCH   1   2
HETATM    2  C5  UNL     1     -33.410  16.034  -4.368  1.00 20.00     0.043 C 
HETATM    3  C1  UNL     1     -33.386  17.243  -5.299  1.00 20.00     0.008 C 
ENDBRANCH   1   2
BRANCH   1   4
HETATM    4  C6  UNL     1     -35.516  15.409  -5.771  1.00 20.00     0.021 C 
HETATM    5  C2  UNL     1     -37.024  15.452  -5.484  1.00 20.00     0.012 C 
HETATM    6  C3  UNL     1     -35.280  14.461  -6.960  1.00 20.00     0.012 C 
ENDBRANCH   1   4
BRANCH   1   7
HETATM    7  C7  UNL     1     -34.113  13.626  -4.522  1.00 20.00     0.391 C 
HETATM    8  F10 UNL     1     -32.991  13.526  -3.760  1.00 20.00    -0.212 F 
HETATM    9  F11 UNL     1     -35.021  12.791  -3.959  1.00 20.00    -0.212 F 
ENDBRANCH   1   7
BRANCH   1  10
HETATM   10  N9  UNL     1     -35.472  15.201  -3.310  1.00 20.00     0.094 N 
HETATM   11  C4  UNL     1     -34.739  15.868  -2.253  1.00 20.00     0.307 C 
HETATM   12  H28 UNL     1     -35.740  14.270  -3.014  1.00 20.00     0.316 HD
ENDBRANCH   1  10
TORSDOF 4
ENDMDL
MODEL 7
REMARK VINA RESULT:      -3.9      1.639      3.202
REMARK  4 active torsions:
REMARK  status: ('A' for Active; 'I' for Inactive)
REMARK    1  A    between atoms: C5_5  and  C8_8 
REMARK    2  A    between atoms: C6_6  and  C8_8 
REMARK    3  A    between atoms: C7_7  and  C8_8 
REMARK    4  A    between atoms: C8_8  and  N9_9 
ROOT
HETATM    1  C8  UNL     1     -34.295  15.425  -4.455  1.00 20.00     0.217 C 
ENDROOT
BRANCH   1   2
HETATM    2  C5  UNL     1     -35.552  15.268  -3.548  1.00 20.00     0.043 C 
HETATM    3  C1  UNL     1     -36.575  16.399  -3.615  1.00 20.00     0.008 C 
ENDBRANCH   1   2
BRANCH   1   4
HETATM    4  C6  UNL     1     -34.500  16.473  -5.606  1.00 20.00     0.021 C 
HETATM    5  C2  UNL     1     -34.355  15.892  -7.020  1.00 20.00     0.012 C 
HETATM    6  C3  UNL     1     -33.578  17.700  -5.494  1.00 20.00     0.012 C 
ENDBRANCH   1   4
BRANCH   1   7
HETATM    7  C7  UNL     1     -33.087  15.758  -3.557  1.00 20.00     0.391 C 
HETATM    8  F10 UNL     1     -33.498  15.963  -2.277  1.00 20.00    -0.212 F 
HETATM    9  F11 UNL     1     -32.224  14.713  -3.508  1.00 20.00    -0.212 F 
ENDBRANCH   1   7
BRANCH   1  10
HETATM   10  N9  UNL     1     -33.993  14.117  -5.068  1.00 20.00     0.094 N 
HETATM   11  C4  UNL     1     -34.939  13.118  -4.611  1.00 20.00     0.307 C 
HETATM   12  H28 UNL     1     -33.051  13.852  -4.802  1.00 20.00     0.316 HD
ENDBRANCH   1  10
TORSDOF 4
ENDMDL
MODEL 8
REMARK VINA RESULT:      -3.9      2.382      3.333
REMARK  4 active torsions:
REMARK  status: ('A' for Active; 'I' for Inactive)
REMARK    1  A    between atoms: C5_5  and  C8_8 
REMARK    2  A    between atoms: C6_6  and  C8_8 
REMARK    3  A    between atoms: C7_7  and  C8_8 
REMARK    4  A    between atoms: C8_8  and  N9_9 
ROOT
HETATM    1  C8  UNL     1     -34.779  15.855  -3.445  1.00 20.00     0.217 C 
ENDROOT
BRANCH   1   2
HETATM    2  C5  UNL     1     -34.843  17.085  -4.399  1.00 20.00     0.043 C 
HETATM    3  C1  UNL     1     -33.765  17.157  -5.477  1.00 20.00     0.008 C 
ENDBRANCH   1   2
BRANCH   1   4
HETATM    4  C6  UNL     1     -34.263  14.556  -4.160  1.00 20.00     0.021 C 
HETATM    5  C2  UNL     1     -35.301  13.427  -4.239  1.00 20.00     0.012 C 
HETATM    6  C3  UNL     1     -32.976  13.983  -3.541  1.00 20.00     0.012 C 
ENDBRANCH   1   4
BRANCH   1   7
HETATM    7  C7  UNL     1     -33.928  16.237  -2.218  1.00 20.00     0.391 C 
HETATM    8  F10 UNL     1     -33.669  17.572  -2.224  1.00 20.00    -0.212 F 
HETATM    9  F11 UNL     1     -34.608  15.995  -1.070  1.00 20.00    -0.212 F 
ENDBRANCH   1   7
BRANCH   1  10
HETATM   10  N9  UNL     1     -36.137  15.592  -2.929  1.00 20.00     0.094 N 
HETATM   11  C4  UNL     1     -37.031  16.673  -3.293  1.00 20.00     0.307 C 
HETATM   12  H28 UNL     1     -36.081  15.511  -1.920  1.00 20.00     0.316 HD
ENDBRANCH   1  10
TORSDOF 4
ENDMDL
MODEL 9
REMARK VINA RESULT:      -3.9      1.660      2.089
REMARK  4 active torsions:
REMARK  status: ('A' for Active; 'I' for Inactive)
REMARK    1  A    between atoms: C5_5  and  C8_8 
REMARK    2  A    between atoms: C6_6  and  C8_8 
REMARK    3  A    between atoms: C7_7  and  C8_8 
REMARK    4  A    between atoms: C8_8  and  N9_9 
ROOT
HETATM    1  C8  UNL     1     -34.533  15.469  -4.961  1.00 20.00     0.217 C 
ENDROOT
BRANCH   1   2
HETATM    2  C5  UNL     1     -35.676  16.518  -4.824  1.00 20.00     0.043 C 
HETATM    3  C1  UNL     1     -37.087  16.017  -5.118  1.00 20.00     0.008 C 
ENDBRANCH   1   2
BRANCH   1   4
HETATM    4  C6  UNL     1     -34.114  14.839  -3.586  1.00 20.00     0.021 C 
HETATM    5  C2  UNL     1     -34.499  15.684  -2.363  1.00 20.00     0.012 C 
HETATM    6  C3  UNL     1     -32.613  14.510  -3.489  1.00 20.00     0.012 C 
ENDBRANCH   1   4
BRANCH   1   7
HETATM    7  C7  UNL     1     -34.968  14.408  -5.992  1.00 20.00     0.391 C 
HETATM    8  F10 UNL     1     -34.188  14.487  -7.103  1.00 20.00    -0.212 F 
HETATM    9  F11 UNL     1     -34.790  13.158  -5.499  1.00 20.00    -0.212 F 
ENDBRANCH   1   7
BRANCH   1  10
HETATM   10  N9  UNL     1     -33.352  16.136  -5.544  1.00 20.00     0.094 N 
HETATM   11  C4  UNL     1     -33.519  17.575  -5.507  1.00 20.00     0.307 C 
HETATM   12  H28 UNL     1     -33.251  15.821  -6.502  1.00 20.00     0.316 HD
ENDBRANCH   1  10
TORSDOF 4
ENDMDL
