MODEL 1
REMARK VINA RESULT:      -4.7      0.000      0.000
REMARK  2 active torsions:
REMARK  status: ('A' for Active; 'I' for Inactive)
REMARK    1  A    between atoms: C5_5  and  C8_8 
REMARK    2  A    between atoms: C5_5  and  O9_9 
ROOT
HETATM    1  C1  UNL     1     -34.486  13.389  -4.901  1.00 20.00     0.004 C 
HETATM    2  C2  UNL     1     -34.339  13.913  -3.471  1.00 20.00     0.012 C 
HETATM    3  C3  UNL     1     -34.353  14.601  -5.830  1.00 20.00     0.044 C 
HETATM    4  C4  UNL     1     -34.575  15.435  -3.560  1.00 20.00    -0.011 C 
HETATM    5  C5  UNL     1     -33.916  15.764  -4.928  1.00 20.00     0.123 C 
HETATM    6  C6  UNL     1     -33.914  16.150  -2.374  1.00 20.00     0.018 C 
HETATM    7  C7  UNL     1     -36.088  15.731  -3.525  1.00 20.00     0.018 C 
ENDROOT
BRANCH   5   8
HETATM    8  C8  UNL     1     -34.266  17.126  -5.520  1.00 20.00     0.388 C 
HETATM    9  F10 UNL     1     -34.566  16.968  -6.827  1.00 20.00    -0.211 F 
HETATM   10  F11 UNL     1     -33.181  17.925  -5.446  1.00 20.00    -0.211 F 
ENDBRANCH   5   8
BRANCH   5  11
HETATM   11  O9  UNL     1     -32.490  15.703  -4.794  1.00 20.00    -0.383 OA
HETATM   12  H25 UNL     1     -32.286  16.070  -3.923  1.00 20.00     0.210 HD
ENDBRANCH   5  11
TORSDOF 2
ENDMDL
MODEL 2
REMARK VINA RESULT:      -4.6      2.360      3.510
REMARK  2 active torsions:
REMARK  status: ('A' for Active; 'I' for Inactive)
REMARK    1  A    between atoms: C5_5  and  C8_8 
REMARK    2  A    between atoms: C5_5  and  O9_9 
ROOT
HETATM    1  C1  UNL     1     -34.054  17.572  -3.196  1.00 20.00     0.004 C 
HETATM    2  C2  UNL     1     -34.229  17.585  -4.716  1.00 20.00     0.012 C 
HETATM    3  C3  UNL     1     -33.739  16.125  -2.801  1.00 20.00     0.044 C 
HETATM    4  C4  UNL     1     -34.460  16.114  -5.120  1.00 20.00    -0.011 C 
HETATM    5  C5  UNL     1     -33.524  15.376  -4.124  1.00 20.00     0.123 C 
HETATM    6  C6  UNL     1     -34.083  15.896  -6.591  1.00 20.00     0.018 C 
HETATM    7  C7  UNL     1     -35.949  15.752  -4.940  1.00 20.00     0.018 C 
ENDROOT
BRANCH   5   8
HETATM    8  C8  UNL     1     -33.755  13.874  -3.988  1.00 20.00     0.388 C 
HETATM    9  F10 UNL     1     -34.623  13.657  -2.976  1.00 20.00    -0.211 F 
HETATM   10  F11 UNL     1     -32.589  13.282  -3.657  1.00 20.00    -0.211 F 
ENDBRANCH   5   8
BRANCH   5  11
HETATM   11  O9  UNL     1     -32.161  15.571  -4.522  1.00 20.00    -0.383 OA
HETATM   12  H25 UNL     1     -32.178  16.243  -5.217  1.00 20.00     0.210 HD
ENDBRANCH   5  11
TORSDOF 2
ENDMDL
MODEL 3
REMARK VINA RESULT:      -4.6      1.507      2.496
REMARK  2 active torsions:
REMARK  status: ('A' for Active; 'I' for Inactive)
REMARK    1  A    between atoms: C5_5  and  C8_8 
REMARK    2  A    between atoms: C5_5  and  O9_9 
ROOT
HETATM    1  C1  UNL     1     -34.310  15.887  -6.927  1.00 20.00     0.004 C 
HETATM    2  C2  UNL     1     -34.499  14.531  -6.246  1.00 20.00     0.012 C 
HETATM    3  C3  UNL     1     -33.966  16.891  -5.822  1.00 20.00     0.044 C 
HETATM    4  C4  UNL     1     -34.708  14.843  -4.750  1.00 20.00    -0.011 C 
HETATM    5  C5  UNL     1     -33.751  16.051  -4.555  1.00 20.00     0.123 C 
HETATM    6  C6  UNL     1     -34.341  13.626  -3.891  1.00 20.00     0.018 C 
HETATM    7  C7  UNL     1     -36.188  15.192  -4.492  1.00 20.00     0.018 C 
ENDROOT
BRANCH   5   8
HETATM    8  C8  UNL     1     -33.954  16.857  -3.277  1.00 20.00     0.388 C 
HETATM    9  F10 UNL     1     -33.366  18.064  -3.426  1.00 20.00    -0.211 F 
HETATM   10  F11 UNL     1     -33.332  16.226  -2.260  1.00 20.00    -0.211 F 
ENDBRANCH   5   8
BRANCH   5  11
HETATM   11  O9  UNL     1     -32.394  15.586  -4.564  1.00 20.00    -0.383 OA
HETATM   12  H25 UNL     1     -32.386  14.793  -5.118  1.00 20.00     0.210 HD
ENDBRANCH   5  11
TORSDOF 2
ENDMDL
MODEL 4
REMARK VINA RESULT:      -4.5      2.410      3.265
REMARK  2 active torsions:
REMARK  status: ('A' for Active; 'I' for Inactive)
REMARK    1  A    between atoms: C5_5  and  C8_8 
REMARK    2  A    between atoms: C5_5  and  O9_9 
ROOT
HETATM    1  C1  UNL     1     -34.782  13.316  -4.901  1.00 20.00     0.004 C 
HETATM    2  C2  UNL     1     -35.482  14.439  -5.668  1.00 20.00     0.012 C 
HETATM    3  C3  UNL     1     -34.395  13.891  -3.534  1.00 20.00     0.044 C 
HETATM    4  C4  UNL     1     -35.097  15.743  -4.940  1.00 20.00    -0.011 C 
HETATM    5  C5  UNL     1     -35.071  15.267  -3.461  1.00 20.00     0.123 C 
HETATM    6  C6  UNL     1     -36.136  16.838  -5.213  1.00 20.00     0.018 C 
HETATM    7  C7  UNL     1     -33.726  16.236  -5.445  1.00 20.00     0.018 C 
ENDROOT
BRANCH   5   8
HETATM    8  C8  UNL     1     -34.381  16.206  -2.476  1.00 20.00     0.388 C 
HETATM    9  F10 UNL     1     -33.061  15.921  -2.455  1.00 20.00    -0.211 F 
HETATM   10  F11 UNL     1     -34.866  15.972  -1.239  1.00 20.00    -0.211 F 
ENDBRANCH   5   8
BRANCH   5  11
HETATM   11  O9  UNL     1     -36.415  15.070  -3.004  1.00 20.00    -0.383 OA
HETATM   12  H25 UNL     1     -36.781  15.953  -2.856  1.00 20.00     0.210 HD
ENDBRANCH   5  11
TORSDOF 2
ENDMDL
MODEL 5
REMARK VINA RESULT:      -4.5      2.368      3.446
REMARK  2 active torsions:
REMARK  status: ('A' for Active; 'I' for Inactive)
REMARK    1  A    between atoms: C5_5  and  C8_8 
REMARK    2  A    between atoms: C5_5  and  O9_9 
ROOT
HETATM    1  C1  UNL     1     -33.643  17.315  -4.465  1.00 20.00     0.004 C 
HETATM    2  C2  UNL     1     -35.091  17.145  -4.929  1.00 20.00     0.012 C 
HETATM    3  C3  UNL     1     -33.091  15.907  -4.218  1.00 20.00     0.044 C 
HETATM    4  C4  UNL     1     -35.493  15.714  -4.518  1.00 20.00    -0.011 C 
HETATM    5  C5  UNL     1     -34.162  14.946  -4.752  1.00 20.00     0.123 C 
HETATM    6  C6  UNL     1     -36.652  15.211  -5.389  1.00 20.00     0.018 C 
HETATM    7  C7  UNL     1     -35.951  15.704  -3.046  1.00 20.00     0.018 C 
ENDROOT
BRANCH   5   8
HETATM    8  C8  UNL     1     -34.076  13.563  -4.116  1.00 20.00     0.388 C 
HETATM    9  F10 UNL     1     -32.808  13.353  -3.701  1.00 20.00    -0.211 F 
HETATM   10  F11 UNL     1     -34.355  12.634  -5.054  1.00 20.00    -0.211 F 
ENDBRANCH   5   8
BRANCH   5  11
HETATM   11  O9  UNL     1     -33.948  14.790  -6.161  1.00 20.00    -0.383 OA
HETATM   12  H25 UNL     1     -33.260  15.426  -6.400  1.00 20.00     0.210 HD
ENDBRANCH   5  11
TORSDOF 2
ENDMDL
MODEL 6
REMARK VINA RESULT:      -4.5      1.555      2.795
REMARK  2 active torsions:
REMARK  status: ('A' for Active; 'I' for Inactive)
REMARK    1  A    between atoms: C5_5  and  C8_8 
REMARK    2  A    between atoms: C5_5  and  O9_9 
ROOT
HETATM    1  C1  UNL     1     -34.170  16.272  -2.097  1.00 20.00     0.004 C 
HETATM    2  C2  UNL     1     -33.906  17.539  -2.914  1.00 20.00     0.012 C 
HETATM    3  C3  UNL     1     -34.293  15.119  -3.099  1.00 20.00     0.044 C 
HETATM    4  C4  UNL     1     -34.322  17.195  -4.359  1.00 20.00    -0.011 C 
HETATM    5  C5  UNL     1     -33.882  15.708  -4.456  1.00 20.00     0.123 C 
HETATM    6  C6  UNL     1     -33.604  18.113  -5.357  1.00 20.00     0.018 C 
HETATM    7  C7  UNL     1     -35.843  17.392  -4.524  1.00 20.00     0.018 C 
ENDROOT
BRANCH   5   8
HETATM    8  C8  UNL     1     -34.455  14.924  -5.632  1.00 20.00     0.388 C 
HETATM    9  F10 UNL     1     -34.272  13.605  -5.406  1.00 20.00    -0.211 F 
HETATM   10  F11 UNL     1     -33.767  15.245  -6.747  1.00 20.00    -0.211 F 
ENDBRANCH   5   8
BRANCH   5  11
HETATM   11  O9  UNL     1     -32.452  15.643  -4.547  1.00 20.00    -0.383 OA
HETATM   12  H25 UNL     1     -32.113  16.250  -3.874  1.00 20.00     0.210 HD
ENDBRANCH   5  11
TORSDOF 2
ENDMDL
MODEL 7
REMARK VINA RESULT:      -4.4      2.016      2.596
REMARK  2 active torsions:
REMARK  status: ('A' for Active; 'I' for Inactive)
REMARK    1  A    between atoms: C5_5  and  C8_8 
REMARK    2  A    between atoms: C5_5  and  O9_9 
ROOT
HETATM    1  C1  UNL     1     -33.121  13.465  -3.633  1.00 20.00     0.004 C 
HETATM    2  C2  UNL     1     -32.689  14.933  -3.625  1.00 20.00     0.012 C 
HETATM    3  C3  UNL     1     -34.489  13.412  -4.321  1.00 20.00     0.044 C 
HETATM    4  C4  UNL     1     -33.974  15.745  -3.886  1.00 20.00    -0.011 C 
HETATM    5  C5  UNL     1     -34.720  14.820  -4.888  1.00 20.00     0.123 C 
HETATM    6  C6  UNL     1     -33.630  17.124  -4.466  1.00 20.00     0.018 C 
HETATM    7  C7  UNL     1     -34.739  15.951  -2.563  1.00 20.00     0.018 C 
ENDROOT
BRANCH   5   8
HETATM    8  C8  UNL     1     -36.197  15.129  -5.101  1.00 20.00     0.388 C 
HETATM    9  F10 UNL     1     -36.933  14.264  -4.370  1.00 20.00    -0.211 F 
HETATM   10  F11 UNL     1     -36.503  14.926  -6.400  1.00 20.00    -0.211 F 
ENDBRANCH   5   8
BRANCH   5  11
HETATM   11  O9  UNL     1     -34.073  14.888  -6.166  1.00 20.00    -0.383 OA
HETATM   12  H25 UNL     1     -34.360  15.719  -6.568  1.00 20.00     0.210 HD
ENDBRANCH   5  11
TORSDOF 2
ENDMDL
MODEL 8
REMARK VINA RESULT:      -4.4      2.286      3.254
REMARK  2 active torsions:
REMARK  status: ('A' for Active; 'I' for Inactive)
REMARK    1  A    between atoms: C5_5  and  C8_8 
REMARK    2  A    between atoms: C5_5  and  O9_9 
ROOT
HETATM    1  C1  UNL     1     -34.434  17.329  -5.339  1.00 20.00     0.004 C 
HETATM    2  C2  UNL     1     -35.745  16.603  -5.030  1.00 20.00     0.012 C 
HETATM    3  C3  UNL     1     -33.300  16.396  -4.903  1.00 20.00     0.044 C 
HETATM    4  C4  UNL     1     -35.377  15.488  -4.030  1.00 20.00    -0.011 C 
HETATM    5  C5  UNL     1     -33.976  15.063  -4.552  1.00 20.00     0.123 C 
HETATM    6  C6  UNL     1     -36.416  14.360  -4.077  1.00 20.00     0.018 C 
HETATM    7  C7  UNL     1     -35.344  16.061  -2.599  1.00 20.00     0.018 C 
ENDROOT
BRANCH   5   8
HETATM    8  C8  UNL     1     -33.142  14.218  -3.596  1.00 20.00     0.388 C 
HETATM    9  F10 UNL     1     -31.879  14.695  -3.582  1.00 20.00    -0.211 F 
HETATM   10  F11 UNL     1     -33.092  12.952  -4.062  1.00 20.00    -0.211 F 
ENDBRANCH   5   8
BRANCH   5  11
HETATM   11  O9  UNL     1     -34.131  14.318  -5.768  1.00 20.00    -0.383 OA
HETATM   12  H25 UNL     1     -34.241  13.394  -5.505  1.00 20.00     0.210 HD
ENDBRANCH   5  11
TORSDOF 2
ENDMDL
MODEL 9
REMARK VINA RESULT:      -4.3      2.181      3.148
REMARK  2 active torsions:
REMARK  status: ('A' for Active; 'I' for Inactive)
REMARK    1  A    between atoms: C5_5  and  C8_8 
REMARK    2  A    between atoms: C5_5  and  O9_9 
ROOT
HETATM    1  C1  UNL     1     -35.524  16.063  -2.395  1.00 20.00     0.004 C 
HETATM    2  C2  UNL     1     -33.997  15.997  -2.344  1.00 20.00     0.012 C 
HETATM    3  C3  UNL     1     -35.964  15.198  -3.580  1.00 20.00     0.044 C 
HETATM    4  C4  UNL     1     -33.557  15.484  -3.731  1.00 20.00    -0.011 C 
HETATM    5  C5  UNL     1     -34.695  14.477  -4.056  1.00 20.00     0.123 C 
HETATM    6  C6  UNL     1     -32.169  14.834  -3.648  1.00 20.00     0.018 C 
HETATM    7  C7  UNL     1     -33.484  16.662  -4.723  1.00 20.00     0.018 C 
ENDROOT
BRANCH   5   8
HETATM    8  C8  UNL     1     -34.787  14.030  -5.511  1.00 20.00     0.388 C 
HETATM    9  F10 UNL     1     -35.958  14.462  -6.026  1.00 20.00    -0.211 F 
HETATM   10  F11 UNL     1     -34.798  12.681  -5.553  1.00 20.00    -0.211 F 
ENDBRANCH   5   8
BRANCH   5  11
HETATM   11  O9  UNL     1     -34.531  13.302  -3.251  1.00 20.00    -0.383 OA
HETATM   12  H25 UNL     1     -35.288  13.282  -2.649  1.00 20.00     0.210 HD
ENDBRANCH   5  11
TORSDOF 2
ENDMDL
