MODEL 1
REMARK VINA RESULT:      -3.9      0.000      0.000
REMARK  1 active torsions:
REMARK  status: ('A' for Active; 'I' for Inactive)
REMARK    1  A    between atoms: C4_4  and  C7_7 
ROOT
HETATM    1  C1  UNL     1     -33.653  16.250  -2.722  1.00 20.00     0.040 C 
HETATM    2  C2  UNL     1     -32.949  15.254  -3.644  1.00 20.00     0.272 C 
HETATM    3  C3  UNL     1     -35.089  15.862  -2.400  1.00 20.00     0.078 C 
HETATM    4  C4  UNL     1     -34.983  14.617  -4.891  1.00 20.00     0.201 C 
HETATM    5  C5  UNL     1     -35.057  13.176  -4.363  1.00 20.00     0.061 C 
HETATM    6  N8  UNL     1     -33.603  15.123  -4.944  1.00 20.00     0.102 N 
HETATM    7  S9  UNL     1     -36.090  15.706  -3.907  1.00 20.00    -0.128 SA
HETATM    8  H24 UNL     1     -33.593  16.031  -5.410  1.00 20.00     0.317 HD
ENDROOT
BRANCH   4   9
HETATM    9  C7  UNL     1     -35.521  14.632  -6.333  1.00 20.00     0.048 C 
HETATM   10  C6  UNL     1     -34.461  15.023  -7.304  1.00 20.00     0.009 C 
ENDBRANCH   4   9
TORSDOF 1
ENDMDL
MODEL 2
REMARK VINA RESULT:      -3.9      1.682      3.616
REMARK  1 active torsions:
REMARK  status: ('A' for Active; 'I' for Inactive)
REMARK    1  A    between atoms: C4_4  and  C7_7 
ROOT
HETATM    1  C1  UNL     1     -35.279  13.367  -4.238  1.00 20.00     0.040 C 
HETATM    2  C2  UNL     1     -33.816  13.803  -4.308  1.00 20.00     0.272 C 
HETATM    3  C3  UNL     1     -36.260  14.522  -4.378  1.00 20.00     0.078 C 
HETATM    4  C4  UNL     1     -34.184  16.012  -3.267  1.00 20.00     0.201 C 
HETATM    5  C5  UNL     1     -33.878  16.841  -4.524  1.00 20.00     0.061 C 
HETATM    6  N8  UNL     1     -33.450  14.737  -3.245  1.00 20.00     0.102 N 
HETATM    7  S9  UNL     1     -35.999  15.777  -3.092  1.00 20.00    -0.128 SA
HETATM    8  H24 UNL     1     -33.591  14.281  -2.344  1.00 20.00     0.317 HD
ENDROOT
BRANCH   4   9
HETATM    9  C7  UNL     1     -33.725  16.813  -2.035  1.00 20.00     0.048 C 
HETATM   10  C6  UNL     1     -34.641  16.603  -0.879  1.00 20.00     0.009 C 
ENDBRANCH   4   9
TORSDOF 1
ENDMDL
MODEL 3
REMARK VINA RESULT:      -3.9      1.222      3.622
REMARK  1 active torsions:
REMARK  status: ('A' for Active; 'I' for Inactive)
REMARK    1  A    between atoms: C4_4  and  C7_7 
ROOT
HETATM    1  C1  UNL     1     -35.141  14.126  -6.293  1.00 20.00     0.040 C 
HETATM    2  C2  UNL     1     -34.696  13.305  -5.084  1.00 20.00     0.272 C 
HETATM    3  C3  UNL     1     -34.455  15.483  -6.386  1.00 20.00     0.078 C 
HETATM    4  C4  UNL     1     -34.309  15.249  -3.612  1.00 20.00     0.201 C 
HETATM    5  C5  UNL     1     -32.782  15.098  -3.535  1.00 20.00     0.061 C 
HETATM    6  N8  UNL     1     -34.990  13.961  -3.812  1.00 20.00     0.102 N 
HETATM    7  S9  UNL     1     -34.757  16.483  -4.901  1.00 20.00    -0.128 SA
HETATM    8  H24 UNL     1     -35.998  14.095  -3.736  1.00 20.00     0.317 HD
ENDROOT
BRANCH   4   9
HETATM    9  C7  UNL     1     -34.808  15.816  -2.271  1.00 20.00     0.048 C 
HETATM   10  C6  UNL     1     -33.849  16.808  -1.710  1.00 20.00     0.009 C 
ENDBRANCH   4   9
TORSDOF 1
ENDMDL
MODEL 4
REMARK VINA RESULT:      -3.8      1.872      3.793
REMARK  1 active torsions:
REMARK  status: ('A' for Active; 'I' for Inactive)
REMARK    1  A    between atoms: C4_4  and  C7_7 
ROOT
HETATM    1  C1  UNL     1     -37.275  15.427  -5.219  1.00 20.00     0.040 C 
HETATM    2  C2  UNL     1     -37.198  14.769  -3.842  1.00 20.00     0.272 C 
HETATM    3  C3  UNL     1     -35.972  15.343  -6.002  1.00 20.00     0.078 C 
HETATM    4  C4  UNL     1     -34.816  15.300  -3.466  1.00 20.00     0.201 C 
HETATM    5  C5  UNL     1     -34.310  13.850  -3.535  1.00 20.00     0.061 C 
HETATM    6  N8  UNL     1     -36.198  15.387  -2.973  1.00 20.00     0.102 N 
HETATM    7  S9  UNL     1     -34.602  16.121  -5.098  1.00 20.00    -0.128 SA
HETATM    8  H24 UNL     1     -36.446  16.367  -2.831  1.00 20.00     0.317 HD
ENDROOT
BRANCH   4   9
HETATM    9  C7  UNL     1     -33.935  16.072  -2.469  1.00 20.00     0.048 C 
HETATM   10  C6  UNL     1     -34.688  16.414  -1.230  1.00 20.00     0.009 C 
ENDBRANCH   4   9
TORSDOF 1
ENDMDL
MODEL 5
REMARK VINA RESULT:      -3.8      1.492      3.719
REMARK  1 active torsions:
REMARK  status: ('A' for Active; 'I' for Inactive)
REMARK    1  A    between atoms: C4_4  and  C7_7 
ROOT
HETATM    1  C1  UNL     1     -34.583  14.691  -6.376  1.00 20.00     0.040 C 
HETATM    2  C2  UNL     1     -35.115  16.044  -5.904  1.00 20.00     0.272 C 
HETATM    3  C3  UNL     1     -34.783  13.576  -5.358  1.00 20.00     0.078 C 
HETATM    4  C4  UNL     1     -34.635  15.659  -3.513  1.00 20.00     0.201 C 
HETATM    5  C5  UNL     1     -36.101  15.588  -3.059  1.00 20.00     0.061 C 
HETATM    6  N8  UNL     1     -34.456  16.521  -4.691  1.00 20.00     0.102 N 
HETATM    7  S9  UNL     1     -33.974  13.964  -3.780  1.00 20.00    -0.128 SA
HETATM    8  H24 UNL     1     -33.459  16.633  -4.880  1.00 20.00     0.317 HD
ENDROOT
BRANCH   4   9
HETATM    9  C7  UNL     1     -33.806  16.278  -2.374  1.00 20.00     0.048 C 
HETATM   10  C6  UNL     1     -34.628  16.478  -1.149  1.00 20.00     0.009 C 
ENDBRANCH   4   9
TORSDOF 1
ENDMDL
MODEL 6
REMARK VINA RESULT:      -3.7      2.070      3.368
REMARK  1 active torsions:
REMARK  status: ('A' for Active; 'I' for Inactive)
REMARK    1  A    between atoms: C4_4  and  C7_7 
ROOT
HETATM    1  C1  UNL     1     -35.258  13.604  -4.366  1.00 20.00     0.040 C 
HETATM    2  C2  UNL     1     -36.221  14.671  -3.846  1.00 20.00     0.272 C 
HETATM    3  C3  UNL     1     -33.919  13.595  -3.641  1.00 20.00     0.078 C 
HETATM    4  C4  UNL     1     -34.463  16.301  -3.256  1.00 20.00     0.201 C 
HETATM    5  C5  UNL     1     -34.664  16.219  -1.735  1.00 20.00     0.061 C 
HETATM    6  N8  UNL     1     -35.702  16.028  -4.000  1.00 20.00     0.102 N 
HETATM    7  S9  UNL     1     -33.082  15.201  -3.770  1.00 20.00    -0.128 SA
HETATM    8  H24 UNL     1     -35.548  16.212  -4.992  1.00 20.00     0.317 HD
ENDROOT
BRANCH   4   9
HETATM    9  C7  UNL     1     -34.034  17.736  -3.611  1.00 20.00     0.048 C 
HETATM   10  C6  UNL     1     -33.562  17.829  -5.020  1.00 20.00     0.009 C 
ENDBRANCH   4   9
TORSDOF 1
ENDMDL
MODEL 7
REMARK VINA RESULT:      -3.6      1.851      2.762
REMARK  1 active torsions:
REMARK  status: ('A' for Active; 'I' for Inactive)
REMARK    1  A    between atoms: C4_4  and  C7_7 
ROOT
HETATM    1  C1  UNL     1     -34.788  17.721  -5.797  1.00 20.00     0.040 C 
HETATM    2  C2  UNL     1     -33.389  17.382  -5.283  1.00 20.00     0.272 C 
HETATM    3  C3  UNL     1     -35.888  17.429  -4.786  1.00 20.00     0.078 C 
HETATM    4  C4  UNL     1     -34.110  15.482  -3.881  1.00 20.00     0.201 C 
HETATM    5  C5  UNL     1     -33.804  16.147  -2.530  1.00 20.00     0.061 C 
HETATM    6  N8  UNL     1     -33.231  15.967  -4.955  1.00 20.00     0.102 N 
HETATM    7  S9  UNL     1     -35.892  15.682  -4.292  1.00 20.00    -0.128 SA
HETATM    8  H24 UNL     1     -33.390  15.414  -5.798  1.00 20.00     0.317 HD
ENDROOT
BRANCH   4   9
HETATM    9  C7  UNL     1     -33.859  13.970  -3.744  1.00 20.00     0.048 C 
HETATM   10  C6  UNL     1     -34.961  13.178  -4.359  1.00 20.00     0.009 C 
ENDBRANCH   4   9
TORSDOF 1
ENDMDL
MODEL 8
REMARK VINA RESULT:      -3.6     11.690     12.976
REMARK  1 active torsions:
REMARK  status: ('A' for Active; 'I' for Inactive)
REMARK    1  A    between atoms: C4_4  and  C7_7 
ROOT
HETATM    1  C1  UNL     1     -41.145   7.157  -0.895  1.00 20.00     0.040 C 
HETATM    2  C2  UNL     1     -40.741   5.857  -0.202  1.00 20.00     0.272 C 
HETATM    3  C3  UNL     1     -42.532   7.101  -1.521  1.00 20.00     0.078 C 
HETATM    4  C4  UNL     1     -41.981   4.378  -1.742  1.00 20.00     0.201 C 
HETATM    5  C5  UNL     1     -43.026   3.910  -0.717  1.00 20.00     0.061 C 
HETATM    6  N8  UNL     1     -40.695   4.717  -1.114  1.00 20.00     0.102 N 
HETATM    7  S9  UNL     1     -42.657   5.765  -2.743  1.00 20.00    -0.128 SA
HETATM    8  H24 UNL     1     -40.003   4.904  -1.841  1.00 20.00     0.317 HD
ENDROOT
BRANCH   4   9
HETATM    9  C7  UNL     1     -41.711   3.222  -2.720  1.00 20.00     0.048 C 
HETATM   10  C6  UNL     1     -42.813   2.220  -2.695  1.00 20.00     0.009 C 
ENDBRANCH   4   9
TORSDOF 1
ENDMDL
MODEL 9
REMARK VINA RESULT:      -3.5      1.649      2.403
REMARK  1 active torsions:
REMARK  status: ('A' for Active; 'I' for Inactive)
REMARK    1  A    between atoms: C4_4  and  C7_7 
ROOT
HETATM    1  C1  UNL     1     -33.112  15.228  -3.532  1.00 20.00     0.040 C 
HETATM    2  C2  UNL     1     -33.446  16.235  -4.631  1.00 20.00     0.272 C 
HETATM    3  C3  UNL     1     -33.473  13.794  -3.898  1.00 20.00     0.078 C 
HETATM    4  C4  UNL     1     -35.424  15.017  -5.468  1.00 20.00     0.201 C 
HETATM    5  C5  UNL     1     -34.818  14.629  -6.825  1.00 20.00     0.061 C 
HETATM    6  N8  UNL     1     -34.872  16.277  -4.949  1.00 20.00     0.102 N 
HETATM    7  S9  UNL     1     -35.242  13.630  -4.275  1.00 20.00    -0.128 SA
HETATM    8  H24 UNL     1     -35.387  16.554  -4.113  1.00 20.00     0.317 HD
ENDROOT
BRANCH   4   9
HETATM    9  C7  UNL     1     -36.936  15.236  -5.658  1.00 20.00     0.048 C 
HETATM   10  C6  UNL     1     -37.688  14.948  -4.405  1.00 20.00     0.009 C 
ENDBRANCH   4   9
TORSDOF 1
ENDMDL
