MODEL 1
REMARK VINA RESULT:      -4.3      0.000      0.000
REMARK  1 active torsions:
REMARK  status: ('A' for Active; 'I' for Inactive)
REMARK    1  A    between atoms: C3_3  and  C8_8 
ROOT
HETATM    1  C1  UNL     1     -36.270  14.866  -5.692  1.00 20.00     0.111 C 
HETATM    2  C2  UNL     1     -34.951  14.481  -6.356  1.00 20.00     0.227 C 
HETATM    3  C3  UNL     1     -34.111  14.892  -4.165  1.00 20.00     0.205 C 
HETATM    4  C4  UNL     1     -34.914  14.920  -7.816  1.00 20.00     0.043 C 
HETATM    5  C5  UNL     1     -33.429  13.592  -3.724  1.00 20.00     0.062 C 
HETATM    6  N9  UNL     1     -33.864  15.130  -5.600  1.00 20.00     0.108 N 
HETATM    7  S10 UNL     1     -35.918  14.742  -3.926  1.00 20.00    -0.126 SA
HETATM    8  H27 UNL     1     -32.960  14.760  -5.886  1.00 20.00     0.318 HD
ENDROOT
BRANCH   3   9
HETATM    9  C8  UNL     1     -33.587  16.071  -3.341  1.00 20.00     0.026 C 
HETATM   10  C6  UNL     1     -33.691  17.369  -4.138  1.00 20.00     0.013 C 
HETATM   11  C7  UNL     1     -34.349  16.183  -2.024  1.00 20.00     0.013 C 
ENDBRANCH   3   9
TORSDOF 1
ENDMDL
MODEL 2
REMARK VINA RESULT:      -4.2      1.892      4.044
REMARK  1 active torsions:
REMARK  status: ('A' for Active; 'I' for Inactive)
REMARK    1  A    between atoms: C3_3  and  C8_8 
ROOT
HETATM    1  C1  UNL     1     -34.147  17.904  -2.719  1.00 20.00     0.111 C 
HETATM    2  C2  UNL     1     -33.992  16.753  -1.729  1.00 20.00     0.227 C 
HETATM    3  C3  UNL     1     -33.948  15.472  -3.737  1.00 20.00     0.205 C 
HETATM    4  C4  UNL     1     -34.746  17.027  -0.433  1.00 20.00     0.043 C 
HETATM    5  C5  UNL     1     -32.621  14.706  -3.720  1.00 20.00     0.062 C 
HETATM    6  N9  UNL     1     -34.513  15.534  -2.376  1.00 20.00     0.108 N 
HETATM    7  S10 UNL     1     -33.652  17.187  -4.300  1.00 20.00    -0.126 SA
HETATM    8  H27 UNL     1     -34.264  14.709  -1.835  1.00 20.00     0.318 HD
ENDROOT
BRANCH   3   9
HETATM    9  C8  UNL     1     -34.940  14.792  -4.685  1.00 20.00     0.026 C 
HETATM   10  C6  UNL     1     -34.486  14.944  -6.134  1.00 20.00     0.013 C 
HETATM   11  C7  UNL     1     -35.101  13.318  -4.321  1.00 20.00     0.013 C 
ENDBRANCH   3   9
TORSDOF 1
ENDMDL
MODEL 3
REMARK VINA RESULT:      -4.1      1.555      3.940
REMARK  1 active torsions:
REMARK  status: ('A' for Active; 'I' for Inactive)
REMARK    1  A    between atoms: C3_3  and  C8_8 
ROOT
HETATM    1  C1  UNL     1     -36.122  16.829  -2.874  1.00 20.00     0.111 C 
HETATM    2  C2  UNL     1     -34.683  16.780  -2.369  1.00 20.00     0.227 C 
HETATM    3  C3  UNL     1     -34.325  15.755  -4.489  1.00 20.00     0.205 C 
HETATM    4  C4  UNL     1     -34.629  16.585  -0.857  1.00 20.00     0.043 C 
HETATM    5  C5  UNL     1     -33.277  16.615  -5.203  1.00 20.00     0.062 C 
HETATM    6  N9  UNL     1     -34.008  15.660  -3.052  1.00 20.00     0.108 N 
HETATM    7  S10 UNL     1     -35.968  16.542  -4.650  1.00 20.00    -0.126 SA
HETATM    8  H27 UNL     1     -33.004  15.698  -2.892  1.00 20.00     0.318 HD
ENDROOT
BRANCH   3   9
HETATM    9  C8  UNL     1     -34.371  14.355  -5.108  1.00 20.00     0.026 C 
HETATM   10  C6  UNL     1     -35.116  13.389  -4.191  1.00 20.00     0.013 C 
HETATM   11  C7  UNL     1     -35.024  14.402  -6.487  1.00 20.00     0.013 C 
ENDBRANCH   3   9
TORSDOF 1
ENDMDL
MODEL 4
REMARK VINA RESULT:      -4.1     12.617     13.365
REMARK  1 active torsions:
REMARK  status: ('A' for Active; 'I' for Inactive)
REMARK    1  A    between atoms: C3_3  and  C8_8 
ROOT
HETATM    1  C1  UNL     1     -43.136   3.782  -3.424  1.00 20.00     0.111 C 
HETATM    2  C2  UNL     1     -42.213   2.838  -2.659  1.00 20.00     0.227 C 
HETATM    3  C3  UNL     1     -41.917   4.769  -1.296  1.00 20.00     0.205 C 
HETATM    4  C4  UNL     1     -41.529   1.846  -3.594  1.00 20.00     0.043 C 
HETATM    5  C5  UNL     1     -42.322   4.353   0.122  1.00 20.00     0.062 C 
HETATM    6  N9  UNL     1     -41.207   3.663  -1.965  1.00 20.00     0.108 N 
HETATM    7  S10 UNL     1     -43.417   5.143  -2.272  1.00 20.00    -0.126 SA
HETATM    8  H27 UNL     1     -40.685   3.101  -1.295  1.00 20.00     0.318 HD
ENDROOT
BRANCH   3   9
HETATM    9  C8  UNL     1     -41.022   6.011  -1.247  1.00 20.00     0.026 C 
HETATM   10  C6  UNL     1     -41.766   7.228  -1.791  1.00 20.00     0.013 C 
HETATM   11  C7  UNL     1     -40.539   6.266   0.178  1.00 20.00     0.013 C 
ENDBRANCH   3   9
TORSDOF 1
ENDMDL
MODEL 5
REMARK VINA RESULT:      -4.0      2.363      3.419
REMARK  1 active torsions:
REMARK  status: ('A' for Active; 'I' for Inactive)
REMARK    1  A    between atoms: C3_3  and  C8_8 
ROOT
HETATM    1  C1  UNL     1     -36.726  16.812  -4.772  1.00 20.00     0.111 C 
HETATM    2  C2  UNL     1     -37.387  16.299  -3.497  1.00 20.00     0.227 C 
HETATM    3  C3  UNL     1     -35.152  15.639  -3.000  1.00 20.00     0.205 C 
HETATM    4  C4  UNL     1     -38.808  15.814  -3.761  1.00 20.00     0.043 C 
HETATM    5  C5  UNL     1     -34.795  16.320  -1.675  1.00 20.00     0.062 C 
HETATM    6  N9  UNL     1     -36.558  15.194  -2.977  1.00 20.00     0.108 N 
HETATM    7  S10 UNL     1     -34.966  16.837  -4.369  1.00 20.00    -0.126 SA
HETATM    8  H27 UNL     1     -36.851  14.942  -2.035  1.00 20.00     0.318 HD
ENDROOT
BRANCH   3   9
HETATM    9  C8  UNL     1     -34.230  14.442  -3.246  1.00 20.00     0.026 C 
HETATM   10  C6  UNL     1     -34.845  13.493  -4.272  1.00 20.00     0.013 C 
HETATM   11  C7  UNL     1     -32.853  14.914  -3.705  1.00 20.00     0.013 C 
ENDBRANCH   3   9
TORSDOF 1
ENDMDL
MODEL 6
REMARK VINA RESULT:      -3.9      1.431      2.026
REMARK  1 active torsions:
REMARK  status: ('A' for Active; 'I' for Inactive)
REMARK    1  A    between atoms: C3_3  and  C8_8 
ROOT
HETATM    1  C1  UNL     1     -34.739  13.298  -5.322  1.00 20.00     0.111 C 
HETATM    2  C2  UNL     1     -34.821  14.630  -6.063  1.00 20.00     0.227 C 
HETATM    3  C3  UNL     1     -34.587  15.493  -3.855  1.00 20.00     0.205 C 
HETATM    4  C4  UNL     1     -35.732  14.535  -7.282  1.00 20.00     0.043 C 
HETATM    5  C5  UNL     1     -33.341  16.385  -3.880  1.00 20.00     0.062 C 
HETATM    6  N9  UNL     1     -35.337  15.636  -5.117  1.00 20.00     0.108 N 
HETATM    7  S10 UNL     1     -34.078  13.743  -3.703  1.00 20.00    -0.126 SA
HETATM    8  H27 UNL     1     -35.236  16.573  -5.502  1.00 20.00     0.318 HD
ENDROOT
BRANCH   3   9
HETATM    9  C8  UNL     1     -35.481  15.865  -2.670  1.00 20.00     0.026 C 
HETATM   10  C6  UNL     1     -34.638  16.368  -1.500  1.00 20.00     0.013 C 
HETATM   11  C7  UNL     1     -36.509  16.914  -3.085  1.00 20.00     0.013 C 
ENDBRANCH   3   9
TORSDOF 1
ENDMDL
MODEL 7
REMARK VINA RESULT:      -3.8      1.567      1.964
REMARK  1 active torsions:
REMARK  status: ('A' for Active; 'I' for Inactive)
REMARK    1  A    between atoms: C3_3  and  C8_8 
ROOT
HETATM    1  C1  UNL     1     -35.291  16.684  -6.372  1.00 20.00     0.111 C 
HETATM    2  C2  UNL     1     -35.775  15.242  -6.483  1.00 20.00     0.227 C 
HETATM    3  C3  UNL     1     -35.553  15.334  -4.113  1.00 20.00     0.205 C 
HETATM    4  C4  UNL     1     -35.275  14.583  -7.765  1.00 20.00     0.043 C 
HETATM    5  C5  UNL     1     -36.934  14.988  -3.546  1.00 20.00     0.062 C 
HETATM    6  N9  UNL     1     -35.275  14.510  -5.304  1.00 20.00     0.108 N 
HETATM    7  S10 UNL     1     -35.531  17.089  -4.629  1.00 20.00    -0.126 SA
HETATM    8  H27 UNL     1     -35.721  13.598  -5.235  1.00 20.00     0.318 HD
ENDROOT
BRANCH   3   9
HETATM    9  C8  UNL     1     -34.472  15.104  -3.053  1.00 20.00     0.026 C 
HETATM   10  C6  UNL     1     -33.082  15.204  -3.677  1.00 20.00     0.013 C 
HETATM   11  C7  UNL     1     -34.624  16.104  -1.910  1.00 20.00     0.013 C 
ENDBRANCH   3   9
TORSDOF 1
ENDMDL
MODEL 8
REMARK VINA RESULT:      -3.8      1.835      2.205
REMARK  1 active torsions:
REMARK  status: ('A' for Active; 'I' for Inactive)
REMARK    1  A    between atoms: C3_3  and  C8_8 
ROOT
HETATM    1  C1  UNL     1     -35.623  13.834  -4.180  1.00 20.00     0.111 C 
HETATM    2  C2  UNL     1     -36.073  15.086  -4.927  1.00 20.00     0.227 C 
HETATM    3  C3  UNL     1     -34.135  16.000  -3.885  1.00 20.00     0.205 C 
HETATM    4  C4  UNL     1     -37.592  15.158  -5.031  1.00 20.00     0.043 C 
HETATM    5  C5  UNL     1     -33.250  16.522  -5.022  1.00 20.00     0.062 C 
HETATM    6  N9  UNL     1     -35.555  16.255  -4.192  1.00 20.00     0.108 N 
HETATM    7  S10 UNL     1     -33.913  14.191  -3.724  1.00 20.00    -0.126 SA
HETATM    8  H27 UNL     1     -35.667  17.102  -4.744  1.00 20.00     0.318 HD
ENDROOT
BRANCH   3   9
HETATM    9  C8  UNL     1     -33.755  16.676  -2.565  1.00 20.00     0.026 C 
HETATM   10  C6  UNL     1     -33.735  18.194  -2.728  1.00 20.00     0.013 C 
HETATM   11  C7  UNL     1     -34.719  16.264  -1.457  1.00 20.00     0.013 C 
ENDBRANCH   3   9
TORSDOF 1
ENDMDL
MODEL 9
REMARK VINA RESULT:      -3.7      1.976      3.175
REMARK  1 active torsions:
REMARK  status: ('A' for Active; 'I' for Inactive)
REMARK    1  A    between atoms: C3_3  and  C8_8 
ROOT
HETATM    1  C1  UNL     1     -33.788  17.617  -3.534  1.00 20.00     0.111 C 
HETATM    2  C2  UNL     1     -34.647  17.386  -4.773  1.00 20.00     0.227 C 
HETATM    3  C3  UNL     1     -35.028  15.289  -3.709  1.00 20.00     0.205 C 
HETATM    4  C4  UNL     1     -34.061  18.083  -5.996  1.00 20.00     0.043 C 
HETATM    5  C5  UNL     1     -36.546  15.177  -3.527  1.00 20.00     0.062 C 
HETATM    6  N9  UNL     1     -34.720  15.931  -5.001  1.00 20.00     0.108 N 
HETATM    7  S10 UNL     1     -34.333  16.339  -2.382  1.00 20.00    -0.126 SA
HETATM    8  H27 UNL     1     -35.428  15.714  -5.699  1.00 20.00     0.318 HD
ENDROOT
BRANCH   3   9
HETATM    9  C8  UNL     1     -34.384  13.901  -3.647  1.00 20.00     0.026 C 
HETATM   10  C6  UNL     1     -34.768  13.078  -4.874  1.00 20.00     0.013 C 
HETATM   11  C7  UNL     1     -32.867  14.022  -3.531  1.00 20.00     0.013 C 
ENDBRANCH   3   9
TORSDOF 1
ENDMDL
