MODEL 1
REMARK VINA RESULT:      -4.1      0.000      0.000
REMARK  4 active torsions:
REMARK  status: ('A' for Active; 'I' for Inactive)
REMARK    1  A    between atoms: C5_5  and  C6_6 
REMARK    2  A    between atoms: C5_5  and  C8_8 
REMARK    3  A    between atoms: C6_6  and  C7_7 
REMARK    4  A    between atoms: C6_6  and  N9_9 
ROOT
HETATM    1  C6  UNL     1     -33.442  15.465  -3.885  1.00 20.00     0.285 C 
ENDROOT
BRANCH   1   2
HETATM    2  C5  UNL     1     -34.787  16.143  -3.545  1.00 20.00     0.049 C 
BRANCH   2   3
HETATM    3  C8  UNL     1     -34.822  17.162  -2.367  1.00 20.00    -0.049 C 
HETATM    4  C1  UNL     1     -33.776  18.272  -2.562  1.00 20.00     0.014 C 
HETATM    5  C2  UNL     1     -36.222  17.813  -2.352  1.00 20.00     0.014 C 
HETATM    6  C3  UNL     1     -34.599  16.494  -1.001  1.00 20.00     0.014 C 
ENDBRANCH   2   3
ENDBRANCH   1   2
BRANCH   1   7
HETATM    7  C7  UNL     1     -33.614  13.949  -3.985  1.00 20.00     0.386 C 
HETATM    8  F10 UNL     1     -32.509  13.313  -3.519  1.00 20.00    -0.212 F 
HETATM    9  F11 UNL     1     -34.652  13.552  -3.206  1.00 20.00    -0.212 F 
ENDBRANCH   1   7
BRANCH   1  10
HETATM   10  N9  UNL     1     -32.894  15.954  -5.147  1.00 20.00     0.089 N 
HETATM   11  C4  UNL     1     -33.961  16.301  -6.073  1.00 20.00     0.307 C 
HETATM   12  H28 UNL     1     -32.312  15.227  -5.559  1.00 20.00     0.316 HD
ENDBRANCH   1  10
TORSDOF 4
ENDMDL
MODEL 2
REMARK VINA RESULT:      -4.0     11.646     12.842
REMARK  4 active torsions:
REMARK  status: ('A' for Active; 'I' for Inactive)
REMARK    1  A    between atoms: C5_5  and  C6_6 
REMARK    2  A    between atoms: C5_5  and  C8_8 
REMARK    3  A    between atoms: C6_6  and  C7_7 
REMARK    4  A    between atoms: C6_6  and  N9_9 
ROOT
HETATM    1  C6  UNL     1     -33.958   5.581   4.877  1.00 20.00     0.285 C 
ENDROOT
BRANCH   1   2
HETATM    2  C5  UNL     1     -33.736   6.900   4.104  1.00 20.00     0.049 C 
BRANCH   2   3
HETATM    3  C8  UNL     1     -32.388   7.092   3.347  1.00 20.00    -0.049 C 
HETATM    4  C1  UNL     1     -31.307   7.668   4.277  1.00 20.00     0.014 C 
HETATM    5  C2  UNL     1     -31.920   5.702   2.864  1.00 20.00     0.014 C 
HETATM    6  C3  UNL     1     -32.526   7.998   2.114  1.00 20.00     0.014 C 
ENDBRANCH   2   3
ENDBRANCH   1   2
BRANCH   1   7
HETATM    7  C7  UNL     1     -34.107   5.853   6.374  1.00 20.00     0.386 C 
HETATM    8  F10 UNL     1     -34.115   7.187   6.617  1.00 20.00    -0.212 F 
HETATM    9  F11 UNL     1     -35.297   5.367   6.812  1.00 20.00    -0.212 F 
ENDBRANCH   1   7
BRANCH   1  10
HETATM   10  N9  UNL     1     -35.151   4.877   4.413  1.00 20.00     0.089 N 
HETATM   11  C4  UNL     1     -35.905   5.700   3.480  1.00 20.00     0.307 C 
HETATM   12  H28 UNL     1     -35.736   4.652   5.215  1.00 20.00     0.316 HD
ENDBRANCH   1  10
TORSDOF 4
ENDMDL
MODEL 3
REMARK VINA RESULT:      -4.0      0.906      1.580
REMARK  4 active torsions:
REMARK  status: ('A' for Active; 'I' for Inactive)
REMARK    1  A    between atoms: C5_5  and  C6_6 
REMARK    2  A    between atoms: C5_5  and  C8_8 
REMARK    3  A    between atoms: C6_6  and  C7_7 
REMARK    4  A    between atoms: C6_6  and  N9_9 
ROOT
HETATM    1  C6  UNL     1     -33.856  15.182  -4.589  1.00 20.00     0.285 C 
ENDROOT
BRANCH   1   2
HETATM    2  C5  UNL     1     -35.141  15.835  -4.034  1.00 20.00     0.049 C 
BRANCH   2   3
HETATM    3  C8  UNL     1     -34.999  16.895  -2.902  1.00 20.00    -0.049 C 
HETATM    4  C1  UNL     1     -34.630  16.232  -1.564  1.00 20.00     0.014 C 
HETATM    5  C2  UNL     1     -33.854  17.853  -3.298  1.00 20.00     0.014 C 
HETATM    6  C3  UNL     1     -36.272  17.734  -2.714  1.00 20.00     0.014 C 
ENDBRANCH   2   3
ENDBRANCH   1   2
BRANCH   1   7
HETATM    7  C7  UNL     1     -33.831  13.687  -4.272  1.00 20.00     0.386 C 
HETATM    8  F10 UNL     1     -32.698  13.362  -3.600  1.00 20.00    -0.212 F 
HETATM    9  F11 UNL     1     -34.872  13.373  -3.459  1.00 20.00    -0.212 F 
ENDBRANCH   1   7
BRANCH   1  10
HETATM   10  N9  UNL     1     -33.747  15.350  -6.036  1.00 20.00     0.089 N 
HETATM   11  C4  UNL     1     -34.814  14.636  -6.721  1.00 20.00     0.307 C 
HETATM   12  H28 UNL     1     -32.846  14.989  -6.344  1.00 20.00     0.316 HD
ENDBRANCH   1  10
TORSDOF 4
ENDMDL
MODEL 4
REMARK VINA RESULT:      -4.0      1.527      3.669
REMARK  4 active torsions:
REMARK  status: ('A' for Active; 'I' for Inactive)
REMARK    1  A    between atoms: C5_5  and  C6_6 
REMARK    2  A    between atoms: C5_5  and  C8_8 
REMARK    3  A    between atoms: C6_6  and  C7_7 
REMARK    4  A    between atoms: C6_6  and  N9_9 
ROOT
HETATM    1  C6  UNL     1     -34.273  15.149  -3.972  1.00 20.00     0.285 C 
ENDROOT
BRANCH   1   2
HETATM    2  C5  UNL     1     -33.729  15.651  -5.327  1.00 20.00     0.049 C 
BRANCH   2   3
HETATM    3  C8  UNL     1     -34.751  15.975  -6.457  1.00 20.00    -0.049 C 
HETATM    4  C1  UNL     1     -34.714  14.904  -7.561  1.00 20.00     0.014 C 
HETATM    5  C2  UNL     1     -36.161  15.972  -5.828  1.00 20.00     0.014 C 
HETATM    6  C3  UNL     1     -34.518  17.357  -7.088  1.00 20.00     0.014 C 
ENDBRANCH   2   3
ENDBRANCH   1   2
BRANCH   1   7
HETATM    7  C7  UNL     1     -33.998  13.655  -3.801  1.00 20.00     0.386 C 
HETATM    8  F10 UNL     1     -34.355  12.975  -4.919  1.00 20.00    -0.212 F 
HETATM    9  F11 UNL     1     -32.668  13.450  -3.627  1.00 20.00    -0.212 F 
ENDBRANCH   1   7
BRANCH   1  10
HETATM   10  N9  UNL     1     -33.669  15.862  -2.849  1.00 20.00     0.089 N 
HETATM   11  C4  UNL     1     -34.672  16.192  -1.848  1.00 20.00     0.307 C 
HETATM   12  H28 UNL     1     -33.241  16.719  -3.193  1.00 20.00     0.316 HD
ENDBRANCH   1  10
TORSDOF 4
ENDMDL
MODEL 5
REMARK VINA RESULT:      -4.0      2.499      3.335
REMARK  4 active torsions:
REMARK  status: ('A' for Active; 'I' for Inactive)
REMARK    1  A    between atoms: C5_5  and  C6_6 
REMARK    2  A    between atoms: C5_5  and  C8_8 
REMARK    3  A    between atoms: C6_6  and  C7_7 
REMARK    4  A    between atoms: C6_6  and  N9_9 
ROOT
HETATM    1  C6  UNL     1     -35.781  15.252  -5.281  1.00 20.00     0.285 C 
ENDROOT
BRANCH   1   2
HETATM    2  C5  UNL     1     -35.181  15.066  -3.871  1.00 20.00     0.049 C 
BRANCH   2   3
HETATM    3  C8  UNL     1     -33.881  15.847  -3.515  1.00 20.00    -0.049 C 
HETATM    4  C1  UNL     1     -33.950  16.418  -2.089  1.00 20.00     0.014 C 
HETATM    5  C2  UNL     1     -32.703  14.849  -3.580  1.00 20.00     0.014 C 
HETATM    6  C3  UNL     1     -33.587  16.988  -4.502  1.00 20.00     0.014 C 
ENDBRANCH   2   3
ENDBRANCH   1   2
BRANCH   1   7
HETATM    7  C7  UNL     1     -35.245  14.189  -6.240  1.00 20.00     0.386 C 
HETATM    8  F10 UNL     1     -34.132  14.637  -6.873  1.00 20.00    -0.212 F 
HETATM    9  F11 UNL     1     -34.880  13.084  -5.542  1.00 20.00    -0.212 F 
ENDBRANCH   1   7
BRANCH   1  10
HETATM   10  N9  UNL     1     -37.240  15.166  -5.263  1.00 20.00     0.089 N 
HETATM   11  C4  UNL     1     -37.717  14.783  -3.943  1.00 20.00     0.307 C 
HETATM   12  H28 UNL     1     -37.539  14.472  -5.945  1.00 20.00     0.316 HD
ENDBRANCH   1  10
TORSDOF 4
ENDMDL
MODEL 6
REMARK VINA RESULT:      -4.0      2.658      4.289
REMARK  4 active torsions:
REMARK  status: ('A' for Active; 'I' for Inactive)
REMARK    1  A    between atoms: C5_5  and  C6_6 
REMARK    2  A    between atoms: C5_5  and  C8_8 
REMARK    3  A    between atoms: C6_6  and  C7_7 
REMARK    4  A    between atoms: C6_6  and  N9_9 
ROOT
HETATM    1  C6  UNL     1     -34.296  16.396  -2.059  1.00 20.00     0.285 C 
ENDROOT
BRANCH   1   2
HETATM    2  C5  UNL     1     -35.072  15.443  -2.994  1.00 20.00     0.049 C 
BRANCH   2   3
HETATM    3  C8  UNL     1     -34.272  14.658  -4.075  1.00 20.00    -0.049 C 
HETATM    4  C1  UNL     1     -32.810  14.452  -3.643  1.00 20.00     0.014 C 
HETATM    5  C2  UNL     1     -34.931  13.269  -4.229  1.00 20.00     0.014 C 
HETATM    6  C3  UNL     1     -34.298  15.347  -5.449  1.00 20.00     0.014 C 
ENDBRANCH   2   3
ENDBRANCH   1   2
BRANCH   1   7
HETATM    7  C7  UNL     1     -34.285  17.816  -2.624  1.00 20.00     0.386 C 
HETATM    8  F10 UNL     1     -33.359  17.929  -3.609  1.00 20.00    -0.212 F 
HETATM    9  F11 UNL     1     -35.489  18.097  -3.184  1.00 20.00    -0.212 F 
ENDBRANCH   1   7
BRANCH   1  10
HETATM   10  N9  UNL     1     -34.881  16.434  -0.720  1.00 20.00     0.089 N 
HETATM   11  C4  UNL     1     -34.409  17.597   0.016  1.00 20.00     0.307 C 
HETATM   12  H28 UNL     1     -34.619  15.588  -0.220  1.00 20.00     0.316 HD
ENDBRANCH   1  10
TORSDOF 4
ENDMDL
MODEL 7
REMARK VINA RESULT:      -3.9      1.926      3.657
REMARK  4 active torsions:
REMARK  status: ('A' for Active; 'I' for Inactive)
REMARK    1  A    between atoms: C5_5  and  C6_6 
REMARK    2  A    between atoms: C5_5  and  C8_8 
REMARK    3  A    between atoms: C6_6  and  C7_7 
REMARK    4  A    between atoms: C6_6  and  N9_9 
ROOT
HETATM    1  C6  UNL     1     -34.221  16.653  -4.160  1.00 20.00     0.285 C 
ENDROOT
BRANCH   1   2
HETATM    2  C5  UNL     1     -33.944  15.726  -5.363  1.00 20.00     0.049 C 
BRANCH   2   3
HETATM    3  C8  UNL     1     -35.032  14.682  -5.755  1.00 20.00    -0.049 C 
HETATM    4  C1  UNL     1     -34.768  13.325  -5.081  1.00 20.00     0.014 C 
HETATM    5  C2  UNL     1     -36.393  15.214  -5.255  1.00 20.00     0.014 C 
HETATM    6  C3  UNL     1     -35.136  14.478  -7.275  1.00 20.00     0.014 C 
ENDBRANCH   2   3
ENDBRANCH   1   2
BRANCH   1   7
HETATM    7  C7  UNL     1     -33.613  16.075  -2.882  1.00 20.00     0.386 C 
HETATM    8  F10 UNL     1     -34.561  15.434  -2.153  1.00 20.00    -0.212 F 
HETATM    9  F11 UNL     1     -32.672  15.150  -3.200  1.00 20.00    -0.212 F 
ENDBRANCH   1   7
BRANCH   1  10
HETATM   10  N9  UNL     1     -33.671  17.991  -4.371  1.00 20.00     0.089 N 
HETATM   11  C4  UNL     1     -33.640  18.318  -5.788  1.00 20.00     0.307 C 
HETATM   12  H28 UNL     1     -32.726  18.022  -3.996  1.00 20.00     0.316 HD
ENDBRANCH   1  10
TORSDOF 4
ENDMDL
MODEL 8
REMARK VINA RESULT:      -3.9      1.753      2.166
REMARK  4 active torsions:
REMARK  status: ('A' for Active; 'I' for Inactive)
REMARK    1  A    between atoms: C5_5  and  C6_6 
REMARK    2  A    between atoms: C5_5  and  C8_8 
REMARK    3  A    between atoms: C6_6  and  C7_7 
REMARK    4  A    between atoms: C6_6  and  N9_9 
ROOT
HETATM    1  C6  UNL     1     -34.773  15.588  -3.553  1.00 20.00     0.285 C 
ENDROOT
BRANCH   1   2
HETATM    2  C5  UNL     1     -34.600  15.783  -2.031  1.00 20.00     0.049 C 
BRANCH   2   3
HETATM    3  C8  UNL     1     -34.794  17.213  -1.445  1.00 20.00    -0.049 C 
HETATM    4  C1  UNL     1     -33.681  18.163  -1.918  1.00 20.00     0.014 C 
HETATM    5  C2  UNL     1     -36.144  17.753  -1.966  1.00 20.00     0.014 C 
HETATM    6  C3  UNL     1     -34.844  17.221   0.091  1.00 20.00     0.014 C 
ENDBRANCH   2   3
ENDBRANCH   1   2
BRANCH   1   7
HETATM    7  C7  UNL     1     -33.432  15.268  -4.212  1.00 20.00     0.386 C 
HETATM    8  F10 UNL     1     -33.005  16.319  -4.956  1.00 20.00    -0.212 F 
HETATM    9  F11 UNL     1     -32.490  15.057  -3.257  1.00 20.00    -0.212 F 
ENDBRANCH   1   7
BRANCH   1  10
HETATM   10  N9  UNL     1     -35.708  14.506  -3.856  1.00 20.00     0.089 N 
HETATM   11  C4  UNL     1     -35.013  13.379  -4.461  1.00 20.00     0.307 C 
HETATM   12  H28 UNL     1     -36.416  14.851  -4.500  1.00 20.00     0.316 HD
ENDBRANCH   1  10
TORSDOF 4
ENDMDL
MODEL 9
REMARK VINA RESULT:      -3.9      2.299      3.716
REMARK  4 active torsions:
REMARK  status: ('A' for Active; 'I' for Inactive)
REMARK    1  A    between atoms: C5_5  and  C6_6 
REMARK    2  A    between atoms: C5_5  and  C8_8 
REMARK    3  A    between atoms: C6_6  and  C7_7 
REMARK    4  A    between atoms: C6_6  and  N9_9 
ROOT
HETATM    1  C6  UNL     1     -34.289  17.230  -2.823  1.00 20.00     0.285 C 
ENDROOT
BRANCH   1   2
HETATM    2  C5  UNL     1     -33.516  16.000  -3.346  1.00 20.00     0.049 C 
BRANCH   2   3
HETATM    3  C8  UNL     1     -34.312  14.897  -4.104  1.00 20.00    -0.049 C 
HETATM    4  C1  UNL     1     -34.276  15.131  -5.623  1.00 20.00     0.014 C 
HETATM    5  C2  UNL     1     -33.633  13.542  -3.807  1.00 20.00     0.014 C 
HETATM    6  C3  UNL     1     -35.775  14.801  -3.643  1.00 20.00     0.014 C 
ENDBRANCH   2   3
ENDBRANCH   1   2
BRANCH   1   7
HETATM    7  C7  UNL     1     -34.328  17.233  -1.295  1.00 20.00     0.386 C 
HETATM    8  F10 UNL     1     -34.716  16.020  -0.826  1.00 20.00    -0.212 F 
HETATM    9  F11 UNL     1     -33.083  17.461  -0.805  1.00 20.00    -0.212 F 
ENDBRANCH   1   7
BRANCH   1  10
HETATM   10  N9  UNL     1     -33.683  18.481  -3.273  1.00 20.00     0.089 N 
HETATM   11  C4  UNL     1     -33.691  18.564  -4.726  1.00 20.00     0.307 C 
HETATM   12  H28 UNL     1     -32.724  18.524  -2.937  1.00 20.00     0.316 HD
ENDBRANCH   1  10
TORSDOF 4
ENDMDL
