MODEL 1
REMARK VINA RESULT:      -4.2      0.000      0.000
REMARK  1 active torsions:
REMARK  status: ('A' for Active; 'I' for Inactive)
REMARK    1  A    between atoms: C5_5  and  C6_6 
ROOT
HETATM    1  C3  UNL     1     -35.391  14.549  -7.621  1.00 20.00     0.282 C 
HETATM    2  C4  UNL     1     -36.504  15.432  -7.085  1.00 20.00     0.106 C 
HETATM    3  C6  UNL     1     -34.629  14.688  -5.376  1.00 20.00     0.208 C 
HETATM    4  C8  UNL     1     -34.541  13.246  -4.869  1.00 20.00     0.062 C 
HETATM    5  N9  UNL     1     -34.199  14.757  -6.787  1.00 20.00     0.104 N 
HETATM    6  S10 UNL     1     -36.365  15.259  -5.293  1.00 20.00    -0.126 SA
HETATM    7  H25 UNL     1     -33.553  13.995  -6.973  1.00 20.00     0.318 HD
ENDROOT
BRANCH   3   8
HETATM    8  C5  UNL     1     -33.753  15.605  -4.519  1.00 20.00     0.001 A 
HETATM    9  C1  UNL     1     -33.977  15.603  -3.024  1.00 20.00     0.013 A 
HETATM   10  C2  UNL     1     -32.744  14.962  -3.595  1.00 20.00     0.013 A 
HETATM   11  C7  UNL     1     -33.380  16.906  -5.173  1.00 20.00     0.019 C 
ENDBRANCH   3   8
TORSDOF 1
ENDMDL
MODEL 2
REMARK VINA RESULT:      -4.1      0.480      1.376
REMARK  1 active torsions:
REMARK  status: ('A' for Active; 'I' for Inactive)
REMARK    1  A    between atoms: C5_5  and  C6_6 
ROOT
HETATM    1  C3  UNL     1     -35.316  14.579  -7.547  1.00 20.00     0.282 C 
HETATM    2  C4  UNL     1     -36.434  15.449  -6.999  1.00 20.00     0.106 C 
HETATM    3  C6  UNL     1     -34.558  14.686  -5.299  1.00 20.00     0.208 C 
HETATM    4  C8  UNL     1     -34.465  13.237  -4.815  1.00 20.00     0.062 C 
HETATM    5  N9  UNL     1     -34.126  14.779  -6.708  1.00 20.00     0.104 N 
HETATM    6  S10 UNL     1     -36.297  15.248  -5.210  1.00 20.00    -0.126 SA
HETATM    7  H25 UNL     1     -33.477  14.023  -6.905  1.00 20.00     0.318 HD
ENDROOT
BRANCH   3   8
HETATM    8  C5  UNL     1     -33.687  15.594  -4.426  1.00 20.00     0.001 A 
HETATM    9  C1  UNL     1     -33.388  16.987  -4.930  1.00 20.00     0.013 A 
HETATM   10  C2  UNL     1     -34.339  16.796  -3.783  1.00 20.00     0.013 A 
HETATM   11  C7  UNL     1     -32.614  14.878  -3.654  1.00 20.00     0.019 C 
ENDBRANCH   3   8
TORSDOF 1
ENDMDL
MODEL 3
REMARK VINA RESULT:      -4.1      1.622      2.677
REMARK  1 active torsions:
REMARK  status: ('A' for Active; 'I' for Inactive)
REMARK    1  A    between atoms: C5_5  and  C6_6 
ROOT
HETATM    1  C3  UNL     1     -33.626  18.009  -5.664  1.00 20.00     0.282 C 
HETATM    2  C4  UNL     1     -34.975  18.426  -5.104  1.00 20.00     0.106 C 
HETATM    3  C6  UNL     1     -34.397  15.847  -5.058  1.00 20.00     0.208 C 
HETATM    4  C8  UNL     1     -34.373  15.014  -6.343  1.00 20.00     0.062 C 
HETATM    5  N9  UNL     1     -33.230  16.750  -5.018  1.00 20.00     0.104 N 
HETATM    6  S10 UNL     1     -35.906  16.882  -5.031  1.00 20.00    -0.126 SA
HETATM    7  H25 UNL     1     -32.478  16.343  -5.566  1.00 20.00     0.318 HD
ENDROOT
BRANCH   3   8
HETATM    8  C5  UNL     1     -34.390  14.930  -3.832  1.00 20.00     0.001 A 
HETATM    9  C1  UNL     1     -34.963  13.540  -3.984  1.00 20.00     0.013 A 
HETATM   10  C2  UNL     1     -33.479  13.725  -3.853  1.00 20.00     0.013 A 
HETATM   11  C7  UNL     1     -34.594  15.636  -2.521  1.00 20.00     0.019 C 
ENDBRANCH   3   8
TORSDOF 1
ENDMDL
MODEL 4
REMARK VINA RESULT:      -4.0      2.285      3.328
REMARK  1 active torsions:
REMARK  status: ('A' for Active; 'I' for Inactive)
REMARK    1  A    between atoms: C5_5  and  C6_6 
ROOT
HETATM    1  C3  UNL     1     -37.217  16.598  -3.213  1.00 20.00     0.282 C 
HETATM    2  C4  UNL     1     -36.816  17.279  -4.510  1.00 20.00     0.106 C 
HETATM    3  C6  UNL     1     -35.018  15.714  -3.365  1.00 20.00     0.208 C 
HETATM    4  C8  UNL     1     -34.304  16.133  -2.076  1.00 20.00     0.062 C 
HETATM    5  N9  UNL     1     -36.424  15.368  -3.076  1.00 20.00     0.104 N 
HETATM    6  S10 UNL     1     -35.019  17.114  -4.543  1.00 20.00    -0.126 SA
HETATM    7  H25 UNL     1     -36.497  15.058  -2.112  1.00 20.00     0.318 HD
ENDROOT
BRANCH   3   8
HETATM    8  C5  UNL     1     -34.306  14.518  -4.000  1.00 20.00     0.001 A 
HETATM    9  C1  UNL     1     -35.126  13.286  -4.306  1.00 20.00     0.013 A 
HETATM   10  C2  UNL     1     -34.650  14.164  -5.428  1.00 20.00     0.013 A 
HETATM   11  C7  UNL     1     -32.885  14.324  -3.549  1.00 20.00     0.019 C 
ENDBRANCH   3   8
TORSDOF 1
ENDMDL
MODEL 5
REMARK VINA RESULT:      -4.0      2.131      3.720
REMARK  1 active torsions:
REMARK  status: ('A' for Active; 'I' for Inactive)
REMARK    1  A    between atoms: C5_5  and  C6_6 
ROOT
HETATM    1  C3  UNL     1     -33.978  16.969  -2.042  1.00 20.00     0.282 C 
HETATM    2  C4  UNL     1     -34.096  17.975  -3.174  1.00 20.00     0.106 C 
HETATM    3  C6  UNL     1     -33.803  15.435  -3.846  1.00 20.00     0.208 C 
HETATM    4  C8  UNL     1     -32.466  14.712  -3.657  1.00 20.00     0.062 C 
HETATM    5  N9  UNL     1     -34.444  15.666  -2.536  1.00 20.00     0.104 N 
HETATM    6  S10 UNL     1     -33.508  17.067  -4.619  1.00 20.00    -0.126 SA
HETATM    7  H25 UNL     1     -34.127  14.955  -1.883  1.00 20.00     0.318 HD
ENDROOT
BRANCH   3   8
HETATM    8  C5  UNL     1     -34.730  14.610  -4.743  1.00 20.00     0.001 A 
HETATM    9  C1  UNL     1     -35.084  13.210  -4.297  1.00 20.00     0.013 A 
HETATM   10  C2  UNL     1     -36.117  14.298  -4.232  1.00 20.00     0.013 A 
HETATM   11  C7  UNL     1     -34.560  14.859  -6.215  1.00 20.00     0.019 C 
ENDBRANCH   3   8
TORSDOF 1
ENDMDL
MODEL 6
REMARK VINA RESULT:      -4.0      1.784      3.584
REMARK  1 active torsions:
REMARK  status: ('A' for Active; 'I' for Inactive)
REMARK    1  A    between atoms: C5_5  and  C6_6 
ROOT
HETATM    1  C3  UNL     1     -33.960  16.666  -2.094  1.00 20.00     0.282 C 
HETATM    2  C4  UNL     1     -35.458  16.896  -2.196  1.00 20.00     0.106 C 
HETATM    3  C6  UNL     1     -34.243  15.910  -4.327  1.00 20.00     0.208 C 
HETATM    4  C8  UNL     1     -33.318  16.776  -5.187  1.00 20.00     0.062 C 
HETATM    5  N9  UNL     1     -33.594  15.600  -3.038  1.00 20.00     0.104 N 
HETATM    6  S10 UNL     1     -35.783  16.833  -3.970  1.00 20.00    -0.126 SA
HETATM    7  H25 UNL     1     -32.586  15.627  -3.161  1.00 20.00     0.318 HD
ENDROOT
BRANCH   3   8
HETATM    8  C5  UNL     1     -34.590  14.613  -5.063  1.00 20.00     0.001 A 
HETATM    9  C1  UNL     1     -34.053  13.316  -4.503  1.00 20.00     0.013 A 
HETATM   10  C2  UNL     1     -35.515  13.635  -4.377  1.00 20.00     0.013 A 
HETATM   11  C7  UNL     1     -34.688  14.747  -6.557  1.00 20.00     0.019 C 
ENDBRANCH   3   8
TORSDOF 1
ENDMDL
MODEL 7
REMARK VINA RESULT:      -4.0      1.417      2.670
REMARK  1 active torsions:
REMARK  status: ('A' for Active; 'I' for Inactive)
REMARK    1  A    between atoms: C5_5  and  C6_6 
ROOT
HETATM    1  C3  UNL     1     -33.742  18.021  -5.785  1.00 20.00     0.282 C 
HETATM    2  C4  UNL     1     -35.084  18.236  -5.106  1.00 20.00     0.106 C 
HETATM    3  C6  UNL     1     -34.346  15.736  -5.551  1.00 20.00     0.208 C 
HETATM    4  C8  UNL     1     -34.337  15.149  -6.965  1.00 20.00     0.062 C 
HETATM    5  N9  UNL     1     -33.237  16.697  -5.393  1.00 20.00     0.104 N 
HETATM    6  S10 UNL     1     -35.913  16.642  -5.278  1.00 20.00    -0.126 SA
HETATM    7  H25 UNL     1     -32.490  16.448  -6.035  1.00 20.00     0.318 HD
ENDROOT
BRANCH   3   8
HETATM    8  C5  UNL     1     -34.220  14.618  -4.512  1.00 20.00     0.001 A 
HETATM    9  C1  UNL     1     -33.014  14.631  -3.601  1.00 20.00     0.013 A 
HETATM   10  C2  UNL     1     -34.367  14.986  -3.054  1.00 20.00     0.013 A 
HETATM   11  C7  UNL     1     -34.750  13.285  -4.960  1.00 20.00     0.019 C 
ENDBRANCH   3   8
TORSDOF 1
ENDMDL
MODEL 8
REMARK VINA RESULT:      -4.0      1.820      3.140
REMARK  1 active torsions:
REMARK  status: ('A' for Active; 'I' for Inactive)
REMARK    1  A    between atoms: C5_5  and  C6_6 
ROOT
HETATM    1  C3  UNL     1     -33.482  13.597  -3.823  1.00 20.00     0.282 C 
HETATM    2  C4  UNL     1     -34.936  13.385  -4.208  1.00 20.00     0.106 C 
HETATM    3  C6  UNL     1     -34.145  15.877  -3.808  1.00 20.00     0.208 C 
HETATM    4  C8  UNL     1     -33.837  16.398  -2.402  1.00 20.00     0.062 C 
HETATM    5  N9  UNL     1     -33.086  14.947  -4.248  1.00 20.00     0.104 N 
HETATM    6  S10 UNL     1     -35.725  14.953  -3.784  1.00 20.00    -0.126 SA
HETATM    7  H25 UNL     1     -32.221  15.181  -3.770  1.00 20.00     0.318 HD
ENDROOT
BRANCH   3   8
HETATM    8  C5  UNL     1     -34.257  17.044  -4.793  1.00 20.00     0.001 A 
HETATM    9  C1  UNL     1     -34.142  16.739  -6.269  1.00 20.00     0.013 A 
HETATM   10  C2  UNL     1     -35.476  17.106  -5.684  1.00 20.00     0.013 A 
HETATM   11  C7  UNL     1     -33.681  18.340  -4.295  1.00 20.00     0.019 C 
ENDBRANCH   3   8
TORSDOF 1
ENDMDL
MODEL 9
REMARK VINA RESULT:      -3.9      1.660      2.264
REMARK  1 active torsions:
REMARK  status: ('A' for Active; 'I' for Inactive)
REMARK    1  A    between atoms: C5_5  and  C6_6 
ROOT
HETATM    1  C3  UNL     1     -35.910  14.778  -6.789  1.00 20.00     0.282 C 
HETATM    2  C4  UNL     1     -34.521  15.158  -7.273  1.00 20.00     0.106 C 
HETATM    3  C6  UNL     1     -35.109  15.699  -4.753  1.00 20.00     0.208 C 
HETATM    4  C8  UNL     1     -36.081  16.824  -4.386  1.00 20.00     0.062 C 
HETATM    5  N9  UNL     1     -35.846  14.562  -5.337  1.00 20.00     0.104 N 
HETATM    6  S10 UNL     1     -33.925  16.303  -6.011  1.00 20.00    -0.126 SA
HETATM    7  H25 UNL     1     -36.798  14.566  -4.981  1.00 20.00     0.318 HD
ENDROOT
BRANCH   3   8
HETATM    8  C5  UNL     1     -34.338  15.240  -3.512  1.00 20.00     0.001 A 
HETATM    9  C1  UNL     1     -33.847  13.811  -3.472  1.00 20.00     0.013 A 
HETATM   10  C2  UNL     1     -32.867  14.932  -3.665  1.00 20.00     0.013 A 
HETATM   11  C7  UNL     1     -34.798  15.863  -2.223  1.00 20.00     0.019 C 
ENDBRANCH   3   8
TORSDOF 1
ENDMDL
