MODEL 1
REMARK VINA RESULT:      -4.3      0.000      0.000
REMARK  5 active torsions:
REMARK  status: ('A' for Active; 'I' for Inactive)
REMARK    1  A    between atoms: C5_5  and  C7_7 
REMARK    2  A    between atoms: C6_6  and  C8_8 
REMARK    3  A    between atoms: C7_7  and  C9_9 
REMARK    4  A    between atoms: C8_8  and  C9_9 
REMARK    5  A    between atoms: C9_9  and  O10_10 
ROOT
HETATM    1  C1  UNL     1     -34.637  16.693  -0.736  1.00 20.00     0.012 C 
HETATM    2  C2  UNL     1     -34.260  16.297  -1.805  1.00 20.00    -0.117 C 
HETATM    3  C5  UNL     1     -33.797  15.816  -3.116  1.00 20.00     0.096 C 
ENDROOT
BRANCH   3   4
HETATM    4  C7  UNL     1     -34.060  14.316  -3.271  1.00 20.00     0.049 C 
BRANCH   4   5
HETATM    5  C9  UNL     1     -35.188  13.941  -4.258  1.00 20.00     0.055 C 
HETATM    6  C4  UNL     1     -34.786  14.265  -5.702  1.00 20.00     0.045 C 
BRANCH   5   7
HETATM    7  C8  UNL     1     -36.555  14.593  -3.952  1.00 20.00     0.037 C 
BRANCH   7   8
HETATM    8  C6  UNL     1     -37.024  15.627  -4.983  1.00 20.00    -0.002 C 
HETATM    9  C3  UNL     1     -37.083  17.022  -4.377  1.00 20.00     0.005 C 
ENDBRANCH   7   8
ENDBRANCH   5   7
BRANCH   5  10
HETATM   10  O10 UNL     1     -35.349  12.516  -4.210  1.00 20.00    -0.390 OA
HETATM   11  H26 UNL     1     -34.554  12.145  -4.615  1.00 20.00     0.210 HD
ENDBRANCH   5  10
ENDBRANCH   4   5
ENDBRANCH   3   4
TORSDOF 5
ENDMDL
MODEL 2
REMARK VINA RESULT:      -4.3      1.448      2.074
REMARK  5 active torsions:
REMARK  status: ('A' for Active; 'I' for Inactive)
REMARK    1  A    between atoms: C5_5  and  C7_7 
REMARK    2  A    between atoms: C6_6  and  C8_8 
REMARK    3  A    between atoms: C7_7  and  C9_9 
REMARK    4  A    between atoms: C8_8  and  C9_9 
REMARK    5  A    between atoms: C9_9  and  O10_10 
ROOT
HETATM    1  C1  UNL     1     -34.804  17.012  -0.150  1.00 20.00     0.012 C 
HETATM    2  C2  UNL     1     -34.475  16.596  -1.228  1.00 20.00    -0.117 C 
HETATM    3  C5  UNL     1     -34.068  16.089  -2.547  1.00 20.00     0.096 C 
ENDROOT
BRANCH   3   4
HETATM    4  C7  UNL     1     -35.017  14.986  -3.024  1.00 20.00     0.049 C 
BRANCH   4   5
HETATM    5  C9  UNL     1     -34.424  14.007  -4.062  1.00 20.00     0.055 C 
HETATM    6  C4  UNL     1     -33.026  13.538  -3.641  1.00 20.00     0.045 C 
BRANCH   5   7
HETATM    7  C8  UNL     1     -34.363  14.557  -5.505  1.00 20.00     0.037 C 
BRANCH   7   8
HETATM    8  C6  UNL     1     -35.716  14.652  -6.220  1.00 20.00    -0.002 C 
HETATM    9  C3  UNL     1     -35.564  14.440  -7.720  1.00 20.00     0.005 C 
ENDBRANCH   7   8
ENDBRANCH   5   7
BRANCH   5  10
HETATM   10  O10 UNL     1     -35.244  12.830  -4.065  1.00 20.00    -0.390 OA
HETATM   11  H26 UNL     1     -35.673  12.806  -4.931  1.00 20.00     0.210 HD
ENDBRANCH   5  10
ENDBRANCH   4   5
ENDBRANCH   3   4
TORSDOF 5
ENDMDL
MODEL 3
REMARK VINA RESULT:      -4.3      2.047      2.928
REMARK  5 active torsions:
REMARK  status: ('A' for Active; 'I' for Inactive)
REMARK    1  A    between atoms: C5_5  and  C7_7 
REMARK    2  A    between atoms: C6_6  and  C8_8 
REMARK    3  A    between atoms: C7_7  and  C9_9 
REMARK    4  A    between atoms: C8_8  and  C9_9 
REMARK    5  A    between atoms: C9_9  and  O10_10 
ROOT
HETATM    1  C1  UNL     1     -34.783  17.341   0.282  1.00 20.00     0.012 C 
HETATM    2  C2  UNL     1     -34.782  16.740  -0.758  1.00 20.00    -0.117 C 
HETATM    3  C5  UNL     1     -34.785  16.002  -2.030  1.00 20.00     0.096 C 
ENDROOT
BRANCH   3   4
HETATM    4  C7  UNL     1     -33.476  16.224  -2.793  1.00 20.00     0.049 C 
BRANCH   4   5
HETATM    5  C9  UNL     1     -33.624  16.416  -4.319  1.00 20.00     0.055 C 
HETATM    6  C4  UNL     1     -33.623  17.905  -4.689  1.00 20.00     0.045 C 
BRANCH   5   7
HETATM    7  C8  UNL     1     -34.869  15.739  -4.936  1.00 20.00     0.037 C 
BRANCH   7   8
HETATM    8  C6  UNL     1     -34.608  14.375  -5.587  1.00 20.00    -0.002 C 
HETATM    9  C3  UNL     1     -34.904  13.237  -4.620  1.00 20.00     0.005 C 
ENDBRANCH   7   8
ENDBRANCH   5   7
BRANCH   5  10
HETATM   10  O10 UNL     1     -32.456  15.861  -4.940  1.00 20.00    -0.390 OA
HETATM   11  H26 UNL     1     -32.325  16.363  -5.756  1.00 20.00     0.210 HD
ENDBRANCH   5  10
ENDBRANCH   4   5
ENDBRANCH   3   4
TORSDOF 5
ENDMDL
MODEL 4
REMARK VINA RESULT:      -4.2      1.446      3.224
REMARK  5 active torsions:
REMARK  status: ('A' for Active; 'I' for Inactive)
REMARK    1  A    between atoms: C5_5  and  C7_7 
REMARK    2  A    between atoms: C6_6  and  C8_8 
REMARK    3  A    between atoms: C7_7  and  C9_9 
REMARK    4  A    between atoms: C8_8  and  C9_9 
REMARK    5  A    between atoms: C9_9  and  O10_10 
ROOT
HETATM    1  C1  UNL     1     -33.683  17.644  -5.779  1.00 20.00     0.012 C 
HETATM    2  C2  UNL     1     -34.415  16.724  -6.027  1.00 20.00    -0.117 C 
HETATM    3  C5  UNL     1     -35.314  15.602  -6.333  1.00 20.00     0.096 C 
ENDROOT
BRANCH   3   4
HETATM    4  C7  UNL     1     -34.775  14.295  -5.745  1.00 20.00     0.049 C 
BRANCH   4   5
HETATM    5  C9  UNL     1     -35.246  13.972  -4.310  1.00 20.00     0.055 C 
HETATM    6  C4  UNL     1     -36.673  14.483  -4.071  1.00 20.00     0.045 C 
BRANCH   5   7
HETATM    7  C8  UNL     1     -34.322  14.505  -3.192  1.00 20.00     0.037 C 
BRANCH   7   8
HETATM    8  C6  UNL     1     -34.898  15.669  -2.377  1.00 20.00    -0.002 C 
HETATM    9  C3  UNL     1     -33.822  16.695  -2.046  1.00 20.00     0.005 C 
ENDBRANCH   7   8
ENDBRANCH   5   7
BRANCH   5  10
HETATM   10  O10 UNL     1     -35.320  12.544  -4.189  1.00 20.00    -0.390 OA
HETATM   11  H26 UNL     1     -34.447  12.211  -4.436  1.00 20.00     0.210 HD
ENDBRANCH   5  10
ENDBRANCH   4   5
ENDBRANCH   3   4
TORSDOF 5
ENDMDL
MODEL 5
REMARK VINA RESULT:      -4.2     10.935     12.095
REMARK  5 active torsions:
REMARK  status: ('A' for Active; 'I' for Inactive)
REMARK    1  A    between atoms: C5_5  and  C7_7 
REMARK    2  A    between atoms: C6_6  and  C8_8 
REMARK    3  A    between atoms: C7_7  and  C9_9 
REMARK    4  A    between atoms: C8_8  and  C9_9 
REMARK    5  A    between atoms: C9_9  and  O10_10 
ROOT
HETATM    1  C1  UNL     1     -32.119   8.928   1.505  1.00 20.00     0.012 C 
HETATM    2  C2  UNL     1     -32.186   7.938   2.182  1.00 20.00    -0.117 C 
HETATM    3  C5  UNL     1     -32.263   6.724   3.009  1.00 20.00     0.096 C 
ENDROOT
BRANCH   3   4
HETATM    4  C7  UNL     1     -33.555   6.704   3.829  1.00 20.00     0.049 C 
BRANCH   4   5
HETATM    5  C9  UNL     1     -34.473   5.485   3.587  1.00 20.00     0.055 C 
HETATM    6  C4  UNL     1     -35.936   5.920   3.430  1.00 20.00     0.045 C 
BRANCH   5   7
HETATM    7  C8  UNL     1     -34.383   4.385   4.669  1.00 20.00     0.037 C 
BRANCH   7   8
HETATM    8  C6  UNL     1     -35.073   4.725   5.995  1.00 20.00    -0.002 C 
HETATM    9  C3  UNL     1     -34.389   5.894   6.689  1.00 20.00     0.005 C 
ENDBRANCH   7   8
ENDBRANCH   5   7
BRANCH   5  10
HETATM   10  O10 UNL     1     -34.103   4.907   2.327  1.00 20.00    -0.390 OA
HETATM   11  H26 UNL     1     -33.177   5.146   2.187  1.00 20.00     0.210 HD
ENDBRANCH   5  10
ENDBRANCH   4   5
ENDBRANCH   3   4
TORSDOF 5
ENDMDL
MODEL 6
REMARK VINA RESULT:      -4.1     10.305     11.498
REMARK  5 active torsions:
REMARK  status: ('A' for Active; 'I' for Inactive)
REMARK    1  A    between atoms: C5_5  and  C7_7 
REMARK    2  A    between atoms: C6_6  and  C8_8 
REMARK    3  A    between atoms: C7_7  and  C9_9 
REMARK    4  A    between atoms: C8_8  and  C9_9 
REMARK    5  A    between atoms: C9_9  and  O10_10 
ROOT
HETATM    1  C1  UNL     1     -35.115   4.388   5.935  1.00 20.00     0.012 C 
HETATM    2  C2  UNL     1     -34.860   4.905   4.882  1.00 20.00    -0.117 C 
HETATM    3  C5  UNL     1     -34.551   5.534   3.589  1.00 20.00     0.096 C 
ENDROOT
BRANCH   3   4
HETATM    4  C7  UNL     1     -33.823   6.866   3.792  1.00 20.00     0.049 C 
BRANCH   4   5
HETATM    5  C9  UNL     1     -32.379   6.921   3.242  1.00 20.00     0.055 C 
HETATM    6  C4  UNL     1     -31.454   7.680   4.201  1.00 20.00     0.045 C 
BRANCH   5   7
HETATM    7  C8  UNL     1     -32.251   7.526   1.826  1.00 20.00     0.037 C 
BRANCH   7   8
HETATM    8  C6  UNL     1     -32.193   9.057   1.779  1.00 20.00    -0.002 C 
HETATM    9  C3  UNL     1     -32.480   9.577   0.378  1.00 20.00     0.005 C 
ENDBRANCH   7   8
ENDBRANCH   5   7
BRANCH   5  10
HETATM   10  O10 UNL     1     -31.879   5.576   3.203  1.00 20.00    -0.390 OA
HETATM   11  H26 UNL     1     -31.963   5.288   2.284  1.00 20.00     0.210 HD
ENDBRANCH   5  10
ENDBRANCH   4   5
ENDBRANCH   3   4
TORSDOF 5
ENDMDL
MODEL 7
REMARK VINA RESULT:      -4.0      1.820      3.904
REMARK  5 active torsions:
REMARK  status: ('A' for Active; 'I' for Inactive)
REMARK    1  A    between atoms: C5_5  and  C7_7 
REMARK    2  A    between atoms: C6_6  and  C8_8 
REMARK    3  A    between atoms: C7_7  and  C9_9 
REMARK    4  A    between atoms: C8_8  and  C9_9 
REMARK    5  A    between atoms: C9_9  and  O10_10 
ROOT
HETATM    1  C1  UNL     1     -37.285  15.547  -5.990  1.00 20.00     0.012 C 
HETATM    2  C2  UNL     1     -36.156  15.138  -5.965  1.00 20.00    -0.117 C 
HETATM    3  C5  UNL     1     -34.775  14.634  -5.937  1.00 20.00     0.096 C 
ENDROOT
BRANCH   3   4
HETATM    4  C7  UNL     1     -33.835  15.653  -5.289  1.00 20.00     0.049 C 
BRANCH   4   5
HETATM    5  C9  UNL     1     -33.261  15.243  -3.914  1.00 20.00     0.055 C 
HETATM    6  C4  UNL     1     -33.794  13.871  -3.483  1.00 20.00     0.045 C 
BRANCH   5   7
HETATM    7  C8  UNL     1     -33.508  16.264  -2.781  1.00 20.00     0.037 C 
BRANCH   7   8
HETATM    8  C6  UNL     1     -34.788  16.032  -1.970  1.00 20.00    -0.002 C 
HETATM    9  C3  UNL     1     -34.715  16.724  -0.615  1.00 20.00     0.005 C 
ENDBRANCH   7   8
ENDBRANCH   5   7
BRANCH   5  10
HETATM   10  O10 UNL     1     -31.844  15.077  -4.069  1.00 20.00    -0.390 OA
HETATM   11  H26 UNL     1     -31.575  15.706  -4.752  1.00 20.00     0.210 HD
ENDBRANCH   5  10
ENDBRANCH   4   5
ENDBRANCH   3   4
TORSDOF 5
ENDMDL
MODEL 8
REMARK VINA RESULT:      -4.0     10.412     11.645
REMARK  5 active torsions:
REMARK  status: ('A' for Active; 'I' for Inactive)
REMARK    1  A    between atoms: C5_5  and  C7_7 
REMARK    2  A    between atoms: C6_6  and  C8_8 
REMARK    3  A    between atoms: C7_7  and  C9_9 
REMARK    4  A    between atoms: C8_8  and  C9_9 
REMARK    5  A    between atoms: C9_9  and  O10_10 
ROOT
HETATM    1  C1  UNL     1     -32.363   9.603   0.268  1.00 20.00     0.012 C 
HETATM    2  C2  UNL     1     -32.129   8.840   1.166  1.00 20.00    -0.117 C 
HETATM    3  C5  UNL     1     -31.838   7.906   2.264  1.00 20.00     0.096 C 
ENDROOT
BRANCH   3   4
HETATM    4  C7  UNL     1     -33.077   7.687   3.137  1.00 20.00     0.049 C 
BRANCH   4   5
HETATM    5  C9  UNL     1     -33.321   6.229   3.585  1.00 20.00     0.055 C 
HETATM    6  C4  UNL     1     -34.227   5.492   2.589  1.00 20.00     0.045 C 
BRANCH   5   7
HETATM    7  C8  UNL     1     -33.904   6.081   5.008  1.00 20.00     0.037 C 
BRANCH   7   8
HETATM    8  C6  UNL     1     -35.111   5.142   5.119  1.00 20.00    -0.002 C 
HETATM    9  C3  UNL     1     -34.780   3.913   5.953  1.00 20.00     0.005 C 
ENDBRANCH   7   8
ENDBRANCH   5   7
BRANCH   5  10
HETATM   10  O10 UNL     1     -32.061   5.545   3.542  1.00 20.00    -0.390 OA
HETATM   11  H26 UNL     1     -31.499   5.982   4.196  1.00 20.00     0.210 HD
ENDBRANCH   5  10
ENDBRANCH   4   5
ENDBRANCH   3   4
TORSDOF 5
ENDMDL
MODEL 9
REMARK VINA RESULT:      -3.9     11.622     13.069
REMARK  5 active torsions:
REMARK  status: ('A' for Active; 'I' for Inactive)
REMARK    1  A    between atoms: C5_5  and  C7_7 
REMARK    2  A    between atoms: C6_6  and  C8_8 
REMARK    3  A    between atoms: C7_7  and  C9_9 
REMARK    4  A    between atoms: C8_8  and  C9_9 
REMARK    5  A    between atoms: C9_9  and  O10_10 
ROOT
HETATM    1  C1  UNL     1     -41.466   1.379  -3.946  1.00 20.00     0.012 C 
HETATM    2  C2  UNL     1     -42.045   2.157  -3.237  1.00 20.00    -0.117 C 
HETATM    3  C5  UNL     1     -42.757   3.105  -2.367  1.00 20.00     0.096 C 
ENDROOT
BRANCH   3   4
HETATM    4  C7  UNL     1     -42.065   4.470  -2.367  1.00 20.00     0.049 C 
BRANCH   4   5
HETATM    5  C9  UNL     1     -41.309   4.829  -1.068  1.00 20.00     0.055 C 
HETATM    6  C4  UNL     1     -42.101   4.386   0.169  1.00 20.00     0.045 C 
BRANCH   5   7
HETATM    7  C8  UNL     1     -40.941   6.323  -0.927  1.00 20.00     0.037 C 
BRANCH   7   8
HETATM    8  C6  UNL     1     -41.785   7.280  -1.777  1.00 20.00    -0.002 C 
HETATM    9  C3  UNL     1     -42.946   7.852  -0.976  1.00 20.00     0.005 C 
ENDBRANCH   7   8
ENDBRANCH   5   7
BRANCH   5  10
HETATM   10  O10 UNL     1     -40.096   4.063  -1.046  1.00 20.00    -0.390 OA
HETATM   11  H26 UNL     1     -40.334   3.198  -0.687  1.00 20.00     0.210 HD
ENDBRANCH   5  10
ENDBRANCH   4   5
ENDBRANCH   3   4
TORSDOF 5
ENDMDL
