MODEL 1
REMARK VINA RESULT:      -4.2      0.000      0.000
REMARK  2 active torsions:
REMARK  status: ('A' for Active; 'I' for Inactive)
REMARK    1  A    between atoms: C3_3  and  C7_7 
REMARK    2  A    between atoms: C3_3  and  C8_8 
ROOT
HETATM    1  C1  UNL     1     -33.480  16.990  -5.641  1.00 20.00     0.286 C 
HETATM    2  C2  UNL     1     -34.942  16.725  -5.991  1.00 20.00     0.074 C 
HETATM    3  C3  UNL     1     -33.954  15.521  -3.836  1.00 20.00     0.205 C 
HETATM    4  C4  UNL     1     -35.122  15.743  -7.142  1.00 20.00     0.023 C 
HETATM    5  N9  UNL     1     -32.956  15.852  -4.870  1.00 20.00     0.104 N 
HETATM    6  S10 UNL     1     -35.604  16.017  -4.458  1.00 20.00    -0.122 SA
HETATM    7  H27 UNL     1     -32.782  15.060  -5.480  1.00 20.00     0.318 HD
ENDROOT
BRANCH   3   8
HETATM    8  C7  UNL     1     -33.948  14.015  -3.564  1.00 20.00     0.048 C 
HETATM    9  C5  UNL     1     -35.042  13.321  -4.302  1.00 20.00     0.009 C 
ENDBRANCH   3   8
BRANCH   3  10
HETATM   10  C8  UNL     1     -33.646  16.293  -2.549  1.00 20.00     0.048 C 
HETATM   11  C6  UNL     1     -34.780  16.223  -1.581  1.00 20.00     0.009 C 
ENDBRANCH   3  10
TORSDOF 2
ENDMDL
MODEL 2
REMARK VINA RESULT:      -4.0      1.093      3.846
REMARK  2 active torsions:
REMARK  status: ('A' for Active; 'I' for Inactive)
REMARK    1  A    between atoms: C3_3  and  C7_7 
REMARK    2  A    between atoms: C3_3  and  C8_8 
ROOT
HETATM    1  C1  UNL     1     -33.187  14.775  -3.803  1.00 20.00     0.286 C 
HETATM    2  C2  UNL     1     -34.509  15.104  -3.113  1.00 20.00     0.074 C 
HETATM    3  C3  UNL     1     -34.118  16.081  -5.555  1.00 20.00     0.205 C 
HETATM    4  C4  UNL     1     -34.385  16.192  -2.053  1.00 20.00     0.023 C 
HETATM    5  N9  UNL     1     -32.884  15.824  -4.788  1.00 20.00     0.104 N 
HETATM    6  S10 UNL     1     -35.549  15.683  -4.482  1.00 20.00    -0.122 SA
HETATM    7  H27 UNL     1     -32.560  16.665  -4.322  1.00 20.00     0.318 HD
ENDROOT
BRANCH   3   8
HETATM    8  C7  UNL     1     -34.186  17.556  -5.961  1.00 20.00     0.048 C 
HETATM    9  C5  UNL     1     -33.521  18.432  -4.954  1.00 20.00     0.009 C 
ENDBRANCH   3   8
BRANCH   3  10
HETATM   10  C8  UNL     1     -34.154  15.187  -6.797  1.00 20.00     0.048 C 
HETATM   11  C6  UNL     1     -35.413  14.387  -6.864  1.00 20.00     0.009 C 
ENDBRANCH   3  10
TORSDOF 2
ENDMDL
MODEL 3
REMARK VINA RESULT:      -4.0      1.873      3.631
REMARK  2 active torsions:
REMARK  status: ('A' for Active; 'I' for Inactive)
REMARK    1  A    between atoms: C3_3  and  C7_7 
REMARK    2  A    between atoms: C3_3  and  C8_8 
ROOT
HETATM    1  C1  UNL     1     -36.551  16.098  -3.331  1.00 20.00     0.286 C 
HETATM    2  C2  UNL     1     -35.208  16.725  -2.963  1.00 20.00     0.074 C 
HETATM    3  C3  UNL     1     -35.191  14.695  -4.682  1.00 20.00     0.205 C 
HETATM    4  C4  UNL     1     -34.694  16.296  -1.594  1.00 20.00     0.023 C 
HETATM    5  N9  UNL     1     -36.334  14.705  -3.749  1.00 20.00     0.104 N 
HETATM    6  S10 UNL     1     -34.104  16.109  -4.265  1.00 20.00    -0.122 SA
HETATM    7  H27 UNL     1     -36.154  14.116  -2.943  1.00 20.00     0.318 HD
ENDROOT
BRANCH   3   8
HETATM    8  C7  UNL     1     -34.404  13.391  -4.535  1.00 20.00     0.048 C 
HETATM    9  C5  UNL     1     -33.185  13.580  -3.697  1.00 20.00     0.009 C 
ENDBRANCH   3   8
BRANCH   3  10
HETATM   10  C8  UNL     1     -35.693  14.852  -6.121  1.00 20.00     0.048 C 
HETATM   11  C6  UNL     1     -34.563  14.931  -7.092  1.00 20.00     0.009 C 
ENDBRANCH   3  10
TORSDOF 2
ENDMDL
MODEL 4
REMARK VINA RESULT:      -3.9      1.357      1.464
REMARK  2 active torsions:
REMARK  status: ('A' for Active; 'I' for Inactive)
REMARK    1  A    between atoms: C3_3  and  C7_7 
REMARK    2  A    between atoms: C3_3  and  C8_8 
ROOT
HETATM    1  C1  UNL     1     -35.336  17.530  -4.739  1.00 20.00     0.286 C 
HETATM    2  C2  UNL     1     -36.289  16.338  -4.692  1.00 20.00     0.074 C 
HETATM    3  C3  UNL     1     -33.979  16.120  -3.393  1.00 20.00     0.205 C 
HETATM    4  C4  UNL     1     -36.286  15.509  -5.971  1.00 20.00     0.023 C 
HETATM    5  N9  UNL     1     -33.960  17.055  -4.535  1.00 20.00     0.104 N 
HETATM    6  S10 UNL     1     -35.641  15.355  -3.312  1.00 20.00    -0.122 SA
HETATM    7  H27 UNL     1     -33.612  16.602  -5.374  1.00 20.00     0.318 HD
ENDROOT
BRANCH   3   8
HETATM    8  C7  UNL     1     -32.928  15.026  -3.593  1.00 20.00     0.048 C 
HETATM    9  C5  UNL     1     -33.561  13.701  -3.856  1.00 20.00     0.009 C 
ENDBRANCH   3   8
BRANCH   3  10
HETATM   10  C8  UNL     1     -33.709  16.882  -2.092  1.00 20.00     0.048 C 
HETATM   11  C6  UNL     1     -34.683  16.510  -1.024  1.00 20.00     0.009 C 
ENDBRANCH   3  10
TORSDOF 2
ENDMDL
MODEL 5
REMARK VINA RESULT:      -3.9      1.553      3.456
REMARK  2 active torsions:
REMARK  status: ('A' for Active; 'I' for Inactive)
REMARK    1  A    between atoms: C3_3  and  C7_7 
REMARK    2  A    between atoms: C3_3  and  C8_8 
ROOT
HETATM    1  C1  UNL     1     -34.595  17.644  -3.721  1.00 20.00     0.286 C 
HETATM    2  C2  UNL     1     -33.784  16.793  -2.747  1.00 20.00     0.074 C 
HETATM    3  C3  UNL     1     -34.643  15.630  -4.979  1.00 20.00     0.205 C 
HETATM    4  C4  UNL     1     -34.585  16.328  -1.537  1.00 20.00     0.023 C 
HETATM    5  N9  UNL     1     -35.463  16.767  -4.520  1.00 20.00     0.104 N 
HETATM    6  S10 UNL     1     -33.302  15.367  -3.760  1.00 20.00    -0.122 SA
HETATM    7  H27 UNL     1     -36.253  16.449  -3.967  1.00 20.00     0.318 HD
ENDROOT
BRANCH   3   8
HETATM    8  C7  UNL     1     -35.500  14.366  -5.069  1.00 20.00     0.048 C 
HETATM    9  C5  UNL     1     -34.977  13.286  -4.183  1.00 20.00     0.009 C 
ENDBRANCH   3   8
BRANCH   3  10
HETATM   10  C8  UNL     1     -34.027  15.951  -6.345  1.00 20.00     0.048 C 
HETATM   11  C6  UNL     1     -34.529  15.028  -7.405  1.00 20.00     0.009 C 
ENDBRANCH   3  10
TORSDOF 2
ENDMDL
MODEL 6
REMARK VINA RESULT:      -3.9      1.745      2.847
REMARK  2 active torsions:
REMARK  status: ('A' for Active; 'I' for Inactive)
REMARK    1  A    between atoms: C3_3  and  C7_7 
REMARK    2  A    between atoms: C3_3  and  C8_8 
ROOT
HETATM    1  C1  UNL     1     -36.472  14.739  -3.848  1.00 20.00     0.286 C 
HETATM    2  C2  UNL     1     -35.388  13.819  -4.405  1.00 20.00     0.074 C 
HETATM    3  C3  UNL     1     -34.604  16.024  -3.142  1.00 20.00     0.205 C 
HETATM    4  C4  UNL     1     -35.200  13.947  -5.912  1.00 20.00     0.023 C 
HETATM    5  N9  UNL     1     -35.942  16.107  -3.757  1.00 20.00     0.104 N 
HETATM    6  S10 UNL     1     -33.895  14.383  -3.541  1.00 20.00    -0.122 SA
HETATM    7  H27 UNL     1     -35.897  16.534  -4.676  1.00 20.00     0.318 HD
ENDROOT
BRANCH   3   8
HETATM    8  C7  UNL     1     -33.696  17.118  -3.710  1.00 20.00     0.048 C 
HETATM    9  C5  UNL     1     -33.406  16.893  -5.155  1.00 20.00     0.009 C 
ENDBRANCH   3   8
BRANCH   3  10
HETATM   10  C8  UNL     1     -34.719  16.168  -1.622  1.00 20.00     0.048 C 
HETATM   11  C6  UNL     1     -33.853  17.270  -1.105  1.00 20.00     0.009 C 
ENDBRANCH   3  10
TORSDOF 2
ENDMDL
MODEL 7
REMARK VINA RESULT:      -3.8      2.061      3.313
REMARK  2 active torsions:
REMARK  status: ('A' for Active; 'I' for Inactive)
REMARK    1  A    between atoms: C3_3  and  C7_7 
REMARK    2  A    between atoms: C3_3  and  C8_8 
ROOT
HETATM    1  C1  UNL     1     -37.269  15.390  -3.867  1.00 20.00     0.286 C 
HETATM    2  C2  UNL     1     -36.822  16.395  -4.927  1.00 20.00     0.074 C 
HETATM    3  C3  UNL     1     -34.951  15.356  -3.348  1.00 20.00     0.205 C 
HETATM    4  C4  UNL     1     -37.121  17.842  -4.555  1.00 20.00     0.023 C 
HETATM    5  N9  UNL     1     -36.303  15.399  -2.759  1.00 20.00     0.104 N 
HETATM    6  S10 UNL     1     -35.029  16.129  -5.007  1.00 20.00    -0.122 SA
HETATM    7  H27 UNL     1     -36.427  16.227  -2.186  1.00 20.00     0.318 HD
ENDROOT
BRANCH   3   8
HETATM    8  C7  UNL     1     -33.971  16.138  -2.471  1.00 20.00     0.048 C 
HETATM    9  C5  UNL     1     -34.586  16.517  -1.167  1.00 20.00     0.009 C 
ENDBRANCH   3   8
BRANCH   3  10
HETATM   10  C8  UNL     1     -34.492  13.902  -3.490  1.00 20.00     0.048 C 
HETATM   11  C6  UNL     1     -34.380  13.497  -4.923  1.00 20.00     0.009 C 
ENDBRANCH   3  10
TORSDOF 2
ENDMDL
MODEL 8
REMARK VINA RESULT:      -3.8      1.490      2.961
REMARK  2 active torsions:
REMARK  status: ('A' for Active; 'I' for Inactive)
REMARK    1  A    between atoms: C3_3  and  C7_7 
REMARK    2  A    between atoms: C3_3  and  C8_8 
ROOT
HETATM    1  C1  UNL     1     -35.199  16.749  -5.792  1.00 20.00     0.286 C 
HETATM    2  C2  UNL     1     -33.730  17.102  -5.567  1.00 20.00     0.074 C 
HETATM    3  C3  UNL     1     -34.952  15.661  -3.696  1.00 20.00     0.205 C 
HETATM    4  C4  UNL     1     -33.516  18.539  -5.108  1.00 20.00     0.023 C 
HETATM    5  N9  UNL     1     -35.845  16.525  -4.490  1.00 20.00     0.104 N 
HETATM    6  S10 UNL     1     -33.233  15.948  -4.258  1.00 20.00    -0.122 SA
HETATM    7  H27 UNL     1     -36.014  17.408  -4.020  1.00 20.00     0.318 HD
ENDROOT
BRANCH   3   8
HETATM    8  C7  UNL     1     -35.064  16.014  -2.211  1.00 20.00     0.048 C 
HETATM    9  C5  UNL     1     -33.863  16.759  -1.734  1.00 20.00     0.009 C 
ENDBRANCH   3   8
BRANCH   3  10
HETATM   10  C8  UNL     1     -35.317  14.190  -3.919  1.00 20.00     0.048 C 
HETATM   11  C6  UNL     1     -34.173  13.420  -4.491  1.00 20.00     0.009 C 
ENDBRANCH   3  10
TORSDOF 2
ENDMDL
MODEL 9
REMARK VINA RESULT:      -3.8      1.719      2.262
REMARK  2 active torsions:
REMARK  status: ('A' for Active; 'I' for Inactive)
REMARK    1  A    between atoms: C3_3  and  C7_7 
REMARK    2  A    between atoms: C3_3  and  C8_8 
ROOT
HETATM    1  C1  UNL     1     -33.042  15.127  -3.737  1.00 20.00     0.286 C 
HETATM    2  C2  UNL     1     -33.167  16.318  -4.685  1.00 20.00     0.074 C 
HETATM    3  C3  UNL     1     -34.959  16.105  -2.732  1.00 20.00     0.205 C 
HETATM    4  C4  UNL     1     -33.773  15.957  -6.035  1.00 20.00     0.023 C 
HETATM    5  N9  UNL     1     -34.363  14.827  -3.165  1.00 20.00     0.104 N 
HETATM    6  S10 UNL     1     -34.273  17.439  -3.784  1.00 20.00    -0.122 SA
HETATM    7  H27 UNL     1     -34.950  14.363  -3.850  1.00 20.00     0.318 HD
ENDROOT
BRANCH   3   8
HETATM    8  C7  UNL     1     -36.479  16.059  -2.900  1.00 20.00     0.048 C 
HETATM    9  C5  UNL     1     -36.904  14.888  -3.718  1.00 20.00     0.009 C 
ENDBRANCH   3   8
BRANCH   3  10
HETATM   10  C8  UNL     1     -34.595  16.379  -1.269  1.00 20.00     0.048 C 
HETATM   11  C6  UNL     1     -33.710  17.574  -1.136  1.00 20.00     0.009 C 
ENDBRANCH   3  10
TORSDOF 2
ENDMDL
