MODEL 1
REMARK VINA RESULT:      -3.7      0.000      0.000
REMARK  3 active torsions:
REMARK  status: ('A' for Active; 'I' for Inactive)
REMARK    1  A    between atoms: C3_3  and  N7_7 
REMARK    2  A    between atoms: C4_4  and  C5_5 
REMARK    3  A    between atoms: C4_4  and  N7_7 
ROOT
HETATM    1  C1  UNL     1     -32.275   7.439   2.604  1.00 20.00     0.089 C 
HETATM    2  C3  UNL     1     -32.581   6.290   3.455  1.00 20.00     0.395 C 
HETATM    3  N6  UNL     1     -32.030   8.349   1.929  1.00 20.00    -0.195 NA
ENDROOT
BRANCH   2   4
HETATM    4  N7  UNL     1     -33.883   6.451   4.101  1.00 20.00     0.099 N 
HETATM    5  C2  UNL     1     -33.729   6.511   5.554  1.00 20.00     0.311 C 
BRANCH   4   6
HETATM    6  C4  UNL     1     -34.778   5.357   3.726  1.00 20.00     0.304 C 
BRANCH   6   7
HETATM    7  C5  UNL     1     -35.370   4.683   4.946  1.00 20.00     0.252 C 
HETATM    8  F8  UNL     1     -34.931   3.396   4.999  1.00 20.00    -0.254 F 
ENDBRANCH   6   7
ENDBRANCH   4   6
ENDBRANCH   2   4
TORSDOF 3
ENDMDL
MODEL 2
REMARK VINA RESULT:      -3.6     11.329     12.218
REMARK  3 active torsions:
REMARK  status: ('A' for Active; 'I' for Inactive)
REMARK    1  A    between atoms: C3_3  and  N7_7 
REMARK    2  A    between atoms: C4_4  and  C5_5 
REMARK    3  A    between atoms: C4_4  and  N7_7 
ROOT
HETATM    1  C1  UNL     1     -34.166  13.567  -4.192  1.00 20.00     0.089 C 
HETATM    2  C3  UNL     1     -33.250  14.621  -3.762  1.00 20.00     0.395 C 
HETATM    3  N6  UNL     1     -34.891  12.728  -4.533  1.00 20.00    -0.195 NA
ENDROOT
BRANCH   2   4
HETATM    4  N7  UNL     1     -33.882  15.936  -3.863  1.00 20.00     0.099 N 
HETATM    5  C2  UNL     1     -33.296  16.703  -4.960  1.00 20.00     0.311 C 
BRANCH   4   6
HETATM    6  C4  UNL     1     -33.751  16.665  -2.602  1.00 20.00     0.304 C 
BRANCH   6   7
HETATM    7  C5  UNL     1     -34.809  16.243  -1.604  1.00 20.00     0.252 C 
HETATM    8  F8  UNL     1     -34.386  16.557  -0.350  1.00 20.00    -0.254 F 
ENDBRANCH   6   7
ENDBRANCH   4   6
ENDBRANCH   2   4
TORSDOF 3
ENDMDL
MODEL 3
REMARK VINA RESULT:      -3.4     11.575     12.328
REMARK  3 active torsions:
REMARK  status: ('A' for Active; 'I' for Inactive)
REMARK    1  A    between atoms: C3_3  and  N7_7 
REMARK    2  A    between atoms: C4_4  and  C5_5 
REMARK    3  A    between atoms: C4_4  and  N7_7 
ROOT
HETATM    1  C1  UNL     1     -35.168  13.910  -4.487  1.00 20.00     0.089 C 
HETATM    2  C3  UNL     1     -35.564  15.317  -4.465  1.00 20.00     0.395 C 
HETATM    3  N6  UNL     1     -34.857  12.793  -4.504  1.00 20.00    -0.195 NA
ENDROOT
BRANCH   2   4
HETATM    4  N7  UNL     1     -34.484  16.155  -3.947  1.00 20.00     0.099 N 
HETATM    5  C2  UNL     1     -33.339  16.134  -4.856  1.00 20.00     0.311 C 
BRANCH   4   6
HETATM    6  C4  UNL     1     -34.085  15.710  -2.612  1.00 20.00     0.304 C 
BRANCH   6   7
HETATM    7  C5  UNL     1     -34.296  16.797  -1.580  1.00 20.00     0.252 C 
HETATM    8  F8  UNL     1     -34.769  16.234  -0.435  1.00 20.00    -0.254 F 
ENDBRANCH   6   7
ENDBRANCH   4   6
ENDBRANCH   2   4
TORSDOF 3
ENDMDL
MODEL 4
REMARK VINA RESULT:      -3.3      2.227      2.916
REMARK  3 active torsions:
REMARK  status: ('A' for Active; 'I' for Inactive)
REMARK    1  A    between atoms: C3_3  and  N7_7 
REMARK    2  A    between atoms: C4_4  and  C5_5 
REMARK    3  A    between atoms: C4_4  and  N7_7 
ROOT
HETATM    1  C1  UNL     1     -33.094   6.420   3.365  1.00 20.00     0.089 C 
HETATM    2  C3  UNL     1     -34.371   6.158   4.026  1.00 20.00     0.395 C 
HETATM    3  N6  UNL     1     -32.083   6.629   2.838  1.00 20.00    -0.195 NA
ENDROOT
BRANCH   2   4
HETATM    4  N7  UNL     1     -34.200   5.228   5.141  1.00 20.00     0.099 N 
HETATM    5  C2  UNL     1     -35.121   4.100   5.013  1.00 20.00     0.311 C 
BRANCH   4   6
HETATM    6  C4  UNL     1     -34.407   5.914   6.416  1.00 20.00     0.304 C 
BRANCH   6   7
HETATM    7  C5  UNL     1     -33.433   7.060   6.593  1.00 20.00     0.252 C 
HETATM    8  F8  UNL     1     -33.935   7.930   7.511  1.00 20.00    -0.254 F 
ENDBRANCH   6   7
ENDBRANCH   4   6
ENDBRANCH   2   4
TORSDOF 3
ENDMDL
MODEL 5
REMARK VINA RESULT:      -3.3      2.570      4.294
REMARK  3 active torsions:
REMARK  status: ('A' for Active; 'I' for Inactive)
REMARK    1  A    between atoms: C3_3  and  N7_7 
REMARK    2  A    between atoms: C4_4  and  C5_5 
REMARK    3  A    between atoms: C4_4  and  N7_7 
ROOT
HETATM    1  C1  UNL     1     -34.590   5.184   5.820  1.00 20.00     0.089 C 
HETATM    2  C3  UNL     1     -33.862   6.351   5.327  1.00 20.00     0.395 C 
HETATM    3  N6  UNL     1     -35.168   4.259   6.214  1.00 20.00    -0.195 NA
ENDROOT
BRANCH   2   4
HETATM    4  N7  UNL     1     -33.878   6.398   3.865  1.00 20.00     0.099 N 
HETATM    5  C2  UNL     1     -34.792   5.389   3.332  1.00 20.00     0.311 C 
BRANCH   4   6
HETATM    6  C4  UNL     1     -32.531   6.201   3.332  1.00 20.00     0.304 C 
BRANCH   6   7
HETATM    7  C5  UNL     1     -31.807   7.519   3.152  1.00 20.00     0.252 C 
HETATM    8  F8  UNL     1     -31.897   7.899   1.849  1.00 20.00    -0.254 F 
ENDBRANCH   6   7
ENDBRANCH   4   6
ENDBRANCH   2   4
TORSDOF 3
ENDMDL
MODEL 6
REMARK VINA RESULT:      -3.3     11.879     12.513
REMARK  3 active torsions:
REMARK  status: ('A' for Active; 'I' for Inactive)
REMARK    1  A    between atoms: C3_3  and  N7_7 
REMARK    2  A    between atoms: C4_4  and  C5_5 
REMARK    3  A    between atoms: C4_4  and  N7_7 
ROOT
HETATM    1  C1  UNL     1     -35.099  13.565  -4.257  1.00 20.00     0.089 C 
HETATM    2  C3  UNL     1     -35.399  14.808  -3.548  1.00 20.00     0.395 C 
HETATM    3  N6  UNL     1     -34.863  12.579  -4.821  1.00 20.00    -0.195 NA
ENDROOT
BRANCH   2   4
HETATM    4  N7  UNL     1     -34.269  15.221  -2.718  1.00 20.00     0.099 N 
HETATM    5  C2  UNL     1     -34.633  16.372  -1.894  1.00 20.00     0.311 C 
BRANCH   4   6
HETATM    6  C4  UNL     1     -33.109  15.537  -3.553  1.00 20.00     0.304 C 
BRANCH   6   7
HETATM    7  C5  UNL     1     -33.383  16.720  -4.457  1.00 20.00     0.252 C 
HETATM    8  F8  UNL     1     -33.289  16.318  -5.753  1.00 20.00    -0.254 F 
ENDBRANCH   6   7
ENDBRANCH   4   6
ENDBRANCH   2   4
TORSDOF 3
ENDMDL
MODEL 7
REMARK VINA RESULT:      -3.3     11.283     11.997
REMARK  3 active torsions:
REMARK  status: ('A' for Active; 'I' for Inactive)
REMARK    1  A    between atoms: C3_3  and  N7_7 
REMARK    2  A    between atoms: C4_4  and  C5_5 
REMARK    3  A    between atoms: C4_4  and  N7_7 
ROOT
HETATM    1  C1  UNL     1     -37.311  15.065  -3.561  1.00 20.00     0.089 C 
HETATM    2  C3  UNL     1     -36.298  16.069  -3.238  1.00 20.00     0.395 C 
HETATM    3  N6  UNL     1     -38.116  14.271  -3.818  1.00 20.00    -0.195 NA
ENDROOT
BRANCH   2   4
HETATM    4  N7  UNL     1     -35.098  15.441  -2.689  1.00 20.00     0.099 N 
HETATM    5  C2  UNL     1     -34.511  16.283  -1.648  1.00 20.00     0.311 C 
BRANCH   4   6
HETATM    6  C4  UNL     1     -34.123  15.184  -3.749  1.00 20.00     0.304 C 
BRANCH   6   7
HETATM    7  C5  UNL     1     -33.902  13.700  -3.952  1.00 20.00     0.252 C 
HETATM    8  F8  UNL     1     -32.634  13.385  -3.574  1.00 20.00    -0.254 F 
ENDBRANCH   6   7
ENDBRANCH   4   6
ENDBRANCH   2   4
TORSDOF 3
ENDMDL
MODEL 8
REMARK VINA RESULT:      -3.3     11.753     12.453
REMARK  3 active torsions:
REMARK  status: ('A' for Active; 'I' for Inactive)
REMARK    1  A    between atoms: C3_3  and  N7_7 
REMARK    2  A    between atoms: C4_4  and  C5_5 
REMARK    3  A    between atoms: C4_4  and  N7_7 
ROOT
HETATM    1  C1  UNL     1     -37.275  14.722  -3.757  1.00 20.00     0.089 C 
HETATM    2  C3  UNL     1     -35.895  15.198  -3.666  1.00 20.00     0.395 C 
HETATM    3  N6  UNL     1     -38.369  14.346  -3.826  1.00 20.00    -0.195 NA
ENDROOT
BRANCH   2   4
HETATM    4  N7  UNL     1     -35.091  14.683  -4.773  1.00 20.00     0.099 N 
HETATM    5  C2  UNL     1     -34.874  13.245  -4.622  1.00 20.00     0.311 C 
BRANCH   4   6
HETATM    6  C4  UNL     1     -33.812  15.388  -4.848  1.00 20.00     0.304 C 
BRANCH   6   7
HETATM    7  C5  UNL     1     -33.126  15.437  -3.499  1.00 20.00     0.252 C 
HETATM    8  F8  UNL     1     -32.049  14.606  -3.519  1.00 20.00    -0.254 F 
ENDBRANCH   6   7
ENDBRANCH   4   6
ENDBRANCH   2   4
TORSDOF 3
ENDMDL
MODEL 9
REMARK VINA RESULT:      -3.2      1.127      1.644
REMARK  3 active torsions:
REMARK  status: ('A' for Active; 'I' for Inactive)
REMARK    1  A    between atoms: C3_3  and  N7_7 
REMARK    2  A    between atoms: C4_4  and  C5_5 
REMARK    3  A    between atoms: C4_4  and  N7_7 
ROOT
HETATM    1  C1  UNL     1     -32.328   7.225   2.784  1.00 20.00     0.089 C 
HETATM    2  C3  UNL     1     -32.279   5.878   3.350  1.00 20.00     0.395 C 
HETATM    3  N6  UNL     1     -32.364   8.293   2.333  1.00 20.00    -0.195 NA
ENDROOT
BRANCH   2   4
HETATM    4  N7  UNL     1     -33.512   5.571   4.074  1.00 20.00     0.099 N 
HETATM    5  C2  UNL     1     -34.655   5.581   3.164  1.00 20.00     0.311 C 
BRANCH   4   6
HETATM    6  C4  UNL     1     -33.717   6.526   5.163  1.00 20.00     0.304 C 
BRANCH   6   7
HETATM    7  C5  UNL     1     -34.422   5.882   6.338  1.00 20.00     0.252 C 
HETATM    8  F8  UNL     1     -34.134   4.553   6.354  1.00 20.00    -0.254 F 
ENDBRANCH   6   7
ENDBRANCH   4   6
ENDBRANCH   2   4
TORSDOF 3
ENDMDL
