MODEL 1
REMARK VINA RESULT:      -4.0      0.000      0.000
REMARK  2 active torsions:
REMARK  status: ('A' for Active; 'I' for Inactive)
REMARK    1  A    between atoms: C5_5  and  C6_6 
REMARK    2  A    between atoms: C5_5  and  N7_7 
ROOT
HETATM    1  C1  UNL     1     -35.225   5.286   3.684  1.00 20.00     0.048 C 
HETATM    2  C2  UNL     1     -34.066   5.638   2.759  1.00 20.00     0.273 C 
HETATM    3  C3  UNL     1     -33.399   6.377   4.856  1.00 20.00     0.288 C 
HETATM    4  C4  UNL     1     -34.769   5.747   5.063  1.00 20.00     0.087 C 
HETATM    5  N7  UNL     1     -33.439   6.768   3.445  1.00 20.00     0.091 N 
HETATM    6 BR9  UNL     1     -34.663   4.263   6.310  1.00 20.00    -0.089 Br
ENDROOT
BRANCH   5   7
HETATM    7  C5  UNL     1     -32.119   7.077   2.916  1.00 20.00     0.303 C 
BRANCH   7   8
HETATM    8  C6  UNL     1     -32.124   8.371   2.130  1.00 20.00     0.252 C 
HETATM    9  F8  UNL     1     -31.385   8.205   1.001  1.00 20.00    -0.254 F 
ENDBRANCH   7   8
ENDBRANCH   5   7
TORSDOF 2
ENDMDL
MODEL 2
REMARK VINA RESULT:      -3.7     11.413     12.164
REMARK  2 active torsions:
REMARK  status: ('A' for Active; 'I' for Inactive)
REMARK    1  A    between atoms: C5_5  and  C6_6 
REMARK    2  A    between atoms: C5_5  and  N7_7 
ROOT
HETATM    1  C1  UNL     1     -34.528  13.418  -4.936  1.00 20.00     0.048 C 
HETATM    2  C2  UNL     1     -34.395  14.057  -3.559  1.00 20.00     0.273 C 
HETATM    3  C3  UNL     1     -34.151  15.815  -5.056  1.00 20.00     0.288 C 
HETATM    4  C4  UNL     1     -34.396  14.581  -5.913  1.00 20.00     0.087 C 
HETATM    5  N7  UNL     1     -33.584  15.244  -3.832  1.00 20.00     0.091 N 
HETATM    6 BR9  UNL     1     -35.999  14.795  -6.986  1.00 20.00    -0.089 Br
ENDROOT
BRANCH   5   7
HETATM    7  C5  UNL     1     -33.588  16.187  -2.724  1.00 20.00     0.303 C 
BRANCH   7   8
HETATM    8  C6  UNL     1     -34.901  16.155  -1.971  1.00 20.00     0.252 C 
HETATM    9  F8  UNL     1     -34.646  16.180  -0.636  1.00 20.00    -0.254 F 
ENDBRANCH   7   8
ENDBRANCH   5   7
TORSDOF 2
ENDMDL
MODEL 3
REMARK VINA RESULT:      -3.6      3.423      4.389
REMARK  2 active torsions:
REMARK  status: ('A' for Active; 'I' for Inactive)
REMARK    1  A    between atoms: C5_5  and  C6_6 
REMARK    2  A    between atoms: C5_5  and  N7_7 
ROOT
HETATM    1  C1  UNL     1     -33.566   5.652   2.392  1.00 20.00     0.048 C 
HETATM    2  C2  UNL     1     -34.576   5.495   3.522  1.00 20.00     0.273 C 
HETATM    3  C3  UNL     1     -32.803   6.659   4.467  1.00 20.00     0.288 C 
HETATM    4  C4  UNL     1     -32.418   6.442   3.011  1.00 20.00     0.087 C 
HETATM    5  N7  UNL     1     -33.733   5.555   4.717  1.00 20.00     0.091 N 
HETATM    6 BR9  UNL     1     -32.154   8.140   2.107  1.00 20.00    -0.089 Br
ENDROOT
BRANCH   5   7
HETATM    7  C5  UNL     1     -34.508   5.746   5.934  1.00 20.00     0.303 C 
BRANCH   7   8
HETATM    8  C6  UNL     1     -35.251   4.486   6.324  1.00 20.00     0.252 C 
HETATM    9  F8  UNL     1     -34.662   3.420   5.720  1.00 20.00    -0.254 F 
ENDBRANCH   7   8
ENDBRANCH   5   7
TORSDOF 2
ENDMDL
MODEL 4
REMARK VINA RESULT:      -3.5     11.593     12.559
REMARK  2 active torsions:
REMARK  status: ('A' for Active; 'I' for Inactive)
REMARK    1  A    between atoms: C5_5  and  C6_6 
REMARK    2  A    between atoms: C5_5  and  N7_7 
ROOT
HETATM    1  C1  UNL     1     -33.671  17.025  -3.973  1.00 20.00     0.048 C 
HETATM    2  C2  UNL     1     -34.337  16.304  -5.138  1.00 20.00     0.273 C 
HETATM    3  C3  UNL     1     -34.293  14.743  -3.421  1.00 20.00     0.288 C 
HETATM    4  C4  UNL     1     -33.670  16.004  -2.840  1.00 20.00     0.087 C 
HETATM    5  N7  UNL     1     -34.045  14.898  -4.856  1.00 20.00     0.091 N 
HETATM    6 BR9  UNL     1     -34.690  16.636  -1.314  1.00 20.00    -0.089 Br
ENDROOT
BRANCH   5   7
HETATM    7  C5  UNL     1     -34.851  13.991  -5.661  1.00 20.00     0.303 C 
BRANCH   7   8
HETATM    8  C6  UNL     1     -35.385  14.674  -6.902  1.00 20.00     0.252 C 
HETATM    9  F8  UNL     1     -34.497  14.502  -7.918  1.00 20.00    -0.254 F 
ENDBRANCH   7   8
ENDBRANCH   5   7
TORSDOF 2
ENDMDL
MODEL 5
REMARK VINA RESULT:      -3.4     11.258     12.212
REMARK  2 active torsions:
REMARK  status: ('A' for Active; 'I' for Inactive)
REMARK    1  A    between atoms: C5_5  and  C6_6 
REMARK    2  A    between atoms: C5_5  and  N7_7 
ROOT
HETATM    1  C1  UNL     1     -34.169  17.784  -3.437  1.00 20.00     0.048 C 
HETATM    2  C2  UNL     1     -34.707  16.972  -4.609  1.00 20.00     0.273 C 
HETATM    3  C3  UNL     1     -33.910  15.391  -3.107  1.00 20.00     0.288 C 
HETATM    4  C4  UNL     1     -33.674  16.740  -2.443  1.00 20.00     0.087 C 
HETATM    5  N7  UNL     1     -33.926  15.737  -4.531  1.00 20.00     0.091 N 
HETATM    6 BR9  UNL     1     -34.630  16.853  -0.757  1.00 20.00    -0.089 Br
ENDROOT
BRANCH   5   7
HETATM    7  C5  UNL     1     -34.481  14.674  -5.355  1.00 20.00     0.303 C 
BRANCH   7   8
HETATM    8  C6  UNL     1     -34.343  13.322  -4.688  1.00 20.00     0.252 C 
HETATM    9  F8  UNL     1     -35.568  12.913  -4.262  1.00 20.00    -0.254 F 
ENDBRANCH   7   8
ENDBRANCH   5   7
TORSDOF 2
ENDMDL
MODEL 6
REMARK VINA RESULT:      -3.4     12.209     13.215
REMARK  2 active torsions:
REMARK  status: ('A' for Active; 'I' for Inactive)
REMARK    1  A    between atoms: C5_5  and  C6_6 
REMARK    2  A    between atoms: C5_5  and  N7_7 
ROOT
HETATM    1  C1  UNL     1     -34.218  17.114  -6.274  1.00 20.00     0.048 C 
HETATM    2  C2  UNL     1     -33.397  16.986  -4.996  1.00 20.00     0.273 C 
HETATM    3  C3  UNL     1     -35.073  15.394  -4.788  1.00 20.00     0.288 C 
HETATM    4  C4  UNL     1     -35.299  16.047  -6.144  1.00 20.00     0.087 C 
HETATM    5  N7  UNL     1     -34.366  16.439  -4.046  1.00 20.00     0.091 N 
HETATM    6 BR9  UNL     1     -35.177  14.734  -7.570  1.00 20.00    -0.089 Br
ENDROOT
BRANCH   5   7
HETATM    7  C5  UNL     1     -33.733  15.932  -2.837  1.00 20.00     0.303 C 
BRANCH   7   8
HETATM    8  C6  UNL     1     -33.998  16.833  -1.650  1.00 20.00     0.252 C 
HETATM    9  F8  UNL     1     -34.682  16.131  -0.707  1.00 20.00    -0.254 F 
ENDBRANCH   7   8
ENDBRANCH   5   7
TORSDOF 2
ENDMDL
MODEL 7
REMARK VINA RESULT:      -3.3     10.126     11.057
REMARK  2 active torsions:
REMARK  status: ('A' for Active; 'I' for Inactive)
REMARK    1  A    between atoms: C5_5  and  C6_6 
REMARK    2  A    between atoms: C5_5  and  N7_7 
ROOT
HETATM    1  C1  UNL     1     -42.023   7.689  -1.371  1.00 20.00     0.048 C 
HETATM    2  C2  UNL     1     -41.119   6.487  -1.125  1.00 20.00     0.273 C 
HETATM    3  C3  UNL     1     -42.551   5.814  -2.823  1.00 20.00     0.288 C 
HETATM    4  C4  UNL     1     -42.942   7.251  -2.506  1.00 20.00     0.087 C 
HETATM    5  N7  UNL     1     -41.947   5.365  -1.567  1.00 20.00     0.091 N 
HETATM    6 BR9  UNL     1     -42.731   8.383  -4.068  1.00 20.00    -0.089 Br
ENDROOT
BRANCH   5   7
HETATM    7  C5  UNL     1     -41.181   4.138  -1.726  1.00 20.00     0.303 C 
BRANCH   7   8
HETATM    8  C6  UNL     1     -41.840   3.194  -2.709  1.00 20.00     0.252 C 
HETATM    9  F8  UNL     1     -40.875   2.559  -3.427  1.00 20.00    -0.254 F 
ENDBRANCH   7   8
ENDBRANCH   5   7
TORSDOF 2
ENDMDL
MODEL 8
REMARK VINA RESULT:      -3.3     11.907     12.492
REMARK  2 active torsions:
REMARK  status: ('A' for Active; 'I' for Inactive)
REMARK    1  A    between atoms: C5_5  and  C6_6 
REMARK    2  A    between atoms: C5_5  and  N7_7 
ROOT
HETATM    1  C1  UNL     1     -33.861  16.045  -5.274  1.00 20.00     0.048 C 
HETATM    2  C2  UNL     1     -33.647  16.985  -4.094  1.00 20.00     0.273 C 
HETATM    3  C3  UNL     1     -35.531  15.749  -3.536  1.00 20.00     0.288 C 
HETATM    4  C4  UNL     1     -35.081  15.217  -4.889  1.00 20.00     0.087 C 
HETATM    5  N7  UNL     1     -34.994  17.112  -3.536  1.00 20.00     0.091 N 
HETATM    6 BR9  UNL     1     -34.653  13.327  -4.778  1.00 20.00    -0.089 Br
ENDROOT
BRANCH   5   7
HETATM    7  C5  UNL     1     -34.991  17.708  -2.208  1.00 20.00     0.303 C 
BRANCH   7   8
HETATM    8  C6  UNL     1     -34.015  17.010  -1.286  1.00 20.00     0.252 C 
HETATM    9  F8  UNL     1     -34.712  16.298  -0.361  1.00 20.00    -0.254 F 
ENDBRANCH   7   8
ENDBRANCH   5   7
TORSDOF 2
ENDMDL
MODEL 9
REMARK VINA RESULT:      -3.3     11.637     12.623
REMARK  2 active torsions:
REMARK  status: ('A' for Active; 'I' for Inactive)
REMARK    1  A    between atoms: C5_5  and  C6_6 
REMARK    2  A    between atoms: C5_5  and  N7_7 
ROOT
HETATM    1  C1  UNL     1     -33.263  15.495  -3.482  1.00 20.00     0.048 C 
HETATM    2  C2  UNL     1     -33.663  15.938  -4.884  1.00 20.00     0.273 C 
HETATM    3  C3  UNL     1     -35.665  15.763  -3.722  1.00 20.00     0.288 C 
HETATM    4  C4  UNL     1     -34.578  15.410  -2.716  1.00 20.00     0.087 C 
HETATM    5  N7  UNL     1     -35.032  15.436  -5.001  1.00 20.00     0.091 N 
HETATM    6 BR9  UNL     1     -34.607  16.637  -1.212  1.00 20.00    -0.089 Br
ENDROOT
BRANCH   5   7
HETATM    7  C5  UNL     1     -35.740  16.011  -6.136  1.00 20.00     0.303 C 
BRANCH   7   8
HETATM    8  C6  UNL     1     -36.056  14.965  -7.183  1.00 20.00     0.252 C 
HETATM    9  F8  UNL     1     -35.365  13.829  -6.897  1.00 20.00    -0.254 F 
ENDBRANCH   7   8
ENDBRANCH   5   7
TORSDOF 2
ENDMDL
