MODEL 1
REMARK VINA RESULT:      -4.1      0.000      0.000
REMARK  1 active torsions:
REMARK  status: ('A' for Active; 'I' for Inactive)
REMARK    1  A    between atoms: C7_7  and  N8_8 
ROOT
HETATM    1  C1  UNL     1     -33.482   5.627   2.223  1.00 20.00     0.048 C 
HETATM    2  C2  UNL     1     -34.583   5.439   3.259  1.00 20.00     0.274 C 
HETATM    3  C3  UNL     1     -32.924   6.628   4.364  1.00 20.00     0.288 C 
HETATM    4  C4  UNL     1     -32.408   6.433   2.946  1.00 20.00     0.087 C 
HETATM    5  N8  UNL     1     -33.849   5.504   4.523  1.00 20.00     0.093 N 
HETATM    6 BR9  UNL     1     -32.101   8.144   2.081  1.00 20.00    -0.089 Br
ENDROOT
BRANCH   5   7
HETATM    7  C7  UNL     1     -34.731   5.668   5.668  1.00 20.00     0.215 C 
HETATM    8  C5  UNL     1     -34.066   6.586   6.684  1.00 20.00     0.042 C 
HETATM    9  C6  UNL     1     -35.032   4.299   6.260  1.00 20.00     0.042 C 
ENDBRANCH   5   7
TORSDOF 1
ENDMDL
MODEL 2
REMARK VINA RESULT:      -3.9      2.420      3.849
REMARK  1 active torsions:
REMARK  status: ('A' for Active; 'I' for Inactive)
REMARK    1  A    between atoms: C7_7  and  N8_8 
ROOT
HETATM    1  C1  UNL     1     -35.082   5.278   3.527  1.00 20.00     0.048 C 
HETATM    2  C2  UNL     1     -33.868   5.664   2.692  1.00 20.00     0.274 C 
HETATM    3  C3  UNL     1     -33.404   6.465   4.821  1.00 20.00     0.288 C 
HETATM    4  C4  UNL     1     -34.759   5.781   4.930  1.00 20.00     0.087 C 
HETATM    5  N8  UNL     1     -33.347   6.831   3.404  1.00 20.00     0.093 N 
HETATM    6 BR9  UNL     1     -34.695   4.323   6.211  1.00 20.00    -0.089 Br
ENDROOT
BRANCH   5   7
HETATM    7  C7  UNL     1     -32.002   7.187   2.976  1.00 20.00     0.215 C 
HETATM    8  C5  UNL     1     -31.226   7.728   4.168  1.00 20.00     0.042 C 
HETATM    9  C6  UNL     1     -32.096   8.210   1.854  1.00 20.00     0.042 C 
ENDBRANCH   5   7
TORSDOF 1
ENDMDL
MODEL 3
REMARK VINA RESULT:      -3.8     12.059     12.611
REMARK  1 active torsions:
REMARK  status: ('A' for Active; 'I' for Inactive)
REMARK    1  A    between atoms: C7_7  and  N8_8 
ROOT
HETATM    1  C1  UNL     1     -35.622  14.068  -4.189  1.00 20.00     0.048 C 
HETATM    2  C2  UNL     1     -35.533  15.121  -3.092  1.00 20.00     0.274 C 
HETATM    3  C3  UNL     1     -33.620  15.431  -4.370  1.00 20.00     0.288 C 
HETATM    4  C4  UNL     1     -34.378  14.296  -5.042  1.00 20.00     0.087 C 
HETATM    5  N8  UNL     1     -34.092  15.353  -2.986  1.00 20.00     0.093 N 
HETATM    6 BR9  UNL     1     -34.844  14.762  -6.868  1.00 20.00    -0.089 Br
ENDROOT
BRANCH   5   7
HETATM    7  C7  UNL     1     -33.779  16.552  -2.223  1.00 20.00     0.215 C 
HETATM    8  C5  UNL     1     -34.646  16.588  -0.972  1.00 20.00     0.042 C 
HETATM    9  C6  UNL     1     -34.009  17.771  -3.103  1.00 20.00     0.042 C 
ENDBRANCH   5   7
TORSDOF 1
ENDMDL
MODEL 4
REMARK VINA RESULT:      -3.7     11.974     13.170
REMARK  1 active torsions:
REMARK  status: ('A' for Active; 'I' for Inactive)
REMARK    1  A    between atoms: C7_7  and  N8_8 
ROOT
HETATM    1  C1  UNL     1     -33.860  17.561  -3.409  1.00 20.00     0.048 C 
HETATM    2  C2  UNL     1     -34.556  16.914  -4.600  1.00 20.00     0.274 C 
HETATM    3  C3  UNL     1     -34.283  15.194  -3.065  1.00 20.00     0.288 C 
HETATM    4  C4  UNL     1     -33.709  16.433  -2.394  1.00 20.00     0.087 C 
HETATM    5  N8  UNL     1     -34.148  15.513  -4.488  1.00 20.00     0.093 N 
HETATM    6 BR9  UNL     1     -34.660  16.828  -0.747  1.00 20.00    -0.089 Br
ENDROOT
BRANCH   5   7
HETATM    7  C7  UNL     1     -34.944  14.635  -5.333  1.00 20.00     0.215 C 
HETATM    8  C5  UNL     1     -34.736  13.194  -4.891  1.00 20.00     0.042 C 
HETATM    9  C6  UNL     1     -34.537  14.844  -6.784  1.00 20.00     0.042 C 
ENDBRANCH   5   7
TORSDOF 1
ENDMDL
MODEL 5
REMARK VINA RESULT:      -3.7     11.780     13.003
REMARK  1 active torsions:
REMARK  status: ('A' for Active; 'I' for Inactive)
REMARK    1  A    between atoms: C7_7  and  N8_8 
ROOT
HETATM    1  C1  UNL     1     -34.097  17.417  -3.737  1.00 20.00     0.048 C 
HETATM    2  C2  UNL     1     -34.640  16.519  -4.842  1.00 20.00     0.274 C 
HETATM    3  C3  UNL     1     -33.908  15.057  -3.194  1.00 20.00     0.288 C 
HETATM    4  C4  UNL     1     -33.645  16.452  -2.646  1.00 20.00     0.087 C 
HETATM    5  N8  UNL     1     -33.893  15.277  -4.642  1.00 20.00     0.093 N 
HETATM    6 BR9  UNL     1     -34.621  16.740  -0.993  1.00 20.00    -0.089 Br
ENDROOT
BRANCH   5   7
HETATM    7  C7  UNL     1     -34.467  14.161  -5.379  1.00 20.00     0.215 C 
HETATM    8  C5  UNL     1     -35.436  14.698  -6.423  1.00 20.00     0.042 C 
HETATM    9  C6  UNL     1     -35.158  13.225  -4.399  1.00 20.00     0.042 C 
ENDBRANCH   5   7
TORSDOF 1
ENDMDL
MODEL 6
REMARK VINA RESULT:      -3.6     11.580     12.452
REMARK  1 active torsions:
REMARK  status: ('A' for Active; 'I' for Inactive)
REMARK    1  A    between atoms: C7_7  and  N8_8 
ROOT
HETATM    1  C1  UNL     1     -36.164  16.748  -2.729  1.00 20.00     0.048 C 
HETATM    2  C2  UNL     1     -35.965  15.445  -3.494  1.00 20.00     0.274 C 
HETATM    3  C3  UNL     1     -33.838  16.050  -2.788  1.00 20.00     0.288 C 
HETATM    4  C4  UNL     1     -34.768  17.124  -2.244  1.00 20.00     0.087 C 
HETATM    5  N8  UNL     1     -34.578  15.548  -3.948  1.00 20.00     0.093 N 
HETATM    6 BR9  UNL     1     -34.683  17.193  -0.306  1.00 20.00    -0.089 Br
ENDROOT
BRANCH   5   7
HETATM    7  C7  UNL     1     -34.058  14.277  -4.432  1.00 20.00     0.215 C 
HETATM    8  C5  UNL     1     -35.178  13.245  -4.426  1.00 20.00     0.042 C 
HETATM    9  C6  UNL     1     -32.896  13.851  -3.548  1.00 20.00     0.042 C 
ENDBRANCH   5   7
TORSDOF 1
ENDMDL
MODEL 7
REMARK VINA RESULT:      -3.6      9.891     10.939
REMARK  1 active torsions:
REMARK  status: ('A' for Active; 'I' for Inactive)
REMARK    1  A    between atoms: C7_7  and  N8_8 
ROOT
HETATM    1  C1  UNL     1     -43.386   3.987  -3.308  1.00 20.00     0.048 C 
HETATM    2  C2  UNL     1     -42.877   5.397  -3.037  1.00 20.00     0.274 C 
HETATM    3  C3  UNL     1     -41.406   4.006  -1.902  1.00 20.00     0.288 C 
HETATM    4  C4  UNL     1     -42.399   3.077  -2.585  1.00 20.00     0.087 C 
HETATM    5  N8  UNL     1     -42.174   5.245  -1.763  1.00 20.00     0.093 N 
HETATM    6 BR9  UNL     1     -41.493   1.885  -3.821  1.00 20.00    -0.089 Br
ENDROOT
BRANCH   5   7
HETATM    7  C7  UNL     1     -41.330   6.390  -1.455  1.00 20.00     0.215 C 
HETATM    8  C5  UNL     1     -40.650   6.163  -0.112  1.00 20.00     0.042 C 
HETATM    9  C6  UNL     1     -42.188   7.647  -1.446  1.00 20.00     0.042 C 
ENDBRANCH   5   7
TORSDOF 1
ENDMDL
MODEL 8
REMARK VINA RESULT:      -3.6     12.305     13.496
REMARK  1 active torsions:
REMARK  status: ('A' for Active; 'I' for Inactive)
REMARK    1  A    between atoms: C7_7  and  N8_8 
ROOT
HETATM    1  C1  UNL     1     -34.574  17.126  -0.383  1.00 20.00     0.048 C 
HETATM    2  C2  UNL     1     -34.505  16.235  -1.617  1.00 20.00     0.274 C 
HETATM    3  C3  UNL     1     -33.651  18.278  -2.312  1.00 20.00     0.288 C 
HETATM    4  C4  UNL     1     -33.985  18.457  -0.838  1.00 20.00     0.087 C 
HETATM    5  N8  UNL     1     -34.558  17.201  -2.714  1.00 20.00     0.093 N 
HETATM    6 BR9  UNL     1     -32.397  18.916   0.179  1.00 20.00    -0.089 Br
ENDROOT
BRANCH   5   7
HETATM    7  C7  UNL     1     -34.187  16.610  -3.992  1.00 20.00     0.215 C 
HETATM    8  C5  UNL     1     -33.213  15.465  -3.747  1.00 20.00     0.042 C 
HETATM    9  C6  UNL     1     -33.577  17.688  -4.876  1.00 20.00     0.042 C 
ENDBRANCH   5   7
TORSDOF 1
ENDMDL
MODEL 9
REMARK VINA RESULT:      -3.5     12.359     13.699
REMARK  1 active torsions:
REMARK  status: ('A' for Active; 'I' for Inactive)
REMARK    1  A    between atoms: C7_7  and  N8_8 
ROOT
HETATM    1  C1  UNL     1     -34.436  14.319  -3.348  1.00 20.00     0.048 C 
HETATM    2  C2  UNL     1     -34.170  14.589  -4.824  1.00 20.00     0.274 C 
HETATM    3  C3  UNL     1     -35.640  16.262  -4.169  1.00 20.00     0.288 C 
HETATM    4  C4  UNL     1     -35.379  15.437  -2.917  1.00 20.00     0.087 C 
HETATM    5  N8  UNL     1     -35.377  15.301  -5.242  1.00 20.00     0.093 N 
HETATM    6 BR9  UNL     1     -34.591  16.532  -1.520  1.00 20.00    -0.089 Br
ENDROOT
BRANCH   5   7
HETATM    7  C7  UNL     1     -35.219  15.945  -6.538  1.00 20.00     0.215 C 
HETATM    8  C5  UNL     1     -34.794  14.904  -7.564  1.00 20.00     0.042 C 
HETATM    9  C6  UNL     1     -34.194  17.062  -6.412  1.00 20.00     0.042 C 
ENDBRANCH   5   7
TORSDOF 1
ENDMDL
