MODEL 1
REMARK VINA RESULT:      -4.1      0.000      0.000
REMARK  5 active torsions:
REMARK  status: ('A' for Active; 'I' for Inactive)
REMARK    1  A    between atoms: C3_3  and  C4_4 
REMARK    2  A    between atoms: C3_3  and  N8_8 
REMARK    3  A    between atoms: C5_5  and  C7_7 
REMARK    4  A    between atoms: C6_6  and  C7_7 
REMARK    5  A    between atoms: C7_7  and  N8_8 
ROOT
HETATM    1  C7  UNL     1     -33.818   6.265   4.236  1.00 20.00     0.237 C 
ENDROOT
BRANCH   1   2
HETATM    2  C5  UNL     1     -34.920   5.575   3.424  1.00 20.00     0.150 C 
HETATM    3 CL10 UNL     1     -34.279   4.908   1.896  1.00 20.00    -0.128 Cl
ENDBRANCH   1   2
BRANCH   1   4
HETATM    4  C6  UNL     1     -33.811   5.802   5.715  1.00 20.00     0.011 C 
HETATM    5  C1  UNL     1     -34.961   4.855   6.068  1.00 20.00     0.012 C 
HETATM    6  C2  UNL     1     -33.814   6.999   6.675  1.00 20.00     0.012 C 
ENDBRANCH   1   4
BRANCH   1   7
HETATM    7  N8  UNL     1     -32.525   6.068   3.618  1.00 20.00     0.091 N 
HETATM    8  H25 UNL     1     -31.945   5.471   4.212  1.00 20.00     0.316 HD
BRANCH   7   9
HETATM    9  C3  UNL     1     -31.835   7.339   3.415  1.00 20.00     0.301 C 
BRANCH   9  10
HETATM   10  C4  UNL     1     -32.362   8.069   2.198  1.00 20.00     0.252 C 
HETATM   11  F9  UNL     1     -31.336   8.289   1.334  1.00 20.00    -0.254 F 
ENDBRANCH   9  10
ENDBRANCH   7   9
ENDBRANCH   1   7
TORSDOF 5
ENDMDL
MODEL 2
REMARK VINA RESULT:      -4.1     11.628     12.542
REMARK  5 active torsions:
REMARK  status: ('A' for Active; 'I' for Inactive)
REMARK    1  A    between atoms: C3_3  and  C4_4 
REMARK    2  A    between atoms: C3_3  and  N8_8 
REMARK    3  A    between atoms: C5_5  and  C7_7 
REMARK    4  A    between atoms: C6_6  and  C7_7 
REMARK    5  A    between atoms: C7_7  and  N8_8 
ROOT
HETATM    1  C7  UNL     1     -33.523  15.425  -3.363  1.00 20.00     0.237 C 
ENDROOT
BRANCH   1   2
HETATM    2  C5  UNL     1     -34.136  16.702  -2.776  1.00 20.00     0.150 C 
HETATM    3 CL10 UNL     1     -34.424  16.535  -1.021  1.00 20.00    -0.128 Cl
ENDBRANCH   1   2
BRANCH   1   4
HETATM    4  C6  UNL     1     -34.563  14.282  -3.478  1.00 20.00     0.011 C 
HETATM    5  C1  UNL     1     -34.258  13.283  -4.599  1.00 20.00     0.012 C 
HETATM    6  C2  UNL     1     -35.984  14.834  -3.651  1.00 20.00     0.012 C 
ENDBRANCH   1   4
BRANCH   1   7
HETATM    7  N8  UNL     1     -32.896  15.695  -4.638  1.00 20.00     0.091 N 
HETATM    8  H25 UNL     1     -31.886  15.794  -4.512  1.00 20.00     0.316 HD
BRANCH   7   9
HETATM    9  C3  UNL     1     -33.417  16.922  -5.236  1.00 20.00     0.301 C 
BRANCH   9  10
HETATM   10  C4  UNL     1     -34.183  16.636  -6.511  1.00 20.00     0.252 C 
HETATM   11  F9  UNL     1     -33.765  15.447  -7.022  1.00 20.00    -0.254 F 
ENDBRANCH   9  10
ENDBRANCH   7   9
ENDBRANCH   1   7
TORSDOF 5
ENDMDL
MODEL 3
REMARK VINA RESULT:      -3.8      2.102      2.697
REMARK  5 active torsions:
REMARK  status: ('A' for Active; 'I' for Inactive)
REMARK    1  A    between atoms: C3_3  and  C4_4 
REMARK    2  A    between atoms: C3_3  and  N8_8 
REMARK    3  A    between atoms: C5_5  and  C7_7 
REMARK    4  A    between atoms: C6_6  and  C7_7 
REMARK    5  A    between atoms: C7_7  and  N8_8 
ROOT
HETATM    1  C7  UNL     1     -33.708   5.907   5.005  1.00 20.00     0.237 C 
ENDROOT
BRANCH   1   2
HETATM    2  C5  UNL     1     -34.149   6.427   6.379  1.00 20.00     0.150 C 
HETATM    3 CL10 UNL     1     -33.006   7.647   7.008  1.00 20.00    -0.128 Cl
ENDBRANCH   1   2
BRANCH   1   4
HETATM    4  C6  UNL     1     -34.683   4.838   4.449  1.00 20.00     0.011 C 
HETATM    5  C1  UNL     1     -35.893   5.430   3.719  1.00 20.00     0.012 C 
HETATM    6  C2  UNL     1     -35.160   3.888   5.554  1.00 20.00     0.012 C 
ENDBRANCH   1   4
BRANCH   1   7
HETATM    7  N8  UNL     1     -33.539   7.000   4.073  1.00 20.00     0.091 N 
HETATM    8  H25 UNL     1     -34.413   7.162   3.568  1.00 20.00     0.316 HD
BRANCH   7   9
HETATM    9  C3  UNL     1     -32.484   6.712   3.104  1.00 20.00     0.301 C 
BRANCH   9  10
HETATM   10  C4  UNL     1     -31.787   7.977   2.649  1.00 20.00     0.252 C 
HETATM   11  F9  UNL     1     -31.933   8.103   1.303  1.00 20.00    -0.254 F 
ENDBRANCH   9  10
ENDBRANCH   7   9
ENDBRANCH   1   7
TORSDOF 5
ENDMDL
MODEL 4
REMARK VINA RESULT:      -3.8     11.057     12.915
REMARK  5 active torsions:
REMARK  status: ('A' for Active; 'I' for Inactive)
REMARK    1  A    between atoms: C3_3  and  C4_4 
REMARK    2  A    between atoms: C3_3  and  N8_8 
REMARK    3  A    between atoms: C5_5  and  C7_7 
REMARK    4  A    between atoms: C6_6  and  C7_7 
REMARK    5  A    between atoms: C7_7  and  N8_8 
ROOT
HETATM    1  C7  UNL     1     -33.648  15.998  -4.091  1.00 20.00     0.237 C 
ENDROOT
BRANCH   1   2
HETATM    2  C5  UNL     1     -33.654  16.808  -2.789  1.00 20.00     0.150 C 
HETATM    3 CL10 UNL     1     -34.787  16.110  -1.598  1.00 20.00    -0.128 Cl
ENDBRANCH   1   2
BRANCH   1   4
HETATM    4  C6  UNL     1     -33.397  16.894  -5.331  1.00 20.00     0.011 C 
HETATM    5  C1  UNL     1     -33.551  18.391  -5.048  1.00 20.00     0.012 C 
HETATM    6  C2  UNL     1     -34.303  16.493  -6.502  1.00 20.00     0.012 C 
ENDBRANCH   1   4
BRANCH   1   7
HETATM    7  N8  UNL     1     -32.689  14.918  -4.020  1.00 20.00     0.091 N 
HETATM    8  H25 UNL     1     -32.196  14.834  -4.912  1.00 20.00     0.316 HD
BRANCH   7   9
HETATM    9  C3  UNL     1     -33.342  13.646  -3.725  1.00 20.00     0.301 C 
BRANCH   9  10
HETATM   10  C4  UNL     1     -34.403  13.314  -4.753  1.00 20.00     0.252 C 
HETATM   11  F9  UNL     1     -35.599  13.162  -4.123  1.00 20.00    -0.254 F 
ENDBRANCH   9  10
ENDBRANCH   7   9
ENDBRANCH   1   7
TORSDOF 5
ENDMDL
MODEL 5
REMARK VINA RESULT:      -3.8     11.414     12.198
REMARK  5 active torsions:
REMARK  status: ('A' for Active; 'I' for Inactive)
REMARK    1  A    between atoms: C3_3  and  C4_4 
REMARK    2  A    between atoms: C3_3  and  N8_8 
REMARK    3  A    between atoms: C5_5  and  C7_7 
REMARK    4  A    between atoms: C6_6  and  C7_7 
REMARK    5  A    between atoms: C7_7  and  N8_8 
ROOT
HETATM    1  C7  UNL     1     -33.486  16.246  -3.455  1.00 20.00     0.237 C 
ENDROOT
BRANCH   1   2
HETATM    2  C5  UNL     1     -33.868  17.322  -4.478  1.00 20.00     0.150 C 
HETATM    3 CL10 UNL     1     -33.953  16.646  -6.129  1.00 20.00    -0.128 Cl
ENDBRANCH   1   2
BRANCH   1   4
HETATM    4  C6  UNL     1     -34.681  15.857  -2.548  1.00 20.00     0.011 C 
HETATM    5  C1  UNL     1     -36.046  16.226  -3.137  1.00 20.00     0.012 C 
HETATM    6  C2  UNL     1     -34.540  16.467  -1.148  1.00 20.00     0.012 C 
ENDBRANCH   1   4
BRANCH   1   7
HETATM    7  N8  UNL     1     -32.927  15.086  -4.114  1.00 20.00     0.091 N 
HETATM    8  H25 UNL     1     -33.059  15.166  -5.125  1.00 20.00     0.316 HD
BRANCH   7   9
HETATM    9  C3  UNL     1     -33.565  13.856  -3.654  1.00 20.00     0.301 C 
BRANCH   9  10
HETATM   10  C4  UNL     1     -34.411  13.228  -4.742  1.00 20.00     0.252 C 
HETATM   11  F9  UNL     1     -35.671  13.035  -4.266  1.00 20.00    -0.254 F 
ENDBRANCH   9  10
ENDBRANCH   7   9
ENDBRANCH   1   7
TORSDOF 5
ENDMDL
MODEL 6
REMARK VINA RESULT:      -3.7     11.367     12.516
REMARK  5 active torsions:
REMARK  status: ('A' for Active; 'I' for Inactive)
REMARK    1  A    between atoms: C3_3  and  C4_4 
REMARK    2  A    between atoms: C3_3  and  N8_8 
REMARK    3  A    between atoms: C5_5  and  C7_7 
REMARK    4  A    between atoms: C6_6  and  C7_7 
REMARK    5  A    between atoms: C7_7  and  N8_8 
ROOT
HETATM    1  C7  UNL     1     -34.482  16.049  -4.635  1.00 20.00     0.237 C 
ENDROOT
BRANCH   1   2
HETATM    2  C5  UNL     1     -33.865  16.219  -6.028  1.00 20.00     0.150 C 
HETATM    3 CL10 UNL     1     -34.392  14.919  -7.133  1.00 20.00    -0.128 Cl
ENDBRANCH   1   2
BRANCH   1   4
HETATM    4  C6  UNL     1     -35.111  14.645  -4.445  1.00 20.00     0.011 C 
HETATM    5  C1  UNL     1     -36.499  14.676  -3.798  1.00 20.00     0.012 C 
HETATM    6  C2  UNL     1     -34.186  13.723  -3.641  1.00 20.00     0.012 C 
ENDBRANCH   1   4
BRANCH   1   7
HETATM    7  N8  UNL     1     -33.508  16.332  -3.604  1.00 20.00     0.091 N 
HETATM    8  H25 UNL     1     -33.381  15.507  -3.012  1.00 20.00     0.316 HD
BRANCH   7   9
HETATM    9  C3  UNL     1     -33.931  17.450  -2.766  1.00 20.00     0.301 C 
BRANCH   9  10
HETATM   10  C4  UNL     1     -33.948  17.071  -1.300  1.00 20.00     0.252 C 
HETATM   11  F9  UNL     1     -34.694  15.944  -1.142  1.00 20.00    -0.254 F 
ENDBRANCH   9  10
ENDBRANCH   7   9
ENDBRANCH   1   7
TORSDOF 5
ENDMDL
MODEL 7
REMARK VINA RESULT:      -3.7     11.406     12.412
REMARK  5 active torsions:
REMARK  status: ('A' for Active; 'I' for Inactive)
REMARK    1  A    between atoms: C3_3  and  C4_4 
REMARK    2  A    between atoms: C3_3  and  N8_8 
REMARK    3  A    between atoms: C5_5  and  C7_7 
REMARK    4  A    between atoms: C6_6  and  C7_7 
REMARK    5  A    between atoms: C7_7  and  N8_8 
ROOT
HETATM    1  C7  UNL     1     -35.216  15.108  -3.667  1.00 20.00     0.237 C 
ENDROOT
BRANCH   1   2
HETATM    2  C5  UNL     1     -34.776  13.647  -3.821  1.00 20.00     0.150 C 
HETATM    3 CL10 UNL     1     -33.003  13.486  -3.671  1.00 20.00    -0.128 Cl
ENDBRANCH   1   2
BRANCH   1   4
HETATM    4  C6  UNL     1     -34.180  15.947  -2.879  1.00 20.00     0.011 C 
HETATM    5  C1  UNL     1     -34.650  16.346  -1.476  1.00 20.00     0.012 C 
HETATM    6  C2  UNL     1     -33.766  17.201  -3.660  1.00 20.00     0.012 C 
ENDBRANCH   1   4
BRANCH   1   7
HETATM    7  N8  UNL     1     -35.498  15.698  -4.957  1.00 20.00     0.091 N 
HETATM    8  H25 UNL     1     -36.385  16.206  -4.919  1.00 20.00     0.316 HD
BRANCH   7   9
HETATM    9  C3  UNL     1     -35.588  14.678  -5.999  1.00 20.00     0.301 C 
BRANCH   9  10
HETATM   10  C4  UNL     1     -34.668  14.988  -7.161  1.00 20.00     0.252 C 
HETATM   11  F9  UNL     1     -33.604  15.702  -6.705  1.00 20.00    -0.254 F 
ENDBRANCH   9  10
ENDBRANCH   7   9
ENDBRANCH   1   7
TORSDOF 5
ENDMDL
MODEL 8
REMARK VINA RESULT:      -3.7     11.684     12.354
REMARK  5 active torsions:
REMARK  status: ('A' for Active; 'I' for Inactive)
REMARK    1  A    between atoms: C3_3  and  C4_4 
REMARK    2  A    between atoms: C3_3  and  N8_8 
REMARK    3  A    between atoms: C5_5  and  C7_7 
REMARK    4  A    between atoms: C6_6  and  C7_7 
REMARK    5  A    between atoms: C7_7  and  N8_8 
ROOT
HETATM    1  C7  UNL     1     -35.423  15.472  -3.788  1.00 20.00     0.237 C 
ENDROOT
BRANCH   1   2
HETATM    2  C5  UNL     1     -34.838  16.722  -4.456  1.00 20.00     0.150 C 
HETATM    3 CL10 UNL     1     -34.910  16.600  -6.236  1.00 20.00    -0.128 Cl
ENDBRANCH   1   2
BRANCH   1   4
HETATM    4  C6  UNL     1     -34.362  14.356  -3.613  1.00 20.00     0.011 C 
HETATM    5  C1  UNL     1     -32.919  14.871  -3.640  1.00 20.00     0.012 C 
HETATM    6  C2  UNL     1     -34.536  13.250  -4.661  1.00 20.00     0.012 C 
ENDBRANCH   1   4
BRANCH   1   7
HETATM    7  N8  UNL     1     -36.046  15.807  -2.526  1.00 20.00     0.091 N 
HETATM    8  H25 UNL     1     -37.052  15.936  -2.661  1.00 20.00     0.316 HD
BRANCH   7   9
HETATM    9  C3  UNL     1     -35.486  17.035  -1.968  1.00 20.00     0.301 C 
BRANCH   9  10
HETATM   10  C4  UNL     1     -34.619  16.751  -0.759  1.00 20.00     0.252 C 
HETATM   11  F9  UNL     1     -33.334  17.090  -1.047  1.00 20.00    -0.254 F 
ENDBRANCH   9  10
ENDBRANCH   7   9
ENDBRANCH   1   7
TORSDOF 5
ENDMDL
MODEL 9
REMARK VINA RESULT:      -3.6      9.832     10.932
REMARK  5 active torsions:
REMARK  status: ('A' for Active; 'I' for Inactive)
REMARK    1  A    between atoms: C3_3  and  C4_4 
REMARK    2  A    between atoms: C3_3  and  N8_8 
REMARK    3  A    between atoms: C5_5  and  C7_7 
REMARK    4  A    between atoms: C6_6  and  C7_7 
REMARK    5  A    between atoms: C7_7  and  N8_8 
ROOT
HETATM    1  C7  UNL     1     -41.515   4.848  -1.988  1.00 20.00     0.237 C 
ENDROOT
BRANCH   1   2
HETATM    2  C5  UNL     1     -42.949   5.175  -2.421  1.00 20.00     0.150 C 
HETATM    3 CL10 UNL     1     -42.992   6.598  -3.499  1.00 20.00    -0.128 Cl
ENDBRANCH   1   2
BRANCH   1   4
HETATM    4  C6  UNL     1     -41.196   5.396  -0.574  1.00 20.00     0.011 C 
HETATM    5  C1  UNL     1     -42.289   5.106   0.458  1.00 20.00     0.012 C 
HETATM    6  C2  UNL     1     -40.906   6.902  -0.611  1.00 20.00     0.012 C 
ENDBRANCH   1   4
BRANCH   1   7
HETATM    7  N8  UNL     1     -41.265   3.426  -2.069  1.00 20.00     0.091 N 
HETATM    8  H25 UNL     1     -40.364   3.259  -2.524  1.00 20.00     0.316 HD
BRANCH   7   9
HETATM    9  C3  UNL     1     -42.309   2.747  -2.832  1.00 20.00     0.301 C 
BRANCH   9  10
HETATM   10  C4  UNL     1     -41.753   1.575  -3.614  1.00 20.00     0.252 C 
HETATM   11  F9  UNL     1     -40.569   1.940  -4.176  1.00 20.00    -0.254 F 
ENDBRANCH   9  10
ENDBRANCH   7   9
ENDBRANCH   1   7
TORSDOF 5
ENDMDL
