MODEL 1
REMARK VINA RESULT:      -4.3      0.000      0.000
REMARK  2 active torsions:
REMARK  status: ('A' for Active; 'I' for Inactive)
REMARK    1  A    between atoms: C6_6  and  C7_7 
REMARK    2  A    between atoms: C6_6  and  N9_9 
ROOT
HETATM    1  C1  UNL     1     -37.105  14.597  -3.994  1.00 20.00     0.095 C 
HETATM    2  C2  UNL     1     -33.768  13.493  -4.133  1.00 20.00     0.033 C 
HETATM    3  C3  UNL     1     -34.999  13.746  -4.992  1.00 20.00     0.053 C 
HETATM    4  C4  UNL     1     -33.554  14.811  -3.419  1.00 20.00     0.274 C 
HETATM    5  C5  UNL     1     -35.716  14.934  -4.332  1.00 20.00     0.328 C 
HETATM    6  N8  UNL     1     -38.202  14.332  -3.727  1.00 20.00    -0.195 NA
HETATM    7  N9  UNL     1     -34.928  15.217  -3.122  1.00 20.00     0.108 N 
ENDROOT
BRANCH   7   8
HETATM    8  C6  UNL     1     -35.005  16.611  -2.702  1.00 20.00     0.305 C 
BRANCH   8   9
HETATM    9  C7  UNL     1     -34.171  16.863  -1.463  1.00 20.00     0.252 C 
HETATM   10  F10 UNL     1     -34.761  16.251  -0.401  1.00 20.00    -0.254 F 
ENDBRANCH   8   9
ENDBRANCH   7   8
TORSDOF 2
ENDMDL
MODEL 2
REMARK VINA RESULT:      -4.2      1.702      2.203
REMARK  2 active torsions:
REMARK  status: ('A' for Active; 'I' for Inactive)
REMARK    1  A    between atoms: C6_6  and  C7_7 
REMARK    2  A    between atoms: C6_6  and  N9_9 
ROOT
HETATM    1  C1  UNL     1     -34.861  13.763  -4.618  1.00 20.00     0.095 C 
HETATM    2  C2  UNL     1     -33.309  16.849  -5.282  1.00 20.00     0.033 C 
HETATM    3  C3  UNL     1     -34.371  15.888  -5.798  1.00 20.00     0.053 C 
HETATM    4  C4  UNL     1     -33.717  17.091  -3.843  1.00 20.00     0.274 C 
HETATM    5  C5  UNL     1     -34.963  15.226  -4.545  1.00 20.00     0.328 C 
HETATM    6  N8  UNL     1     -34.782  12.607  -4.675  1.00 20.00    -0.195 NA
HETATM    7  N9  UNL     1     -34.164  15.760  -3.431  1.00 20.00     0.108 N 
ENDROOT
BRANCH   7   8
HETATM    8  C6  UNL     1     -34.894  15.797  -2.169  1.00 20.00     0.305 C 
BRANCH   8   9
HETATM    9  C7  UNL     1     -34.274  16.781  -1.199  1.00 20.00     0.252 C 
HETATM   10  F10 UNL     1     -34.830  16.600   0.029  1.00 20.00    -0.254 F 
ENDBRANCH   8   9
ENDBRANCH   7   8
TORSDOF 2
ENDMDL
MODEL 3
REMARK VINA RESULT:      -4.1      2.288      2.410
REMARK  2 active torsions:
REMARK  status: ('A' for Active; 'I' for Inactive)
REMARK    1  A    between atoms: C6_6  and  C7_7 
REMARK    2  A    between atoms: C6_6  and  N9_9 
ROOT
HETATM    1  C1  UNL     1     -36.761  14.489  -4.130  1.00 20.00     0.095 C 
HETATM    2  C2  UNL     1     -33.367  13.672  -3.708  1.00 20.00     0.033 C 
HETATM    3  C3  UNL     1     -34.607  13.322  -4.518  1.00 20.00     0.053 C 
HETATM    4  C4  UNL     1     -33.230  15.169  -3.892  1.00 20.00     0.274 C 
HETATM    5  C5  UNL     1     -35.393  14.636  -4.642  1.00 20.00     0.328 C 
HETATM    6  N8  UNL     1     -37.843  14.374  -3.726  1.00 20.00    -0.195 NA
HETATM    7  N9  UNL     1     -34.627  15.604  -3.842  1.00 20.00     0.108 N 
ENDROOT
BRANCH   7   8
HETATM    8  C6  UNL     1     -34.785  16.979  -4.300  1.00 20.00     0.305 C 
BRANCH   8   9
HETATM    9  C7  UNL     1     -33.625  17.411  -5.172  1.00 20.00     0.252 C 
HETATM   10  F10 UNL     1     -33.908  17.107  -6.468  1.00 20.00    -0.254 F 
ENDBRANCH   8   9
ENDBRANCH   7   8
TORSDOF 2
ENDMDL
MODEL 4
REMARK VINA RESULT:      -4.1      2.901      3.622
REMARK  2 active torsions:
REMARK  status: ('A' for Active; 'I' for Inactive)
REMARK    1  A    between atoms: C6_6  and  C7_7 
REMARK    2  A    between atoms: C6_6  and  N9_9 
ROOT
HETATM    1  C1  UNL     1     -36.632  14.381  -4.108  1.00 20.00     0.095 C 
HETATM    2  C2  UNL     1     -33.347  15.450  -3.446  1.00 20.00     0.033 C 
HETATM    3  C3  UNL     1     -34.249  14.224  -3.440  1.00 20.00     0.053 C 
HETATM    4  C4  UNL     1     -33.497  15.996  -4.851  1.00 20.00     0.274 C 
HETATM    5  C5  UNL     1     -35.246  14.448  -4.587  1.00 20.00     0.328 C 
HETATM    6  N8  UNL     1     -37.728  14.329  -3.731  1.00 20.00    -0.195 NA
HETATM    7  N9  UNL     1     -34.924  15.787  -5.102  1.00 20.00     0.108 N 
ENDROOT
BRANCH   7   8
HETATM    8  C6  UNL     1     -35.260  15.956  -6.510  1.00 20.00     0.305 C 
BRANCH   8   9
HETATM    9  C7  UNL     1     -34.567  14.922  -7.373  1.00 20.00     0.252 C 
HETATM   10  F10 UNL     1     -35.496  14.052  -7.853  1.00 20.00    -0.254 F 
ENDBRANCH   8   9
ENDBRANCH   7   8
TORSDOF 2
ENDMDL
MODEL 5
REMARK VINA RESULT:      -4.0      2.345      3.158
REMARK  2 active torsions:
REMARK  status: ('A' for Active; 'I' for Inactive)
REMARK    1  A    between atoms: C6_6  and  C7_7 
REMARK    2  A    between atoms: C6_6  and  N9_9 
ROOT
HETATM    1  C1  UNL     1     -37.231  14.703  -4.202  1.00 20.00     0.095 C 
HETATM    2  C2  UNL     1     -35.579  15.847  -7.088  1.00 20.00     0.033 C 
HETATM    3  C3  UNL     1     -36.196  16.314  -5.778  1.00 20.00     0.053 C 
HETATM    4  C4  UNL     1     -34.595  14.778  -6.657  1.00 20.00     0.274 C 
HETATM    5  C5  UNL     1     -35.966  15.163  -4.787  1.00 20.00     0.328 C 
HETATM    6  N8  UNL     1     -38.230  14.339  -3.738  1.00 20.00    -0.195 NA
HETATM    7  N9  UNL     1     -35.335  14.104  -5.590  1.00 20.00     0.108 N 
ENDROOT
BRANCH   7   8
HETATM    8  C6  UNL     1     -34.477  13.224  -4.805  1.00 20.00     0.305 C 
BRANCH   8   9
HETATM    9  C7  UNL     1     -33.596  14.010  -3.857  1.00 20.00     0.252 C 
HETATM   10  F10 UNL     1     -32.525  13.245  -3.513  1.00 20.00    -0.254 F 
ENDBRANCH   8   9
ENDBRANCH   7   8
TORSDOF 2
ENDMDL
MODEL 6
REMARK VINA RESULT:      -4.0      2.842      3.937
REMARK  2 active torsions:
REMARK  status: ('A' for Active; 'I' for Inactive)
REMARK    1  A    between atoms: C6_6  and  C7_7 
REMARK    2  A    between atoms: C6_6  and  N9_9 
ROOT
HETATM    1  C1  UNL     1     -34.544  13.924  -3.897  1.00 20.00     0.095 C 
HETATM    2  C2  UNL     1     -35.421  17.023  -2.485  1.00 20.00     0.033 C 
HETATM    3  C3  UNL     1     -34.717  15.708  -2.184  1.00 20.00     0.053 C 
HETATM    4  C4  UNL     1     -34.730  17.519  -3.739  1.00 20.00     0.274 C 
HETATM    5  C5  UNL     1     -34.092  15.267  -3.516  1.00 20.00     0.328 C 
HETATM    6  N8  UNL     1     -34.900  12.861  -4.199  1.00 20.00    -0.195 NA
HETATM    7  N9  UNL     1     -34.542  16.276  -4.488  1.00 20.00     0.108 N 
ENDROOT
BRANCH   7   8
HETATM    8  C6  UNL     1     -33.621  16.447  -5.605  1.00 20.00     0.305 C 
BRANCH   8   9
HETATM    9  C7  UNL     1     -34.274  16.087  -6.923  1.00 20.00     0.252 C 
HETATM   10  F10 UNL     1     -34.032  14.776  -7.193  1.00 20.00    -0.254 F 
ENDBRANCH   8   9
ENDBRANCH   7   8
TORSDOF 2
ENDMDL
MODEL 7
REMARK VINA RESULT:      -3.9      2.066      2.525
REMARK  2 active torsions:
REMARK  status: ('A' for Active; 'I' for Inactive)
REMARK    1  A    between atoms: C6_6  and  C7_7 
REMARK    2  A    between atoms: C6_6  and  N9_9 
ROOT
HETATM    1  C1  UNL     1     -37.540  14.777  -4.169  1.00 20.00     0.095 C 
HETATM    2  C2  UNL     1     -35.435  14.435  -6.965  1.00 20.00     0.033 C 
HETATM    3  C3  UNL     1     -36.544  15.297  -6.379  1.00 20.00     0.053 C 
HETATM    4  C4  UNL     1     -34.386  14.412  -5.872  1.00 20.00     0.274 C 
HETATM    5  C5  UNL     1     -36.334  15.250  -4.858  1.00 20.00     0.328 C 
HETATM    6  N8  UNL     1     -38.493  14.404  -3.622  1.00 20.00    -0.195 NA
HETATM    7  N9  UNL     1     -35.211  14.319  -4.667  1.00 20.00     0.108 N 
ENDROOT
BRANCH   7   8
HETATM    8  C6  UNL     1     -34.442  14.588  -3.458  1.00 20.00     0.305 C 
BRANCH   8   9
HETATM    9  C7  UNL     1     -33.112  15.235  -3.780  1.00 20.00     0.252 C 
HETATM   10  F10 UNL     1     -32.111  14.367  -3.466  1.00 20.00    -0.254 F 
ENDBRANCH   8   9
ENDBRANCH   7   8
TORSDOF 2
ENDMDL
MODEL 8
REMARK VINA RESULT:      -3.9      2.098      3.433
REMARK  2 active torsions:
REMARK  status: ('A' for Active; 'I' for Inactive)
REMARK    1  A    between atoms: C6_6  and  C7_7 
REMARK    2  A    between atoms: C6_6  and  N9_9 
ROOT
HETATM    1  C1  UNL     1     -34.876  13.815  -4.294  1.00 20.00     0.095 C 
HETATM    2  C2  UNL     1     -34.460  16.272  -1.812  1.00 20.00     0.033 C 
HETATM    3  C3  UNL     1     -33.788  15.649  -3.027  1.00 20.00     0.053 C 
HETATM    4  C4  UNL     1     -35.823  16.684  -2.330  1.00 20.00     0.274 C 
HETATM    5  C5  UNL     1     -34.938  15.244  -3.963  1.00 20.00     0.328 C 
HETATM    6  N8  UNL     1     -34.829  12.686  -4.557  1.00 20.00    -0.195 NA
HETATM    7  N9  UNL     1     -36.160  15.564  -3.209  1.00 20.00     0.108 N 
ENDROOT
BRANCH   7   8
HETATM    8  C6  UNL     1     -37.299  15.868  -4.066  1.00 20.00     0.305 C 
BRANCH   8   9
HETATM    9  C7  UNL     1     -38.395  14.834  -3.920  1.00 20.00     0.252 C 
HETATM   10  F10 UNL     1     -39.191  15.179  -2.873  1.00 20.00    -0.254 F 
ENDBRANCH   8   9
ENDBRANCH   7   8
TORSDOF 2
ENDMDL
MODEL 9
REMARK VINA RESULT:      -3.8      3.189      4.434
REMARK  2 active torsions:
REMARK  status: ('A' for Active; 'I' for Inactive)
REMARK    1  A    between atoms: C6_6  and  C7_7 
REMARK    2  A    between atoms: C6_6  and  N9_9 
ROOT
HETATM    1  C1  UNL     1     -33.956  16.933  -5.063  1.00 20.00     0.095 C 
HETATM    2  C2  UNL     1     -33.372  13.737  -3.716  1.00 20.00     0.033 C 
HETATM    3  C3  UNL     1     -33.679  15.178  -3.333  1.00 20.00     0.053 C 
HETATM    4  C4  UNL     1     -34.474  13.386  -4.696  1.00 20.00     0.274 C 
HETATM    5  C5  UNL     1     -34.548  15.725  -4.475  1.00 20.00     0.328 C 
HETATM    6  N8  UNL     1     -33.489  17.888  -5.527  1.00 20.00    -0.195 NA
HETATM    7  N9  UNL     1     -34.605  14.630  -5.456  1.00 20.00     0.108 N 
ENDROOT
BRANCH   7   8
HETATM    8  C6  UNL     1     -35.817  14.647  -6.265  1.00 20.00     0.305 C 
BRANCH   8   9
HETATM    9  C7  UNL     1     -35.497  14.614  -7.745  1.00 20.00     0.252 C 
HETATM   10  F10 UNL     1     -34.147  14.676  -7.906  1.00 20.00    -0.254 F 
ENDBRANCH   8   9
ENDBRANCH   7   8
TORSDOF 2
ENDMDL
