MODEL 1
REMARK VINA RESULT:      -5.2      0.000      0.000
REMARK  4 active torsions:
REMARK  status: ('A' for Active; 'I' for Inactive)
REMARK    1  A    between atoms: C2_2  and  C8_8 
REMARK    2  A    between atoms: C6_6  and  C9_9 
REMARK    3  A    between atoms: C8_8  and  C9_9 
REMARK    4  A    between atoms: C9_9  and  O10_10 
ROOT
HETATM    1  C1  UNL     1     -32.197   8.699   1.454  1.00 20.00    -0.111 C 
HETATM    2  C2  UNL     1     -32.030   8.040   2.444  1.00 20.00    -0.104 C 
HETATM    3  C7  UNL     1     -32.401   9.500   0.249  1.00 20.00     0.112 C 
ENDROOT
BRANCH   2   4
HETATM    4  C8  UNL     1     -31.825   7.233   3.659  1.00 20.00     0.126 C 
BRANCH   4   5
HETATM    5  C9  UNL     1     -32.755   6.019   3.684  1.00 20.00     0.143 C 
BRANCH   5   6
HETATM    6  C6  UNL     1     -34.103   6.370   4.302  1.00 20.00     0.077 C 
HETATM    7  C4  UNL     1     -35.202   5.372   3.943  1.00 20.00     0.018 C 
HETATM    8  C3  UNL     1     -35.091   4.202   4.912  1.00 20.00     0.011 C 
HETATM    9  C5  UNL     1     -35.005   4.801   6.304  1.00 20.00     0.074 C 
HETATM   10  S11 UNL     1     -33.991   6.295   6.121  1.00 20.00    -0.162 SA
ENDBRANCH   5   6
BRANCH   5  11
HETATM   11  O10 UNL     1     -32.972   5.577   2.344  1.00 20.00    -0.394 OA
HETATM   12  H25 UNL     1     -33.366   4.695   2.407  1.00 20.00     0.210 HD
ENDBRANCH   5  11
ENDBRANCH   4   5
ENDBRANCH   2   4
TORSDOF 4
ENDMDL
MODEL 2
REMARK VINA RESULT:      -4.8     11.233     11.913
REMARK  4 active torsions:
REMARK  status: ('A' for Active; 'I' for Inactive)
REMARK    1  A    between atoms: C2_2  and  C8_8 
REMARK    2  A    between atoms: C6_6  and  C9_9 
REMARK    3  A    between atoms: C8_8  and  C9_9 
REMARK    4  A    between atoms: C9_9  and  O10_10 
ROOT
HETATM    1  C1  UNL     1     -34.463  16.937  -0.918  1.00 20.00    -0.111 C 
HETATM    2  C2  UNL     1     -34.059  16.671  -2.018  1.00 20.00    -0.104 C 
HETATM    3  C7  UNL     1     -34.953  17.262   0.420  1.00 20.00     0.112 C 
ENDROOT
BRANCH   2   4
HETATM    4  C8  UNL     1     -33.565  16.344  -3.366  1.00 20.00     0.126 C 
BRANCH   4   5
HETATM    5  C9  UNL     1     -33.320  14.841  -3.518  1.00 20.00     0.143 C 
BRANCH   5   6
HETATM    6  C6  UNL     1     -34.074  14.280  -4.719  1.00 20.00     0.077 C 
HETATM    7  C4  UNL     1     -35.251  13.393  -4.322  1.00 20.00     0.018 C 
HETATM    8  C3  UNL     1     -36.436  14.306  -4.038  1.00 20.00     0.011 C 
HETATM    9  C5  UNL     1     -36.539  15.259  -5.216  1.00 20.00     0.074 C 
HETATM   10  S11 UNL     1     -34.824  15.640  -5.673  1.00 20.00    -0.162 SA
ENDBRANCH   5   6
BRANCH   5  11
HETATM   11  O10 UNL     1     -31.924  14.621  -3.715  1.00 20.00    -0.394 OA
HETATM   12  H25 UNL     1     -31.554  15.463  -4.018  1.00 20.00     0.210 HD
ENDBRANCH   5  11
ENDBRANCH   4   5
ENDBRANCH   2   4
TORSDOF 4
ENDMDL
MODEL 3
REMARK VINA RESULT:      -4.7     11.359     12.563
REMARK  4 active torsions:
REMARK  status: ('A' for Active; 'I' for Inactive)
REMARK    1  A    between atoms: C2_2  and  C8_8 
REMARK    2  A    between atoms: C6_6  and  C9_9 
REMARK    3  A    between atoms: C8_8  and  C9_9 
REMARK    4  A    between atoms: C9_9  and  O10_10 
ROOT
HETATM    1  C1  UNL     1     -34.539  16.271  -1.525  1.00 20.00    -0.111 C 
HETATM    2  C2  UNL     1     -34.320  15.571  -2.475  1.00 20.00    -0.104 C 
HETATM    3  C7  UNL     1     -34.807  17.123  -0.367  1.00 20.00     0.112 C 
ENDROOT
BRANCH   2   4
HETATM    4  C8  UNL     1     -34.049  14.713  -3.641  1.00 20.00     0.126 C 
BRANCH   4   5
HETATM    5  C9  UNL     1     -35.329  14.050  -4.154  1.00 20.00     0.143 C 
BRANCH   5   6
HETATM    6  C6  UNL     1     -35.645  14.491  -5.578  1.00 20.00     0.077 C 
HETATM    7  C4  UNL     1     -36.927  15.316  -5.676  1.00 20.00     0.018 C 
HETATM    8  C3  UNL     1     -36.569  16.757  -5.337  1.00 20.00     0.011 C 
HETATM    9  C5  UNL     1     -35.350  17.108  -6.171  1.00 20.00     0.074 C 
HETATM   10  S11 UNL     1     -34.335  15.603  -6.190  1.00 20.00    -0.162 SA
ENDBRANCH   5   6
BRANCH   5  11
HETATM   11  O10 UNL     1     -35.148  12.635  -4.146  1.00 20.00    -0.394 OA
HETATM   12  H25 UNL     1     -35.378  12.325  -5.035  1.00 20.00     0.210 HD
ENDBRANCH   5  11
ENDBRANCH   4   5
ENDBRANCH   2   4
TORSDOF 4
ENDMDL
MODEL 4
REMARK VINA RESULT:      -4.5     10.982     11.945
REMARK  4 active torsions:
REMARK  status: ('A' for Active; 'I' for Inactive)
REMARK    1  A    between atoms: C2_2  and  C8_8 
REMARK    2  A    between atoms: C6_6  and  C9_9 
REMARK    3  A    between atoms: C8_8  and  C9_9 
REMARK    4  A    between atoms: C9_9  and  O10_10 
ROOT
HETATM    1  C1  UNL     1     -35.012  17.287   0.480  1.00 20.00    -0.111 C 
HETATM    2  C2  UNL     1     -34.594  16.927  -0.586  1.00 20.00    -0.104 C 
HETATM    3  C7  UNL     1     -35.520  17.726   1.778  1.00 20.00     0.112 C 
ENDROOT
BRANCH   2   4
HETATM    4  C8  UNL     1     -34.083  16.483  -1.895  1.00 20.00     0.126 C 
BRANCH   4   5
HETATM    5  C9  UNL     1     -35.189  16.479  -2.951  1.00 20.00     0.143 C 
BRANCH   5   6
HETATM    6  C6  UNL     1     -34.666  15.978  -4.293  1.00 20.00     0.077 C 
HETATM    7  C4  UNL     1     -33.356  15.204  -4.171  1.00 20.00     0.018 C 
HETATM    8  C3  UNL     1     -33.707  13.769  -3.801  1.00 20.00     0.011 C 
HETATM    9  C5  UNL     1     -34.789  13.325  -4.769  1.00 20.00     0.074 C 
HETATM   10  S11 UNL     1     -35.842  14.783  -5.010  1.00 20.00    -0.162 SA
ENDBRANCH   5   6
BRANCH   5  11
HETATM   11  O10 UNL     1     -36.235  15.610  -2.519  1.00 20.00    -0.394 OA
HETATM   12  H25 UNL     1     -36.229  15.636  -1.551  1.00 20.00     0.210 HD
ENDBRANCH   5  11
ENDBRANCH   4   5
ENDBRANCH   2   4
TORSDOF 4
ENDMDL
MODEL 5
REMARK VINA RESULT:      -4.4     11.491     12.657
REMARK  4 active torsions:
REMARK  status: ('A' for Active; 'I' for Inactive)
REMARK    1  A    between atoms: C2_2  and  C8_8 
REMARK    2  A    between atoms: C6_6  and  C9_9 
REMARK    3  A    between atoms: C8_8  and  C9_9 
REMARK    4  A    between atoms: C9_9  and  O10_10 
ROOT
HETATM    1  C1  UNL     1     -34.693  16.758  -0.778  1.00 20.00    -0.111 C 
HETATM    2  C2  UNL     1     -34.765  16.112  -1.788  1.00 20.00    -0.104 C 
HETATM    3  C7  UNL     1     -34.606  17.544   0.451  1.00 20.00     0.112 C 
ENDROOT
BRANCH   2   4
HETATM    4  C8  UNL     1     -34.851  15.319  -3.026  1.00 20.00     0.126 C 
BRANCH   4   5
HETATM    5  C9  UNL     1     -36.204  15.509  -3.715  1.00 20.00     0.143 C 
BRANCH   5   6
HETATM    6  C6  UNL     1     -36.302  14.662  -4.979  1.00 20.00     0.077 C 
HETATM    7  C4  UNL     1     -36.690  15.475  -6.212  1.00 20.00     0.018 C 
HETATM    8  C3  UNL     1     -35.418  16.104  -6.763  1.00 20.00     0.011 C 
HETATM    9  C5  UNL     1     -34.389  14.992  -6.854  1.00 20.00     0.074 C 
HETATM   10  S11 UNL     1     -34.668  13.962  -5.386  1.00 20.00    -0.162 SA
ENDBRANCH   5   6
BRANCH   5  11
HETATM   11  O10 UNL     1     -37.238  15.106  -2.818  1.00 20.00    -0.394 OA
HETATM   12  H25 UNL     1     -38.048  15.543  -3.120  1.00 20.00     0.210 HD
ENDBRANCH   5  11
ENDBRANCH   4   5
ENDBRANCH   2   4
TORSDOF 4
ENDMDL
MODEL 6
REMARK VINA RESULT:      -4.3     11.368     12.984
REMARK  4 active torsions:
REMARK  status: ('A' for Active; 'I' for Inactive)
REMARK    1  A    between atoms: C2_2  and  C8_8 
REMARK    2  A    between atoms: C6_6  and  C9_9 
REMARK    3  A    between atoms: C8_8  and  C9_9 
REMARK    4  A    between atoms: C9_9  and  O10_10 
ROOT
HETATM    1  C1  UNL     1     -34.419  16.412  -1.579  1.00 20.00    -0.111 C 
HETATM    2  C2  UNL     1     -34.392  15.550  -2.415  1.00 20.00    -0.104 C 
HETATM    3  C7  UNL     1     -34.452  17.460  -0.562  1.00 20.00     0.112 C 
ENDROOT
BRANCH   2   4
HETATM    4  C8  UNL     1     -34.358  14.492  -3.439  1.00 20.00     0.126 C 
BRANCH   4   5
HETATM    5  C9  UNL     1     -33.790  15.016  -4.760  1.00 20.00     0.143 C 
BRANCH   5   6
HETATM    6  C6  UNL     1     -34.778  15.948  -5.452  1.00 20.00     0.077 C 
HETATM    7  C4  UNL     1     -34.400  16.246  -6.902  1.00 20.00     0.018 C 
HETATM    8  C3  UNL     1     -34.924  15.099  -7.755  1.00 20.00     0.011 C 
HETATM    9  C5  UNL     1     -36.373  14.888  -7.354  1.00 20.00     0.074 C 
HETATM   10  S11 UNL     1     -36.415  15.152  -5.558  1.00 20.00    -0.162 SA
ENDBRANCH   5   6
BRANCH   5  11
HETATM   11  O10 UNL     1     -32.593  15.743  -4.490  1.00 20.00    -0.394 OA
HETATM   12  H25 UNL     1     -32.298  16.110  -5.337  1.00 20.00     0.210 HD
ENDBRANCH   5  11
ENDBRANCH   4   5
ENDBRANCH   2   4
TORSDOF 4
ENDMDL
MODEL 7
REMARK VINA RESULT:      -4.3     11.425     12.204
REMARK  4 active torsions:
REMARK  status: ('A' for Active; 'I' for Inactive)
REMARK    1  A    between atoms: C2_2  and  C8_8 
REMARK    2  A    between atoms: C6_6  and  C9_9 
REMARK    3  A    between atoms: C8_8  and  C9_9 
REMARK    4  A    between atoms: C9_9  and  O10_10 
ROOT
HETATM    1  C1  UNL     1     -34.631  17.348   0.137  1.00 20.00    -0.111 C 
HETATM    2  C2  UNL     1     -34.666  16.642  -0.834  1.00 20.00    -0.104 C 
HETATM    3  C7  UNL     1     -34.588  18.208   1.318  1.00 20.00     0.112 C 
ENDROOT
BRANCH   2   4
HETATM    4  C8  UNL     1     -34.710  15.775  -2.023  1.00 20.00     0.126 C 
BRANCH   4   5
HETATM    5  C9  UNL     1     -34.149  16.490  -3.254  1.00 20.00     0.143 C 
BRANCH   5   6
HETATM    6  C6  UNL     1     -33.469  15.506  -4.199  1.00 20.00     0.077 C 
HETATM    7  C4  UNL     1     -33.681  14.049  -3.798  1.00 20.00     0.018 C 
HETATM    8  C3  UNL     1     -35.030  13.613  -4.355  1.00 20.00     0.011 C 
HETATM    9  C5  UNL     1     -35.049  14.031  -5.815  1.00 20.00     0.074 C 
HETATM   10  S11 UNL     1     -34.203  15.636  -5.864  1.00 20.00    -0.162 SA
ENDBRANCH   5   6
BRANCH   5  11
HETATM   11  O10 UNL     1     -35.224  17.119  -3.951  1.00 20.00    -0.394 OA
HETATM   12  H25 UNL     1     -35.751  16.406  -4.341  1.00 20.00     0.210 HD
ENDBRANCH   5  11
ENDBRANCH   4   5
ENDBRANCH   2   4
TORSDOF 4
ENDMDL
MODEL 8
REMARK VINA RESULT:      -4.2     11.081     12.040
REMARK  4 active torsions:
REMARK  status: ('A' for Active; 'I' for Inactive)
REMARK    1  A    between atoms: C2_2  and  C8_8 
REMARK    2  A    between atoms: C6_6  and  C9_9 
REMARK    3  A    between atoms: C8_8  and  C9_9 
REMARK    4  A    between atoms: C9_9  and  O10_10 
ROOT
HETATM    1  C1  UNL     1     -34.797  17.766   0.899  1.00 20.00    -0.111 C 
HETATM    2  C2  UNL     1     -34.815  17.107  -0.104  1.00 20.00    -0.104 C 
HETATM    3  C7  UNL     1     -34.775  18.569   2.120  1.00 20.00     0.112 C 
ENDROOT
BRANCH   2   4
HETATM    4  C8  UNL     1     -34.839  16.298  -1.335  1.00 20.00     0.126 C 
BRANCH   4   5
HETATM    5  C9  UNL     1     -33.754  16.747  -2.316  1.00 20.00     0.143 C 
BRANCH   5   6
HETATM    6  C6  UNL     1     -34.045  16.243  -3.726  1.00 20.00     0.077 C 
HETATM    7  C4  UNL     1     -32.994  15.259  -4.236  1.00 20.00     0.018 C 
HETATM    8  C3  UNL     1     -33.358  13.883  -3.696  1.00 20.00     0.011 C 
HETATM    9  C5  UNL     1     -34.832  13.676  -3.997  1.00 20.00     0.074 C 
HETATM   10  S11 UNL     1     -35.604  15.298  -3.738  1.00 20.00    -0.162 SA
ENDBRANCH   5   6
BRANCH   5  11
HETATM   11  O10 UNL     1     -33.719  18.173  -2.342  1.00 20.00    -0.394 OA
HETATM   12  H25 UNL     1     -34.606  18.464  -2.601  1.00 20.00     0.210 HD
ENDBRANCH   5  11
ENDBRANCH   4   5
ENDBRANCH   2   4
TORSDOF 4
ENDMDL
MODEL 9
REMARK VINA RESULT:      -4.1     10.863     12.504
REMARK  4 active torsions:
REMARK  status: ('A' for Active; 'I' for Inactive)
REMARK    1  A    between atoms: C2_2  and  C8_8 
REMARK    2  A    between atoms: C6_6  and  C9_9 
REMARK    3  A    between atoms: C8_8  and  C9_9 
REMARK    4  A    between atoms: C9_9  and  O10_10 
ROOT
HETATM    1  C1  UNL     1     -37.596  15.599  -6.376  1.00 20.00    -0.111 C 
HETATM    2  C2  UNL     1     -37.181  15.132  -5.350  1.00 20.00    -0.104 C 
HETATM    3  C7  UNL     1     -38.099  16.169  -7.624  1.00 20.00     0.112 C 
ENDROOT
BRANCH   2   4
HETATM    4  C8  UNL     1     -36.674  14.558  -4.092  1.00 20.00     0.126 C 
BRANCH   4   5
HETATM    5  C9  UNL     1     -35.281  13.955  -4.278  1.00 20.00     0.143 C 
BRANCH   5   6
HETATM    6  C6  UNL     1     -34.293  14.529  -3.269  1.00 20.00     0.077 C 
HETATM    7  C4  UNL     1     -33.009  15.042  -3.917  1.00 20.00     0.018 C 
HETATM    8  C3  UNL     1     -33.282  16.455  -4.416  1.00 20.00     0.011 C 
HETATM    9  C5  UNL     1     -33.927  17.203  -3.263  1.00 20.00     0.074 C 
HETATM   10  S11 UNL     1     -35.015  15.994  -2.458  1.00 20.00    -0.162 SA
ENDBRANCH   5   6
BRANCH   5  11
HETATM   11  O10 UNL     1     -35.360  12.543  -4.083  1.00 20.00    -0.394 OA
HETATM   12  H25 UNL     1     -34.513  12.272  -3.698  1.00 20.00     0.210 HD
ENDBRANCH   5  11
ENDBRANCH   4   5
ENDBRANCH   2   4
TORSDOF 4
ENDMDL
