MODEL 1
REMARK VINA RESULT:      -4.0      0.000      0.000
REMARK  0 active torsions:
REMARK  status: ('A' for Active; 'I' for Inactive)
ROOT
HETATM    1  C1  UNL     1     -33.633  13.705  -3.736  1.00 20.00     0.021 C 
HETATM    2  C2  UNL     1     -33.289  15.184  -3.608  1.00 20.00     0.010 C 
HETATM    3  C3  UNL     1     -35.726  14.843  -3.518  1.00 20.00     0.029 C 
HETATM    4  C4  UNL     1     -35.054  13.703  -4.282  1.00 20.00     0.083 C 
HETATM    5  C5  UNL     1     -34.611  15.870  -3.191  1.00 20.00    -0.046 C 
HETATM    6  C6  UNL     1     -34.812  17.178  -3.967  1.00 20.00     0.015 C 
HETATM    7  C7  UNL     1     -34.603  16.183  -1.687  1.00 20.00     0.015 C 
HETATM    8 CL8  UNL     1     -35.064  14.023  -6.040  1.00 20.00    -0.125 Cl
ENDROOT
TORSDOF 0
ENDMDL
MODEL 2
REMARK VINA RESULT:      -3.8      2.036      3.150
REMARK  0 active torsions:
REMARK  status: ('A' for Active; 'I' for Inactive)
ROOT
HETATM    1  C1  UNL     1     -32.891  14.899  -3.557  1.00 20.00     0.021 C 
HETATM    2  C2  UNL     1     -33.987  13.877  -3.838  1.00 20.00     0.010 C 
HETATM    3  C3  UNL     1     -34.751  16.153  -4.390  1.00 20.00     0.029 C 
HETATM    4  C4  UNL     1     -33.649  16.200  -3.333  1.00 20.00     0.083 C 
HETATM    5  C5  UNL     1     -35.067  14.653  -4.627  1.00 20.00    -0.046 C 
HETATM    6  C6  UNL     1     -36.471  14.292  -4.125  1.00 20.00     0.015 C 
HETATM    7  C7  UNL     1     -34.977  14.323  -6.126  1.00 20.00     0.015 C 
HETATM    8 CL8  UNL     1     -34.347  16.258  -1.688  1.00 20.00    -0.125 Cl
ENDROOT
TORSDOF 0
ENDMDL
MODEL 3
REMARK VINA RESULT:      -3.7      2.120      3.341
REMARK  0 active torsions:
REMARK  status: ('A' for Active; 'I' for Inactive)
ROOT
HETATM    1  C1  UNL     1     -34.250  17.238  -3.811  1.00 20.00     0.021 C 
HETATM    2  C2  UNL     1     -33.300  16.128  -4.245  1.00 20.00     0.010 C 
HETATM    3  C3  UNL     1     -35.481  15.199  -3.576  1.00 20.00     0.029 C 
HETATM    4  C4  UNL     1     -35.233  16.539  -2.884  1.00 20.00     0.083 C 
HETATM    5  C5  UNL     1     -34.183  14.863  -4.355  1.00 20.00    -0.046 C 
HETATM    6  C6  UNL     1     -33.468  13.648  -3.751  1.00 20.00     0.015 C 
HETATM    7  C7  UNL     1     -34.511  14.564  -5.827  1.00 20.00     0.015 C 
HETATM    8 CL8  UNL     1     -34.521  16.296  -1.262  1.00 20.00    -0.125 Cl
ENDROOT
TORSDOF 0
ENDMDL
MODEL 4
REMARK VINA RESULT:      -3.7     11.038     11.913
REMARK  0 active torsions:
REMARK  status: ('A' for Active; 'I' for Inactive)
ROOT
HETATM    1  C1  UNL     1     -40.926   5.907   0.034  1.00 20.00     0.021 C 
HETATM    2  C2  UNL     1     -40.997   7.066  -0.954  1.00 20.00     0.010 C 
HETATM    3  C3  UNL     1     -43.024   5.674  -1.092  1.00 20.00     0.029 C 
HETATM    4  C4  UNL     1     -41.846   4.855  -0.567  1.00 20.00     0.083 C 
HETATM    5  C5  UNL     1     -42.455   7.068  -1.467  1.00 20.00    -0.046 C 
HETATM    6  C6  UNL     1     -42.497   7.297  -2.983  1.00 20.00     0.015 C 
HETATM    7  C7  UNL     1     -43.267   8.175  -0.776  1.00 20.00     0.015 C 
HETATM    8 CL8  UNL     1     -41.036   3.980  -1.899  1.00 20.00    -0.125 Cl
ENDROOT
TORSDOF 0
ENDMDL
MODEL 5
REMARK VINA RESULT:      -3.6      2.098      3.228
REMARK  0 active torsions:
REMARK  status: ('A' for Active; 'I' for Inactive)
ROOT
HETATM    1  C1  UNL     1     -35.024  15.691  -2.415  1.00 20.00     0.021 C 
HETATM    2  C2  UNL     1     -35.569  15.288  -3.780  1.00 20.00     0.010 C 
HETATM    3  C3  UNL     1     -33.107  15.300  -3.791  1.00 20.00     0.029 C 
HETATM    4  C4  UNL     1     -33.642  16.250  -2.721  1.00 20.00     0.083 C 
HETATM    5  C5  UNL     1     -34.342  14.773  -4.567  1.00 20.00    -0.046 C 
HETATM    6  C6  UNL     1     -34.361  15.298  -6.008  1.00 20.00     0.015 C 
HETATM    7  C7  UNL     1     -34.331  13.236  -4.599  1.00 20.00     0.015 C 
HETATM    8 CL8  UNL     1     -33.752  17.920  -3.349  1.00 20.00    -0.125 Cl
ENDROOT
TORSDOF 0
ENDMDL
MODEL 6
REMARK VINA RESULT:      -3.6      1.221      2.166
REMARK  0 active torsions:
REMARK  status: ('A' for Active; 'I' for Inactive)
ROOT
HETATM    1  C1  UNL     1     -36.176  14.776  -4.800  1.00 20.00     0.021 C 
HETATM    2  C2  UNL     1     -35.152  14.186  -3.839  1.00 20.00     0.010 C 
HETATM    3  C3  UNL     1     -34.418  16.392  -4.652  1.00 20.00     0.029 C 
HETATM    4  C4  UNL     1     -35.366  15.739  -5.656  1.00 20.00     0.083 C 
HETATM    5  C5  UNL     1     -34.171  15.342  -3.537  1.00 20.00    -0.046 C 
HETATM    6  C6  UNL     1     -32.721  14.843  -3.552  1.00 20.00     0.015 C 
HETATM    7  C7  UNL     1     -34.469  15.954  -2.158  1.00 20.00     0.015 C 
HETATM    8 CL8  UNL     1     -34.452  14.861  -6.916  1.00 20.00    -0.125 Cl
ENDROOT
TORSDOF 0
ENDMDL
MODEL 7
REMARK VINA RESULT:      -3.6      1.228      2.534
REMARK  0 active torsions:
REMARK  status: ('A' for Active; 'I' for Inactive)
ROOT
HETATM    1  C1  UNL     1     -33.697  17.714  -4.485  1.00 20.00     0.021 C 
HETATM    2  C2  UNL     1     -35.025  17.407  -3.802  1.00 20.00     0.010 C 
HETATM    3  C3  UNL     1     -33.527  15.454  -3.719  1.00 20.00     0.029 C 
HETATM    4  C4  UNL     1     -33.176  16.348  -4.907  1.00 20.00     0.083 C 
HETATM    5  C5  UNL     1     -34.801  16.060  -3.076  1.00 20.00    -0.046 C 
HETATM    6  C6  UNL     1     -36.012  15.136  -3.259  1.00 20.00     0.015 C 
HETATM    7  C7  UNL     1     -34.578  16.291  -1.573  1.00 20.00     0.015 C 
HETATM    8 CL8  UNL     1     -33.992  15.782  -6.392  1.00 20.00    -0.125 Cl
ENDROOT
TORSDOF 0
ENDMDL
MODEL 8
REMARK VINA RESULT:      -3.6      1.644      2.295
REMARK  0 active torsions:
REMARK  status: ('A' for Active; 'I' for Inactive)
ROOT
HETATM    1  C1  UNL     1     -34.079  15.476  -6.401  1.00 20.00     0.021 C 
HETATM    2  C2  UNL     1     -33.812  16.157  -5.064  1.00 20.00     0.010 C 
HETATM    3  C3  UNL     1     -34.583  13.842  -4.727  1.00 20.00     0.029 C 
HETATM    4  C4  UNL     1     -35.085  14.385  -6.064  1.00 20.00     0.083 C 
HETATM    5  C5  UNL     1     -33.869  15.022  -4.016  1.00 20.00    -0.046 C 
HETATM    6  C6  UNL     1     -34.642  15.471  -2.770  1.00 20.00     0.015 C 
HETATM    7  C7  UNL     1     -32.450  14.607  -3.596  1.00 20.00     0.015 C 
HETATM    8 CL8  UNL     1     -36.731  15.062  -5.898  1.00 20.00    -0.125 Cl
ENDROOT
TORSDOF 0
ENDMDL
MODEL 9
REMARK VINA RESULT:      -3.6     12.523     13.402
REMARK  0 active torsions:
REMARK  status: ('A' for Active; 'I' for Inactive)
ROOT
HETATM    1  C1  UNL     1     -35.202   5.606   3.649  1.00 20.00     0.021 C 
HETATM    2  C2  UNL     1     -35.036   4.352   4.500  1.00 20.00     0.010 C 
HETATM    3  C3  UNL     1     -33.916   6.277   5.551  1.00 20.00     0.029 C 
HETATM    4  C4  UNL     1     -34.016   6.475   4.040  1.00 20.00     0.083 C 
HETATM    5  C5  UNL     1     -34.455   4.853   5.843  1.00 20.00    -0.046 C 
HETATM    6  C6  UNL     1     -33.337   3.922   6.330  1.00 20.00     0.015 C 
HETATM    7  C7  UNL     1     -35.554   4.911   6.916  1.00 20.00     0.015 C 
HETATM    8 CL8  UNL     1     -32.523   5.925   3.226  1.00 20.00    -0.125 Cl
ENDROOT
TORSDOF 0
ENDMDL
