MODEL 1
REMARK VINA RESULT:      -3.8      0.000      0.000
REMARK  0 active torsions:
REMARK  status: ('A' for Active; 'I' for Inactive)
ROOT
HETATM    1  C1  UNL     1     -32.977  14.968  -3.587  1.00 20.00     0.016 C 
HETATM    2  C2  UNL     1     -34.139  13.986  -3.675  1.00 20.00     0.010 C 
HETATM    3  C3  UNL     1     -34.896  16.211  -4.392  1.00 20.00     0.024 C 
HETATM    4  C4  UNL     1     -33.652  16.326  -3.514  1.00 20.00     0.058 C 
HETATM    5  C5  UNL     1     -35.183  14.696  -4.559  1.00 20.00    -0.047 C 
HETATM    6  C6  UNL     1     -36.606  14.346  -4.109  1.00 20.00     0.015 C 
HETATM    7  C7  UNL     1     -35.009  14.280  -6.029  1.00 20.00     0.015 C 
HETATM    8 BR8  UNL     1     -34.163  16.729  -1.668  1.00 20.00    -0.091 Br
ENDROOT
TORSDOF 0
ENDMDL
MODEL 2
REMARK VINA RESULT:      -3.8      2.161      3.294
REMARK  0 active torsions:
REMARK  status: ('A' for Active; 'I' for Inactive)
ROOT
HETATM    1  C1  UNL     1     -34.000  13.833  -3.586  1.00 20.00     0.016 C 
HETATM    2  C2  UNL     1     -33.344  15.199  -3.425  1.00 20.00     0.010 C 
HETATM    3  C3  UNL     1     -35.779  15.480  -3.601  1.00 20.00     0.024 C 
HETATM    4  C4  UNL     1     -35.348  14.148  -4.210  1.00 20.00     0.058 C 
HETATM    5  C5  UNL     1     -34.497  16.141  -3.029  1.00 20.00    -0.047 C 
HETATM    6  C6  UNL     1     -34.283  17.541  -3.616  1.00 20.00     0.015 C 
HETATM    7  C7  UNL     1     -34.595  16.252  -1.498  1.00 20.00     0.015 C 
HETATM    8 BR8  UNL     1     -35.171  14.318  -6.152  1.00 20.00    -0.091 Br
ENDROOT
TORSDOF 0
ENDMDL
MODEL 3
REMARK VINA RESULT:      -3.8      1.080      1.973
REMARK  0 active torsions:
REMARK  status: ('A' for Active; 'I' for Inactive)
ROOT
HETATM    1  C1  UNL     1     -34.309  17.192  -3.957  1.00 20.00     0.016 C 
HETATM    2  C2  UNL     1     -33.299  16.091  -4.256  1.00 20.00     0.010 C 
HETATM    3  C3  UNL     1     -35.374  15.085  -3.407  1.00 20.00     0.024 C 
HETATM    4  C4  UNL     1     -35.272  16.547  -2.978  1.00 20.00     0.058 C 
HETATM    5  C5  UNL     1     -34.133  14.796  -4.292  1.00 20.00    -0.047 C 
HETATM    6  C6  UNL     1     -33.325  13.612  -3.749  1.00 20.00     0.015 C 
HETATM    7  C7  UNL     1     -34.569  14.482  -5.733  1.00 20.00     0.015 C 
HETATM    8 BR8  UNL     1     -34.567  16.668  -1.156  1.00 20.00    -0.091 Br
ENDROOT
TORSDOF 0
ENDMDL
MODEL 4
REMARK VINA RESULT:      -3.7      2.266      3.391
REMARK  0 active torsions:
REMARK  status: ('A' for Active; 'I' for Inactive)
ROOT
HETATM    1  C1  UNL     1     -36.232  14.341  -4.452  1.00 20.00     0.016 C 
HETATM    2  C2  UNL     1     -34.943  13.961  -3.732  1.00 20.00     0.010 C 
HETATM    3  C3  UNL     1     -34.713  16.216  -4.680  1.00 20.00     0.024 C 
HETATM    4  C4  UNL     1     -35.804  15.437  -5.410  1.00 20.00     0.058 C 
HETATM    5  C5  UNL     1     -34.193  15.293  -3.546  1.00 20.00    -0.047 C 
HETATM    6  C6  UNL     1     -32.678  15.085  -3.648  1.00 20.00     0.015 C 
HETATM    7  C7  UNL     1     -34.520  15.903  -2.172  1.00 20.00     0.015 C 
HETATM    8 BR8  UNL     1     -35.088  14.655  -7.056  1.00 20.00    -0.091 Br
ENDROOT
TORSDOF 0
ENDMDL
MODEL 5
REMARK VINA RESULT:      -3.6      1.531      2.113
REMARK  0 active torsions:
REMARK  status: ('A' for Active; 'I' for Inactive)
ROOT
HETATM    1  C1  UNL     1     -34.627  16.090  -2.148  1.00 20.00     0.016 C 
HETATM    2  C2  UNL     1     -35.235  15.073  -3.107  1.00 20.00     0.010 C 
HETATM    3  C3  UNL     1     -33.259  16.098  -4.149  1.00 20.00     0.024 C 
HETATM    4  C4  UNL     1     -33.814  17.000  -3.050  1.00 20.00     0.058 C 
HETATM    5  C5  UNL     1     -34.132  14.815  -4.151  1.00 20.00    -0.047 C 
HETATM    6  C6  UNL     1     -34.740  14.557  -5.534  1.00 20.00     0.015 C 
HETATM    7  C7  UNL     1     -33.286  13.596  -3.745  1.00 20.00     0.015 C 
HETATM    8 BR8  UNL     1     -34.960  18.384  -3.826  1.00 20.00    -0.091 Br
ENDROOT
TORSDOF 0
ENDMDL
MODEL 6
REMARK VINA RESULT:      -3.5      2.140      3.150
REMARK  0 active torsions:
REMARK  status: ('A' for Active; 'I' for Inactive)
ROOT
HETATM    1  C1  UNL     1     -34.378  15.104  -6.330  1.00 20.00     0.016 C 
HETATM    2  C2  UNL     1     -33.840  15.742  -5.055  1.00 20.00     0.010 C 
HETATM    3  C3  UNL     1     -35.499  14.027  -4.470  1.00 20.00     0.024 C 
HETATM    4  C4  UNL     1     -35.706  14.506  -5.905  1.00 20.00     0.058 C 
HETATM    5  C5  UNL     1     -34.251  14.773  -3.930  1.00 20.00    -0.047 C 
HETATM    6  C6  UNL     1     -34.573  15.538  -2.642  1.00 20.00     0.015 C 
HETATM    7  C7  UNL     1     -33.117  13.774  -3.645  1.00 20.00     0.015 C 
HETATM    8 BR8  UNL     1     -37.111  15.867  -5.967  1.00 20.00    -0.091 Br
ENDROOT
TORSDOF 0
ENDMDL
MODEL 7
REMARK VINA RESULT:      -3.5      1.142      1.801
REMARK  0 active torsions:
REMARK  status: ('A' for Active; 'I' for Inactive)
ROOT
HETATM    1  C1  UNL     1     -34.724  13.963  -3.812  1.00 20.00     0.016 C 
HETATM    2  C2  UNL     1     -35.726  14.608  -4.763  1.00 20.00     0.010 C 
HETATM    3  C3  UNL     1     -33.661  15.939  -4.729  1.00 20.00     0.024 C 
HETATM    4  C4  UNL     1     -33.774  15.094  -3.463  1.00 20.00     0.058 C 
HETATM    5  C5  UNL     1     -34.887  15.583  -5.611  1.00 20.00    -0.047 C 
HETATM    6  C6  UNL     1     -35.699  16.833  -5.966  1.00 20.00     0.015 C 
HETATM    7  C7  UNL     1     -34.427  14.902  -6.910  1.00 20.00     0.015 C 
HETATM    8 BR8  UNL     1     -34.509  16.165  -1.999  1.00 20.00    -0.091 Br
ENDROOT
TORSDOF 0
ENDMDL
MODEL 8
REMARK VINA RESULT:      -3.5      2.428      3.376
REMARK  0 active torsions:
REMARK  status: ('A' for Active; 'I' for Inactive)
ROOT
HETATM    1  C1  UNL     1     -35.946  16.056  -5.063  1.00 20.00     0.016 C 
HETATM    2  C2  UNL     1     -35.538  14.924  -4.127  1.00 20.00     0.010 C 
HETATM    3  C3  UNL     1     -33.523  15.982  -5.053  1.00 20.00     0.024 C 
HETATM    4  C4  UNL     1     -34.729  16.251  -5.949  1.00 20.00     0.058 C 
HETATM    5  C5  UNL     1     -34.047  15.178  -3.833  1.00 20.00    -0.047 C 
HETATM    6  C6  UNL     1     -33.291  13.856  -3.671  1.00 20.00     0.015 C 
HETATM    7  C7  UNL     1     -33.890  16.004  -2.545  1.00 20.00     0.015 C 
HETATM    8 BR8  UNL     1     -34.764  14.979  -7.435  1.00 20.00    -0.091 Br
ENDROOT
TORSDOF 0
ENDMDL
MODEL 9
REMARK VINA RESULT:      -3.5      2.037      3.437
REMARK  0 active torsions:
REMARK  status: ('A' for Active; 'I' for Inactive)
ROOT
HETATM    1  C1  UNL     1     -35.180  16.244  -4.888  1.00 20.00     0.016 C 
HETATM    2  C2  UNL     1     -35.642  16.720  -3.516  1.00 20.00     0.010 C 
HETATM    3  C3  UNL     1     -33.390  15.754  -3.329  1.00 20.00     0.024 C 
HETATM    4  C4  UNL     1     -34.096  15.228  -4.575  1.00 20.00     0.058 C 
HETATM    5  C5  UNL     1     -34.356  16.773  -2.668  1.00 20.00    -0.047 C 
HETATM    6  C6  UNL     1     -34.648  16.401  -1.211  1.00 20.00     0.015 C 
HETATM    7  C7  UNL     1     -33.748  18.185  -2.709  1.00 20.00     0.015 C 
HETATM    8 BR8  UNL     1     -34.895  13.478  -4.212  1.00 20.00    -0.091 Br
ENDROOT
TORSDOF 0
ENDMDL
