MODEL 1
REMARK VINA RESULT:      -3.6      0.000      0.000
REMARK  1 active torsions:
REMARK  status: ('A' for Active; 'I' for Inactive)
REMARK    1  A    between atoms: C4_4  and  S8_8 
ROOT
HETATM    1  C1  UNL     1     -41.427   7.567  -1.052  1.00 20.00     0.015 C 
HETATM    2  C2  UNL     1     -40.850   6.384  -0.276  1.00 20.00     0.010 C 
HETATM    3  C3  UNL     1     -42.486   5.638  -1.952  1.00 20.00     0.023 C 
HETATM    4  C4  UNL     1     -41.835   6.950  -2.382  1.00 20.00     0.045 C 
HETATM    5  C5  UNL     1     -41.596   5.130  -0.793  1.00 20.00    -0.047 C 
HETATM    6  C6  UNL     1     -40.590   4.086  -1.303  1.00 20.00     0.015 C 
HETATM    7  C7  UNL     1     -42.453   4.501   0.311  1.00 20.00     0.015 C 
ENDROOT
BRANCH   4   8
HETATM    8  S8  UNL     1     -42.963   8.012  -3.321  1.00 20.00    -0.177 SA
HETATM    9  H22 UNL     1     -42.181   8.105  -4.404  1.00 20.00     0.102 HD
ENDBRANCH   4   8
TORSDOF 1
ENDMDL
MODEL 2
REMARK VINA RESULT:      -3.6     10.931     12.096
REMARK  1 active torsions:
REMARK  status: ('A' for Active; 'I' for Inactive)
REMARK    1  A    between atoms: C4_4  and  S8_8 
ROOT
HETATM    1  C1  UNL     1     -34.931  13.221  -5.212  1.00 20.00     0.015 C 
HETATM    2  C2  UNL     1     -34.444  13.498  -3.791  1.00 20.00     0.010 C 
HETATM    3  C3  UNL     1     -34.123  15.457  -5.241  1.00 20.00     0.023 C 
HETATM    4  C4  UNL     1     -35.287  14.604  -5.738  1.00 20.00     0.045 C 
HETATM    5  C5  UNL     1     -33.836  14.922  -3.818  1.00 20.00    -0.047 C 
HETATM    6  C6  UNL     1     -34.512  15.809  -2.761  1.00 20.00     0.015 C 
HETATM    7  C7  UNL     1     -32.328  14.885  -3.548  1.00 20.00     0.015 C 
ENDROOT
BRANCH   4   8
HETATM    8  S8  UNL     1     -35.453  14.637  -7.541  1.00 20.00    -0.177 SA
HETATM    9  H22 UNL     1     -34.989  15.883  -7.691  1.00 20.00     0.102 HD
ENDBRANCH   4   8
TORSDOF 1
ENDMDL
MODEL 3
REMARK VINA RESULT:      -3.5     11.558     12.347
REMARK  1 active torsions:
REMARK  status: ('A' for Active; 'I' for Inactive)
REMARK    1  A    between atoms: C4_4  and  S8_8 
ROOT
HETATM    1  C1  UNL     1     -33.998  16.210  -6.148  1.00 20.00     0.015 C 
HETATM    2  C2  UNL     1     -33.356  16.030  -4.773  1.00 20.00     0.010 C 
HETATM    3  C3  UNL     1     -35.109  14.352  -5.165  1.00 20.00     0.023 C 
HETATM    4  C4  UNL     1     -34.501  14.815  -6.487  1.00 20.00     0.045 C 
HETATM    5  C5  UNL     1     -34.130  14.878  -4.089  1.00 20.00    -0.047 C 
HETATM    6  C6  UNL     1     -33.158  13.768  -3.655  1.00 20.00     0.015 C 
HETATM    7  C7  UNL     1     -34.897  15.379  -2.860  1.00 20.00     0.015 C 
ENDROOT
BRANCH   4   8
HETATM    8  S8  UNL     1     -35.704  14.822  -7.841  1.00 20.00    -0.177 SA
HETATM    9  H22 UNL     1     -34.892  14.250  -8.738  1.00 20.00     0.102 HD
ENDBRANCH   4   8
TORSDOF 1
ENDMDL
MODEL 4
REMARK VINA RESULT:      -3.5     11.465     12.637
REMARK  1 active torsions:
REMARK  status: ('A' for Active; 'I' for Inactive)
REMARK    1  A    between atoms: C4_4  and  S8_8 
ROOT
HETATM    1  C1  UNL     1     -33.467  15.863  -4.100  1.00 20.00     0.015 C 
HETATM    2  C2  UNL     1     -33.608  16.972  -3.059  1.00 20.00     0.010 C 
HETATM    3  C3  UNL     1     -35.431  15.334  -2.868  1.00 20.00     0.023 C 
HETATM    4  C4  UNL     1     -34.181  14.683  -3.456  1.00 20.00     0.045 C 
HETATM    5  C5  UNL     1     -34.931  16.686  -2.308  1.00 20.00    -0.047 C 
HETATM    6  C6  UNL     1     -34.672  16.581  -0.796  1.00 20.00     0.015 C 
HETATM    7  C7  UNL     1     -35.963  17.791  -2.562  1.00 20.00     0.015 C 
ENDROOT
BRANCH   4   8
HETATM    8  S8  UNL     1     -34.571  13.376  -4.647  1.00 20.00    -0.177 SA
HETATM    9  H22 UNL     1     -35.890  13.603  -4.662  1.00 20.00     0.102 HD
ENDBRANCH   4   8
TORSDOF 1
ENDMDL
MODEL 5
REMARK VINA RESULT:      -3.5     11.464     12.645
REMARK  1 active torsions:
REMARK  status: ('A' for Active; 'I' for Inactive)
REMARK    1  A    between atoms: C4_4  and  S8_8 
ROOT
HETATM    1  C1  UNL     1     -34.413  17.001  -3.176  1.00 20.00     0.015 C 
HETATM    2  C2  UNL     1     -34.496  15.568  -2.652  1.00 20.00     0.010 C 
HETATM    3  C3  UNL     1     -34.097  15.609  -5.077  1.00 20.00     0.023 C 
HETATM    4  C4  UNL     1     -33.545  16.871  -4.419  1.00 20.00     0.045 C 
HETATM    5  C5  UNL     1     -34.378  14.652  -3.895  1.00 20.00    -0.047 C 
HETATM    6  C6  UNL     1     -33.219  13.659  -3.716  1.00 20.00     0.015 C 
HETATM    7  C7  UNL     1     -35.675  13.869  -4.130  1.00 20.00     0.015 C 
ENDROOT
BRANCH   4   8
HETATM    8  S8  UNL     1     -33.657  18.323  -5.496  1.00 20.00    -0.177 SA
HETATM    9  H22 UNL     1     -32.451  18.163  -6.055  1.00 20.00     0.102 HD
ENDBRANCH   4   8
TORSDOF 1
ENDMDL
MODEL 6
REMARK VINA RESULT:      -3.4     11.228     12.488
REMARK  1 active torsions:
REMARK  status: ('A' for Active; 'I' for Inactive)
REMARK    1  A    between atoms: C4_4  and  S8_8 
ROOT
HETATM    1  C1  UNL     1     -36.293  15.403  -3.537  1.00 20.00     0.015 C 
HETATM    2  C2  UNL     1     -36.097  16.720  -2.789  1.00 20.00     0.010 C 
HETATM    3  C3  UNL     1     -34.013  15.419  -2.863  1.00 20.00     0.023 C 
HETATM    4  C4  UNL     1     -34.900  15.085  -4.060  1.00 20.00     0.045 C 
HETATM    5  C5  UNL     1     -34.639  16.703  -2.269  1.00 20.00    -0.047 C 
HETATM    6  C6  UNL     1     -33.884  17.948  -2.761  1.00 20.00     0.015 C 
HETATM    7  C7  UNL     1     -34.597  16.666  -0.738  1.00 20.00     0.015 C 
ENDROOT
BRANCH   4   8
HETATM    8  S8  UNL     1     -34.735  13.360  -4.588  1.00 20.00    -0.177 SA
HETATM    9  H22 UNL     1     -33.407  13.303  -4.432  1.00 20.00     0.102 HD
ENDBRANCH   4   8
TORSDOF 1
ENDMDL
MODEL 7
REMARK VINA RESULT:      -3.4     10.506     12.017
REMARK  1 active torsions:
REMARK  status: ('A' for Active; 'I' for Inactive)
REMARK    1  A    between atoms: C4_4  and  S8_8 
ROOT
HETATM    1  C1  UNL     1     -35.560  13.811  -4.114  1.00 20.00     0.015 C 
HETATM    2  C2  UNL     1     -34.160  14.263  -3.700  1.00 20.00     0.010 C 
HETATM    3  C3  UNL     1     -35.673  16.181  -3.970  1.00 20.00     0.023 C 
HETATM    4  C4  UNL     1     -36.457  14.925  -3.596  1.00 20.00     0.045 C 
HETATM    5  C5  UNL     1     -34.198  15.810  -3.688  1.00 20.00    -0.047 C 
HETATM    6  C6  UNL     1     -33.761  16.342  -2.313  1.00 20.00     0.015 C 
HETATM    7  C7  UNL     1     -33.279  16.396  -4.765  1.00 20.00     0.015 C 
ENDROOT
BRANCH   4   8
HETATM    8  S8  UNL     1     -38.108  14.888  -4.340  1.00 20.00    -0.177 SA
HETATM    9  H22 UNL     1     -38.532  16.022  -3.771  1.00 20.00     0.102 HD
ENDBRANCH   4   8
TORSDOF 1
ENDMDL
MODEL 8
REMARK VINA RESULT:      -3.4     10.468     11.705
REMARK  1 active torsions:
REMARK  status: ('A' for Active; 'I' for Inactive)
REMARK    1  A    between atoms: C4_4  and  S8_8 
ROOT
HETATM    1  C1  UNL     1     -36.121  14.839  -5.672  1.00 20.00     0.015 C 
HETATM    2  C2  UNL     1     -34.611  14.607  -5.710  1.00 20.00     0.010 C 
HETATM    3  C3  UNL     1     -35.379  15.106  -3.429  1.00 20.00     0.023 C 
HETATM    4  C4  UNL     1     -36.498  14.465  -4.246  1.00 20.00     0.045 C 
HETATM    5  C5  UNL     1     -34.104  14.864  -4.270  1.00 20.00    -0.047 C 
HETATM    6  C6  UNL     1     -33.338  13.638  -3.750  1.00 20.00     0.015 C 
HETATM    7  C7  UNL     1     -33.182  16.088  -4.218  1.00 20.00     0.015 C 
ENDROOT
BRANCH   4   8
HETATM    8  S8  UNL     1     -38.138  15.076  -3.781  1.00 20.00    -0.177 SA
HETATM    9  H22 UNL     1     -38.651  13.872  -3.501  1.00 20.00     0.102 HD
ENDBRANCH   4   8
TORSDOF 1
ENDMDL
MODEL 9
REMARK VINA RESULT:      -3.4     11.661     12.520
REMARK  1 active torsions:
REMARK  status: ('A' for Active; 'I' for Inactive)
REMARK    1  A    between atoms: C4_4  and  S8_8 
ROOT
HETATM    1  C1  UNL     1     -35.784  16.190  -2.595  1.00 20.00     0.015 C 
HETATM    2  C2  UNL     1     -35.767  15.127  -3.692  1.00 20.00     0.010 C 
HETATM    3  C3  UNL     1     -33.495  15.909  -3.174  1.00 20.00     0.023 C 
HETATM    4  C4  UNL     1     -34.407  16.062  -1.960  1.00 20.00     0.045 C 
HETATM    5  C5  UNL     1     -34.290  14.998  -4.138  1.00 20.00    -0.047 C 
HETATM    6  C6  UNL     1     -33.822  13.539  -4.012  1.00 20.00     0.015 C 
HETATM    7  C7  UNL     1     -34.108  15.457  -5.589  1.00 20.00     0.015 C 
ENDROOT
BRANCH   4   8
HETATM    8  S8  UNL     1     -33.977  17.497  -0.942  1.00 20.00    -0.177 SA
HETATM    9  H22 UNL     1     -34.907  18.308  -1.462  1.00 20.00     0.102 HD
ENDBRANCH   4   8
TORSDOF 1
ENDMDL
