MODEL 1
REMARK VINA RESULT:      -5.0      0.000      0.000
REMARK  1 active torsions:
REMARK  status: ('A' for Active; 'I' for Inactive)
REMARK    1  A    between atoms: C3_3  and  C8_8 
ROOT
HETATM    1  C1  UNL     1     -37.792  14.774  -4.110  1.00 20.00     0.021 C 
HETATM    2  C2  UNL     1     -36.666  14.355  -4.092  1.00 20.00    -0.037 C 
HETATM    3  C3  UNL     1     -35.315  13.849  -4.070  1.00 20.00     0.235 C 
HETATM    4  O10 UNL     1     -35.100  12.675  -4.342  1.00 20.00    -0.280 OA
ENDROOT
BRANCH   3   5
HETATM    5  C8  UNL     1     -34.242  14.835  -3.705  1.00 20.00     0.129 C 
HETATM    6  C6  UNL     1     -34.637  15.571  -2.420  1.00 20.00     0.047 C 
HETATM    7  C4  UNL     1     -33.820  16.843  -2.216  1.00 20.00     0.006 C 
HETATM    8  C5  UNL     1     -33.844  17.695  -3.479  1.00 20.00     0.026 C 
HETATM    9  C7  UNL     1     -33.439  16.874  -4.694  1.00 20.00     0.169 C 
HETATM   10  O11 UNL     1     -34.258  15.714  -4.834  1.00 20.00    -0.372 OA
HETATM   11  C9  UNL     1     -32.913  14.088  -3.590  1.00 20.00     0.055 C 
ENDBRANCH   3   5
TORSDOF 1
ENDMDL
MODEL 2
REMARK VINA RESULT:      -4.6      1.530      3.816
REMARK  1 active torsions:
REMARK  status: ('A' for Active; 'I' for Inactive)
REMARK    1  A    between atoms: C3_3  and  C8_8 
ROOT
HETATM    1  C1  UNL     1     -34.716  16.724  -0.529  1.00 20.00     0.021 C 
HETATM    2  C2  UNL     1     -34.365  16.964  -1.652  1.00 20.00    -0.037 C 
HETATM    3  C3  UNL     1     -33.942  17.254  -3.002  1.00 20.00     0.235 C 
HETATM    4  O10 UNL     1     -33.504  18.362  -3.277  1.00 20.00    -0.280 OA
ENDROOT
BRANCH   3   5
HETATM    5  C8  UNL     1     -34.076  16.135  -3.995  1.00 20.00     0.129 C 
HETATM    6  C6  UNL     1     -35.561  15.868  -4.270  1.00 20.00     0.047 C 
HETATM    7  C4  UNL     1     -35.784  14.512  -4.932  1.00 20.00     0.006 C 
HETATM    8  C5  UNL     1     -35.067  13.418  -4.152  1.00 20.00     0.026 C 
HETATM    9  C7  UNL     1     -33.605  13.778  -3.931  1.00 20.00     0.169 C 
HETATM   10  O11 UNL     1     -33.473  15.045  -3.290  1.00 20.00    -0.372 OA
HETATM   11  C9  UNL     1     -33.285  16.501  -5.251  1.00 20.00     0.055 C 
ENDBRANCH   3   5
TORSDOF 1
ENDMDL
MODEL 3
REMARK VINA RESULT:      -4.6      1.385      1.635
REMARK  1 active torsions:
REMARK  status: ('A' for Active; 'I' for Inactive)
REMARK    1  A    between atoms: C3_3  and  C8_8 
ROOT
HETATM    1  C1  UNL     1     -35.288  14.576  -7.438  1.00 20.00     0.021 C 
HETATM    2  C2  UNL     1     -35.018  14.199  -6.330  1.00 20.00    -0.037 C 
HETATM    3  C3  UNL     1     -34.696  13.744  -4.999  1.00 20.00     0.235 C 
HETATM    4  O10 UNL     1     -34.921  12.584  -4.681  1.00 20.00    -0.280 OA
ENDROOT
BRANCH   3   5
HETATM    5  C8  UNL     1     -34.089  14.763  -4.076  1.00 20.00     0.129 C 
HETATM    6  C6  UNL     1     -35.068  15.070  -2.936  1.00 20.00     0.047 C 
HETATM    7  C4  UNL     1     -34.709  16.361  -2.208  1.00 20.00     0.006 C 
HETATM    8  C5  UNL     1     -34.509  17.494  -3.208  1.00 20.00     0.026 C 
HETATM    9  C7  UNL     1     -33.525  17.089  -4.296  1.00 20.00     0.169 C 
HETATM   10  O11 UNL     1     -33.935  15.888  -4.947  1.00 20.00    -0.372 OA
HETATM   11  C9  UNL     1     -32.740  14.236  -3.589  1.00 20.00     0.055 C 
ENDBRANCH   3   5
TORSDOF 1
ENDMDL
MODEL 4
REMARK VINA RESULT:      -4.6      1.922      3.786
REMARK  1 active torsions:
REMARK  status: ('A' for Active; 'I' for Inactive)
REMARK    1  A    between atoms: C3_3  and  C8_8 
ROOT
HETATM    1  C1  UNL     1     -34.478  16.277  -1.622  1.00 20.00     0.021 C 
HETATM    2  C2  UNL     1     -34.167  16.035  -2.757  1.00 20.00    -0.037 C 
HETATM    3  C3  UNL     1     -33.791  15.747  -4.120  1.00 20.00     0.235 C 
HETATM    4  O10 UNL     1     -32.732  16.170  -4.563  1.00 20.00    -0.280 OA
ENDROOT
BRANCH   3   5
HETATM    5  C8  UNL     1     -34.762  14.921  -4.916  1.00 20.00     0.129 C 
HETATM    6  C6  UNL     1     -34.335  14.905  -6.389  1.00 20.00     0.047 C 
HETATM    7  C4  UNL     1     -35.463  14.445  -7.306  1.00 20.00     0.006 C 
HETATM    8  C5  UNL     1     -36.736  15.230  -7.013  1.00 20.00     0.026 C 
HETATM    9  C7  UNL     1     -37.071  15.185  -5.529  1.00 20.00     0.169 C 
HETATM   10  O11 UNL     1     -35.981  15.648  -4.736  1.00 20.00    -0.372 OA
HETATM   11  C9  UNL     1     -34.839  13.527  -4.295  1.00 20.00     0.055 C 
ENDBRANCH   3   5
TORSDOF 1
ENDMDL
MODEL 5
REMARK VINA RESULT:      -4.5      1.835      3.372
REMARK  1 active torsions:
REMARK  status: ('A' for Active; 'I' for Inactive)
REMARK    1  A    between atoms: C3_3  and  C8_8 
ROOT
HETATM    1  C1  UNL     1     -34.485  16.308  -1.650  1.00 20.00     0.021 C 
HETATM    2  C2  UNL     1     -34.554  15.481  -2.518  1.00 20.00    -0.037 C 
HETATM    3  C3  UNL     1     -34.636  14.486  -3.560  1.00 20.00     0.235 C 
HETATM    4  O10 UNL     1     -34.146  13.379  -3.384  1.00 20.00    -0.280 OA
ENDROOT
BRANCH   3   5
HETATM    5  C8  UNL     1     -35.340  14.900  -4.821  1.00 20.00     0.129 C 
HETATM    6  C6  UNL     1     -34.943  13.957  -5.963  1.00 20.00     0.047 C 
HETATM    7  C4  UNL     1     -35.283  14.543  -7.331  1.00 20.00     0.006 C 
HETATM    8  C5  UNL     1     -34.740  15.961  -7.448  1.00 20.00     0.026 C 
HETATM    9  C7  UNL     1     -35.188  16.812  -6.269  1.00 20.00     0.169 C 
HETATM   10  O11 UNL     1     -34.819  16.217  -5.027  1.00 20.00    -0.372 OA
HETATM   11  C9  UNL     1     -36.845  14.924  -4.553  1.00 20.00     0.055 C 
ENDBRANCH   3   5
TORSDOF 1
ENDMDL
MODEL 6
REMARK VINA RESULT:      -4.5      1.441      3.842
REMARK  1 active torsions:
REMARK  status: ('A' for Active; 'I' for Inactive)
REMARK    1  A    between atoms: C3_3  and  C8_8 
ROOT
HETATM    1  C1  UNL     1     -33.990  17.875  -6.431  1.00 20.00     0.021 C 
HETATM    2  C2  UNL     1     -33.962  17.685  -5.246  1.00 20.00    -0.037 C 
HETATM    3  C3  UNL     1     -33.926  17.460  -3.820  1.00 20.00     0.235 C 
HETATM    4  O10 UNL     1     -33.672  18.386  -3.063  1.00 20.00    -0.280 OA
ENDROOT
BRANCH   3   5
HETATM    5  C8  UNL     1     -34.215  16.058  -3.362  1.00 20.00     0.129 C 
HETATM    6  C6  UNL     1     -33.038  15.146  -3.729  1.00 20.00     0.047 C 
HETATM    7  C4  UNL     1     -33.420  13.670  -3.670  1.00 20.00     0.006 C 
HETATM    8  C5  UNL     1     -34.697  13.423  -4.462  1.00 20.00     0.026 C 
HETATM    9  C7  UNL     1     -35.799  14.377  -4.025  1.00 20.00     0.169 C 
HETATM   10  O11 UNL     1     -35.381  15.736  -4.127  1.00 20.00    -0.372 OA
HETATM   11  C9  UNL     1     -34.513  16.087  -1.864  1.00 20.00     0.055 C 
ENDBRANCH   3   5
TORSDOF 1
ENDMDL
MODEL 7
REMARK VINA RESULT:      -4.5      1.779      2.194
REMARK  1 active torsions:
REMARK  status: ('A' for Active; 'I' for Inactive)
REMARK    1  A    between atoms: C3_3  and  C8_8 
ROOT
HETATM    1  C1  UNL     1     -35.548  14.388  -7.750  1.00 20.00     0.021 C 
HETATM    2  C2  UNL     1     -35.193  14.225  -6.614  1.00 20.00    -0.037 C 
HETATM    3  C3  UNL     1     -34.767  14.027  -5.249  1.00 20.00     0.235 C 
HETATM    4  O10 UNL     1     -34.638  12.893  -4.810  1.00 20.00    -0.280 OA
ENDROOT
BRANCH   3   5
HETATM    5  C8  UNL     1     -34.505  15.271  -4.448  1.00 20.00     0.129 C 
HETATM    6  C6  UNL     1     -34.216  14.890  -2.991  1.00 20.00     0.047 C 
HETATM    7  C4  UNL     1     -34.345  16.086  -2.052  1.00 20.00     0.006 C 
HETATM    8  C5  UNL     1     -35.673  16.797  -2.281  1.00 20.00     0.026 C 
HETATM    9  C7  UNL     1     -35.864  17.128  -3.754  1.00 20.00     0.169 C 
HETATM   10  O11 UNL     1     -35.752  15.962  -4.568  1.00 20.00    -0.372 OA
HETATM   11  C9  UNL     1     -33.365  16.044  -5.108  1.00 20.00     0.055 C 
ENDBRANCH   3   5
TORSDOF 1
ENDMDL
MODEL 8
REMARK VINA RESULT:      -4.5      1.971      3.324
REMARK  1 active torsions:
REMARK  status: ('A' for Active; 'I' for Inactive)
REMARK    1  A    between atoms: C3_3  and  C8_8 
ROOT
HETATM    1  C1  UNL     1     -34.584  16.293  -1.511  1.00 20.00     0.021 C 
HETATM    2  C2  UNL     1     -34.513  15.557  -2.457  1.00 20.00    -0.037 C 
HETATM    3  C3  UNL     1     -34.427  14.671  -3.593  1.00 20.00     0.235 C 
HETATM    4  O10 UNL     1     -34.171  13.487  -3.424  1.00 20.00    -0.280 OA
ENDROOT
BRANCH   3   5
HETATM    5  C8  UNL     1     -34.667  15.292  -4.940  1.00 20.00     0.129 C 
HETATM    6  C6  UNL     1     -36.049  15.957  -4.959  1.00 20.00     0.047 C 
HETATM    7  C4  UNL     1     -36.526  16.242  -6.380  1.00 20.00     0.006 C 
HETATM    8  C5  UNL     1     -36.401  14.991  -7.241  1.00 20.00     0.026 C 
HETATM    9  C7  UNL     1     -34.998  14.409  -7.151  1.00 20.00     0.169 C 
HETATM   10  O11 UNL     1     -34.628  14.148  -5.799  1.00 20.00    -0.372 OA
HETATM   11  C9  UNL     1     -33.526  16.262  -5.240  1.00 20.00     0.055 C 
ENDBRANCH   3   5
TORSDOF 1
ENDMDL
MODEL 9
REMARK VINA RESULT:      -4.4      1.637      3.777
REMARK  1 active torsions:
REMARK  status: ('A' for Active; 'I' for Inactive)
REMARK    1  A    between atoms: C3_3  and  C8_8 
ROOT
HETATM    1  C1  UNL     1     -34.580  16.683  -0.708  1.00 20.00     0.021 C 
HETATM    2  C2  UNL     1     -34.280  16.847  -1.860  1.00 20.00    -0.037 C 
HETATM    3  C3  UNL     1     -33.920  17.047  -3.243  1.00 20.00     0.235 C 
HETATM    4  O10 UNL     1     -33.614  18.164  -3.637  1.00 20.00    -0.280 OA
ENDROOT
BRANCH   3   5
HETATM    5  C8  UNL     1     -33.948  15.827  -4.120  1.00 20.00     0.129 C 
HETATM    6  C6  UNL     1     -33.837  16.250  -5.590  1.00 20.00     0.047 C 
HETATM    7  C4  UNL     1     -34.262  15.133  -6.538  1.00 20.00     0.006 C 
HETATM    8  C5  UNL     1     -35.620  14.579  -6.128  1.00 20.00     0.026 C 
HETATM    9  C7  UNL     1     -35.626  14.193  -4.656  1.00 20.00     0.169 C 
HETATM   10  O11 UNL     1     -35.241  15.289  -3.829  1.00 20.00    -0.372 OA
HETATM   11  C9  UNL     1     -32.830  14.883  -3.677  1.00 20.00     0.055 C 
ENDBRANCH   3   5
TORSDOF 1
ENDMDL
