MODEL 1
REMARK VINA RESULT:      -4.3      0.000      0.000
REMARK  1 active torsions:
REMARK  status: ('A' for Active; 'I' for Inactive)
REMARK    1  A    between atoms: C4_4  and  C8_8 
ROOT
HETATM    1  C1  UNL     1     -34.656   5.504   2.806  1.00 20.00     0.006 C 
HETATM    2  C2  UNL     1     -35.306   5.910   4.121  1.00 20.00     0.009 C 
HETATM    3  C3  UNL     1     -32.941   5.360   4.496  1.00 20.00     0.014 C 
HETATM    4  C4  UNL     1     -33.171   5.768   3.035  1.00 20.00     0.000 C 
HETATM    5  C5  UNL     1     -34.317   5.442   5.206  1.00 20.00    -0.047 C 
HETATM    6  C6  UNL     1     -34.283   6.432   6.375  1.00 20.00     0.015 C 
HETATM    7  C7  UNL     1     -34.722   4.057   5.738  1.00 20.00     0.015 C 
ENDROOT
BRANCH   4   8
HETATM    8  C8  UNL     1     -32.796   7.229   2.788  1.00 20.00     0.119 C 
HETATM    9 CL9  UNL     1     -31.367   7.669   3.744  1.00 20.00    -0.130 Cl
ENDBRANCH   4   8
TORSDOF 1
ENDMDL
MODEL 2
REMARK VINA RESULT:      -4.1      1.724      3.486
REMARK  1 active torsions:
REMARK  status: ('A' for Active; 'I' for Inactive)
REMARK    1  A    between atoms: C4_4  and  C8_8 
ROOT
HETATM    1  C1  UNL     1     -33.729   5.241   2.745  1.00 20.00     0.006 C 
HETATM    2  C2  UNL     1     -32.285   5.703   2.881  1.00 20.00     0.009 C 
HETATM    3  C3  UNL     1     -33.792   7.386   3.846  1.00 20.00     0.014 C 
HETATM    4  C4  UNL     1     -34.463   6.005   3.842  1.00 20.00     0.000 C 
HETATM    5  C5  UNL     1     -32.386   7.202   3.220  1.00 20.00    -0.047 C 
HETATM    6  C6  UNL     1     -31.281   7.614   4.200  1.00 20.00     0.015 C 
HETATM    7  C7  UNL     1     -32.259   8.049   1.943  1.00 20.00     0.015 C 
ENDROOT
BRANCH   4   8
HETATM    8  C8  UNL     1     -34.353   5.318   5.203  1.00 20.00     0.119 C 
HETATM    9 CL9  UNL     1     -34.026   6.513   6.473  1.00 20.00    -0.130 Cl
ENDBRANCH   4   8
TORSDOF 1
ENDMDL
MODEL 3
REMARK VINA RESULT:      -4.0     11.598     12.641
REMARK  1 active torsions:
REMARK  status: ('A' for Active; 'I' for Inactive)
REMARK    1  A    between atoms: C4_4  and  C8_8 
ROOT
HETATM    1  C1  UNL     1     -33.335  16.185  -4.665  1.00 20.00     0.006 C 
HETATM    2  C2  UNL     1     -34.737  15.845  -5.147  1.00 20.00     0.009 C 
HETATM    3  C3  UNL     1     -34.268  14.656  -3.050  1.00 20.00     0.014 C 
HETATM    4  C4  UNL     1     -33.386  15.907  -3.166  1.00 20.00     0.000 C 
HETATM    5  C5  UNL     1     -35.140  14.603  -4.330  1.00 20.00    -0.047 C 
HETATM    6  C6  UNL     1     -36.634  14.639  -3.988  1.00 20.00     0.015 C 
HETATM    7  C7  UNL     1     -34.841  13.320  -5.123  1.00 20.00     0.015 C 
ENDROOT
BRANCH   4   8
HETATM    8  C8  UNL     1     -33.962  17.081  -2.376  1.00 20.00     0.119 C 
HETATM    9 CL9  UNL     1     -34.698  16.508  -0.866  1.00 20.00    -0.130 Cl
ENDBRANCH   4   8
TORSDOF 1
ENDMDL
MODEL 4
REMARK VINA RESULT:      -3.9     11.650     13.492
REMARK  1 active torsions:
REMARK  status: ('A' for Active; 'I' for Inactive)
REMARK    1  A    between atoms: C4_4  and  C8_8 
ROOT
HETATM    1  C1  UNL     1     -33.363  16.936  -5.092  1.00 20.00     0.006 C 
HETATM    2  C2  UNL     1     -33.012  15.752  -4.203  1.00 20.00     0.009 C 
HETATM    3  C3  UNL     1     -35.402  15.691  -4.766  1.00 20.00     0.014 C 
HETATM    4  C4  UNL     1     -34.623  16.485  -5.824  1.00 20.00     0.000 C 
HETATM    5  C5  UNL     1     -34.370  15.219  -3.710  1.00 20.00    -0.047 C 
HETATM    6  C6  UNL     1     -34.346  13.690  -3.599  1.00 20.00     0.015 C 
HETATM    7  C7  UNL     1     -34.711  15.813  -2.333  1.00 20.00     0.015 C 
ENDROOT
BRANCH   4   8
HETATM    8  C8  UNL     1     -34.308  15.633  -7.053  1.00 20.00     0.119 C 
HETATM    9 CL9  UNL     1     -35.399  14.236  -7.133  1.00 20.00    -0.130 Cl
ENDBRANCH   4   8
TORSDOF 1
ENDMDL
MODEL 5
REMARK VINA RESULT:      -3.8     11.796     12.912
REMARK  1 active torsions:
REMARK  status: ('A' for Active; 'I' for Inactive)
REMARK    1  A    between atoms: C4_4  and  C8_8 
ROOT
HETATM    1  C1  UNL     1     -34.780  13.320  -5.299  1.00 20.00     0.006 C 
HETATM    2  C2  UNL     1     -34.665  13.624  -3.812  1.00 20.00     0.009 C 
HETATM    3  C3  UNL     1     -34.105  15.629  -5.116  1.00 20.00     0.014 C 
HETATM    4  C4  UNL     1     -35.000  14.689  -5.936  1.00 20.00     0.000 C 
HETATM    5  C5  UNL     1     -33.877  14.946  -3.743  1.00 20.00    -0.047 C 
HETATM    6  C6  UNL     1     -34.385  15.822  -2.593  1.00 20.00     0.015 C 
HETATM    7  C7  UNL     1     -32.379  14.667  -3.533  1.00 20.00     0.015 C 
ENDROOT
BRANCH   4   8
HETATM    8  C8  UNL     1     -36.465  15.121  -5.893  1.00 20.00     0.119 C 
HETATM    9 CL9  UNL     1     -36.596  16.811  -5.369  1.00 20.00    -0.130 Cl
ENDBRANCH   4   8
TORSDOF 1
ENDMDL
MODEL 6
REMARK VINA RESULT:      -3.7     12.003     12.991
REMARK  1 active torsions:
REMARK  status: ('A' for Active; 'I' for Inactive)
REMARK    1  A    between atoms: C4_4  and  C8_8 
ROOT
HETATM    1  C1  UNL     1     -35.398  13.603  -4.083  1.00 20.00     0.006 C 
HETATM    2  C2  UNL     1     -36.136  14.853  -3.624  1.00 20.00     0.009 C 
HETATM    3  C3  UNL     1     -33.877  15.450  -4.383  1.00 20.00     0.014 C 
HETATM    4  C4  UNL     1     -34.331  14.136  -5.033  1.00 20.00     0.000 C 
HETATM    5  C5  UNL     1     -35.035  15.918  -3.464  1.00 20.00    -0.047 C 
HETATM    6  C6  UNL     1     -35.552  17.300  -3.879  1.00 20.00     0.015 C 
HETATM    7  C7  UNL     1     -34.560  15.983  -2.003  1.00 20.00     0.015 C 
ENDROOT
BRANCH   4   8
HETATM    8  C8  UNL     1     -34.869  14.359  -6.446  1.00 20.00     0.119 C 
HETATM    9 CL9  UNL     1     -34.286  15.906  -7.092  1.00 20.00    -0.130 Cl
ENDBRANCH   4   8
TORSDOF 1
ENDMDL
MODEL 7
REMARK VINA RESULT:      -3.7     12.233     13.142
REMARK  1 active torsions:
REMARK  status: ('A' for Active; 'I' for Inactive)
REMARK    1  A    between atoms: C4_4  and  C8_8 
ROOT
HETATM    1  C1  UNL     1     -33.908  14.694  -3.461  1.00 20.00     0.006 C 
HETATM    2  C2  UNL     1     -35.244  15.218  -2.955  1.00 20.00     0.009 C 
HETATM    3  C3  UNL     1     -33.634  17.066  -3.121  1.00 20.00     0.014 C 
HETATM    4  C4  UNL     1     -33.238  15.923  -4.066  1.00 20.00     0.000 C 
HETATM    5  C5  UNL     1     -34.927  16.617  -2.393  1.00 20.00    -0.047 C 
HETATM    6  C6  UNL     1     -36.084  17.586  -2.661  1.00 20.00     0.015 C 
HETATM    7  C7  UNL     1     -34.682  16.542  -0.877  1.00 20.00     0.015 C 
ENDROOT
BRANCH   4   8
HETATM    8  C8  UNL     1     -33.696  16.188  -5.500  1.00 20.00     0.119 C 
HETATM    9 CL9  UNL     1     -33.667  17.928  -5.846  1.00 20.00    -0.130 Cl
ENDBRANCH   4   8
TORSDOF 1
ENDMDL
MODEL 8
REMARK VINA RESULT:      -3.7      9.531     10.618
REMARK  1 active torsions:
REMARK  status: ('A' for Active; 'I' for Inactive)
REMARK    1  A    between atoms: C4_4  and  C8_8 
ROOT
HETATM    1  C1  UNL     1     -40.728   4.309  -1.193  1.00 20.00     0.006 C 
HETATM    2  C2  UNL     1     -41.381   5.149  -0.105  1.00 20.00     0.009 C 
HETATM    3  C3  UNL     1     -42.339   5.728  -2.292  1.00 20.00     0.014 C 
HETATM    4  C4  UNL     1     -41.755   4.309  -2.322  1.00 20.00     0.000 C 
HETATM    5  C5  UNL     1     -42.096   6.283  -0.865  1.00 20.00    -0.047 C 
HETATM    6  C6  UNL     1     -43.416   6.649  -0.177  1.00 20.00     0.015 C 
HETATM    7  C7  UNL     1     -41.203   7.533  -0.926  1.00 20.00     0.015 C 
ENDROOT
BRANCH   4   8
HETATM    8  C8  UNL     1     -42.835   3.247  -2.126  1.00 20.00     0.119 C 
HETATM    9 CL9  UNL     1     -42.407   1.762  -2.999  1.00 20.00    -0.130 Cl
ENDBRANCH   4   8
TORSDOF 1
ENDMDL
MODEL 9
REMARK VINA RESULT:      -3.7     11.696     13.301
REMARK  1 active torsions:
REMARK  status: ('A' for Active; 'I' for Inactive)
REMARK    1  A    between atoms: C4_4  and  C8_8 
ROOT
HETATM    1  C1  UNL     1     -35.407  13.565  -4.225  1.00 20.00     0.006 C 
HETATM    2  C2  UNL     1     -34.655  13.840  -5.519  1.00 20.00     0.009 C 
HETATM    3  C3  UNL     1     -35.825  15.873  -4.791  1.00 20.00     0.014 C 
HETATM    4  C4  UNL     1     -35.566  14.946  -3.595  1.00 20.00     0.000 C 
HETATM    5  C5  UNL     1     -35.245  15.163  -6.041  1.00 20.00    -0.047 C 
HETATM    6  C6  UNL     1     -34.162  16.015  -6.713  1.00 20.00     0.015 C 
HETATM    7  C7  UNL     1     -36.364  14.886  -7.060  1.00 20.00     0.015 C 
ENDROOT
BRANCH   4   8
HETATM    8  C8  UNL     1     -34.328  15.370  -2.806  1.00 20.00     0.119 C 
HETATM    9 CL9  UNL     1     -34.798  16.334  -1.391  1.00 20.00    -0.130 Cl
ENDBRANCH   4   8
TORSDOF 1
ENDMDL
