MODEL 1
REMARK VINA RESULT:      -5.1      0.000      0.000
REMARK  4 active torsions:
REMARK  status: ('A' for Active; 'I' for Inactive)
REMARK    1  A    between atoms: C1_1  and  C4_4 
REMARK    2  A    between atoms: C1_1  and  C7_7 
REMARK    3  A    between atoms: C4_4  and  C5_5 
REMARK    4  A    between atoms: C5_5  and  C6_6 
ROOT
HETATM    1  C1  UNL     1     -34.118   5.719   4.010  1.00 20.00     0.130 C 
HETATM    2  O8  UNL     1     -34.572   5.278   2.953  1.00 20.00    -0.298 OA
ENDROOT
BRANCH   1   3
HETATM    3  C4  UNL     1     -32.855   6.569   4.048  1.00 20.00     0.081 C 
BRANCH   3   4
HETATM    4  C5  UNL     1     -32.191   6.737   2.683  1.00 20.00     0.038 C 
BRANCH   4   5
HETATM    5  C6  UNL     1     -32.172   8.184   2.214  1.00 20.00     0.222 C 
HETATM    6  F9  UNL     1     -31.405   8.282   1.096  1.00 20.00    -0.255 F 
ENDBRANCH   4   5
ENDBRANCH   3   4
ENDBRANCH   1   3
BRANCH   1   7
HETATM    7  C7  UNL     1     -34.823   5.487   5.346  1.00 20.00     0.047 C 
HETATM    8  C2  UNL     1     -34.845   3.999   5.675  1.00 20.00     0.017 C 
HETATM    9  C3  UNL     1     -34.151   6.278   6.467  1.00 20.00     0.017 C 
ENDBRANCH   1   7
TORSDOF 4
ENDMDL
MODEL 2
REMARK VINA RESULT:      -4.9      0.772      1.418
REMARK  4 active torsions:
REMARK  status: ('A' for Active; 'I' for Inactive)
REMARK    1  A    between atoms: C1_1  and  C4_4 
REMARK    2  A    between atoms: C1_1  and  C7_7 
REMARK    3  A    between atoms: C4_4  and  C5_5 
REMARK    4  A    between atoms: C5_5  and  C6_6 
ROOT
HETATM    1  C1  UNL     1     -34.456   5.592   3.898  1.00 20.00     0.130 C 
HETATM    2  O8  UNL     1     -35.626   5.798   3.575  1.00 20.00    -0.298 OA
ENDROOT
BRANCH   1   3
HETATM    3  C4  UNL     1     -33.311   5.747   2.904  1.00 20.00     0.081 C 
BRANCH   3   4
HETATM    4  C5  UNL     1     -32.269   6.778   3.331  1.00 20.00     0.038 C 
BRANCH   4   5
HETATM    5  C6  UNL     1     -32.342   8.058   2.513  1.00 20.00     0.222 C 
HETATM    6  F9  UNL     1     -31.481   7.969   1.465  1.00 20.00    -0.255 F 
ENDBRANCH   4   5
ENDBRANCH   3   4
ENDBRANCH   1   3
BRANCH   1   7
HETATM    7  C7  UNL     1     -34.068   5.219   5.329  1.00 20.00     0.047 C 
HETATM    8  C2  UNL     1     -34.169   6.442   6.233  1.00 20.00     0.017 C 
HETATM    9  C3  UNL     1     -34.941   4.083   5.857  1.00 20.00     0.017 C 
ENDBRANCH   1   7
TORSDOF 4
ENDMDL
MODEL 3
REMARK VINA RESULT:      -4.7      1.401      1.679
REMARK  4 active torsions:
REMARK  status: ('A' for Active; 'I' for Inactive)
REMARK    1  A    between atoms: C1_1  and  C4_4 
REMARK    2  A    between atoms: C1_1  and  C7_7 
REMARK    3  A    between atoms: C4_4  and  C5_5 
REMARK    4  A    between atoms: C5_5  and  C6_6 
ROOT
HETATM    1  C1  UNL     1     -33.527   6.124   4.466  1.00 20.00     0.130 C 
HETATM    2  O8  UNL     1     -33.277   6.835   5.440  1.00 20.00    -0.298 OA
ENDROOT
BRANCH   1   3
HETATM    3  C4  UNL     1     -32.722   6.219   3.176  1.00 20.00     0.081 C 
BRANCH   3   4
HETATM    4  C5  UNL     1     -31.825   7.453   3.106  1.00 20.00     0.038 C 
BRANCH   4   5
HETATM    5  C6  UNL     1     -32.233   8.411   1.997  1.00 20.00     0.222 C 
HETATM    6  F9  UNL     1     -31.328   8.334   0.985  1.00 20.00    -0.255 F 
ENDBRANCH   4   5
ENDBRANCH   3   4
ENDBRANCH   1   3
BRANCH   1   7
HETATM    7  C7  UNL     1     -34.626   5.062   4.506  1.00 20.00     0.047 C 
HETATM    8  C2  UNL     1     -34.981   4.731   5.951  1.00 20.00     0.017 C 
HETATM    9  C3  UNL     1     -35.863   5.521   3.737  1.00 20.00     0.017 C 
ENDBRANCH   1   7
TORSDOF 4
ENDMDL
MODEL 4
REMARK VINA RESULT:      -4.6      1.435      1.738
REMARK  4 active torsions:
REMARK  status: ('A' for Active; 'I' for Inactive)
REMARK    1  A    between atoms: C1_1  and  C4_4 
REMARK    2  A    between atoms: C1_1  and  C7_7 
REMARK    3  A    between atoms: C4_4  and  C5_5 
REMARK    4  A    between atoms: C5_5  and  C6_6 
ROOT
HETATM    1  C1  UNL     1     -33.673   6.277   4.943  1.00 20.00     0.130 C 
HETATM    2  O8  UNL     1     -33.188   6.905   5.885  1.00 20.00    -0.298 OA
ENDROOT
BRANCH   1   3
HETATM    3  C4  UNL     1     -32.976   6.195   3.591  1.00 20.00     0.081 C 
BRANCH   3   4
HETATM    4  C5  UNL     1     -31.915   7.275   3.385  1.00 20.00     0.038 C 
BRANCH   4   5
HETATM    5  C6  UNL     1     -32.290   8.263   2.292  1.00 20.00     0.222 C 
HETATM    6  F9  UNL     1     -31.430   8.123   1.248  1.00 20.00    -0.255 F 
ENDBRANCH   4   5
ENDBRANCH   3   4
ENDBRANCH   1   3
BRANCH   1   7
HETATM    7  C7  UNL     1     -34.978   5.494   5.084  1.00 20.00     0.047 C 
HETATM    8  C2  UNL     1     -35.598   5.259   3.712  1.00 20.00     0.017 C 
HETATM    9  C3  UNL     1     -34.751   4.170   5.809  1.00 20.00     0.017 C 
ENDBRANCH   1   7
TORSDOF 4
ENDMDL
MODEL 5
REMARK VINA RESULT:      -4.4      1.555      1.912
REMARK  4 active torsions:
REMARK  status: ('A' for Active; 'I' for Inactive)
REMARK    1  A    between atoms: C1_1  and  C4_4 
REMARK    2  A    between atoms: C1_1  and  C7_7 
REMARK    3  A    between atoms: C4_4  and  C5_5 
REMARK    4  A    between atoms: C5_5  and  C6_6 
ROOT
HETATM    1  C1  UNL     1     -32.670   6.472   3.375  1.00 20.00     0.130 C 
HETATM    2  O8  UNL     1     -32.156   5.429   2.970  1.00 20.00    -0.298 OA
ENDROOT
BRANCH   1   3
HETATM    3  C4  UNL     1     -32.025   7.830   3.134  1.00 20.00     0.081 C 
BRANCH   3   4
HETATM    4  C5  UNL     1     -31.836   8.162   1.655  1.00 20.00     0.038 C 
BRANCH   4   5
HETATM    5  C6  UNL     1     -32.403   9.523   1.283  1.00 20.00     0.222 C 
HETATM    6  F9  UNL     1     -32.848   9.486  -0.001  1.00 20.00    -0.255 F 
ENDBRANCH   4   5
ENDBRANCH   3   4
ENDBRANCH   1   3
BRANCH   1   7
HETATM    7  C7  UNL     1     -34.016   6.477   4.100  1.00 20.00     0.047 C 
HETATM    8  C2  UNL     1     -34.892   5.342   3.584  1.00 20.00     0.017 C 
HETATM    9  C3  UNL     1     -33.828   6.371   5.611  1.00 20.00     0.017 C 
ENDBRANCH   1   7
TORSDOF 4
ENDMDL
MODEL 6
REMARK VINA RESULT:      -4.2      2.575      4.392
REMARK  4 active torsions:
REMARK  status: ('A' for Active; 'I' for Inactive)
REMARK    1  A    between atoms: C1_1  and  C4_4 
REMARK    2  A    between atoms: C1_1  and  C7_7 
REMARK    3  A    between atoms: C4_4  and  C5_5 
REMARK    4  A    between atoms: C5_5  and  C6_6 
ROOT
HETATM    1  C1  UNL     1     -33.220   6.180   3.223  1.00 20.00     0.130 C 
HETATM    2  O8  UNL     1     -33.645   5.435   2.339  1.00 20.00    -0.298 OA
ENDROOT
BRANCH   1   3
HETATM    3  C4  UNL     1     -33.866   6.241   4.601  1.00 20.00     0.081 C 
BRANCH   3   4
HETATM    4  C5  UNL     1     -35.065   5.307   4.754  1.00 20.00     0.038 C 
BRANCH   4   5
HETATM    5  C6  UNL     1     -34.822   4.203   5.771  1.00 20.00     0.222 C 
HETATM    6  F9  UNL     1     -34.066   4.692   6.789  1.00 20.00    -0.255 F 
ENDBRANCH   4   5
ENDBRANCH   3   4
ENDBRANCH   1   3
BRANCH   1   7
HETATM    7  C7  UNL     1     -31.982   7.053   3.013  1.00 20.00     0.047 C 
HETATM    8  C2  UNL     1     -32.275   8.135   1.981  1.00 20.00     0.017 C 
HETATM    9  C3  UNL     1     -31.515   7.671   4.328  1.00 20.00     0.017 C 
ENDBRANCH   1   7
TORSDOF 4
ENDMDL
MODEL 7
REMARK VINA RESULT:      -4.0     11.137     12.228
REMARK  4 active torsions:
REMARK  status: ('A' for Active; 'I' for Inactive)
REMARK    1  A    between atoms: C1_1  and  C4_4 
REMARK    2  A    between atoms: C1_1  and  C7_7 
REMARK    3  A    between atoms: C4_4  and  C5_5 
REMARK    4  A    between atoms: C5_5  and  C6_6 
ROOT
HETATM    1  C1  UNL     1     -34.557  13.675  -4.684  1.00 20.00     0.130 C 
HETATM    2  O8  UNL     1     -34.870  12.491  -4.814  1.00 20.00    -0.298 OA
ENDROOT
BRANCH   1   3
HETATM    3  C4  UNL     1     -33.480  14.117  -3.702  1.00 20.00     0.081 C 
BRANCH   3   4
HETATM    4  C5  UNL     1     -33.179  15.613  -3.760  1.00 20.00     0.038 C 
BRANCH   4   5
HETATM    5  C6  UNL     1     -33.769  16.375  -2.583  1.00 20.00     0.222 C 
HETATM    6  F9  UNL     1     -34.575  15.544  -1.871  1.00 20.00    -0.255 F 
ENDBRANCH   4   5
ENDBRANCH   3   4
ENDBRANCH   1   3
BRANCH   1   7
HETATM    7  C7  UNL     1     -35.193  14.773  -5.537  1.00 20.00     0.047 C 
HETATM    8  C2  UNL     1     -35.100  14.409  -7.013  1.00 20.00     0.017 C 
HETATM    9  C3  UNL     1     -36.644  15.016  -5.129  1.00 20.00     0.017 C 
ENDBRANCH   1   7
TORSDOF 4
ENDMDL
MODEL 8
REMARK VINA RESULT:      -4.0      2.923      4.529
REMARK  4 active torsions:
REMARK  status: ('A' for Active; 'I' for Inactive)
REMARK    1  A    between atoms: C1_1  and  C4_4 
REMARK    2  A    between atoms: C1_1  and  C7_7 
REMARK    3  A    between atoms: C4_4  and  C5_5 
REMARK    4  A    between atoms: C5_5  and  C6_6 
ROOT
HETATM    1  C1  UNL     1     -33.182   6.476   4.081  1.00 20.00     0.130 C 
HETATM    2  O8  UNL     1     -33.392   6.788   5.254  1.00 20.00    -0.298 OA
ENDROOT
BRANCH   1   3
HETATM    3  C4  UNL     1     -34.135   5.573   3.308  1.00 20.00     0.081 C 
BRANCH   3   4
HETATM    4  C5  UNL     1     -35.383   5.186   4.098  1.00 20.00     0.038 C 
BRANCH   4   5
HETATM    5  C6  UNL     1     -35.125   4.059   5.086  1.00 20.00     0.222 C 
HETATM    6  F9  UNL     1     -35.372   4.504   6.347  1.00 20.00    -0.255 F 
ENDBRANCH   4   5
ENDBRANCH   3   4
ENDBRANCH   1   3
BRANCH   1   7
HETATM    7  C7  UNL     1     -31.980   7.018   3.307  1.00 20.00     0.047 C 
HETATM    8  C2  UNL     1     -32.453   7.890   2.151  1.00 20.00     0.017 C 
HETATM    9  C3  UNL     1     -31.041   7.798   4.225  1.00 20.00     0.017 C 
ENDBRANCH   1   7
TORSDOF 4
ENDMDL
MODEL 9
REMARK VINA RESULT:      -3.9     11.208     11.944
REMARK  4 active torsions:
REMARK  status: ('A' for Active; 'I' for Inactive)
REMARK    1  A    between atoms: C1_1  and  C4_4 
REMARK    2  A    between atoms: C1_1  and  C7_7 
REMARK    3  A    between atoms: C4_4  and  C5_5 
REMARK    4  A    between atoms: C5_5  and  C6_6 
ROOT
HETATM    1  C1  UNL     1     -33.667  16.105  -3.385  1.00 20.00     0.130 C 
HETATM    2  O8  UNL     1     -33.536  17.210  -3.911  1.00 20.00    -0.298 OA
ENDROOT
BRANCH   1   3
HETATM    3  C4  UNL     1     -32.735  14.945  -3.710  1.00 20.00     0.081 C 
BRANCH   3   4
HETATM    4  C5  UNL     1     -33.419  13.580  -3.664  1.00 20.00     0.038 C 
BRANCH   4   5
HETATM    5  C6  UNL     1     -34.394  13.375  -4.813  1.00 20.00     0.222 C 
HETATM    6  F9  UNL     1     -35.618  13.062  -4.311  1.00 20.00    -0.255 F 
ENDBRANCH   4   5
ENDBRANCH   3   4
ENDBRANCH   1   3
BRANCH   1   7
HETATM    7  C7  UNL     1     -34.742  15.838  -2.331  1.00 20.00     0.047 C 
HETATM    8  C2  UNL     1     -34.456  16.651  -1.074  1.00 20.00     0.017 C 
HETATM    9  C3  UNL     1     -36.135  16.152  -2.873  1.00 20.00     0.017 C 
ENDBRANCH   1   7
TORSDOF 4
ENDMDL
