MODEL 1
REMARK VINA RESULT:      -4.8      0.000      0.000
REMARK  2 active torsions:
REMARK  status: ('A' for Active; 'I' for Inactive)
REMARK    1  A    between atoms: C1_1  and  C5_5 
REMARK    2  A    between atoms: C1_1  and  C11_11 
ROOT
HETATM    1  C2  UNL     1     -34.691  14.020  -3.637  1.00 20.00     0.013 C 
HETATM    2  C3  UNL     1     -34.449  13.594  -5.081  1.00 20.00     0.009 C 
HETATM    3  C4  UNL     1     -36.319  15.080  -5.139  1.00 20.00     0.021 C 
HETATM    4  C5  UNL     1     -35.980  14.847  -3.660  1.00 20.00     0.056 C 
HETATM    5  C6  UNL     1     -35.045  14.727  -5.925  1.00 20.00    -0.047 C 
HETATM    6  C7  UNL     1     -35.373  14.256  -7.345  1.00 20.00     0.015 C 
HETATM    7  C8  UNL     1     -34.088  15.928  -6.005  1.00 20.00     0.015 C 
ENDROOT
BRANCH   4   8
HETATM    8  C1  UNL     1     -35.814  16.139  -2.918  1.00 20.00     0.134 C 
HETATM    9  O12 UNL     1     -36.715  16.976  -2.903  1.00 20.00    -0.297 OA
BRANCH   8  10
HETATM   10  C11 UNL     1     -34.474  16.368  -2.225  1.00 20.00     0.047 C 
HETATM   11  C9  UNL     1     -33.752  17.548  -2.864  1.00 20.00     0.017 C 
HETATM   12  C10 UNL     1     -34.664  16.594  -0.727  1.00 20.00     0.017 C 
ENDBRANCH   8  10
ENDBRANCH   4   8
TORSDOF 2
ENDMDL
MODEL 2
REMARK VINA RESULT:      -4.6      1.353      2.536
REMARK  2 active torsions:
REMARK  status: ('A' for Active; 'I' for Inactive)
REMARK    1  A    between atoms: C1_1  and  C5_5 
REMARK    2  A    between atoms: C1_1  and  C11_11 
ROOT
HETATM    1  C2  UNL     1     -34.349  16.978  -5.045  1.00 20.00     0.013 C 
HETATM    2  C3  UNL     1     -34.578  15.566  -5.575  1.00 20.00     0.009 C 
HETATM    3  C4  UNL     1     -33.588  15.306  -3.416  1.00 20.00     0.021 C 
HETATM    4  C5  UNL     1     -33.576  16.807  -3.733  1.00 20.00     0.056 C 
HETATM    5  C6  UNL     1     -34.671  14.691  -4.318  1.00 20.00    -0.047 C 
HETATM    6  C7  UNL     1     -34.372  13.223  -4.635  1.00 20.00     0.015 C 
HETATM    7  C8  UNL     1     -36.061  14.790  -3.669  1.00 20.00     0.015 C 
ENDROOT
BRANCH   4   8
HETATM    8  C1  UNL     1     -34.191  17.613  -2.628  1.00 20.00     0.134 C 
HETATM    9  O12 UNL     1     -35.051  18.459  -2.870  1.00 20.00    -0.297 OA
BRANCH   8  10
HETATM   10  C11 UNL     1     -33.672  17.354  -1.217  1.00 20.00     0.047 C 
HETATM   11  C9  UNL     1     -32.963  18.594  -0.687  1.00 20.00     0.017 C 
HETATM   12  C10 UNL     1     -34.808  16.937  -0.285  1.00 20.00     0.017 C 
ENDBRANCH   8  10
ENDBRANCH   4   8
TORSDOF 2
ENDMDL
MODEL 3
REMARK VINA RESULT:      -4.5      1.317      1.626
REMARK  2 active torsions:
REMARK  status: ('A' for Active; 'I' for Inactive)
REMARK    1  A    between atoms: C1_1  and  C5_5 
REMARK    2  A    between atoms: C1_1  and  C11_11 
ROOT
HETATM    1  C2  UNL     1     -34.428  13.692  -3.871  1.00 20.00     0.013 C 
HETATM    2  C3  UNL     1     -34.804  13.462  -5.332  1.00 20.00     0.009 C 
HETATM    3  C4  UNL     1     -35.989  15.421  -4.649  1.00 20.00     0.021 C 
HETATM    4  C5  UNL     1     -35.306  14.854  -3.397  1.00 20.00     0.056 C 
HETATM    5  C6  UNL     1     -35.217  14.846  -5.849  1.00 20.00    -0.047 C 
HETATM    6  C7  UNL     1     -36.107  14.737  -7.090  1.00 20.00     0.015 C 
HETATM    7  C8  UNL     1     -33.988  15.706  -6.187  1.00 20.00     0.015 C 
ENDROOT
BRANCH   4   8
HETATM    8  C1  UNL     1     -34.496  15.896  -2.686  1.00 20.00     0.134 C 
HETATM    9  O12 UNL     1     -33.270  15.915  -2.785  1.00 20.00    -0.297 OA
BRANCH   8  10
HETATM   10  C11 UNL     1     -35.262  16.891  -1.820  1.00 20.00     0.047 C 
HETATM   11  C9  UNL     1     -34.687  16.904  -0.408  1.00 20.00     0.017 C 
HETATM   12  C10 UNL     1     -35.228  18.289  -2.432  1.00 20.00     0.017 C 
ENDBRANCH   8  10
ENDBRANCH   4   8
TORSDOF 2
ENDMDL
MODEL 4
REMARK VINA RESULT:      -4.2      1.599      4.365
REMARK  2 active torsions:
REMARK  status: ('A' for Active; 'I' for Inactive)
REMARK    1  A    between atoms: C1_1  and  C5_5 
REMARK    2  A    between atoms: C1_1  and  C11_11 
ROOT
HETATM    1  C2  UNL     1     -36.583  16.116  -4.081  1.00 20.00     0.013 C 
HETATM    2  C3  UNL     1     -36.254  16.893  -2.810  1.00 20.00     0.009 C 
HETATM    3  C4  UNL     1     -34.934  14.903  -2.724  1.00 20.00     0.021 C 
HETATM    4  C5  UNL     1     -35.854  14.775  -3.946  1.00 20.00     0.056 C 
HETATM    5  C6  UNL     1     -34.856  16.406  -2.409  1.00 20.00    -0.047 C 
HETATM    6  C7  UNL     1     -34.580  16.656  -0.924  1.00 20.00     0.015 C 
HETATM    7  C8  UNL     1     -33.763  17.095  -3.243  1.00 20.00     0.015 C 
ENDROOT
BRANCH   4   8
HETATM    8  C1  UNL     1     -35.083  14.445  -5.189  1.00 20.00     0.134 C 
HETATM    9  O12 UNL     1     -34.268  13.524  -5.197  1.00 20.00    -0.297 OA
BRANCH   8  10
HETATM   10  C11 UNL     1     -35.338  15.323  -6.411  1.00 20.00     0.047 C 
HETATM   11  C9  UNL     1     -34.082  16.116  -6.752  1.00 20.00     0.017 C 
HETATM   12  C10 UNL     1     -35.791  14.483  -7.603  1.00 20.00     0.017 C 
ENDBRANCH   8  10
ENDBRANCH   4   8
TORSDOF 2
ENDMDL
MODEL 5
REMARK VINA RESULT:      -4.2      1.982      5.160
REMARK  2 active torsions:
REMARK  status: ('A' for Active; 'I' for Inactive)
REMARK    1  A    between atoms: C1_1  and  C5_5 
REMARK    2  A    between atoms: C1_1  and  C11_11 
ROOT
HETATM    1  C2  UNL     1     -35.581  18.322  -2.210  1.00 20.00     0.013 C 
HETATM    2  C3  UNL     1     -35.385  18.919  -0.820  1.00 20.00     0.009 C 
HETATM    3  C4  UNL     1     -34.691  16.639  -0.659  1.00 20.00     0.021 C 
HETATM    4  C5  UNL     1     -35.283  16.827  -2.062  1.00 20.00     0.056 C 
HETATM    5  C6  UNL     1     -34.304  18.046  -0.171  1.00 20.00    -0.047 C 
HETATM    6  C7  UNL     1     -34.347  18.143   1.356  1.00 20.00     0.015 C 
HETATM    7  C8  UNL     1     -32.900  18.439  -0.659  1.00 20.00     0.015 C 
ENDROOT
BRANCH   4   8
HETATM    8  C1  UNL     1     -34.343  16.350  -3.129  1.00 20.00     0.134 C 
HETATM    9  O12 UNL     1     -33.949  17.115  -4.008  1.00 20.00    -0.297 OA
BRANCH   8  10
HETATM   10  C11 UNL     1     -33.939  14.879  -3.083  1.00 20.00     0.047 C 
HETATM   11  C9  UNL     1     -34.947  14.038  -3.858  1.00 20.00     0.017 C 
HETATM   12  C10 UNL     1     -32.529  14.682  -3.635  1.00 20.00     0.017 C 
ENDBRANCH   8  10
ENDBRANCH   4   8
TORSDOF 2
ENDMDL
MODEL 6
REMARK VINA RESULT:      -4.2     12.662     14.043
REMARK  2 active torsions:
REMARK  status: ('A' for Active; 'I' for Inactive)
REMARK    1  A    between atoms: C1_1  and  C5_5 
REMARK    2  A    between atoms: C1_1  and  C11_11 
ROOT
HETATM    1  C2  UNL     1     -40.757   4.456  -1.003  1.00 20.00     0.013 C 
HETATM    2  C3  UNL     1     -40.773   5.936  -0.635  1.00 20.00     0.009 C 
HETATM    3  C4  UNL     1     -42.377   5.678  -2.387  1.00 20.00     0.021 C 
HETATM    4  C5  UNL     1     -41.670   4.325  -2.226  1.00 20.00     0.056 C 
HETATM    5  C6  UNL     1     -42.162   6.427  -1.061  1.00 20.00    -0.047 C 
HETATM    6  C7  UNL     1     -42.182   7.945  -1.263  1.00 20.00     0.015 C 
HETATM    7  C8  UNL     1     -43.232   6.046  -0.025  1.00 20.00     0.015 C 
ENDROOT
BRANCH   4   8
HETATM    8  C1  UNL     1     -42.651   3.203  -2.058  1.00 20.00     0.134 C 
HETATM    9  O12 UNL     1     -43.340   3.118  -1.043  1.00 20.00    -0.297 OA
BRANCH   8  10
HETATM   10  C11 UNL     1     -42.718   2.173  -3.182  1.00 20.00     0.047 C 
HETATM   11  C9  UNL     1     -41.333   1.970  -3.785  1.00 20.00     0.017 C 
HETATM   12  C10 UNL     1     -43.289   0.850  -2.678  1.00 20.00     0.017 C 
ENDBRANCH   8  10
ENDBRANCH   4   8
TORSDOF 2
ENDMDL
MODEL 7
REMARK VINA RESULT:      -4.2      2.110      4.236
REMARK  2 active torsions:
REMARK  status: ('A' for Active; 'I' for Inactive)
REMARK    1  A    between atoms: C1_1  and  C5_5 
REMARK    2  A    between atoms: C1_1  and  C11_11 
ROOT
HETATM    1  C2  UNL     1     -34.426  13.474  -4.908  1.00 20.00     0.013 C 
HETATM    2  C3  UNL     1     -34.406  13.804  -3.419  1.00 20.00     0.009 C 
HETATM    3  C4  UNL     1     -34.273  15.901  -4.558  1.00 20.00     0.021 C 
HETATM    4  C5  UNL     1     -34.185  14.804  -5.629  1.00 20.00     0.056 C 
HETATM    5  C6  UNL     1     -34.931  15.243  -3.333  1.00 20.00    -0.047 C 
HETATM    6  C7  UNL     1     -34.498  15.921  -2.031  1.00 20.00     0.015 C 
HETATM    7  C8  UNL     1     -36.465  15.286  -3.434  1.00 20.00     0.015 C 
ENDROOT
BRANCH   4   8
HETATM    8  C1  UNL     1     -35.184  15.019  -6.726  1.00 20.00     0.134 C 
HETATM    9  O12 UNL     1     -35.521  14.092  -7.461  1.00 20.00    -0.297 OA
BRANCH   8  10
HETATM   10  C11 UNL     1     -35.724  16.436  -6.898  1.00 20.00     0.047 C 
HETATM   11  C9  UNL     1     -34.883  17.194  -7.918  1.00 20.00     0.017 C 
HETATM   12  C10 UNL     1     -37.193  16.415  -7.314  1.00 20.00     0.017 C 
ENDBRANCH   8  10
ENDBRANCH   4   8
TORSDOF 2
ENDMDL
MODEL 8
REMARK VINA RESULT:      -4.1      1.670      4.390
REMARK  2 active torsions:
REMARK  status: ('A' for Active; 'I' for Inactive)
REMARK    1  A    between atoms: C1_1  and  C5_5 
REMARK    2  A    between atoms: C1_1  and  C11_11 
ROOT
HETATM    1  C2  UNL     1     -33.829  14.649  -4.355  1.00 20.00     0.013 C 
HETATM    2  C3  UNL     1     -34.100  14.731  -2.856  1.00 20.00     0.009 C 
HETATM    3  C4  UNL     1     -33.775  16.982  -3.590  1.00 20.00     0.021 C 
HETATM    4  C5  UNL     1     -33.470  16.073  -4.789  1.00 20.00     0.056 C 
HETATM    5  C6  UNL     1     -34.650  16.147  -2.639  1.00 20.00    -0.047 C 
HETATM    6  C7  UNL     1     -34.484  16.595  -1.184  1.00 20.00     0.015 C 
HETATM    7  C8  UNL     1     -36.136  16.235  -3.024  1.00 20.00     0.015 C 
ENDROOT
BRANCH   4   8
HETATM    8  C1  UNL     1     -34.241  16.484  -6.007  1.00 20.00     0.134 C 
HETATM    9  O12 UNL     1     -34.062  17.586  -6.523  1.00 20.00    -0.297 OA
BRANCH   8  10
HETATM   10  C11 UNL     1     -35.266  15.488  -6.541  1.00 20.00     0.047 C 
HETATM   11  C9  UNL     1     -36.641  16.141  -6.606  1.00 20.00     0.017 C 
HETATM   12  C10 UNL     1     -34.852  14.957  -7.911  1.00 20.00     0.017 C 
ENDBRANCH   8  10
ENDBRANCH   4   8
TORSDOF 2
ENDMDL
MODEL 9
REMARK VINA RESULT:      -4.1      1.378      4.244
REMARK  2 active torsions:
REMARK  status: ('A' for Active; 'I' for Inactive)
REMARK    1  A    between atoms: C1_1  and  C5_5 
REMARK    2  A    between atoms: C1_1  and  C11_11 
ROOT
HETATM    1  C2  UNL     1     -35.487  17.257  -4.470  1.00 20.00     0.013 C 
HETATM    2  C3  UNL     1     -34.472  17.881  -3.518  1.00 20.00     0.009 C 
HETATM    3  C4  UNL     1     -35.609  16.200  -2.257  1.00 20.00     0.021 C 
HETATM    4  C5  UNL     1     -36.315  16.292  -3.616  1.00 20.00     0.056 C 
HETATM    5  C6  UNL     1     -34.206  16.794  -2.468  1.00 20.00    -0.047 C 
HETATM    6  C7  UNL     1     -33.647  17.391  -1.174  1.00 20.00     0.015 C 
HETATM    7  C8  UNL     1     -33.225  15.735  -2.996  1.00 20.00     0.015 C 
ENDROOT
BRANCH   4   8
HETATM    8  C1  UNL     1     -36.435  14.948  -4.272  1.00 20.00     0.134 C 
HETATM    9  O12 UNL     1     -37.272  14.134  -3.888  1.00 20.00    -0.297 OA
BRANCH   8  10
HETATM   10  C11 UNL     1     -35.452  14.643  -5.399  1.00 20.00     0.047 C 
HETATM   11  C9  UNL     1     -34.776  13.300  -5.149  1.00 20.00     0.017 C 
HETATM   12  C10 UNL     1     -36.154  14.653  -6.754  1.00 20.00     0.017 C 
ENDBRANCH   8  10
ENDBRANCH   4   8
TORSDOF 2
ENDMDL
