MODEL 1
REMARK VINA RESULT:      -4.2      0.000      0.000
REMARK  4 active torsions:
REMARK  status: ('A' for Active; 'I' for Inactive)
REMARK    1  A    between atoms: C5_5  and  C6_6 
REMARK    2  A    between atoms: C6_6  and  C9_9 
REMARK    3  A    between atoms: C7_7  and  C8_8 
REMARK    4  A    between atoms: C7_7  and  N10_10 
ROOT
HETATM    1  C1  UNL     1     -33.679  17.760  -3.983  1.00 20.00     0.028 C 
HETATM    2  C2  UNL     1     -33.986  18.234  -2.566  1.00 20.00     0.008 C 
HETATM    3  C3  UNL     1     -34.559  16.586  -4.386  1.00 20.00     0.235 C 
HETATM    4  C4  UNL     1     -34.772  15.908  -1.981  1.00 20.00     0.239 C 
HETATM    5  C5  UNL     1     -33.885  17.081  -1.560  1.00 20.00     0.012 C 
HETATM    6  N10 UNL     1     -34.400  15.472  -3.380  1.00 20.00    -0.069 N 
HETATM    7  H30 UNL     1     -33.405  15.212  -3.364  1.00 20.00     0.280 HD
ENDROOT
BRANCH   6   8
HETATM    8  C7  UNL     1     -35.154  14.239  -3.794  1.00 20.00     0.266 C 
BRANCH   8   9
HETATM    9  C8  UNL     1     -34.214  13.308  -4.527  1.00 20.00     0.249 C 
HETATM   10  F11 UNL     1     -33.020  13.278  -3.877  1.00 20.00    -0.254 F 
ENDBRANCH   8   9
ENDBRANCH   6   8
BRANCH   5  11
HETATM   11  C6  UNL     1     -34.261  17.556  -0.157  1.00 20.00     0.021 C 
BRANCH  11  12
HETATM   12  C9  UNL     1     -33.622  18.886   0.219  1.00 20.00     0.115 C 
HETATM   13 CL12 UNL     1     -31.848  18.775   0.301  1.00 20.00    -0.130 Cl
ENDBRANCH  11  12
ENDBRANCH   5  11
TORSDOF 4
ENDMDL
MODEL 2
REMARK VINA RESULT:      -4.1      2.397      3.463
REMARK  4 active torsions:
REMARK  status: ('A' for Active; 'I' for Inactive)
REMARK    1  A    between atoms: C5_5  and  C6_6 
REMARK    2  A    between atoms: C6_6  and  C9_9 
REMARK    3  A    between atoms: C7_7  and  C8_8 
REMARK    4  A    between atoms: C7_7  and  N10_10 
ROOT
HETATM    1  C1  UNL     1     -34.708  13.256  -4.508  1.00 20.00     0.028 C 
HETATM    2  C2  UNL     1     -33.963  14.114  -3.491  1.00 20.00     0.008 C 
HETATM    3  C3  UNL     1     -35.021  14.033  -5.778  1.00 20.00     0.235 C 
HETATM    4  C4  UNL     1     -35.041  16.174  -4.473  1.00 20.00     0.239 C 
HETATM    5  C5  UNL     1     -34.731  15.407  -3.187  1.00 20.00     0.012 C 
HETATM    6  N10 UNL     1     -35.799  15.277  -5.425  1.00 20.00    -0.069 N 
HETATM    7  H30 UNL     1     -36.657  14.976  -4.943  1.00 20.00     0.280 HD
ENDROOT
BRANCH   6   8
HETATM    8  C7  UNL     1     -36.242  16.022  -6.654  1.00 20.00     0.266 C 
BRANCH   8   9
HETATM    9  C8  UNL     1     -35.246  15.778  -7.765  1.00 20.00     0.249 C 
HETATM   10  F11 UNL     1     -34.263  16.715  -7.697  1.00 20.00    -0.254 F 
ENDBRANCH   8   9
ENDBRANCH   6   8
BRANCH   5  11
HETATM   11  C6  UNL     1     -33.941  16.287  -2.220  1.00 20.00     0.021 C 
BRANCH  11  12
HETATM   12  C9  UNL     1     -34.680  16.562  -0.917  1.00 20.00     0.115 C 
HETATM   13 CL12 UNL     1     -33.888  17.830   0.046  1.00 20.00    -0.130 Cl
ENDBRANCH  11  12
ENDBRANCH   5  11
TORSDOF 4
ENDMDL
MODEL 3
REMARK VINA RESULT:      -4.1      2.434      3.296
REMARK  4 active torsions:
REMARK  status: ('A' for Active; 'I' for Inactive)
REMARK    1  A    between atoms: C5_5  and  C6_6 
REMARK    2  A    between atoms: C6_6  and  C9_9 
REMARK    3  A    between atoms: C7_7  and  C8_8 
REMARK    4  A    between atoms: C7_7  and  N10_10 
ROOT
HETATM    1  C1  UNL     1     -34.044  13.515  -4.401  1.00 20.00     0.028 C 
HETATM    2  C2  UNL     1     -33.455  14.615  -3.524  1.00 20.00     0.008 C 
HETATM    3  C3  UNL     1     -35.034  14.073  -5.414  1.00 20.00     0.235 C 
HETATM    4  C4  UNL     1     -35.547  15.984  -3.874  1.00 20.00     0.239 C 
HETATM    5  C5  UNL     1     -34.559  15.434  -2.844  1.00 20.00     0.012 C 
HETATM    6  N10 UNL     1     -36.110  14.844  -4.690  1.00 20.00    -0.069 N 
HETATM    7  H30 UNL     1     -36.565  14.194  -4.034  1.00 20.00     0.280 HD
ENDROOT
BRANCH   6   8
HETATM    8  C7  UNL     1     -37.184  15.314  -5.633  1.00 20.00     0.266 C 
BRANCH   8   9
HETATM    9  C8  UNL     1     -38.533  15.131  -4.975  1.00 20.00     0.249 C 
HETATM   10  F11 UNL     1     -38.403  14.287  -3.917  1.00 20.00    -0.254 F 
ENDBRANCH   8   9
ENDBRANCH   6   8
BRANCH   5  11
HETATM   11  C6  UNL     1     -33.956  16.574  -2.024  1.00 20.00     0.021 C 
BRANCH  11  12
HETATM   12  C9  UNL     1     -34.624  16.758  -0.669  1.00 20.00     0.115 C 
HETATM   13 CL12 UNL     1     -33.806  17.992   0.318  1.00 20.00    -0.130 Cl
ENDBRANCH  11  12
ENDBRANCH   5  11
TORSDOF 4
ENDMDL
MODEL 4
REMARK VINA RESULT:      -4.1      3.757      5.751
REMARK  4 active torsions:
REMARK  status: ('A' for Active; 'I' for Inactive)
REMARK    1  A    between atoms: C5_5  and  C6_6 
REMARK    2  A    between atoms: C6_6  and  C9_9 
REMARK    3  A    between atoms: C7_7  and  C8_8 
REMARK    4  A    between atoms: C7_7  and  N10_10 
ROOT
HETATM    1  C1  UNL     1     -34.205  13.321  -4.441  1.00 20.00     0.028 C 
HETATM    2  C2  UNL     1     -34.857  13.788  -5.738  1.00 20.00     0.008 C 
HETATM    3  C3  UNL     1     -34.350  14.355  -3.334  1.00 20.00     0.235 C 
HETATM    4  C4  UNL     1     -34.467  16.184  -5.046  1.00 20.00     0.239 C 
HETATM    5  C5  UNL     1     -34.317  15.157  -6.170  1.00 20.00     0.012 C 
HETATM    6  N10 UNL     1     -33.779  15.672  -3.801  1.00 20.00    -0.069 N 
HETATM    7  H30 UNL     1     -32.792  15.510  -4.041  1.00 20.00     0.280 HD
ENDROOT
BRANCH   6   8
HETATM    8  C7  UNL     1     -33.785  16.699  -2.702  1.00 20.00     0.266 C 
BRANCH   8   9
HETATM    9  C8  UNL     1     -34.795  16.293  -1.653  1.00 20.00     0.249 C 
HETATM   10  F11 UNL     1     -34.286  16.555  -0.419  1.00 20.00    -0.254 F 
ENDBRANCH   8   9
ENDBRANCH   6   8
BRANCH   5  11
HETATM   11  C6  UNL     1     -35.028  15.643  -7.432  1.00 20.00     0.021 C 
BRANCH  11  12
HETATM   12  C9  UNL     1     -36.109  14.687  -7.918  1.00 20.00     0.115 C 
HETATM   13 CL12 UNL     1     -37.731  15.184  -7.380  1.00 20.00    -0.130 Cl
ENDBRANCH  11  12
ENDBRANCH   5  11
TORSDOF 4
ENDMDL
MODEL 5
REMARK VINA RESULT:      -4.1      1.713      1.846
REMARK  4 active torsions:
REMARK  status: ('A' for Active; 'I' for Inactive)
REMARK    1  A    between atoms: C5_5  and  C6_6 
REMARK    2  A    between atoms: C6_6  and  C9_9 
REMARK    3  A    between atoms: C7_7  and  C8_8 
REMARK    4  A    between atoms: C7_7  and  N10_10 
ROOT
HETATM    1  C1  UNL     1     -33.530  17.250  -5.148  1.00 20.00     0.028 C 
HETATM    2  C2  UNL     1     -34.109  17.930  -3.912  1.00 20.00     0.008 C 
HETATM    3  C3  UNL     1     -33.867  15.767  -5.185  1.00 20.00     0.235 C 
HETATM    4  C4  UNL     1     -34.008  15.728  -2.681  1.00 20.00     0.239 C 
HETATM    5  C5  UNL     1     -33.665  17.218  -2.628  1.00 20.00     0.012 C 
HETATM    6  N10 UNL     1     -33.385  15.112  -3.913  1.00 20.00    -0.069 N 
HETATM    7  H30 UNL     1     -32.370  15.268  -3.853  1.00 20.00     0.280 HD
ENDROOT
BRANCH   6   8
HETATM    8  C7  UNL     1     -33.583  13.621  -3.947  1.00 20.00     0.266 C 
BRANCH   8   9
HETATM    9  C8  UNL     1     -34.733  13.297  -4.874  1.00 20.00     0.249 C 
HETATM   10  F11 UNL     1     -35.891  13.284  -4.161  1.00 20.00    -0.254 F 
ENDBRANCH   8   9
ENDBRANCH   6   8
BRANCH   5  11
HETATM   11  C6  UNL     1     -34.308  17.868  -1.403  1.00 20.00     0.021 C 
BRANCH  11  12
HETATM   12  C9  UNL     1     -34.751  16.861  -0.351  1.00 20.00     0.115 C 
HETATM   13 CL12 UNL     1     -35.126  17.639   1.204  1.00 20.00    -0.130 Cl
ENDBRANCH  11  12
ENDBRANCH   5  11
TORSDOF 4
ENDMDL
MODEL 6
REMARK VINA RESULT:      -4.1      1.092      1.104
REMARK  4 active torsions:
REMARK  status: ('A' for Active; 'I' for Inactive)
REMARK    1  A    between atoms: C5_5  and  C6_6 
REMARK    2  A    between atoms: C6_6  and  C9_9 
REMARK    3  A    between atoms: C7_7  and  C8_8 
REMARK    4  A    between atoms: C7_7  and  N10_10 
ROOT
HETATM    1  C1  UNL     1     -33.684  17.684  -4.189  1.00 20.00     0.028 C 
HETATM    2  C2  UNL     1     -34.060  17.923  -2.731  1.00 20.00     0.008 C 
HETATM    3  C3  UNL     1     -34.639  16.711  -4.865  1.00 20.00     0.235 C 
HETATM    4  C4  UNL     1     -35.121  15.634  -2.652  1.00 20.00     0.239 C 
HETATM    5  C5  UNL     1     -34.160  16.602  -1.959  1.00 20.00     0.012 C 
HETATM    6  N10 UNL     1     -34.678  15.422  -4.082  1.00 20.00    -0.069 N 
HETATM    7  H30 UNL     1     -33.718  15.052  -4.052  1.00 20.00     0.280 HD
ENDROOT
BRANCH   6   8
HETATM    8  C7  UNL     1     -35.514  14.379  -4.772  1.00 20.00     0.266 C 
BRANCH   8   9
HETATM    9  C8  UNL     1     -34.686  13.127  -4.958  1.00 20.00     0.249 C 
HETATM   10  F11 UNL     1     -33.510  13.266  -4.290  1.00 20.00    -0.254 F 
ENDBRANCH   8   9
ENDBRANCH   6   8
BRANCH   5  11
HETATM   11  C6  UNL     1     -34.604  16.852  -0.519  1.00 20.00     0.021 C 
BRANCH  11  12
HETATM   12  C9  UNL     1     -33.926  18.056   0.119  1.00 20.00     0.115 C 
HETATM   13 CL12 UNL     1     -34.379  18.252   1.828  1.00 20.00    -0.130 Cl
ENDBRANCH  11  12
ENDBRANCH   5  11
TORSDOF 4
ENDMDL
MODEL 7
REMARK VINA RESULT:      -4.0      3.294      4.839
REMARK  4 active torsions:
REMARK  status: ('A' for Active; 'I' for Inactive)
REMARK    1  A    between atoms: C5_5  and  C6_6 
REMARK    2  A    between atoms: C6_6  and  C9_9 
REMARK    3  A    between atoms: C7_7  and  C8_8 
REMARK    4  A    between atoms: C7_7  and  N10_10 
ROOT
HETATM    1  C1  UNL     1     -33.589  17.766  -4.453  1.00 20.00     0.028 C 
HETATM    2  C2  UNL     1     -33.215  16.287  -4.466  1.00 20.00     0.008 C 
HETATM    3  C3  UNL     1     -33.939  18.245  -3.052  1.00 20.00     0.235 C 
HETATM    4  C4  UNL     1     -34.662  15.926  -2.429  1.00 20.00     0.239 C 
HETATM    5  C5  UNL     1     -34.320  15.430  -3.835  1.00 20.00     0.012 C 
HETATM    6  N10 UNL     1     -35.046  17.387  -2.491  1.00 20.00    -0.069 N 
HETATM    7  H30 UNL     1     -35.849  17.466  -3.130  1.00 20.00     0.280 HD
ENDROOT
BRANCH   6   8
HETATM    8  C7  UNL     1     -35.517  17.893  -1.155  1.00 20.00     0.266 C 
BRANCH   8   9
HETATM    9  C8  UNL     1     -34.819  17.118  -0.060  1.00 20.00     0.249 C 
HETATM   10  F11 UNL     1     -33.652  17.742   0.254  1.00 20.00    -0.254 F 
ENDBRANCH   8   9
ENDBRANCH   6   8
BRANCH   5  11
HETATM   11  C6  UNL     1     -33.902  13.961  -3.793  1.00 20.00     0.021 C 
BRANCH  11  12
HETATM   12  C9  UNL     1     -34.613  13.105  -4.832  1.00 20.00     0.115 C 
HETATM   13 CL12 UNL     1     -35.189  14.068  -6.212  1.00 20.00    -0.130 Cl
ENDBRANCH  11  12
ENDBRANCH   5  11
TORSDOF 4
ENDMDL
MODEL 8
REMARK VINA RESULT:      -3.9     12.755     13.875
REMARK  4 active torsions:
REMARK  status: ('A' for Active; 'I' for Inactive)
REMARK    1  A    between atoms: C5_5  and  C6_6 
REMARK    2  A    between atoms: C6_6  and  C9_9 
REMARK    3  A    between atoms: C7_7  and  C8_8 
REMARK    4  A    between atoms: C7_7  and  N10_10 
ROOT
HETATM    1  C1  UNL     1     -40.768   5.872  -0.481  1.00 20.00     0.028 C 
HETATM    2  C2  UNL     1     -41.180   7.075  -1.323  1.00 20.00     0.008 C 
HETATM    3  C3  UNL     1     -40.968   4.564  -1.231  1.00 20.00     0.235 C 
HETATM    4  C4  UNL     1     -42.805   5.609  -2.580  1.00 20.00     0.239 C 
HETATM    5  C5  UNL     1     -42.620   6.929  -1.831  1.00 20.00     0.012 C 
HETATM    6  N10 UNL     1     -42.404   4.460  -1.684  1.00 20.00    -0.069 N 
HETATM    7  H30 UNL     1     -42.994   4.508  -0.842  1.00 20.00     0.280 HD
ENDROOT
BRANCH   6   8
HETATM    8  C7  UNL     1     -42.688   3.130  -2.326  1.00 20.00     0.266 C 
BRANCH   8   9
HETATM    9  C8  UNL     1     -41.479   2.699  -3.125  1.00 20.00     0.249 C 
HETATM   10  F11 UNL     1     -41.530   1.354  -3.321  1.00 20.00    -0.254 F 
ENDBRANCH   8   9
ENDBRANCH   6   8
BRANCH   5  11
HETATM   11  C6  UNL     1     -42.995   8.107  -2.729  1.00 20.00     0.021 C 
BRANCH  11  12
HETATM   12  C9  UNL     1     -42.947   7.771  -4.213  1.00 20.00     0.115 C 
HETATM   13 CL12 UNL     1     -41.814   8.817  -5.099  1.00 20.00    -0.130 Cl
ENDBRANCH  11  12
ENDBRANCH   5  11
TORSDOF 4
ENDMDL
MODEL 9
REMARK VINA RESULT:      -3.9      3.466      4.901
REMARK  4 active torsions:
REMARK  status: ('A' for Active; 'I' for Inactive)
REMARK    1  A    between atoms: C5_5  and  C6_6 
REMARK    2  A    between atoms: C6_6  and  C9_9 
REMARK    3  A    between atoms: C7_7  and  C8_8 
REMARK    4  A    between atoms: C7_7  and  N10_10 
ROOT
HETATM    1  C1  UNL     1     -34.897  17.013  -1.764  1.00 20.00     0.028 C 
HETATM    2  C2  UNL     1     -34.732  15.602  -2.320  1.00 20.00     0.008 C 
HETATM    3  C3  UNL     1     -34.892  18.058  -2.870  1.00 20.00     0.235 C 
HETATM    4  C4  UNL     1     -33.485  16.552  -4.299  1.00 20.00     0.239 C 
HETATM    5  C5  UNL     1     -33.477  15.493  -3.195  1.00 20.00     0.012 C 
HETATM    6  N10 UNL     1     -33.626  17.924  -3.680  1.00 20.00    -0.069 N 
HETATM    7  H30 UNL     1     -32.834  18.051  -3.035  1.00 20.00     0.280 HD
ENDROOT
BRANCH   6   8
HETATM    8  C7  UNL     1     -33.510  19.012  -4.712  1.00 20.00     0.266 C 
BRANCH   8   9
HETATM    9  C8  UNL     1     -33.779  18.425  -6.080  1.00 20.00     0.249 C 
HETATM   10  F11 UNL     1     -33.216  19.223  -7.026  1.00 20.00    -0.254 F 
ENDBRANCH   8   9
ENDBRANCH   6   8
BRANCH   5  11
HETATM   11  C6  UNL     1     -33.362  14.095  -3.800  1.00 20.00     0.021 C 
BRANCH  11  12
HETATM   12  C9  UNL     1     -34.707  13.498  -4.191  1.00 20.00     0.115 C 
HETATM   13 CL12 UNL     1     -35.115  13.827  -5.891  1.00 20.00    -0.130 Cl
ENDBRANCH  11  12
ENDBRANCH   5  11
TORSDOF 4
ENDMDL
