MODEL 1
REMARK VINA RESULT:      -4.1      0.000      0.000
REMARK  3 active torsions:
REMARK  status: ('A' for Active; 'I' for Inactive)
REMARK    1  A    between atoms: C4_4  and  C5_5 
REMARK    2  A    between atoms: C6_6  and  C7_7 
REMARK    3  A    between atoms: C6_6  and  N8_8 
ROOT
HETATM    1  C1  UNL     1     -33.675  17.402  -3.899  1.00 20.00     0.035 C 
HETATM    2  C2  UNL     1     -34.320  16.769  -5.116  1.00 20.00     0.235 C 
HETATM    3  C3  UNL     1     -33.079  15.087  -3.837  1.00 20.00     0.240 C 
HETATM    4  C4  UNL     1     -33.503  16.238  -2.931  1.00 20.00     0.027 C 
HETATM    5  N8  UNL     1     -33.669  15.408  -5.200  1.00 20.00    -0.068 N 
HETATM    6  H24 UNL     1     -32.877  15.496  -5.855  1.00 20.00     0.280 HD
ENDROOT
BRANCH   5   7
HETATM    7  C6  UNL     1     -34.566  14.343  -5.747  1.00 20.00     0.266 C 
BRANCH   7   8
HETATM    8  C7  UNL     1     -34.609  13.186  -4.776  1.00 20.00     0.249 C 
HETATM    9  F9  UNL     1     -35.795  13.209  -4.109  1.00 20.00    -0.254 F 
ENDBRANCH   7   8
ENDBRANCH   5   7
BRANCH   4  10
HETATM   10  C5  UNL     1     -34.787  15.922  -2.164  1.00 20.00     0.121 C 
HETATM   11 CL10 UNL     1     -34.734  16.643  -0.544  1.00 20.00    -0.130 Cl
ENDBRANCH   4  10
TORSDOF 3
ENDMDL
MODEL 2
REMARK VINA RESULT:      -3.8      2.402      3.491
REMARK  3 active torsions:
REMARK  status: ('A' for Active; 'I' for Inactive)
REMARK    1  A    between atoms: C4_4  and  C5_5 
REMARK    2  A    between atoms: C6_6  and  C7_7 
REMARK    3  A    between atoms: C6_6  and  N8_8 
ROOT
HETATM    1  C1  UNL     1     -33.567  13.687  -3.856  1.00 20.00     0.035 C 
HETATM    2  C2  UNL     1     -33.009  15.092  -3.749  1.00 20.00     0.235 C 
HETATM    3  C3  UNL     1     -34.299  14.841  -5.818  1.00 20.00     0.240 C 
HETATM    4  C4  UNL     1     -34.777  13.843  -4.769  1.00 20.00     0.027 C 
HETATM    5  N8  UNL     1     -33.229  15.670  -5.128  1.00 20.00    -0.068 N 
HETATM    6  H24 UNL     1     -32.354  15.527  -5.655  1.00 20.00     0.280 HD
ENDROOT
BRANCH   5   7
HETATM    7  C6  UNL     1     -33.497  17.142  -5.128  1.00 20.00     0.266 C 
BRANCH   7   8
HETATM    8  C7  UNL     1     -33.876  17.575  -3.730  1.00 20.00     0.249 C 
HETATM    9  F9  UNL     1     -35.231  17.599  -3.622  1.00 20.00    -0.254 F 
ENDBRANCH   7   8
ENDBRANCH   5   7
BRANCH   4  10
HETATM   10  C5  UNL     1     -36.012  14.344  -4.020  1.00 20.00     0.121 C 
HETATM   11 CL10 UNL     1     -37.024  15.335  -5.090  1.00 20.00    -0.130 Cl
ENDBRANCH   4  10
TORSDOF 3
ENDMDL
MODEL 3
REMARK VINA RESULT:      -3.8      3.096      4.221
REMARK  3 active torsions:
REMARK  status: ('A' for Active; 'I' for Inactive)
REMARK    1  A    between atoms: C4_4  and  C5_5 
REMARK    2  A    between atoms: C6_6  and  C7_7 
REMARK    3  A    between atoms: C6_6  and  N8_8 
ROOT
HETATM    1  C1  UNL     1     -36.318  14.344  -4.192  1.00 20.00     0.035 C 
HETATM    2  C2  UNL     1     -36.003  15.610  -3.420  1.00 20.00     0.235 C 
HETATM    3  C3  UNL     1     -34.052  14.127  -3.457  1.00 20.00     0.240 C 
HETATM    4  C4  UNL     1     -34.953  13.852  -4.657  1.00 20.00     0.027 C 
HETATM    5  N8  UNL     1     -34.699  15.292  -2.727  1.00 20.00    -0.068 N 
HETATM    6  H24 UNL     1     -34.938  14.957  -1.781  1.00 20.00     0.280 HD
ENDROOT
BRANCH   5   7
HETATM    7  C6  UNL     1     -33.805  16.479  -2.551  1.00 20.00     0.266 C 
BRANCH   7   8
HETATM    8  C7  UNL     1     -34.014  17.054  -1.169  1.00 20.00     0.249 C 
HETATM    9  F9  UNL     1     -34.776  16.195  -0.439  1.00 20.00    -0.254 F 
ENDBRANCH   7   8
ENDBRANCH   5   7
BRANCH   4  10
HETATM   10  C5  UNL     1     -34.468  14.575  -5.914  1.00 20.00     0.121 C 
HETATM   11 CL10 UNL     1     -35.568  14.260  -7.271  1.00 20.00    -0.130 Cl
ENDBRANCH   4  10
TORSDOF 3
ENDMDL
MODEL 4
REMARK VINA RESULT:      -3.8      2.230      2.520
REMARK  3 active torsions:
REMARK  status: ('A' for Active; 'I' for Inactive)
REMARK    1  A    between atoms: C4_4  and  C5_5 
REMARK    2  A    between atoms: C6_6  and  C7_7 
REMARK    3  A    between atoms: C6_6  and  N8_8 
ROOT
HETATM    1  C1  UNL     1     -33.289  15.542  -3.408  1.00 20.00     0.035 C 
HETATM    2  C2  UNL     1     -33.298  16.190  -4.777  1.00 20.00     0.235 C 
HETATM    3  C3  UNL     1     -34.413  14.009  -4.859  1.00 20.00     0.240 C 
HETATM    4  C4  UNL     1     -34.476  14.587  -3.449  1.00 20.00     0.027 C 
HETATM    5  N8  UNL     1     -33.727  15.072  -5.700  1.00 20.00    -0.068 N 
HETATM    6  H24 UNL     1     -32.865  14.647  -6.074  1.00 20.00     0.280 HD
ENDROOT
BRANCH   5   7
HETATM    7  C6  UNL     1     -34.527  15.536  -6.877  1.00 20.00     0.266 C 
BRANCH   7   8
HETATM    8  C7  UNL     1     -35.392  14.397  -7.365  1.00 20.00     0.249 C 
HETATM    9  F9  UNL     1     -36.699  14.764  -7.288  1.00 20.00    -0.254 F 
ENDBRANCH   7   8
ENDBRANCH   5   7
BRANCH   4  10
HETATM   10  C5  UNL     1     -35.804  15.293  -3.177  1.00 20.00     0.121 C 
HETATM   11 CL10 UNL     1     -37.128  14.469  -4.024  1.00 20.00    -0.130 Cl
ENDBRANCH   4  10
TORSDOF 3
ENDMDL
MODEL 5
REMARK VINA RESULT:      -3.7      2.421      3.135
REMARK  3 active torsions:
REMARK  status: ('A' for Active; 'I' for Inactive)
REMARK    1  A    between atoms: C4_4  and  C5_5 
REMARK    2  A    between atoms: C6_6  and  C7_7 
REMARK    3  A    between atoms: C6_6  and  N8_8 
ROOT
HETATM    1  C1  UNL     1     -34.163  13.610  -3.601  1.00 20.00     0.035 C 
HETATM    2  C2  UNL     1     -34.841  13.396  -4.939  1.00 20.00     0.235 C 
HETATM    3  C3  UNL     1     -35.503  15.554  -3.984  1.00 20.00     0.240 C 
HETATM    4  C4  UNL     1     -34.144  15.125  -3.440  1.00 20.00     0.027 C 
HETATM    5  N8  UNL     1     -35.893  14.480  -4.986  1.00 20.00    -0.068 N 
HETATM    6  H24 UNL     1     -36.771  14.059  -4.646  1.00 20.00     0.280 HD
ENDROOT
BRANCH   5   7
HETATM    7  C6  UNL     1     -36.166  14.995  -6.364  1.00 20.00     0.266 C 
BRANCH   7   8
HETATM    8  C7  UNL     1     -35.096  14.487  -7.302  1.00 20.00     0.249 C 
HETATM    9  F9  UNL     1     -34.085  15.396  -7.360  1.00 20.00    -0.254 F 
ENDBRANCH   7   8
ENDBRANCH   5   7
BRANCH   4  10
HETATM   10  C5  UNL     1     -32.990  15.778  -4.201  1.00 20.00     0.121 C 
HETATM   11 CL10 UNL     1     -33.491  17.350  -4.855  1.00 20.00    -0.130 Cl
ENDBRANCH   4  10
TORSDOF 3
ENDMDL
MODEL 6
REMARK VINA RESULT:      -3.7      2.521      3.626
REMARK  3 active torsions:
REMARK  status: ('A' for Active; 'I' for Inactive)
REMARK    1  A    between atoms: C4_4  and  C5_5 
REMARK    2  A    between atoms: C6_6  and  C7_7 
REMARK    3  A    between atoms: C6_6  and  N8_8 
ROOT
HETATM    1  C1  UNL     1     -34.156  16.370  -6.364  1.00 20.00     0.035 C 
HETATM    2  C2  UNL     1     -33.283  16.643  -5.156  1.00 20.00     0.235 C 
HETATM    3  C3  UNL     1     -35.538  15.995  -4.448  1.00 20.00     0.240 C 
HETATM    4  C4  UNL     1     -35.231  15.431  -5.832  1.00 20.00     0.027 C 
HETATM    5  N8  UNL     1     -34.264  16.698  -4.008  1.00 20.00    -0.068 N 
HETATM    6  H24 UNL     1     -34.504  17.691  -3.868  1.00 20.00     0.280 HD
ENDROOT
BRANCH   5   7
HETATM    7  C6  UNL     1     -33.705  16.202  -2.712  1.00 20.00     0.266 C 
BRANCH   7   8
HETATM    8  C7  UNL     1     -34.808  16.165  -1.680  1.00 20.00     0.249 C 
HETATM    9  F9  UNL     1     -34.295  16.505  -0.467  1.00 20.00    -0.254 F 
ENDBRANCH   7   8
ENDBRANCH   5   7
BRANCH   4  10
HETATM   10  C5  UNL     1     -34.758  13.979  -5.767  1.00 20.00     0.121 C 
HETATM   11 CL10 UNL     1     -35.215  13.248  -4.215  1.00 20.00    -0.130 Cl
ENDBRANCH   4  10
TORSDOF 3
ENDMDL
MODEL 7
REMARK VINA RESULT:      -3.6      1.527      1.940
REMARK  3 active torsions:
REMARK  status: ('A' for Active; 'I' for Inactive)
REMARK    1  A    between atoms: C4_4  and  C5_5 
REMARK    2  A    between atoms: C6_6  and  C7_7 
REMARK    3  A    between atoms: C6_6  and  N8_8 
ROOT
HETATM    1  C1  UNL     1     -36.325  16.442  -3.154  1.00 20.00     0.035 C 
HETATM    2  C2  UNL     1     -36.247  15.095  -3.844  1.00 20.00     0.235 C 
HETATM    3  C3  UNL     1     -34.601  16.640  -4.799  1.00 20.00     0.240 C 
HETATM    4  C4  UNL     1     -34.941  17.043  -3.368  1.00 20.00     0.027 C 
HETATM    5  N8  UNL     1     -35.384  15.363  -5.056  1.00 20.00    -0.068 N 
HETATM    6  H24 UNL     1     -36.024  15.557  -5.840  1.00 20.00     0.280 HD
ENDROOT
BRANCH   5   7
HETATM    7  C6  UNL     1     -34.541  14.197  -5.464  1.00 20.00     0.266 C 
BRANCH   7   8
HETATM    8  C7  UNL     1     -34.300  13.315  -4.260  1.00 20.00     0.249 C 
HETATM    9  F9  UNL     1     -33.044  13.538  -3.788  1.00 20.00    -0.254 F 
ENDBRANCH   7   8
ENDBRANCH   5   7
BRANCH   4  10
HETATM   10  C5  UNL     1     -33.915  16.516  -2.365  1.00 20.00     0.121 C 
HETATM   11 CL10 UNL     1     -34.589  16.533  -0.723  1.00 20.00    -0.130 Cl
ENDBRANCH   4  10
TORSDOF 3
ENDMDL
MODEL 8
REMARK VINA RESULT:      -3.6      3.073      4.151
REMARK  3 active torsions:
REMARK  status: ('A' for Active; 'I' for Inactive)
REMARK    1  A    between atoms: C4_4  and  C5_5 
REMARK    2  A    between atoms: C6_6  and  C7_7 
REMARK    3  A    between atoms: C6_6  and  N8_8 
ROOT
HETATM    1  C1  UNL     1     -36.261  14.217  -4.292  1.00 20.00     0.035 C 
HETATM    2  C2  UNL     1     -35.910  15.419  -3.439  1.00 20.00     0.235 C 
HETATM    3  C3  UNL     1     -33.958  13.960  -3.701  1.00 20.00     0.240 C 
HETATM    4  C4  UNL     1     -34.922  13.775  -4.869  1.00 20.00     0.027 C 
HETATM    5  N8  UNL     1     -34.568  15.058  -2.845  1.00 20.00    -0.068 N 
HETATM    6  H24 UNL     1     -34.753  14.646  -1.918  1.00 20.00     0.280 HD
ENDROOT
BRANCH   5   7
HETATM    7  C6  UNL     1     -33.670  16.234  -2.623  1.00 20.00     0.266 C 
BRANCH   7   8
HETATM    8  C7  UNL     1     -34.011  17.312  -3.627  1.00 20.00     0.249 C 
HETATM    9  F9  UNL     1     -33.138  17.243  -4.668  1.00 20.00    -0.254 F 
ENDBRANCH   7   8
ENDBRANCH   5   7
BRANCH   4  10
HETATM   10  C5  UNL     1     -34.510  14.601  -6.088  1.00 20.00     0.121 C 
HETATM   11 CL10 UNL     1     -35.595  14.270  -7.453  1.00 20.00    -0.130 Cl
ENDBRANCH   4  10
TORSDOF 3
ENDMDL
MODEL 9
REMARK VINA RESULT:      -3.6      2.731      3.455
REMARK  3 active torsions:
REMARK  status: ('A' for Active; 'I' for Inactive)
REMARK    1  A    between atoms: C4_4  and  C5_5 
REMARK    2  A    between atoms: C6_6  and  C7_7 
REMARK    3  A    between atoms: C6_6  and  N8_8 
ROOT
HETATM    1  C1  UNL     1     -33.505  17.237  -5.512  1.00 20.00     0.035 C 
HETATM    2  C2  UNL     1     -33.350  16.304  -4.328  1.00 20.00     0.235 C 
HETATM    3  C3  UNL     1     -35.641  16.209  -5.195  1.00 20.00     0.240 C 
HETATM    4  C4  UNL     1     -34.675  16.648  -6.290  1.00 20.00     0.027 C 
HETATM    5  N8  UNL     1     -34.772  15.927  -3.980  1.00 20.00    -0.068 N 
HETATM    6  H24 UNL     1     -35.078  16.573  -3.237  1.00 20.00     0.280 HD
ENDROOT
BRANCH   5   7
HETATM    7  C6  UNL     1     -34.911  14.542  -3.433  1.00 20.00     0.266 C 
BRANCH   7   8
HETATM    8  C7  UNL     1     -33.665  13.752  -3.765  1.00 20.00     0.249 C 
HETATM    9  F9  UNL     1     -33.916  12.953  -4.836  1.00 20.00    -0.254 F 
ENDBRANCH   7   8
ENDBRANCH   5   7
BRANCH   4  10
HETATM   10  C5  UNL     1     -34.253  15.481  -7.184  1.00 20.00     0.121 C 
HETATM   11 CL10 UNL     1     -35.564  14.290  -7.305  1.00 20.00    -0.130 Cl
ENDBRANCH   4  10
TORSDOF 3
ENDMDL
