MODEL 1
REMARK VINA RESULT:      -4.7      0.000      0.000
REMARK  1 active torsions:
REMARK  status: ('A' for Active; 'I' for Inactive)
REMARK    1  A    between atoms: C5_5  and  O11_11 
ROOT
HETATM    1  C1  UNL     1     -37.315  14.568  -4.200  1.00 20.00     0.098 C 
HETATM    2  C2  UNL     1     -35.169  13.478  -4.820  1.00 20.00     0.054 C 
HETATM    3  C3  UNL     1     -34.445  13.788  -3.515  1.00 20.00     0.013 C 
HETATM    4  C4  UNL     1     -35.229  15.862  -4.589  1.00 20.00     0.062 C 
HETATM    5  C5  UNL     1     -36.096  14.672  -5.017  1.00 20.00     0.148 C 
HETATM    6  C6  UNL     1     -34.234  15.318  -3.529  1.00 20.00    -0.044 C 
HETATM    7  C7  UNL     1     -34.515  15.915  -2.144  1.00 20.00     0.015 C 
HETATM    8  C8  UNL     1     -32.792  15.658  -3.934  1.00 20.00     0.015 C 
HETATM    9  N10 UNL     1     -38.278  14.485  -3.556  1.00 20.00    -0.194 NA
ENDROOT
BRANCH   5  10
HETATM   10  O11 UNL     1     -36.455  14.805  -6.385  1.00 20.00    -0.370 OA
HETATM   11  C9  UNL     1     -35.369  14.480  -7.242  1.00 20.00     0.204 C 
ENDBRANCH   5  10
TORSDOF 1
ENDMDL
MODEL 2
REMARK VINA RESULT:      -4.5      1.944      3.007
REMARK  1 active torsions:
REMARK  status: ('A' for Active; 'I' for Inactive)
REMARK    1  A    between atoms: C5_5  and  O11_11 
ROOT
HETATM    1  C1  UNL     1     -35.609  15.440  -2.960  1.00 20.00     0.098 C 
HETATM    2  C2  UNL     1     -35.428  13.363  -4.315  1.00 20.00     0.054 C 
HETATM    3  C3  UNL     1     -34.330  13.868  -5.243  1.00 20.00     0.013 C 
HETATM    4  C4  UNL     1     -36.301  15.342  -5.345  1.00 20.00     0.062 C 
HETATM    5  C5  UNL     1     -36.243  14.613  -3.998  1.00 20.00     0.148 C 
HETATM    6  C6  UNL     1     -35.005  14.955  -6.108  1.00 20.00    -0.044 C 
HETATM    7  C7  UNL     1     -34.078  16.165  -6.279  1.00 20.00     0.015 C 
HETATM    8  C8  UNL     1     -35.356  14.396  -7.495  1.00 20.00     0.015 C 
HETATM    9  N10 UNL     1     -35.109  16.092  -2.140  1.00 20.00    -0.194 NA
ENDROOT
BRANCH   5  10
HETATM   10  O11 UNL     1     -37.555  14.261  -3.585  1.00 20.00    -0.370 OA
HETATM   11  C9  UNL     1     -38.542  14.872  -4.405  1.00 20.00     0.204 C 
ENDBRANCH   5  10
TORSDOF 1
ENDMDL
MODEL 3
REMARK VINA RESULT:      -4.5      2.004      2.955
REMARK  1 active torsions:
REMARK  status: ('A' for Active; 'I' for Inactive)
REMARK    1  A    between atoms: C5_5  and  O11_11 
ROOT
HETATM    1  C1  UNL     1     -35.471  13.537  -4.355  1.00 20.00     0.098 C 
HETATM    2  C2  UNL     1     -36.576  15.545  -5.319  1.00 20.00     0.054 C 
HETATM    3  C3  UNL     1     -35.349  16.448  -5.263  1.00 20.00     0.013 C 
HETATM    4  C4  UNL     1     -35.899  15.590  -3.020  1.00 20.00     0.062 C 
HETATM    5  C5  UNL     1     -36.416  14.636  -4.104  1.00 20.00     0.148 C 
HETATM    6  C6  UNL     1     -35.108  16.702  -3.759  1.00 20.00    -0.044 C 
HETATM    7  C7  UNL     1     -33.611  16.630  -3.431  1.00 20.00     0.015 C 
HETATM    8  C8  UNL     1     -35.640  18.086  -3.355  1.00 20.00     0.015 C 
HETATM    9  N10 UNL     1     -34.726  12.668  -4.552  1.00 20.00    -0.194 NA
ENDROOT
BRANCH   5  10
HETATM   10  O11 UNL     1     -37.672  14.100  -3.715  1.00 20.00    -0.370 OA
HETATM   11  C9  UNL     1     -38.675  15.105  -3.665  1.00 20.00     0.204 C 
ENDBRANCH   5  10
TORSDOF 1
ENDMDL
MODEL 4
REMARK VINA RESULT:      -4.4      1.709      2.197
REMARK  1 active torsions:
REMARK  status: ('A' for Active; 'I' for Inactive)
REMARK    1  A    between atoms: C5_5  and  O11_11 
ROOT
HETATM    1  C1  UNL     1     -35.025  13.799  -4.922  1.00 20.00     0.098 C 
HETATM    2  C2  UNL     1     -33.958  15.790  -5.961  1.00 20.00     0.054 C 
HETATM    3  C3  UNL     1     -33.211  16.244  -4.713  1.00 20.00     0.013 C 
HETATM    4  C4  UNL     1     -35.633  16.122  -4.279  1.00 20.00     0.062 C 
HETATM    5  C5  UNL     1     -35.239  15.169  -5.414  1.00 20.00     0.148 C 
HETATM    6  C6  UNL     1     -34.310  16.733  -3.744  1.00 20.00    -0.044 C 
HETATM    7  C7  UNL     1     -34.019  16.262  -2.313  1.00 20.00     0.015 C 
HETATM    8  C8  UNL     1     -34.394  18.267  -3.755  1.00 20.00     0.015 C 
HETATM    9  N10 UNL     1     -34.856  12.717  -4.534  1.00 20.00    -0.194 NA
ENDROOT
BRANCH   5  10
HETATM   10  O11 UNL     1     -36.253  15.160  -6.408  1.00 20.00    -0.370 OA
HETATM   11  C9  UNL     1     -35.777  14.620  -7.633  1.00 20.00     0.204 C 
ENDBRANCH   5  10
TORSDOF 1
ENDMDL
MODEL 5
REMARK VINA RESULT:      -4.3      1.676      2.681
REMARK  1 active torsions:
REMARK  status: ('A' for Active; 'I' for Inactive)
REMARK    1  A    between atoms: C5_5  and  O11_11 
ROOT
HETATM    1  C1  UNL     1     -36.836  14.459  -3.840  1.00 20.00     0.098 C 
HETATM    2  C2  UNL     1     -34.880  15.592  -2.805  1.00 20.00     0.054 C 
HETATM    3  C3  UNL     1     -35.158  16.970  -3.394  1.00 20.00     0.013 C 
HETATM    4  C4  UNL     1     -34.916  15.293  -5.182  1.00 20.00     0.062 C 
HETATM    5  C5  UNL     1     -35.375  14.629  -3.878  1.00 20.00     0.148 C 
HETATM    6  C6  UNL     1     -34.887  16.820  -4.907  1.00 20.00    -0.044 C 
HETATM    7  C7  UNL     1     -35.959  17.552  -5.725  1.00 20.00     0.015 C 
HETATM    8  C8  UNL     1     -33.509  17.395  -5.266  1.00 20.00     0.015 C 
HETATM    9  N10 UNL     1     -37.989  14.325  -3.810  1.00 20.00    -0.194 NA
ENDROOT
BRANCH   5  10
HETATM   10  O11 UNL     1     -34.749  13.361  -3.738  1.00 20.00    -0.370 OA
HETATM   11  C9  UNL     1     -33.333  13.473  -3.771  1.00 20.00     0.204 C 
ENDBRANCH   5  10
TORSDOF 1
ENDMDL
MODEL 6
REMARK VINA RESULT:      -4.2      2.255      3.783
REMARK  1 active torsions:
REMARK  status: ('A' for Active; 'I' for Inactive)
REMARK    1  A    between atoms: C5_5  and  O11_11 
ROOT
HETATM    1  C1  UNL     1     -34.652  13.989  -4.039  1.00 20.00     0.098 C 
HETATM    2  C2  UNL     1     -35.693  16.247  -4.036  1.00 20.00     0.054 C 
HETATM    3  C3  UNL     1     -35.950  16.310  -5.537  1.00 20.00     0.013 C 
HETATM    4  C4  UNL     1     -33.554  15.962  -5.078  1.00 20.00     0.062 C 
HETATM    5  C5  UNL     1     -34.408  15.434  -3.919  1.00 20.00     0.148 C 
HETATM    6  C6  UNL     1     -34.549  16.422  -6.177  1.00 20.00    -0.044 C 
HETATM    7  C7  UNL     1     -34.451  15.534  -7.424  1.00 20.00     0.015 C 
HETATM    8  C8  UNL     1     -34.256  17.876  -6.579  1.00 20.00     0.015 C 
HETATM    9  N10 UNL     1     -34.845  12.848  -4.133  1.00 20.00    -0.194 NA
ENDROOT
BRANCH   5  10
HETATM   10  O11 UNL     1     -33.760  15.702  -2.683  1.00 20.00    -0.370 OA
HETATM   11  C9  UNL     1     -34.664  16.234  -1.725  1.00 20.00     0.204 C 
ENDBRANCH   5  10
TORSDOF 1
ENDMDL
MODEL 7
REMARK VINA RESULT:      -4.2      2.439      3.377
REMARK  1 active torsions:
REMARK  status: ('A' for Active; 'I' for Inactive)
REMARK    1  A    between atoms: C5_5  and  O11_11 
ROOT
HETATM    1  C1  UNL     1     -34.145  15.896  -4.923  1.00 20.00     0.098 C 
HETATM    2  C2  UNL     1     -35.877  15.479  -3.188  1.00 20.00     0.054 C 
HETATM    3  C3  UNL     1     -35.901  16.899  -2.636  1.00 20.00     0.013 C 
HETATM    4  C4  UNL     1     -33.633  15.948  -2.491  1.00 20.00     0.062 C 
HETATM    5  C5  UNL     1     -34.427  15.278  -3.618  1.00 20.00     0.148 C 
HETATM    6  C6  UNL     1     -34.539  17.077  -1.930  1.00 20.00    -0.044 C 
HETATM    7  C7  UNL     1     -33.950  18.462  -2.228  1.00 20.00     0.015 C 
HETATM    8  C8  UNL     1     -34.697  16.920  -0.410  1.00 20.00     0.015 C 
HETATM    9  N10 UNL     1     -33.923  16.383  -5.953  1.00 20.00    -0.194 NA
ENDROOT
BRANCH   5  10
HETATM   10  O11 UNL     1     -34.111  13.894  -3.673  1.00 20.00    -0.370 OA
HETATM   11  C9  UNL     1     -34.999  13.191  -4.531  1.00 20.00     0.204 C 
ENDBRANCH   5  10
TORSDOF 1
ENDMDL
MODEL 8
REMARK VINA RESULT:      -4.2      1.716      2.869
REMARK  1 active torsions:
REMARK  status: ('A' for Active; 'I' for Inactive)
REMARK    1  A    between atoms: C5_5  and  O11_11 
ROOT
HETATM    1  C1  UNL     1     -37.288  15.114  -3.647  1.00 20.00     0.098 C 
HETATM    2  C2  UNL     1     -35.583  16.517  -4.791  1.00 20.00     0.054 C 
HETATM    3  C3  UNL     1     -34.701  15.361  -5.250  1.00 20.00     0.013 C 
HETATM    4  C4  UNL     1     -34.961  15.338  -2.800  1.00 20.00     0.062 C 
HETATM    5  C5  UNL     1     -36.155  16.035  -3.462  1.00 20.00     0.148 C 
HETATM    6  C6  UNL     1     -34.076  14.797  -3.955  1.00 20.00    -0.044 C 
HETATM    7  C7  UNL     1     -34.071  13.263  -3.980  1.00 20.00     0.015 C 
HETATM    8  C8  UNL     1     -32.633  15.297  -3.793  1.00 20.00     0.015 C 
HETATM    9  N10 UNL     1     -38.182  14.388  -3.793  1.00 20.00    -0.194 NA
ENDROOT
BRANCH   5  10
HETATM   10  O11 UNL     1     -36.569  17.138  -2.669  1.00 20.00    -0.370 OA
HETATM   11  C9  UNL     1     -35.467  17.955  -2.297  1.00 20.00     0.204 C 
ENDBRANCH   5  10
TORSDOF 1
ENDMDL
MODEL 9
REMARK VINA RESULT:      -4.1      2.420      3.537
REMARK  1 active torsions:
REMARK  status: ('A' for Active; 'I' for Inactive)
REMARK    1  A    between atoms: C5_5  and  O11_11 
ROOT
HETATM    1  C1  UNL     1     -33.671  14.305  -4.040  1.00 20.00     0.098 C 
HETATM    2  C2  UNL     1     -33.843  16.309  -2.579  1.00 20.00     0.054 C 
HETATM    3  C3  UNL     1     -35.252  16.022  -2.073  1.00 20.00     0.013 C 
HETATM    4  C4  UNL     1     -35.227  16.181  -4.531  1.00 20.00     0.062 C 
HETATM    5  C5  UNL     1     -33.848  15.765  -4.003  1.00 20.00     0.148 C 
HETATM    6  C6  UNL     1     -36.168  16.235  -3.298  1.00 20.00    -0.044 C 
HETATM    7  C7  UNL     1     -37.240  15.140  -3.369  1.00 20.00     0.015 C 
HETATM    8  C8  UNL     1     -36.859  17.604  -3.220  1.00 20.00     0.015 C 
HETATM    9  N10 UNL     1     -33.530  13.153  -4.069  1.00 20.00    -0.194 NA
ENDROOT
BRANCH   5  10
HETATM   10  O11 UNL     1     -32.830  16.384  -4.777  1.00 20.00    -0.370 OA
HETATM   11  C9  UNL     1     -33.324  17.517  -5.478  1.00 20.00     0.204 C 
ENDBRANCH   5  10
TORSDOF 1
ENDMDL
