MODEL 1
REMARK VINA RESULT:      -4.3      0.000      0.000
REMARK  0 active torsions:
REMARK  status: ('A' for Active; 'I' for Inactive)
ROOT
HETATM    1  C1  UNL     1     -34.230  13.838  -3.860  1.00 20.00     0.064 C 
HETATM    2  C2  UNL     1     -34.276  15.841  -2.390  1.00 20.00     0.020 C 
HETATM    3  C3  UNL     1     -34.168  17.295  -2.836  1.00 20.00     0.010 C 
HETATM    4  C4  UNL     1     -33.225  15.993  -4.605  1.00 20.00     0.027 C 
HETATM    5  C5  UNL     1     -33.490  15.034  -3.432  1.00 20.00     0.093 C 
HETATM    6  C6  UNL     1     -34.118  17.224  -4.367  1.00 20.00    -0.046 C 
HETATM    7  C7  UNL     1     -35.519  17.019  -4.968  1.00 20.00     0.015 C 
HETATM    8  C8  UNL     1     -33.501  18.491  -4.965  1.00 20.00     0.015 C 
HETATM    9  N9  UNL     1     -34.815  12.894  -4.197  1.00 20.00    -0.197 NA
ENDROOT
TORSDOF 0
ENDMDL
MODEL 2
REMARK VINA RESULT:      -4.2     11.632     13.486
REMARK  0 active torsions:
REMARK  status: ('A' for Active; 'I' for Inactive)
ROOT
HETATM    1  C1  UNL     1     -32.537   6.935   2.973  1.00 20.00     0.064 C 
HETATM    2  C2  UNL     1     -34.912   6.222   3.106  1.00 20.00     0.020 C 
HETATM    3  C3  UNL     1     -35.549   5.392   4.215  1.00 20.00     0.010 C 
HETATM    4  C4  UNL     1     -33.202   4.954   4.331  1.00 20.00     0.027 C 
HETATM    5  C5  UNL     1     -33.444   5.782   3.056  1.00 20.00     0.093 C 
HETATM    6  C6  UNL     1     -34.425   5.190   5.237  1.00 20.00    -0.046 C 
HETATM    7  C7  UNL     1     -34.232   6.436   6.117  1.00 20.00     0.015 C 
HETATM    8  C8  UNL     1     -34.698   3.983   6.137  1.00 20.00     0.015 C 
HETATM    9  N9  UNL     1     -31.821   7.846   2.907  1.00 20.00    -0.197 NA
ENDROOT
TORSDOF 0
ENDMDL
MODEL 3
REMARK VINA RESULT:      -4.2      2.040      3.305
REMARK  0 active torsions:
REMARK  status: ('A' for Active; 'I' for Inactive)
ROOT
HETATM    1  C1  UNL     1     -37.380  14.970  -3.808  1.00 20.00     0.064 C 
HETATM    2  C2  UNL     1     -35.681  15.951  -5.331  1.00 20.00     0.020 C 
HETATM    3  C3  UNL     1     -34.176  15.710  -5.287  1.00 20.00     0.010 C 
HETATM    4  C4  UNL     1     -34.995  15.158  -3.110  1.00 20.00     0.027 C 
HETATM    5  C5  UNL     1     -36.164  15.792  -3.884  1.00 20.00     0.093 C 
HETATM    6  C6  UNL     1     -33.986  14.678  -4.169  1.00 20.00    -0.046 C 
HETATM    7  C7  UNL     1     -34.320  13.257  -4.651  1.00 20.00     0.015 C 
HETATM    8  C8  UNL     1     -32.554  14.697  -3.629  1.00 20.00     0.015 C 
HETATM    9  N9  UNL     1     -38.340  14.321  -3.749  1.00 20.00    -0.197 NA
ENDROOT
TORSDOF 0
ENDMDL
MODEL 4
REMARK VINA RESULT:      -4.1      2.229      3.210
REMARK  0 active torsions:
REMARK  status: ('A' for Active; 'I' for Inactive)
ROOT
HETATM    1  C1  UNL     1     -35.490  14.618  -6.866  1.00 20.00     0.064 C 
HETATM    2  C2  UNL     1     -34.548  13.276  -5.000  1.00 20.00     0.020 C 
HETATM    3  C3  UNL     1     -34.405  13.717  -3.548  1.00 20.00     0.010 C 
HETATM    4  C4  UNL     1     -34.570  15.726  -4.833  1.00 20.00     0.027 C 
HETATM    5  C5  UNL     1     -34.448  14.562  -5.831  1.00 20.00     0.093 C 
HETATM    6  C6  UNL     1     -35.047  15.109  -3.505  1.00 20.00    -0.046 C 
HETATM    7  C7  UNL     1     -36.581  15.021  -3.453  1.00 20.00     0.015 C 
HETATM    8  C8  UNL     1     -34.553  15.915  -2.301  1.00 20.00     0.015 C 
HETATM    9  N9  UNL     1     -36.312  14.662  -7.684  1.00 20.00    -0.197 NA
ENDROOT
TORSDOF 0
ENDMDL
MODEL 5
REMARK VINA RESULT:      -4.1      1.051      1.993
REMARK  0 active torsions:
REMARK  status: ('A' for Active; 'I' for Inactive)
ROOT
HETATM    1  C1  UNL     1     -35.176  13.616  -4.186  1.00 20.00     0.064 C 
HETATM    2  C2  UNL     1     -36.274  15.827  -4.459  1.00 20.00     0.020 C 
HETATM    3  C3  UNL     1     -35.707  17.179  -4.039  1.00 20.00     0.010 C 
HETATM    4  C4  UNL     1     -34.539  15.545  -2.743  1.00 20.00     0.027 C 
HETATM    5  C5  UNL     1     -35.669  14.809  -3.484  1.00 20.00     0.093 C 
HETATM    6  C6  UNL     1     -34.304  16.859  -3.510  1.00 20.00    -0.046 C 
HETATM    7  C7  UNL     1     -33.301  16.660  -4.659  1.00 20.00     0.015 C 
HETATM    8  C8  UNL     1     -33.790  17.965  -2.587  1.00 20.00     0.015 C 
HETATM    9  N9  UNL     1     -34.788  12.674  -4.741  1.00 20.00    -0.197 NA
ENDROOT
TORSDOF 0
ENDMDL
MODEL 6
REMARK VINA RESULT:      -4.1      2.053      3.027
REMARK  0 active torsions:
REMARK  status: ('A' for Active; 'I' for Inactive)
ROOT
HETATM    1  C1  UNL     1     -37.495  14.507  -4.064  1.00 20.00     0.064 C 
HETATM    2  C2  UNL     1     -35.287  13.383  -4.247  1.00 20.00     0.020 C 
HETATM    3  C3  UNL     1     -33.921  14.058  -4.215  1.00 20.00     0.010 C 
HETATM    4  C4  UNL     1     -35.481  15.762  -4.827  1.00 20.00     0.027 C 
HETATM    5  C5  UNL     1     -36.246  14.427  -4.835  1.00 20.00     0.093 C 
HETATM    6  C6  UNL     1     -34.229  15.538  -3.960  1.00 20.00    -0.046 C 
HETATM    7  C7  UNL     1     -34.528  15.802  -2.474  1.00 20.00     0.015 C 
HETATM    8  C8  UNL     1     -33.071  16.435  -4.402  1.00 20.00     0.015 C 
HETATM    9  N9  UNL     1     -38.480  14.570  -3.455  1.00 20.00    -0.197 NA
ENDROOT
TORSDOF 0
ENDMDL
MODEL 7
REMARK VINA RESULT:      -4.0      2.193      3.344
REMARK  0 active torsions:
REMARK  status: ('A' for Active; 'I' for Inactive)
ROOT
HETATM    1  C1  UNL     1     -34.332  16.483  -1.478  1.00 20.00     0.064 C 
HETATM    2  C2  UNL     1     -34.351  16.962  -3.915  1.00 20.00     0.020 C 
HETATM    3  C3  UNL     1     -34.664  15.972  -5.031  1.00 20.00     0.010 C 
HETATM    4  C4  UNL     1     -34.027  14.653  -3.142  1.00 20.00     0.027 C 
HETATM    5  C5  UNL     1     -33.751  16.123  -2.779  1.00 20.00     0.093 C 
HETATM    6  C6  UNL     1     -35.040  14.678  -4.301  1.00 20.00    -0.046 C 
HETATM    7  C7  UNL     1     -36.484  14.726  -3.776  1.00 20.00     0.015 C 
HETATM    8  C8  UNL     1     -34.882  13.457  -5.211  1.00 20.00     0.015 C 
HETATM    9  N9  UNL     1     -34.790  16.768  -0.451  1.00 20.00    -0.197 NA
ENDROOT
TORSDOF 0
ENDMDL
MODEL 8
REMARK VINA RESULT:      -4.0      2.031      3.033
REMARK  0 active torsions:
REMARK  status: ('A' for Active; 'I' for Inactive)
ROOT
HETATM    1  C1  UNL     1     -34.839  15.955  -1.997  1.00 20.00     0.064 C 
HETATM    2  C2  UNL     1     -34.372  14.059  -3.533  1.00 20.00     0.020 C 
HETATM    3  C3  UNL     1     -34.306  14.120  -5.054  1.00 20.00     0.010 C 
HETATM    4  C4  UNL     1     -35.581  16.025  -4.375  1.00 20.00     0.027 C 
HETATM    5  C5  UNL     1     -35.356  15.162  -3.121  1.00 20.00     0.093 C 
HETATM    6  C6  UNL     1     -34.500  15.604  -5.388  1.00 20.00    -0.046 C 
HETATM    7  C7  UNL     1     -33.203  16.403  -5.179  1.00 20.00     0.015 C 
HETATM    8  C8  UNL     1     -34.976  15.795  -6.830  1.00 20.00     0.015 C 
HETATM    9  N9  UNL     1     -34.430  16.580  -1.109  1.00 20.00    -0.197 NA
ENDROOT
TORSDOF 0
ENDMDL
MODEL 9
REMARK VINA RESULT:      -4.0      1.892      2.894
REMARK  0 active torsions:
REMARK  status: ('A' for Active; 'I' for Inactive)
ROOT
HETATM    1  C1  UNL     1     -35.143  13.585  -5.041  1.00 20.00     0.064 C 
HETATM    2  C2  UNL     1     -34.660  14.820  -7.141  1.00 20.00     0.020 C 
HETATM    3  C3  UNL     1     -34.491  16.328  -7.288  1.00 20.00     0.010 C 
HETATM    4  C4  UNL     1     -35.722  15.999  -5.266  1.00 20.00     0.027 C 
HETATM    5  C5  UNL     1     -35.619  14.629  -5.960  1.00 20.00     0.093 C 
HETATM    6  C6  UNL     1     -34.597  16.867  -5.857  1.00 20.00    -0.046 C 
HETATM    7  C7  UNL     1     -33.282  16.674  -5.083  1.00 20.00     0.015 C 
HETATM    8  C8  UNL     1     -34.968  18.352  -5.845  1.00 20.00     0.015 C 
HETATM    9  N9  UNL     1     -34.766  12.761  -4.316  1.00 20.00    -0.197 NA
ENDROOT
TORSDOF 0
ENDMDL
