MODEL 1
REMARK VINA RESULT:      -4.6      0.000      0.000
REMARK  3 active torsions:
REMARK  status: ('A' for Active; 'I' for Inactive)
REMARK    1  A    between atoms: C5_5  and  C8_8 
REMARK    2  A    between atoms: C6_6  and  C9_9 
REMARK    3  A    between atoms: C8_8  and  C10_10 
ROOT
HETATM    1  C1  UNL     1     -34.334  16.707  -4.206  1.00 20.00     0.131 C 
HETATM    2  C2  UNL     1     -33.673  17.955  -3.665  1.00 20.00     0.079 C 
HETATM    3  C3  UNL     1     -34.197  18.274  -2.271  1.00 20.00     0.012 C 
HETATM    4  C4  UNL     1     -34.816  15.860  -1.908  1.00 20.00     0.017 C 
HETATM    5  C5  UNL     1     -34.296  15.483  -3.299  1.00 20.00     0.058 C 
HETATM    6  C6  UNL     1     -34.070  17.071  -1.326  1.00 20.00    -0.014 C 
HETATM    7  O11 UNL     1     -34.789  16.677  -5.349  1.00 20.00    -0.298 OA
ENDROOT
BRANCH   5   8
HETATM    8  C8  UNL     1     -35.100  14.324  -3.880  1.00 20.00     0.043 C 
BRANCH   8   9
HETATM    9  C10 UNL     1     -34.199  13.292  -4.529  1.00 20.00     0.223 C 
HETATM   10  F12 UNL     1     -33.005  13.263  -3.878  1.00 20.00    -0.255 F 
ENDBRANCH   8   9
ENDBRANCH   5   8
BRANCH   6  11
HETATM   11  C9  UNL     1     -34.608  17.419   0.061  1.00 20.00     0.000 C 
HETATM   12  C7  UNL     1     -33.717  18.384   0.772  1.00 20.00     0.005 C 
ENDBRANCH   6  11
TORSDOF 3
ENDMDL
MODEL 2
REMARK VINA RESULT:      -4.6      2.576      3.347
REMARK  3 active torsions:
REMARK  status: ('A' for Active; 'I' for Inactive)
REMARK    1  A    between atoms: C5_5  and  C8_8 
REMARK    2  A    between atoms: C6_6  and  C9_9 
REMARK    3  A    between atoms: C8_8  and  C10_10 
ROOT
HETATM    1  C1  UNL     1     -35.019  14.133  -4.739  1.00 20.00     0.131 C 
HETATM    2  C2  UNL     1     -33.686  13.948  -4.048  1.00 20.00     0.079 C 
HETATM    3  C3  UNL     1     -33.302  15.207  -3.282  1.00 20.00     0.012 C 
HETATM    4  C4  UNL     1     -35.722  15.884  -3.104  1.00 20.00     0.017 C 
HETATM    5  C5  UNL     1     -36.163  14.628  -3.862  1.00 20.00     0.058 C 
HETATM    6  C6  UNL     1     -34.416  15.654  -2.326  1.00 20.00    -0.014 C 
HETATM    7  O11 UNL     1     -35.170  13.811  -5.917  1.00 20.00    -0.298 OA
ENDROOT
BRANCH   5   8
HETATM    8  C8  UNL     1     -37.421  14.906  -4.680  1.00 20.00     0.043 C 
BRANCH   8   9
HETATM    9  C10 UNL     1     -38.668  14.857  -3.818  1.00 20.00     0.223 C 
HETATM   10  F12 UNL     1     -39.608  14.089  -4.431  1.00 20.00    -0.255 F 
ENDBRANCH   8   9
ENDBRANCH   5   8
BRANCH   6  11
HETATM   11  C9  UNL     1     -34.006  16.921  -1.578  1.00 20.00     0.000 C 
HETATM   12  C7  UNL     1     -34.718  17.044  -0.270  1.00 20.00     0.005 C 
ENDBRANCH   6  11
TORSDOF 3
ENDMDL
MODEL 3
REMARK VINA RESULT:      -4.5      1.861      2.199
REMARK  3 active torsions:
REMARK  status: ('A' for Active; 'I' for Inactive)
REMARK    1  A    between atoms: C5_5  and  C8_8 
REMARK    2  A    between atoms: C6_6  and  C9_9 
REMARK    3  A    between atoms: C8_8  and  C10_10 
ROOT
HETATM    1  C1  UNL     1     -36.631  15.220  -3.536  1.00 20.00     0.131 C 
HETATM    2  C2  UNL     1     -37.021  16.653  -3.249  1.00 20.00     0.079 C 
HETATM    3  C3  UNL     1     -36.214  17.203  -2.081  1.00 20.00     0.012 C 
HETATM    4  C4  UNL     1     -34.373  15.541  -2.521  1.00 20.00     0.017 C 
HETATM    5  C5  UNL     1     -35.140  14.956  -3.711  1.00 20.00     0.058 C 
HETATM    6  C6  UNL     1     -34.705  17.025  -2.299  1.00 20.00    -0.014 C 
HETATM    7  O11 UNL     1     -37.487  14.353  -3.705  1.00 20.00    -0.298 OA
ENDROOT
BRANCH   5   8
HETATM    8  C8  UNL     1     -34.844  13.468  -3.865  1.00 20.00     0.043 C 
BRANCH   8   9
HETATM    9  C10 UNL     1     -34.570  13.100  -5.310  1.00 20.00     0.223 C 
HETATM   10  F12 UNL     1     -34.383  14.236  -6.035  1.00 20.00    -0.255 F 
ENDBRANCH   8   9
ENDBRANCH   5   8
BRANCH   6  11
HETATM   11  C9  UNL     1     -33.922  17.580  -1.110  1.00 20.00     0.000 C 
HETATM   12  C7  UNL     1     -34.665  17.397   0.173  1.00 20.00     0.005 C 
ENDBRANCH   6  11
TORSDOF 3
ENDMDL
MODEL 4
REMARK VINA RESULT:      -4.5      2.333      3.134
REMARK  3 active torsions:
REMARK  status: ('A' for Active; 'I' for Inactive)
REMARK    1  A    between atoms: C5_5  and  C8_8 
REMARK    2  A    between atoms: C6_6  and  C9_9 
REMARK    3  A    between atoms: C8_8  and  C10_10 
ROOT
HETATM    1  C1  UNL     1     -35.015  14.152  -4.687  1.00 20.00     0.131 C 
HETATM    2  C2  UNL     1     -33.652  14.022  -4.045  1.00 20.00     0.079 C 
HETATM    3  C3  UNL     1     -33.298  15.291  -3.282  1.00 20.00     0.012 C 
HETATM    4  C4  UNL     1     -35.738  15.855  -3.011  1.00 20.00     0.017 C 
HETATM    5  C5  UNL     1     -36.149  14.587  -3.766  1.00 20.00     0.058 C 
HETATM    6  C6  UNL     1     -34.396  15.679  -2.282  1.00 20.00    -0.014 C 
HETATM    7  O11 UNL     1     -35.195  13.832  -5.862  1.00 20.00    -0.298 OA
ENDROOT
BRANCH   5   8
HETATM    8  C8  UNL     1     -37.446  14.813  -4.535  1.00 20.00     0.043 C 
BRANCH   8   9
HETATM    9  C10 UNL     1     -37.583  16.254  -4.986  1.00 20.00     0.223 C 
HETATM   10  F12 UNL     1     -37.182  16.360  -6.282  1.00 20.00    -0.255 F 
ENDBRANCH   8   9
ENDBRANCH   5   8
BRANCH   6  11
HETATM   11  C9  UNL     1     -34.017  16.958  -1.537  1.00 20.00     0.000 C 
HETATM   12  C7  UNL     1     -34.727  17.063  -0.227  1.00 20.00     0.005 C 
ENDBRANCH   6  11
TORSDOF 3
ENDMDL
MODEL 5
REMARK VINA RESULT:      -4.4      2.659      4.554
REMARK  3 active torsions:
REMARK  status: ('A' for Active; 'I' for Inactive)
REMARK    1  A    between atoms: C5_5  and  C8_8 
REMARK    2  A    between atoms: C6_6  and  C9_9 
REMARK    3  A    between atoms: C8_8  and  C10_10 
ROOT
HETATM    1  C1  UNL     1     -33.616  18.382  -2.216  1.00 20.00     0.131 C 
HETATM    2  C2  UNL     1     -33.744  18.158  -3.707  1.00 20.00     0.079 C 
HETATM    3  C3  UNL     1     -33.725  16.670  -4.027  1.00 20.00     0.012 C 
HETATM    4  C4  UNL     1     -34.544  16.121  -1.709  1.00 20.00     0.017 C 
HETATM    5  C5  UNL     1     -34.590  17.606  -1.338  1.00 20.00     0.058 C 
HETATM    6  C6  UNL     1     -34.773  15.899  -3.213  1.00 20.00    -0.014 C 
HETATM    7  O11 UNL     1     -32.827  19.213  -1.767  1.00 20.00    -0.298 OA
ENDROOT
BRANCH   5   8
HETATM    8  C8  UNL     1     -34.291  17.801   0.145  1.00 20.00     0.043 C 
BRANCH   8   9
HETATM    9  C10 UNL     1     -35.557  17.758   0.979  1.00 20.00     0.223 C 
HETATM   10  F12 UNL     1     -35.325  17.041   2.112  1.00 20.00    -0.255 F 
ENDBRANCH   8   9
ENDBRANCH   5   8
BRANCH   6  11
HETATM   11  C9  UNL     1     -34.725  14.410  -3.550  1.00 20.00     0.000 C 
HETATM   12  C7  UNL     1     -33.320  13.914  -3.660  1.00 20.00     0.005 C 
ENDBRANCH   6  11
TORSDOF 3
ENDMDL
MODEL 6
REMARK VINA RESULT:      -4.4      2.801      3.756
REMARK  3 active torsions:
REMARK  status: ('A' for Active; 'I' for Inactive)
REMARK    1  A    between atoms: C5_5  and  C8_8 
REMARK    2  A    between atoms: C6_6  and  C9_9 
REMARK    3  A    between atoms: C8_8  and  C10_10 
ROOT
HETATM    1  C1  UNL     1     -34.780  13.781  -3.985  1.00 20.00     0.131 C 
HETATM    2  C2  UNL     1     -33.341  14.073  -3.623  1.00 20.00     0.079 C 
HETATM    3  C3  UNL     1     -32.947  15.469  -4.083  1.00 20.00     0.012 C 
HETATM    4  C4  UNL     1     -35.353  16.211  -4.024  1.00 20.00     0.017 C 
HETATM    5  C5  UNL     1     -35.803  14.825  -3.552  1.00 20.00     0.058 C 
HETATM    6  C6  UNL     1     -33.922  16.535  -3.567  1.00 20.00    -0.014 C 
HETATM    7  O11 UNL     1     -35.096  12.717  -4.517  1.00 20.00    -0.298 OA
ENDROOT
BRANCH   5   8
HETATM    8  C8  UNL     1     -37.198  14.502  -4.078  1.00 20.00     0.043 C 
BRANCH   8   9
HETATM    9  C10 UNL     1     -37.544  15.342  -5.292  1.00 20.00     0.223 C 
HETATM   10  F12 UNL     1     -36.981  14.786  -6.399  1.00 20.00    -0.255 F 
ENDBRANCH   8   9
ENDBRANCH   5   8
BRANCH   6  11
HETATM   11  C9  UNL     1     -33.505  17.924  -4.049  1.00 20.00     0.000 C 
HETATM   12  C7  UNL     1     -33.641  18.056  -5.531  1.00 20.00     0.005 C 
ENDBRANCH   6  11
TORSDOF 3
ENDMDL
MODEL 7
REMARK VINA RESULT:      -4.3      2.506      4.702
REMARK  3 active torsions:
REMARK  status: ('A' for Active; 'I' for Inactive)
REMARK    1  A    between atoms: C5_5  and  C8_8 
REMARK    2  A    between atoms: C6_6  and  C9_9 
REMARK    3  A    between atoms: C8_8  and  C10_10 
ROOT
HETATM    1  C1  UNL     1     -35.796  17.493  -2.337  1.00 20.00     0.131 C 
HETATM    2  C2  UNL     1     -36.663  16.600  -3.197  1.00 20.00     0.079 C 
HETATM    3  C3  UNL     1     -35.803  15.646  -4.014  1.00 20.00     0.012 C 
HETATM    4  C4  UNL     1     -33.936  15.827  -2.333  1.00 20.00     0.017 C 
HETATM    5  C5  UNL     1     -34.762  16.785  -1.469  1.00 20.00     0.058 C 
HETATM    6  C6  UNL     1     -34.827  14.860  -3.128  1.00 20.00    -0.014 C 
HETATM    7  O11 UNL     1     -35.990  18.707  -2.289  1.00 20.00    -0.298 OA
ENDROOT
BRANCH   5   8
HETATM    8  C8  UNL     1     -33.857  17.777  -0.746  1.00 20.00     0.043 C 
BRANCH   8   9
HETATM    9  C10 UNL     1     -34.293  17.984   0.692  1.00 20.00     0.223 C 
HETATM   10  F12 UNL     1     -35.181  17.013   1.037  1.00 20.00    -0.255 F 
ENDBRANCH   8   9
ENDBRANCH   5   8
BRANCH   6  11
HETATM   11  C9  UNL     1     -33.974  13.917  -3.975  1.00 20.00     0.000 C 
HETATM   12  C7  UNL     1     -34.761  13.314  -5.092  1.00 20.00     0.005 C 
ENDBRANCH   6  11
TORSDOF 3
ENDMDL
MODEL 8
REMARK VINA RESULT:      -4.3     11.973     13.628
REMARK  3 active torsions:
REMARK  status: ('A' for Active; 'I' for Inactive)
REMARK    1  A    between atoms: C5_5  and  C8_8 
REMARK    2  A    between atoms: C6_6  and  C9_9 
REMARK    3  A    between atoms: C8_8  and  C10_10 
ROOT
HETATM    1  C1  UNL     1     -41.845   7.031  -1.446  1.00 20.00     0.131 C 
HETATM    2  C2  UNL     1     -40.859   6.041  -0.867  1.00 20.00     0.079 C 
HETATM    3  C3  UNL     1     -41.392   4.620  -0.994  1.00 20.00     0.012 C 
HETATM    4  C4  UNL     1     -42.843   5.296  -2.939  1.00 20.00     0.017 C 
HETATM    5  C5  UNL     1     -42.333   6.739  -2.860  1.00 20.00     0.058 C 
HETATM    6  C6  UNL     1     -41.794   4.290  -2.438  1.00 20.00    -0.014 C 
HETATM    7  O11 UNL     1     -42.151   8.052  -0.831  1.00 20.00    -0.298 OA
ENDROOT
BRANCH   5   8
HETATM    8  C8  UNL     1     -43.417   7.719  -3.297  1.00 20.00     0.043 C 
BRANCH   8   9
HETATM    9  C10 UNL     1     -42.998   8.502  -4.526  1.00 20.00     0.223 C 
HETATM   10  F12 UNL     1     -41.653   8.387  -4.695  1.00 20.00    -0.255 F 
ENDBRANCH   8   9
ENDBRANCH   5   8
BRANCH   6  11
HETATM   11  C9  UNL     1     -42.331   2.863  -2.533  1.00 20.00     0.000 C 
HETATM   12  C7  UNL     1     -41.605   2.069  -3.570  1.00 20.00     0.005 C 
ENDBRANCH   6  11
TORSDOF 3
ENDMDL
MODEL 9
REMARK VINA RESULT:      -4.3      2.611      4.602
REMARK  3 active torsions:
REMARK  status: ('A' for Active; 'I' for Inactive)
REMARK    1  A    between atoms: C5_5  and  C8_8 
REMARK    2  A    between atoms: C6_6  and  C9_9 
REMARK    3  A    between atoms: C8_8  and  C10_10 
ROOT
HETATM    1  C1  UNL     1     -33.596  15.033  -3.856  1.00 20.00     0.131 C 
HETATM    2  C2  UNL     1     -34.249  14.333  -5.027  1.00 20.00     0.079 C 
HETATM    3  C3  UNL     1     -35.676  13.931  -4.680  1.00 20.00     0.012 C 
HETATM    4  C4  UNL     1     -35.806  15.744  -2.937  1.00 20.00     0.017 C 
HETATM    5  C5  UNL     1     -34.376  16.195  -3.252  1.00 20.00     0.058 C 
HETATM    6  C6  UNL     1     -36.493  15.122  -4.163  1.00 20.00    -0.014 C 
HETATM    7  O11 UNL     1     -32.463  14.726  -3.487  1.00 20.00    -0.298 OA
ENDROOT
BRANCH   5   8
HETATM    8  C8  UNL     1     -33.695  16.743  -2.003  1.00 20.00     0.043 C 
BRANCH   8   9
HETATM    9  C10 UNL     1     -34.606  16.668  -0.793  1.00 20.00     0.223 C 
HETATM   10  F12 UNL     1     -34.071  17.403   0.219  1.00 20.00    -0.255 F 
ENDBRANCH   8   9
ENDBRANCH   5   8
BRANCH   6  11
HETATM   11  C9  UNL     1     -37.917  14.687  -3.817  1.00 20.00     0.000 C 
HETATM   12  C7  UNL     1     -38.878  15.032  -4.907  1.00 20.00     0.005 C 
ENDBRANCH   6  11
TORSDOF 3
ENDMDL
