MODEL 1
REMARK VINA RESULT:      -5.1      0.000      0.000
REMARK  0 active torsions:
REMARK  status: ('A' for Active; 'I' for Inactive)
ROOT
HETATM    1  C1  UNL     1     -32.142   8.148   2.124  1.00 20.00     0.088 C 
HETATM    2  C2  UNL     1     -33.081   6.430   3.526  1.00 20.00    -0.069 C 
HETATM    3  C3  UNL     1     -32.018   7.005   2.955  1.00 20.00     0.096 C 
HETATM    4  C4  UNL     1     -34.496   6.908   3.366  1.00 20.00     0.036 C 
HETATM    5  C5  UNL     1     -33.019   5.235   4.438  1.00 20.00     0.043 C 
HETATM    6  C6  UNL     1     -35.316   5.816   4.051  1.00 20.00     0.013 C 
HETATM    7  C7  UNL     1     -34.390   5.246   5.140  1.00 20.00    -0.044 C 
HETATM    8  C8  UNL     1     -34.372   6.152   6.385  1.00 20.00     0.015 C 
HETATM    9  C9  UNL     1     -34.818   3.837   5.556  1.00 20.00     0.015 C 
HETATM   10  N10 UNL     1     -32.239   9.083   1.444  1.00 20.00    -0.192 NA
ENDROOT
TORSDOF 0
ENDMDL
MODEL 2
REMARK VINA RESULT:      -4.6     11.258     12.340
REMARK  0 active torsions:
REMARK  status: ('A' for Active; 'I' for Inactive)
ROOT
HETATM    1  C1  UNL     1     -34.425  16.887  -0.798  1.00 20.00     0.088 C 
HETATM    2  C2  UNL     1     -34.341  16.066  -3.061  1.00 20.00    -0.069 C 
HETATM    3  C3  UNL     1     -33.744  16.657  -2.020  1.00 20.00     0.096 C 
HETATM    4  C4  UNL     1     -35.764  15.586  -3.065  1.00 20.00     0.036 C 
HETATM    5  C5  UNL     1     -33.671  15.768  -4.375  1.00 20.00     0.043 C 
HETATM    6  C6  UNL     1     -35.992  15.174  -4.518  1.00 20.00     0.013 C 
HETATM    7  C7  UNL     1     -34.609  14.738  -5.032  1.00 20.00    -0.044 C 
HETATM    8  C8  UNL     1     -34.273  13.306  -4.577  1.00 20.00     0.015 C 
HETATM    9  C9  UNL     1     -34.533  14.805  -6.559  1.00 20.00     0.015 C 
HETATM   10  N10 UNL     1     -34.980  17.077   0.204  1.00 20.00    -0.192 NA
ENDROOT
TORSDOF 0
ENDMDL
MODEL 3
REMARK VINA RESULT:      -4.6     11.181     12.342
REMARK  0 active torsions:
REMARK  status: ('A' for Active; 'I' for Inactive)
ROOT
HETATM    1  C1  UNL     1     -35.353  13.647  -4.165  1.00 20.00     0.088 C 
HETATM    2  C2  UNL     1     -35.344  15.788  -3.061  1.00 20.00    -0.069 C 
HETATM    3  C3  UNL     1     -36.016  14.782  -3.631  1.00 20.00     0.096 C 
HETATM    4  C4  UNL     1     -33.849  15.840  -2.919  1.00 20.00     0.036 C 
HETATM    5  C5  UNL     1     -35.984  17.006  -2.452  1.00 20.00     0.043 C 
HETATM    6  C6  UNL     1     -33.597  17.249  -2.385  1.00 20.00     0.013 C 
HETATM    7  C7  UNL     1     -34.862  17.607  -1.585  1.00 20.00    -0.044 C 
HETATM    8  C8  UNL     1     -34.833  16.966  -0.185  1.00 20.00     0.015 C 
HETATM    9  C9  UNL     1     -35.019  19.122  -1.435  1.00 20.00     0.015 C 
HETATM   10  N10 UNL     1     -34.814  12.717  -4.603  1.00 20.00    -0.192 NA
ENDROOT
TORSDOF 0
ENDMDL
MODEL 4
REMARK VINA RESULT:      -4.3     11.619     12.582
REMARK  0 active torsions:
REMARK  status: ('A' for Active; 'I' for Inactive)
ROOT
HETATM    1  C1  UNL     1     -33.311  16.243  -4.119  1.00 20.00     0.088 C 
HETATM    2  C2  UNL     1     -34.220  16.883  -1.983  1.00 20.00    -0.069 C 
HETATM    3  C3  UNL     1     -33.740  15.941  -2.802  1.00 20.00     0.096 C 
HETATM    4  C4  UNL     1     -34.361  18.335  -2.345  1.00 20.00     0.036 C 
HETATM    5  C5  UNL     1     -34.667  16.639  -0.567  1.00 20.00     0.043 C 
HETATM    6  C6  UNL     1     -35.115  18.923  -1.154  1.00 20.00     0.013 C 
HETATM    7  C7  UNL     1     -34.708  18.051   0.047  1.00 20.00    -0.044 C 
HETATM    8  C8  UNL     1     -33.328  18.464   0.591  1.00 20.00     0.015 C 
HETATM    9  C9  UNL     1     -35.736  18.141   1.177  1.00 20.00     0.015 C 
HETATM   10  N10 UNL     1     -32.960  16.486  -5.198  1.00 20.00    -0.192 NA
ENDROOT
TORSDOF 0
ENDMDL
MODEL 5
REMARK VINA RESULT:      -4.2     11.401     12.490
REMARK  0 active torsions:
REMARK  status: ('A' for Active; 'I' for Inactive)
ROOT
HETATM    1  C1  UNL     1     -33.649  17.912  -1.085  1.00 20.00     0.088 C 
HETATM    2  C2  UNL     1     -34.183  16.132  -2.616  1.00 20.00    -0.069 C 
HETATM    3  C3  UNL     1     -34.210  16.644  -1.381  1.00 20.00     0.096 C 
HETATM    4  C4  UNL     1     -33.575  16.815  -3.807  1.00 20.00     0.036 C 
HETATM    5  C5  UNL     1     -34.782  14.807  -3.005  1.00 20.00     0.043 C 
HETATM    6  C6  UNL     1     -33.642  15.746  -4.897  1.00 20.00     0.013 C 
HETATM    7  C7  UNL     1     -34.869  14.888  -4.540  1.00 20.00    -0.044 C 
HETATM    8  C8  UNL     1     -36.173  15.570  -4.991  1.00 20.00     0.015 C 
HETATM    9  C9  UNL     1     -34.785  13.500  -5.181  1.00 20.00     0.015 C 
HETATM   10  N10 UNL     1     -33.191  18.949  -0.838  1.00 20.00    -0.192 NA
ENDROOT
TORSDOF 0
ENDMDL
MODEL 6
REMARK VINA RESULT:      -4.2      9.415     10.569
REMARK  0 active torsions:
REMARK  status: ('A' for Active; 'I' for Inactive)
ROOT
HETATM    1  C1  UNL     1     -42.508   8.216  -4.283  1.00 20.00     0.088 C 
HETATM    2  C2  UNL     1     -42.502   6.648  -2.455  1.00 20.00    -0.069 C 
HETATM    3  C3  UNL     1     -43.030   7.087  -3.603  1.00 20.00     0.096 C 
HETATM    4  C4  UNL     1     -41.326   7.278  -1.764  1.00 20.00     0.036 C 
HETATM    5  C5  UNL     1     -42.987   5.443  -1.696  1.00 20.00     0.043 C 
HETATM    6  C6  UNL     1     -41.254   6.525  -0.437  1.00 20.00     0.013 C 
HETATM    7  C7  UNL     1     -41.823   5.128  -0.738  1.00 20.00    -0.044 C 
HETATM    8  C8  UNL     1     -40.770   4.233  -1.415  1.00 20.00     0.015 C 
HETATM    9  C9  UNL     1     -42.317   4.439   0.537  1.00 20.00     0.015 C 
HETATM   10  N10 UNL     1     -42.084   9.140  -4.843  1.00 20.00    -0.192 NA
ENDROOT
TORSDOF 0
ENDMDL
MODEL 7
REMARK VINA RESULT:      -4.2      9.694     11.080
REMARK  0 active torsions:
REMARK  status: ('A' for Active; 'I' for Inactive)
ROOT
HETATM    1  C1  UNL     1     -42.125   2.246  -3.416  1.00 20.00     0.088 C 
HETATM    2  C2  UNL     1     -42.264   4.453  -2.460  1.00 20.00    -0.069 C 
HETATM    3  C3  UNL     1     -42.735   3.521  -3.296  1.00 20.00     0.096 C 
HETATM    4  C4  UNL     1     -41.067   4.271  -1.571  1.00 20.00     0.036 C 
HETATM    5  C5  UNL     1     -42.877   5.813  -2.264  1.00 20.00     0.043 C 
HETATM    6  C6  UNL     1     -40.853   5.664  -0.981  1.00 20.00     0.013 C 
HETATM    7  C7  UNL     1     -42.253   6.301  -0.943  1.00 20.00    -0.044 C 
HETATM    8  C8  UNL     1     -43.057   5.803   0.272  1.00 20.00     0.015 C 
HETATM    9  C9  UNL     1     -42.171   7.829  -0.893  1.00 20.00     0.015 C 
HETATM   10  N10 UNL     1     -41.629   1.202  -3.517  1.00 20.00    -0.192 NA
ENDROOT
TORSDOF 0
ENDMDL
MODEL 8
REMARK VINA RESULT:      -4.2     10.218     11.447
REMARK  0 active torsions:
REMARK  status: ('A' for Active; 'I' for Inactive)
ROOT
HETATM    1  C1  UNL     1     -42.002   1.645  -4.481  1.00 20.00     0.088 C 
HETATM    2  C2  UNL     1     -41.797   3.241  -2.689  1.00 20.00    -0.069 C 
HETATM    3  C3  UNL     1     -41.243   2.335  -3.501  1.00 20.00     0.096 C 
HETATM    4  C4  UNL     1     -43.248   3.631  -2.712  1.00 20.00     0.036 C 
HETATM    5  C5  UNL     1     -41.048   4.028  -1.647  1.00 20.00     0.043 C 
HETATM    6  C6  UNL     1     -43.388   4.537  -1.490  1.00 20.00     0.013 C 
HETATM    7  C7  UNL     1     -42.004   5.187  -1.314  1.00 20.00    -0.044 C 
HETATM    8  C8  UNL     1     -41.816   6.365  -2.287  1.00 20.00     0.015 C 
HETATM    9  C9  UNL     1     -41.801   5.688   0.119  1.00 20.00     0.015 C 
HETATM   10  N10 UNL     1     -42.620   1.079  -5.283  1.00 20.00    -0.192 NA
ENDROOT
TORSDOF 0
ENDMDL
MODEL 9
REMARK VINA RESULT:      -4.1     11.684     12.728
REMARK  0 active torsions:
REMARK  status: ('A' for Active; 'I' for Inactive)
ROOT
HETATM    1  C1  UNL     1     -33.075  18.685   0.337  1.00 20.00     0.088 C 
HETATM    2  C2  UNL     1     -33.734  17.708  -1.763  1.00 20.00    -0.069 C 
HETATM    3  C3  UNL     1     -33.120  18.680  -1.080  1.00 20.00     0.096 C 
HETATM    4  C4  UNL     1     -34.431  16.535  -1.134  1.00 20.00     0.036 C 
HETATM    5  C5  UNL     1     -33.796  17.625  -3.265  1.00 20.00     0.043 C 
HETATM    6  C6  UNL     1     -35.105  15.849  -2.321  1.00 20.00     0.013 C 
HETATM    7  C7  UNL     1     -34.206  16.165  -3.529  1.00 20.00    -0.044 C 
HETATM    8  C8  UNL     1     -32.978  15.237  -3.565  1.00 20.00     0.015 C 
HETATM    9  C9  UNL     1     -34.972  16.027  -4.847  1.00 20.00     0.015 C 
HETATM   10  N10 UNL     1     -33.037  18.693   1.497  1.00 20.00    -0.192 NA
ENDROOT
TORSDOF 0
ENDMDL
