MODEL 1
REMARK VINA RESULT:      -4.7      0.000      0.000
REMARK  1 active torsions:
REMARK  status: ('A' for Active; 'I' for Inactive)
REMARK    1  A    between atoms: C5_5  and  O9_9 
ROOT
HETATM    1  C1  UNL     1     -36.021  16.088  -3.795  1.00 20.00     0.012 C 
HETATM    2  C2  UNL     1     -36.505  14.653  -3.945  1.00 20.00     0.038 C 
HETATM    3  C3  UNL     1     -34.142  14.522  -3.512  1.00 20.00     0.046 C 
HETATM    4  C4  UNL     1     -34.612  15.962  -3.177  1.00 20.00    -0.045 C 
HETATM    5  C5  UNL     1     -35.252  13.888  -4.364  1.00 20.00     0.055 C 
HETATM    6  C6  UNL     1     -34.679  16.153  -1.653  1.00 20.00     0.015 C 
HETATM    7  C7  UNL     1     -33.664  17.012  -3.768  1.00 20.00     0.015 C 
HETATM    8  C8  UNL     1     -34.960  13.999  -5.860  1.00 20.00     0.045 C 
ENDROOT
BRANCH   5   9
HETATM    9  O9  UNL     1     -35.383  12.511  -4.033  1.00 20.00    -0.390 OA
HETATM   10  H25 UNL     1     -35.915  12.111  -4.738  1.00 20.00     0.210 HD
ENDBRANCH   5   9
TORSDOF 1
ENDMDL
MODEL 2
REMARK VINA RESULT:      -4.2      1.936      3.574
REMARK  1 active torsions:
REMARK  status: ('A' for Active; 'I' for Inactive)
REMARK    1  A    between atoms: C5_5  and  O9_9 
ROOT
HETATM    1  C1  UNL     1     -34.720  16.519  -5.579  1.00 20.00     0.012 C 
HETATM    2  C2  UNL     1     -33.255  16.538  -5.167  1.00 20.00     0.038 C 
HETATM    3  C3  UNL     1     -34.102  14.374  -4.541  1.00 20.00     0.046 C 
HETATM    4  C4  UNL     1     -35.131  15.034  -5.496  1.00 20.00    -0.045 C 
HETATM    5  C5  UNL     1     -33.178  15.499  -4.051  1.00 20.00     0.055 C 
HETATM    6  C6  UNL     1     -35.053  14.381  -6.886  1.00 20.00     0.015 C 
HETATM    7  C7  UNL     1     -36.560  14.895  -4.961  1.00 20.00     0.015 C 
HETATM    8  C8  UNL     1     -33.617  16.051  -2.694  1.00 20.00     0.045 C 
ENDROOT
BRANCH   5   9
HETATM    9  O9  UNL     1     -31.849  15.009  -3.926  1.00 20.00    -0.390 OA
HETATM   10  H25 UNL     1     -31.391  15.611  -3.320  1.00 20.00     0.210 HD
ENDBRANCH   5   9
TORSDOF 1
ENDMDL
MODEL 3
REMARK VINA RESULT:      -4.2      1.896      2.398
REMARK  1 active torsions:
REMARK  status: ('A' for Active; 'I' for Inactive)
REMARK    1  A    between atoms: C5_5  and  O9_9 
ROOT
HETATM    1  C1  UNL     1     -35.430  15.129  -2.873  1.00 20.00     0.012 C 
HETATM    2  C2  UNL     1     -34.181  14.478  -3.449  1.00 20.00     0.038 C 
HETATM    3  C3  UNL     1     -33.681  16.822  -3.243  1.00 20.00     0.046 C 
HETATM    4  C4  UNL     1     -34.968  16.533  -2.426  1.00 20.00    -0.045 C 
HETATM    5  C5  UNL     1     -33.478  15.620  -4.177  1.00 20.00     0.055 C 
HETATM    6  C6  UNL     1     -34.649  16.536  -0.922  1.00 20.00     0.015 C 
HETATM    7  C7  UNL     1     -36.054  17.577  -2.706  1.00 20.00     0.015 C 
HETATM    8  C8  UNL     1     -34.048  15.876  -5.572  1.00 20.00     0.045 C 
ENDROOT
BRANCH   5   9
HETATM    9  O9  UNL     1     -32.089  15.341  -4.305  1.00 20.00    -0.390 OA
HETATM   10  H25 UNL     1     -31.947  14.471  -3.900  1.00 20.00     0.210 HD
ENDBRANCH   5   9
TORSDOF 1
ENDMDL
MODEL 4
REMARK VINA RESULT:      -4.2      1.233      2.213
REMARK  1 active torsions:
REMARK  status: ('A' for Active; 'I' for Inactive)
REMARK    1  A    between atoms: C5_5  and  O9_9 
ROOT
HETATM    1  C1  UNL     1     -34.620  15.669  -5.799  1.00 20.00     0.012 C 
HETATM    2  C2  UNL     1     -34.737  14.152  -5.809  1.00 20.00     0.038 C 
HETATM    3  C3  UNL     1     -35.605  14.878  -3.686  1.00 20.00     0.046 C 
HETATM    4  C4  UNL     1     -35.492  16.120  -4.608  1.00 20.00    -0.045 C 
HETATM    5  C5  UNL     1     -34.748  13.778  -4.329  1.00 20.00     0.055 C 
HETATM    6  C6  UNL     1     -36.888  16.542  -5.097  1.00 20.00     0.015 C 
HETATM    7  C7  UNL     1     -34.844  17.302  -3.877  1.00 20.00     0.015 C 
HETATM    8  C8  UNL     1     -33.346  13.715  -3.722  1.00 20.00     0.045 C 
ENDROOT
BRANCH   5   9
HETATM    9  O9  UNL     1     -35.373  12.514  -4.146  1.00 20.00    -0.390 OA
HETATM   10  H25 UNL     1     -35.435  12.110  -5.025  1.00 20.00     0.210 HD
ENDBRANCH   5   9
TORSDOF 1
ENDMDL
MODEL 5
REMARK VINA RESULT:      -4.1      1.870      2.943
REMARK  1 active torsions:
REMARK  status: ('A' for Active; 'I' for Inactive)
REMARK    1  A    between atoms: C5_5  and  O9_9 
ROOT
HETATM    1  C1  UNL     1     -35.162  15.865  -2.424  1.00 20.00     0.012 C 
HETATM    2  C2  UNL     1     -33.695  16.076  -2.765  1.00 20.00     0.038 C 
HETATM    3  C3  UNL     1     -34.784  15.479  -4.826  1.00 20.00     0.046 C 
HETATM    4  C4  UNL     1     -35.881  15.837  -3.790  1.00 20.00    -0.045 C 
HETATM    5  C5  UNL     1     -33.492  15.244  -4.029  1.00 20.00     0.055 C 
HETATM    6  C6  UNL     1     -36.475  17.219  -4.109  1.00 20.00     0.015 C 
HETATM    7  C7  UNL     1     -37.009  14.800  -3.789  1.00 20.00     0.015 C 
HETATM    8  C8  UNL     1     -33.261  13.762  -3.735  1.00 20.00     0.045 C 
ENDROOT
BRANCH   5   9
HETATM    9  O9  UNL     1     -32.378  15.734  -4.766  1.00 20.00    -0.390 OA
HETATM   10  H25 UNL     1     -32.475  16.697  -4.800  1.00 20.00     0.210 HD
ENDBRANCH   5   9
TORSDOF 1
ENDMDL
MODEL 6
REMARK VINA RESULT:      -4.1      1.588      3.253
REMARK  1 active torsions:
REMARK  status: ('A' for Active; 'I' for Inactive)
REMARK    1  A    between atoms: C5_5  and  O9_9 
ROOT
HETATM    1  C1  UNL     1     -34.428  13.868  -5.185  1.00 20.00     0.012 C 
HETATM    2  C2  UNL     1     -35.467  13.542  -4.122  1.00 20.00     0.038 C 
HETATM    3  C3  UNL     1     -36.081  15.685  -5.027  1.00 20.00     0.046 C 
HETATM    4  C4  UNL     1     -35.035  15.045  -5.977  1.00 20.00    -0.045 C 
HETATM    5  C5  UNL     1     -36.000  14.910  -3.704  1.00 20.00     0.055 C 
HETATM    6  C6  UNL     1     -35.726  14.533  -7.251  1.00 20.00     0.015 C 
HETATM    7  C7  UNL     1     -33.949  16.052  -6.371  1.00 20.00     0.015 C 
HETATM    8  C8  UNL     1     -35.102  15.610  -2.683  1.00 20.00     0.045 C 
ENDROOT
BRANCH   5   9
HETATM    9  O9  UNL     1     -37.300  14.780  -3.142  1.00 20.00    -0.390 OA
HETATM   10  H25 UNL     1     -37.685  13.977  -3.526  1.00 20.00     0.210 HD
ENDBRANCH   5   9
TORSDOF 1
ENDMDL
MODEL 7
REMARK VINA RESULT:      -4.0      1.834      2.530
REMARK  1 active torsions:
REMARK  status: ('A' for Active; 'I' for Inactive)
REMARK    1  A    between atoms: C5_5  and  O9_9 
ROOT
HETATM    1  C1  UNL     1     -34.640  13.601  -3.829  1.00 20.00     0.012 C 
HETATM    2  C2  UNL     1     -34.765  13.310  -5.317  1.00 20.00     0.038 C 
HETATM    3  C3  UNL     1     -34.065  15.605  -5.139  1.00 20.00     0.046 C 
HETATM    4  C4  UNL     1     -33.864  14.933  -3.755  1.00 20.00    -0.045 C 
HETATM    5  C5  UNL     1     -34.999  14.685  -5.938  1.00 20.00     0.055 C 
HETATM    6  C6  UNL     1     -32.369  14.667  -3.512  1.00 20.00     0.015 C 
HETATM    7  C7  UNL     1     -34.402  15.814  -2.622  1.00 20.00     0.015 C 
HETATM    8  C8  UNL     1     -36.458  15.134  -5.854  1.00 20.00     0.045 C 
ENDROOT
BRANCH   5   9
HETATM    9  O9  UNL     1     -34.611  14.679  -7.307  1.00 20.00    -0.390 OA
HETATM   10  H25 UNL     1     -33.652  14.536  -7.318  1.00 20.00     0.210 HD
ENDBRANCH   5   9
TORSDOF 1
ENDMDL
MODEL 8
REMARK VINA RESULT:      -3.9     10.840     12.101
REMARK  1 active torsions:
REMARK  status: ('A' for Active; 'I' for Inactive)
REMARK    1  A    between atoms: C5_5  and  O9_9 
ROOT
HETATM    1  C1  UNL     1     -41.130   6.951  -0.820  1.00 20.00     0.012 C 
HETATM    2  C2  UNL     1     -40.827   5.461  -0.883  1.00 20.00     0.038 C 
HETATM    3  C3  UNL     1     -43.130   5.705  -1.533  1.00 20.00     0.046 C 
HETATM    4  C4  UNL     1     -42.470   7.108  -1.568  1.00 20.00    -0.045 C 
HETATM    5  C5  UNL     1     -42.194   4.804  -0.714  1.00 20.00     0.055 C 
HETATM    6  C6  UNL     1     -42.222   7.537  -3.024  1.00 20.00     0.015 C 
HETATM    7  C7  UNL     1     -43.354   8.158  -0.885  1.00 20.00     0.015 C 
HETATM    8  C8  UNL     1     -42.628   4.703   0.748  1.00 20.00     0.045 C 
ENDROOT
BRANCH   5   9
HETATM    9  O9  UNL     1     -42.181   3.494  -1.269  1.00 20.00    -0.390 OA
HETATM   10  H25 UNL     1     -43.090   3.163  -1.209  1.00 20.00     0.210 HD
ENDBRANCH   5   9
TORSDOF 1
ENDMDL
MODEL 9
REMARK VINA RESULT:      -3.9      1.633      2.529
REMARK  1 active torsions:
REMARK  status: ('A' for Active; 'I' for Inactive)
REMARK    1  A    between atoms: C5_5  and  O9_9 
ROOT
HETATM    1  C1  UNL     1     -33.798  17.318  -3.265  1.00 20.00     0.012 C 
HETATM    2  C2  UNL     1     -33.563  16.547  -4.556  1.00 20.00     0.038 C 
HETATM    3  C3  UNL     1     -34.822  15.084  -3.119  1.00 20.00     0.046 C 
HETATM    4  C4  UNL     1     -34.886  16.515  -2.522  1.00 20.00    -0.045 C 
HETATM    5  C5  UNL     1     -33.665  15.085  -4.129  1.00 20.00     0.055 C 
HETATM    6  C6  UNL     1     -36.272  17.130  -2.776  1.00 20.00     0.015 C 
HETATM    7  C7  UNL     1     -34.617  16.503  -1.013  1.00 20.00     0.015 C 
HETATM    8  C8  UNL     1     -32.369  14.553  -3.518  1.00 20.00     0.045 C 
ENDROOT
BRANCH   5   9
HETATM    9  O9  UNL     1     -34.002  14.270  -5.245  1.00 20.00    -0.390 OA
HETATM   10  H25 UNL     1     -34.546  13.545  -4.900  1.00 20.00     0.210 HD
ENDBRANCH   5   9
TORSDOF 1
ENDMDL
