MODEL 1
REMARK VINA RESULT:      -4.2      0.000      0.000
REMARK  0 active torsions:
REMARK  status: ('A' for Active; 'I' for Inactive)
ROOT
HETATM    1  C1  UNL     1     -42.618   7.687  -1.108  1.00 20.00     0.064 C 
HETATM    2  C2  UNL     1     -40.791   6.080  -0.610  1.00 20.00     0.020 C 
HETATM    3  C3  UNL     1     -40.714   4.624  -1.054  1.00 20.00     0.010 C 
HETATM    4  C4  UNL     1     -42.240   5.692  -2.554  1.00 20.00     0.027 C 
HETATM    5  C5  UNL     1     -41.605   6.798  -1.694  1.00 20.00     0.093 C 
HETATM    6  C6  UNL     1     -42.044   4.376  -1.780  1.00 20.00    -0.046 C 
HETATM    7  C7  UNL     1     -41.946   3.176  -2.726  1.00 20.00     0.015 C 
HETATM    8  C8  UNL     1     -43.192   4.136  -0.786  1.00 20.00     0.015 C 
HETATM    9  N9  UNL     1     -43.417   8.388  -0.645  1.00 20.00    -0.197 NA
ENDROOT
TORSDOF 0
ENDMDL
MODEL 2
REMARK VINA RESULT:      -4.2     11.622     12.659
REMARK  0 active torsions:
REMARK  status: ('A' for Active; 'I' for Inactive)
ROOT
HETATM    1  C1  UNL     1     -35.176  14.564  -6.826  1.00 20.00     0.064 C 
HETATM    2  C2  UNL     1     -34.517  13.233  -4.836  1.00 20.00     0.020 C 
HETATM    3  C3  UNL     1     -34.233  13.768  -3.437  1.00 20.00     0.010 C 
HETATM    4  C4  UNL     1     -35.567  15.431  -4.522  1.00 20.00     0.027 C 
HETATM    5  C5  UNL     1     -35.536  14.203  -5.448  1.00 20.00     0.093 C 
HETATM    6  C6  UNL     1     -34.357  15.291  -3.579  1.00 20.00    -0.046 C 
HETATM    7  C7  UNL     1     -34.621  15.957  -2.225  1.00 20.00     0.015 C 
HETATM    8  C8  UNL     1     -33.092  15.904  -4.200  1.00 20.00     0.015 C 
HETATM    9  N9  UNL     1     -34.892  14.850  -7.914  1.00 20.00    -0.197 NA
ENDROOT
TORSDOF 0
ENDMDL
MODEL 3
REMARK VINA RESULT:      -4.2     11.633     12.501
REMARK  0 active torsions:
REMARK  status: ('A' for Active; 'I' for Inactive)
ROOT
HETATM    1  C1  UNL     1     -33.730  15.999  -2.671  1.00 20.00     0.064 C 
HETATM    2  C2  UNL     1     -33.827  13.690  -3.579  1.00 20.00     0.020 C 
HETATM    3  C3  UNL     1     -34.418  13.263  -4.918  1.00 20.00     0.010 C 
HETATM    4  C4  UNL     1     -33.938  15.597  -5.122  1.00 20.00     0.027 C 
HETATM    5  C5  UNL     1     -33.335  15.128  -3.786  1.00 20.00     0.093 C 
HETATM    6  C6  UNL     1     -35.004  14.554  -5.505  1.00 20.00    -0.046 C 
HETATM    7  C7  UNL     1     -35.168  14.451  -7.024  1.00 20.00     0.015 C 
HETATM    8  C8  UNL     1     -36.366  14.892  -4.877  1.00 20.00     0.015 C 
HETATM    9  N9  UNL     1     -34.042  16.687  -1.790  1.00 20.00    -0.197 NA
ENDROOT
TORSDOF 0
ENDMDL
MODEL 4
REMARK VINA RESULT:      -4.2     10.826     12.185
REMARK  0 active torsions:
REMARK  status: ('A' for Active; 'I' for Inactive)
ROOT
HETATM    1  C1  UNL     1     -37.291  14.533  -4.057  1.00 20.00     0.064 C 
HETATM    2  C2  UNL     1     -35.601  15.941  -5.210  1.00 20.00     0.020 C 
HETATM    3  C3  UNL     1     -34.109  16.007  -4.902  1.00 20.00     0.010 C 
HETATM    4  C4  UNL     1     -34.874  13.921  -4.016  1.00 20.00     0.027 C 
HETATM    5  C5  UNL     1     -36.037  14.522  -4.825  1.00 20.00     0.093 C 
HETATM    6  C6  UNL     1     -33.930  15.092  -3.683  1.00 20.00    -0.046 C 
HETATM    7  C7  UNL     1     -32.479  14.621  -3.548  1.00 20.00     0.015 C 
HETATM    8  C8  UNL     1     -34.351  15.795  -2.383  1.00 20.00     0.015 C 
HETATM    9  N9  UNL     1     -38.280  14.542  -3.451  1.00 20.00    -0.197 NA
ENDROOT
TORSDOF 0
ENDMDL
MODEL 5
REMARK VINA RESULT:      -4.1     11.823     13.322
REMARK  0 active torsions:
REMARK  status: ('A' for Active; 'I' for Inactive)
ROOT
HETATM    1  C1  UNL     1     -34.387  13.745  -3.932  1.00 20.00     0.064 C 
HETATM    2  C2  UNL     1     -33.284  15.903  -4.474  1.00 20.00     0.020 C 
HETATM    3  C3  UNL     1     -33.704  17.286  -3.989  1.00 20.00     0.010 C 
HETATM    4  C4  UNL     1     -34.658  15.728  -2.446  1.00 20.00     0.027 C 
HETATM    5  C5  UNL     1     -33.723  14.931  -3.372  1.00 20.00     0.093 C 
HETATM    6  C6  UNL     1     -34.989  17.036  -3.189  1.00 20.00    -0.046 C 
HETATM    7  C7  UNL     1     -35.269  18.181  -2.212  1.00 20.00     0.015 C 
HETATM    8  C8  UNL     1     -36.204  16.860  -4.114  1.00 20.00     0.015 C 
HETATM    9  N9  UNL     1     -34.910  12.809  -4.374  1.00 20.00    -0.197 NA
ENDROOT
TORSDOF 0
ENDMDL
MODEL 6
REMARK VINA RESULT:      -4.0     11.841     13.304
REMARK  0 active torsions:
REMARK  status: ('A' for Active; 'I' for Inactive)
ROOT
HETATM    1  C1  UNL     1     -35.154  13.735  -4.126  1.00 20.00     0.064 C 
HETATM    2  C2  UNL     1     -34.425  15.528  -2.570  1.00 20.00     0.020 C 
HETATM    3  C3  UNL     1     -34.245  17.004  -2.904  1.00 20.00     0.010 C 
HETATM    4  C4  UNL     1     -35.708  16.123  -4.578  1.00 20.00     0.027 C 
HETATM    5  C5  UNL     1     -35.519  15.022  -3.519  1.00 20.00     0.093 C 
HETATM    6  C6  UNL     1     -34.523  17.091  -4.411  1.00 20.00    -0.046 C 
HETATM    7  C7  UNL     1     -34.899  18.516  -4.827  1.00 20.00     0.015 C 
HETATM    8  C8  UNL     1     -33.309  16.634  -5.235  1.00 20.00     0.015 C 
HETATM    9  N9  UNL     1     -34.865  12.718  -4.605  1.00 20.00    -0.197 NA
ENDROOT
TORSDOF 0
ENDMDL
MODEL 7
REMARK VINA RESULT:      -3.9     11.541     12.919
REMARK  0 active torsions:
REMARK  status: ('A' for Active; 'I' for Inactive)
ROOT
HETATM    1  C1  UNL     1     -36.895  14.869  -3.568  1.00 20.00     0.064 C 
HETATM    2  C2  UNL     1     -34.437  14.819  -3.216  1.00 20.00     0.020 C 
HETATM    3  C3  UNL     1     -33.395  15.645  -3.961  1.00 20.00     0.010 C 
HETATM    4  C4  UNL     1     -35.470  16.805  -4.229  1.00 20.00     0.027 C 
HETATM    5  C5  UNL     1     -35.713  15.670  -3.218  1.00 20.00     0.093 C 
HETATM    6  C6  UNL     1     -34.201  16.419  -5.013  1.00 20.00    -0.046 C 
HETATM    7  C7  UNL     1     -33.442  17.658  -5.497  1.00 20.00     0.015 C 
HETATM    8  C8  UNL     1     -34.542  15.536  -6.224  1.00 20.00     0.015 C 
HETATM    9  N9  UNL     1     -37.827  14.236  -3.844  1.00 20.00    -0.197 NA
ENDROOT
TORSDOF 0
ENDMDL
MODEL 8
REMARK VINA RESULT:      -3.9     11.940     13.350
REMARK  0 active torsions:
REMARK  status: ('A' for Active; 'I' for Inactive)
ROOT
HETATM    1  C1  UNL     1     -34.209  13.577  -4.597  1.00 20.00     0.064 C 
HETATM    2  C2  UNL     1     -36.078  15.174  -4.946  1.00 20.00     0.020 C 
HETATM    3  C3  UNL     1     -36.093  16.362  -5.902  1.00 20.00     0.010 C 
HETATM    4  C4  UNL     1     -34.395  14.884  -6.711  1.00 20.00     0.027 C 
HETATM    5  C5  UNL     1     -35.138  14.145  -5.584  1.00 20.00     0.093 C 
HETATM    6  C6  UNL     1     -34.683  16.383  -6.506  1.00 20.00    -0.046 C 
HETATM    7  C7  UNL     1     -34.657  17.147  -7.833  1.00 20.00     0.015 C 
HETATM    8  C8  UNL     1     -33.667  17.019  -5.543  1.00 20.00     0.015 C 
HETATM    9  N9  UNL     1     -33.476  13.129  -3.817  1.00 20.00    -0.197 NA
ENDROOT
TORSDOF 0
ENDMDL
MODEL 9
REMARK VINA RESULT:      -3.9     10.567     11.898
REMARK  0 active torsions:
REMARK  status: ('A' for Active; 'I' for Inactive)
ROOT
HETATM    1  C1  UNL     1     -37.626  14.588  -3.847  1.00 20.00     0.064 C 
HETATM    2  C2  UNL     1     -35.395  13.558  -4.209  1.00 20.00     0.020 C 
HETATM    3  C3  UNL     1     -34.332  14.016  -5.201  1.00 20.00     0.010 C 
HETATM    4  C4  UNL     1     -35.755  15.904  -4.840  1.00 20.00     0.027 C 
HETATM    5  C5  UNL     1     -36.175  14.823  -3.829  1.00 20.00     0.093 C 
HETATM    6  C6  UNL     1     -34.993  15.174  -5.961  1.00 20.00    -0.046 C 
HETATM    7  C7  UNL     1     -33.946  16.082  -6.612  1.00 20.00     0.015 C 
HETATM    8  C8  UNL     1     -35.953  14.660  -7.046  1.00 20.00     0.015 C 
HETATM    9  N9  UNL     1     -38.771  14.403  -3.861  1.00 20.00    -0.197 NA
ENDROOT
TORSDOF 0
ENDMDL
