MODEL 1
REMARK VINA RESULT:      -3.7      0.000      0.000
REMARK  2 active torsions:
REMARK  status: ('A' for Active; 'I' for Inactive)
REMARK    1  A    between atoms: C5_5  and  C6_6 
REMARK    2  A    between atoms: C5_5  and  N7_7 
ROOT
HETATM    1  C1  UNL     1     -33.280  16.166  -5.195  1.00 20.00     0.052 C 
HETATM    2  C2  UNL     1     -32.957  15.577  -3.823  1.00 20.00     0.274 C 
HETATM    3  C3  UNL     1     -34.696  14.288  -4.675  1.00 20.00     0.292 C 
HETATM    4  C4  UNL     1     -34.552  15.454  -5.640  1.00 20.00     0.112 C 
HETATM    5  N7  UNL     1     -34.119  14.775  -3.412  1.00 20.00     0.092 N 
HETATM    6 CL9  UNL     1     -34.476  14.916  -7.328  1.00 20.00    -0.123 Cl
ENDROOT
BRANCH   5   7
HETATM    7  C5  UNL     1     -35.076  15.575  -2.647  1.00 20.00     0.303 C 
BRANCH   7   8
HETATM    8  C6  UNL     1     -34.375  16.511  -1.687  1.00 20.00     0.252 C 
HETATM    9  F8  UNL     1     -34.783  16.232  -0.420  1.00 20.00    -0.254 F 
ENDBRANCH   7   8
ENDBRANCH   5   7
TORSDOF 2
ENDMDL
MODEL 2
REMARK VINA RESULT:      -3.6      3.232      3.988
REMARK  2 active torsions:
REMARK  status: ('A' for Active; 'I' for Inactive)
REMARK    1  A    between atoms: C5_5  and  C6_6 
REMARK    2  A    between atoms: C5_5  and  N7_7 
ROOT
HETATM    1  C1  UNL     1     -33.553  16.040  -2.873  1.00 20.00     0.052 C 
HETATM    2  C2  UNL     1     -34.147  16.094  -4.280  1.00 20.00     0.274 C 
HETATM    3  C3  UNL     1     -35.955  16.203  -2.820  1.00 20.00     0.292 C 
HETATM    4  C4  UNL     1     -34.752  15.894  -1.944  1.00 20.00     0.112 C 
HETATM    5  N7  UNL     1     -35.570  15.740  -4.162  1.00 20.00     0.092 N 
HETATM    6 CL9  UNL     1     -34.657  16.969  -0.537  1.00 20.00    -0.123 Cl
ENDROOT
BRANCH   5   7
HETATM    7  C5  UNL     1     -35.775  14.301  -4.323  1.00 20.00     0.303 C 
BRANCH   7   8
HETATM    8  C6  UNL     1     -34.903  13.735  -5.423  1.00 20.00     0.252 C 
HETATM    9  F8  UNL     1     -34.082  12.788  -4.893  1.00 20.00    -0.254 F 
ENDBRANCH   7   8
ENDBRANCH   5   7
TORSDOF 2
ENDMDL
MODEL 3
REMARK VINA RESULT:      -3.5      3.078      3.796
REMARK  2 active torsions:
REMARK  status: ('A' for Active; 'I' for Inactive)
REMARK    1  A    between atoms: C5_5  and  C6_6 
REMARK    2  A    between atoms: C5_5  and  N7_7 
ROOT
HETATM    1  C1  UNL     1     -33.989  17.548  -3.046  1.00 20.00     0.052 C 
HETATM    2  C2  UNL     1     -34.720  17.237  -4.351  1.00 20.00     0.274 C 
HETATM    3  C3  UNL     1     -35.271  15.516  -2.886  1.00 20.00     0.292 C 
HETATM    4  C4  UNL     1     -34.184  16.310  -2.179  1.00 20.00     0.112 C 
HETATM    5  N7  UNL     1     -35.081  15.812  -4.315  1.00 20.00     0.092 N 
HETATM    6 CL9  UNL     1     -34.631  16.712  -0.511  1.00 20.00    -0.123 Cl
ENDROOT
BRANCH   5   7
HETATM    7  C5  UNL     1     -34.034  14.981  -4.910  1.00 20.00     0.303 C 
BRANCH   7   8
HETATM    8  C6  UNL     1     -34.096  13.558  -4.398  1.00 20.00     0.252 C 
HETATM    9  F8  UNL     1     -32.932  13.267  -3.758  1.00 20.00    -0.254 F 
ENDBRANCH   7   8
ENDBRANCH   5   7
TORSDOF 2
ENDMDL
MODEL 4
REMARK VINA RESULT:      -3.5      1.065      1.672
REMARK  2 active torsions:
REMARK  status: ('A' for Active; 'I' for Inactive)
REMARK    1  A    between atoms: C5_5  and  C6_6 
REMARK    2  A    between atoms: C5_5  and  N7_7 
ROOT
HETATM    1  C1  UNL     1     -34.764  13.568  -5.159  1.00 20.00     0.052 C 
HETATM    2  C2  UNL     1     -35.331  14.104  -3.845  1.00 20.00     0.274 C 
HETATM    3  C3  UNL     1     -35.033  15.960  -5.214  1.00 20.00     0.292 C 
HETATM    4  C4  UNL     1     -34.374  14.807  -5.955  1.00 20.00     0.112 C 
HETATM    5  N7  UNL     1     -35.038  15.544  -3.803  1.00 20.00     0.092 N 
HETATM    6 CL9  UNL     1     -34.894  14.719  -7.648  1.00 20.00    -0.123 Cl
ENDROOT
BRANCH   5   7
HETATM    7  C5  UNL     1     -33.756  15.809  -3.151  1.00 20.00     0.303 C 
BRANCH   7   8
HETATM    8  C6  UNL     1     -33.927  16.665  -1.915  1.00 20.00     0.252 C 
HETATM    9  F8  UNL     1     -34.706  15.999  -1.020  1.00 20.00    -0.254 F 
ENDBRANCH   7   8
ENDBRANCH   5   7
TORSDOF 2
ENDMDL
MODEL 5
REMARK VINA RESULT:      -3.5      3.453      4.242
REMARK  2 active torsions:
REMARK  status: ('A' for Active; 'I' for Inactive)
REMARK    1  A    between atoms: C5_5  and  C6_6 
REMARK    2  A    between atoms: C5_5  and  N7_7 
ROOT
HETATM    1  C1  UNL     1     -33.168  15.658  -3.376  1.00 20.00     0.052 C 
HETATM    2  C2  UNL     1     -33.414  16.008  -4.843  1.00 20.00     0.274 C 
HETATM    3  C3  UNL     1     -35.498  16.084  -3.811  1.00 20.00     0.292 C 
HETATM    4  C4  UNL     1     -34.558  15.500  -2.769  1.00 20.00     0.112 C 
HETATM    5  N7  UNL     1     -34.848  15.804  -5.101  1.00 20.00     0.092 N 
HETATM    6 CL9  UNL     1     -34.712  16.315  -1.202  1.00 20.00    -0.123 Cl
ENDROOT
BRANCH   5   7
HETATM    7  C5  UNL     1     -35.118  14.443  -5.565  1.00 20.00     0.303 C 
BRANCH   7   8
HETATM    8  C6  UNL     1     -35.393  14.408  -7.053  1.00 20.00     0.252 C 
HETATM    9  F8  UNL     1     -34.238  14.673  -7.722  1.00 20.00    -0.254 F 
ENDBRANCH   7   8
ENDBRANCH   5   7
TORSDOF 2
ENDMDL
MODEL 6
REMARK VINA RESULT:      -3.4      1.430      1.768
REMARK  2 active torsions:
REMARK  status: ('A' for Active; 'I' for Inactive)
REMARK    1  A    between atoms: C5_5  and  C6_6 
REMARK    2  A    between atoms: C5_5  and  N7_7 
ROOT
HETATM    1  C1  UNL     1     -34.643  15.696  -5.619  1.00 20.00     0.052 C 
HETATM    2  C2  UNL     1     -33.608  16.737  -5.195  1.00 20.00     0.274 C 
HETATM    3  C3  UNL     1     -33.463  15.022  -3.631  1.00 20.00     0.292 C 
HETATM    4  C4  UNL     1     -34.686  14.693  -4.472  1.00 20.00     0.112 C 
HETATM    5  N7  UNL     1     -33.281  16.474  -3.786  1.00 20.00     0.092 N 
HETATM    6 CL9  UNL     1     -34.674  13.013  -5.038  1.00 20.00    -0.123 Cl
ENDROOT
BRANCH   5   7
HETATM    7  C5  UNL     1     -34.150  17.232  -2.887  1.00 20.00     0.303 C 
BRANCH   7   8
HETATM    8  C6  UNL     1     -33.818  16.963  -1.435  1.00 20.00     0.252 C 
HETATM    9  F8  UNL     1     -34.787  16.172  -0.899  1.00 20.00    -0.254 F 
ENDBRANCH   7   8
ENDBRANCH   5   7
TORSDOF 2
ENDMDL
MODEL 7
REMARK VINA RESULT:      -3.4      2.685      3.154
REMARK  2 active torsions:
REMARK  status: ('A' for Active; 'I' for Inactive)
REMARK    1  A    between atoms: C5_5  and  C6_6 
REMARK    2  A    between atoms: C5_5  and  N7_7 
ROOT
HETATM    1  C1  UNL     1     -34.484  15.442  -7.376  1.00 20.00     0.052 C 
HETATM    2  C2  UNL     1     -35.565  14.458  -6.931  1.00 20.00     0.274 C 
HETATM    3  C3  UNL     1     -35.052  15.732  -5.053  1.00 20.00     0.292 C 
HETATM    4  C4  UNL     1     -34.010  16.115  -6.093  1.00 20.00     0.112 C 
HETATM    5  N7  UNL     1     -35.516  14.397  -5.462  1.00 20.00     0.092 N 
HETATM    6 CL9  UNL     1     -33.854  17.872  -6.264  1.00 20.00    -0.123 Cl
ENDROOT
BRANCH   5   7
HETATM    7  C5  UNL     1     -34.614  13.341  -5.002  1.00 20.00     0.303 C 
BRANCH   7   8
HETATM    8  C6  UNL     1     -34.089  13.627  -3.612  1.00 20.00     0.252 C 
HETATM    9  F8  UNL     1     -32.757  13.350  -3.577  1.00 20.00    -0.254 F 
ENDBRANCH   7   8
ENDBRANCH   5   7
TORSDOF 2
ENDMDL
MODEL 8
REMARK VINA RESULT:      -3.4     11.535     12.151
REMARK  2 active torsions:
REMARK  status: ('A' for Active; 'I' for Inactive)
REMARK    1  A    between atoms: C5_5  and  C6_6 
REMARK    2  A    between atoms: C5_5  and  N7_7 
ROOT
HETATM    1  C1  UNL     1     -34.978   5.424   3.693  1.00 20.00     0.052 C 
HETATM    2  C2  UNL     1     -33.875   5.420   2.635  1.00 20.00     0.274 C 
HETATM    3  C3  UNL     1     -32.894   6.250   4.574  1.00 20.00     0.292 C 
HETATM    4  C4  UNL     1     -34.381   6.167   4.882  1.00 20.00     0.112 C 
HETATM    5  N7  UNL     1     -32.820   6.329   3.107  1.00 20.00     0.092 N 
HETATM    6 CL9  UNL     1     -34.697   5.350   6.423  1.00 20.00    -0.123 Cl
ENDROOT
BRANCH   5   7
HETATM    7  C5  UNL     1     -33.035   7.693   2.622  1.00 20.00     0.303 C 
BRANCH   7   8
HETATM    8  C6  UNL     1     -31.861   8.182   1.803  1.00 20.00     0.252 C 
HETATM    9  F8  UNL     1     -32.255   9.252   1.060  1.00 20.00    -0.254 F 
ENDBRANCH   7   8
ENDBRANCH   5   7
TORSDOF 2
ENDMDL
MODEL 9
REMARK VINA RESULT:      -3.4      1.265      1.812
REMARK  2 active torsions:
REMARK  status: ('A' for Active; 'I' for Inactive)
REMARK    1  A    between atoms: C5_5  and  C6_6 
REMARK    2  A    between atoms: C5_5  and  N7_7 
ROOT
HETATM    1  C1  UNL     1     -35.688  15.995  -5.010  1.00 20.00     0.052 C 
HETATM    2  C2  UNL     1     -35.338  17.168  -4.095  1.00 20.00     0.274 C 
HETATM    3  C3  UNL     1     -33.323  16.451  -5.010  1.00 20.00     0.292 C 
HETATM    4  C4  UNL     1     -34.345  15.405  -5.427  1.00 20.00     0.112 C 
HETATM    5  N7  UNL     1     -33.898  17.079  -3.811  1.00 20.00     0.092 N 
HETATM    6 CL9  UNL     1     -34.267  15.051  -7.162  1.00 20.00    -0.123 Cl
ENDROOT
BRANCH   5   7
HETATM    7  C5  UNL     1     -33.640  16.292  -2.605  1.00 20.00     0.303 C 
BRANCH   7   8
HETATM    8  C6  UNL     1     -34.083  17.026  -1.358  1.00 20.00     0.252 C 
HETATM    9  F8  UNL     1     -34.750  16.159  -0.549  1.00 20.00    -0.254 F 
ENDBRANCH   7   8
ENDBRANCH   5   7
TORSDOF 2
ENDMDL
