MODEL 1
REMARK VINA RESULT:      -4.0      0.000      0.000
REMARK  3 active torsions:
REMARK  status: ('A' for Active; 'I' for Inactive)
REMARK    1  A    between atoms: C2_2  and  C8_8 
REMARK    2  A    between atoms: C6_6  and  C8_8 
REMARK    3  A    between atoms: C8_8  and  N9_9 
ROOT
HETATM    1  C8  UNL     1     -35.324  15.903  -2.480  1.00 20.00     0.255 C 
ENDROOT
BRANCH   1   2
HETATM    2  C2  UNL     1     -34.373  16.600  -1.548  1.00 20.00    -0.001 C 
HETATM    3  C1  UNL     1     -34.680  16.954  -0.295  1.00 20.00     0.009 C 
ENDBRANCH   1   2
BRANCH   1   4
HETATM    4  C6  UNL     1     -34.729  15.743  -3.873  1.00 20.00     0.084 C 
HETATM    5  C4  UNL     1     -33.313  15.169  -3.855  1.00 20.00     0.018 C 
HETATM    6  C3  UNL     1     -33.435  13.656  -3.760  1.00 20.00     0.011 C 
HETATM    7  C5  UNL     1     -34.433  13.233  -4.823  1.00 20.00     0.074 C 
HETATM    8  S10 UNL     1     -35.701  14.531  -4.830  1.00 20.00    -0.162 SA
ENDBRANCH   1   4
BRANCH   1   9
HETATM    9  N9  UNL     1     -36.545  16.675  -2.526  1.00 20.00     0.088 N 
HETATM   10  C7  UNL     1     -36.380  17.888  -3.322  1.00 20.00     0.307 C 
HETATM   11  H25 UNL     1     -37.296  16.114  -2.938  1.00 20.00     0.316 HD
ENDBRANCH   1   9
TORSDOF 3
ENDMDL
MODEL 2
REMARK VINA RESULT:      -4.0      1.880      2.263
REMARK  3 active torsions:
REMARK  status: ('A' for Active; 'I' for Inactive)
REMARK    1  A    between atoms: C2_2  and  C8_8 
REMARK    2  A    between atoms: C6_6  and  C8_8 
REMARK    3  A    between atoms: C8_8  and  N9_9 
ROOT
HETATM    1  C8  UNL     1     -34.376  16.441  -3.105  1.00 20.00     0.255 C 
ENDROOT
BRANCH   1   2
HETATM    2  C2  UNL     1     -33.910  16.949  -1.769  1.00 20.00    -0.001 C 
HETATM    3  C1  UNL     1     -34.589  16.784  -0.629  1.00 20.00     0.009 C 
ENDBRANCH   1   2
BRANCH   1   4
HETATM    4  C6  UNL     1     -34.880  15.006  -3.015  1.00 20.00     0.084 C 
HETATM    5  C4  UNL     1     -36.229  14.804  -3.702  1.00 20.00     0.018 C 
HETATM    6  C3  UNL     1     -35.960  14.591  -5.184  1.00 20.00     0.011 C 
HETATM    7  C5  UNL     1     -34.871  13.538  -5.281  1.00 20.00     0.074 C 
HETATM    8  S10 UNL     1     -33.742  13.891  -3.906  1.00 20.00    -0.162 SA
ENDBRANCH   1   4
BRANCH   1   9
HETATM    9  N9  UNL     1     -33.270  16.544  -4.028  1.00 20.00     0.088 N 
HETATM   10  C7  UNL     1     -33.533  17.537  -5.067  1.00 20.00     0.307 C 
HETATM   11  H25 UNL     1     -32.421  16.816  -3.525  1.00 20.00     0.316 HD
ENDBRANCH   1   9
TORSDOF 3
ENDMDL
MODEL 3
REMARK VINA RESULT:      -3.9      1.498      1.517
REMARK  3 active torsions:
REMARK  status: ('A' for Active; 'I' for Inactive)
REMARK    1  A    between atoms: C2_2  and  C8_8 
REMARK    2  A    between atoms: C6_6  and  C8_8 
REMARK    3  A    between atoms: C8_8  and  N9_9 
ROOT
HETATM    1  C8  UNL     1     -34.544  16.832  -3.195  1.00 20.00     0.255 C 
ENDROOT
BRANCH   1   2
HETATM    2  C2  UNL     1     -33.906  16.871  -1.835  1.00 20.00    -0.001 C 
HETATM    3  C1  UNL     1     -34.582  16.731  -0.689  1.00 20.00     0.009 C 
ENDBRANCH   1   2
BRANCH   1   4
HETATM    4  C6  UNL     1     -33.653  16.129  -4.213  1.00 20.00     0.084 C 
HETATM    5  C4  UNL     1     -32.944  14.904  -3.639  1.00 20.00     0.018 C 
HETATM    6  C3  UNL     1     -33.914  13.735  -3.719  1.00 20.00     0.011 C 
HETATM    7  C5  UNL     1     -34.466  13.725  -5.133  1.00 20.00     0.074 C 
HETATM    8  S10 UNL     1     -34.669  15.472  -5.579  1.00 20.00    -0.162 SA
ENDBRANCH   1   4
BRANCH   1   9
HETATM    9  N9  UNL     1     -34.814  18.193  -3.597  1.00 20.00     0.088 N 
HETATM   10  C7  UNL     1     -33.601  18.862  -4.063  1.00 20.00     0.307 C 
HETATM   11  H25 UNL     1     -35.502  18.202  -4.355  1.00 20.00     0.316 HD
ENDBRANCH   1   9
TORSDOF 3
ENDMDL
MODEL 4
REMARK VINA RESULT:      -3.8      2.335      4.086
REMARK  3 active torsions:
REMARK  status: ('A' for Active; 'I' for Inactive)
REMARK    1  A    between atoms: C2_2  and  C8_8 
REMARK    2  A    between atoms: C6_6  and  C8_8 
REMARK    3  A    between atoms: C8_8  and  N9_9 
ROOT
HETATM    1  C8  UNL     1     -33.456  15.896  -3.839  1.00 20.00     0.255 C 
ENDROOT
BRANCH   1   2
HETATM    2  C2  UNL     1     -33.961  14.481  -3.893  1.00 20.00    -0.001 C 
HETATM    3  C1  UNL     1     -33.195  13.407  -3.672  1.00 20.00     0.009 C 
ENDBRANCH   1   2
BRANCH   1   4
HETATM    4  C6  UNL     1     -34.536  16.859  -3.360  1.00 20.00     0.084 C 
HETATM    5  C4  UNL     1     -35.306  16.336  -2.149  1.00 20.00     0.018 C 
HETATM    6  C3  UNL     1     -34.491  16.673  -0.909  1.00 20.00     0.011 C 
HETATM    7  C5  UNL     1     -34.116  18.140  -1.021  1.00 20.00     0.074 C 
HETATM    8  S10 UNL     1     -33.772  18.411  -2.781  1.00 20.00    -0.162 SA
ENDBRANCH   1   4
BRANCH   1   9
HETATM    9  N9  UNL     1     -32.995  16.253  -5.160  1.00 20.00     0.088 N 
HETATM   10  C7  UNL     1     -34.092  16.255  -6.125  1.00 20.00     0.307 C 
HETATM   11  H25 UNL     1     -32.575  17.187  -5.142  1.00 20.00     0.316 HD
ENDBRANCH   1   9
TORSDOF 3
ENDMDL
MODEL 5
REMARK VINA RESULT:      -3.6      1.930      2.743
REMARK  3 active torsions:
REMARK  status: ('A' for Active; 'I' for Inactive)
REMARK    1  A    between atoms: C2_2  and  C8_8 
REMARK    2  A    between atoms: C6_6  and  C8_8 
REMARK    3  A    between atoms: C8_8  and  N9_9 
ROOT
HETATM    1  C8  UNL     1     -33.817  16.014  -3.428  1.00 20.00     0.255 C 
ENDROOT
BRANCH   1   2
HETATM    2  C2  UNL     1     -33.744  16.648  -2.067  1.00 20.00    -0.001 C 
HETATM    3  C1  UNL     1     -34.675  16.491  -1.120  1.00 20.00     0.009 C 
ENDBRANCH   1   2
BRANCH   1   4
HETATM    4  C6  UNL     1     -34.560  16.899  -4.421  1.00 20.00     0.084 C 
HETATM    5  C4  UNL     1     -33.815  17.067  -5.744  1.00 20.00     0.018 C 
HETATM    6  C3  UNL     1     -34.144  15.861  -6.611  1.00 20.00     0.011 C 
HETATM    7  C5  UNL     1     -35.653  15.704  -6.581  1.00 20.00     0.074 C 
HETATM    8  S10 UNL     1     -36.143  16.119  -4.885  1.00 20.00    -0.162 SA
ENDBRANCH   1   4
BRANCH   1   9
HETATM    9  N9  UNL     1     -34.471  14.734  -3.286  1.00 20.00     0.088 N 
HETATM   10  C7  UNL     1     -33.605  13.642  -3.724  1.00 20.00     0.307 C 
HETATM   11  H25 UNL     1     -34.721  14.578  -2.306  1.00 20.00     0.316 HD
ENDBRANCH   1   9
TORSDOF 3
ENDMDL
MODEL 6
REMARK VINA RESULT:      -3.5      2.111      3.337
REMARK  3 active torsions:
REMARK  status: ('A' for Active; 'I' for Inactive)
REMARK    1  A    between atoms: C2_2  and  C8_8 
REMARK    2  A    between atoms: C6_6  and  C8_8 
REMARK    3  A    between atoms: C8_8  and  N9_9 
ROOT
HETATM    1  C8  UNL     1     -35.087  15.883  -3.433  1.00 20.00     0.255 C 
ENDROOT
BRANCH   1   2
HETATM    2  C2  UNL     1     -34.383  14.556  -3.371  1.00 20.00    -0.001 C 
HETATM    3  C1  UNL     1     -34.809  13.455  -4.000  1.00 20.00     0.009 C 
ENDBRANCH   1   2
BRANCH   1   4
HETATM    4  C6  UNL     1     -34.145  16.999  -3.867  1.00 20.00     0.084 C 
HETATM    5  C4  UNL     1     -33.285  16.618  -5.071  1.00 20.00     0.018 C 
HETATM    6  C3  UNL     1     -34.115  16.866  -6.322  1.00 20.00     0.011 C 
HETATM    7  C5  UNL     1     -34.695  18.263  -6.189  1.00 20.00     0.074 C 
HETATM    8  S10 UNL     1     -35.108  18.442  -4.431  1.00 20.00    -0.162 SA
ENDBRANCH   1   4
BRANCH   1   9
HETATM    9  N9  UNL     1     -35.639  16.153  -2.125  1.00 20.00     0.088 N 
HETATM   10  C7  UNL     1     -34.592  16.487  -1.163  1.00 20.00     0.307 C 
HETATM   11  H25 UNL     1     -36.294  16.937  -2.180  1.00 20.00     0.316 HD
ENDBRANCH   1   9
TORSDOF 3
ENDMDL
MODEL 7
REMARK VINA RESULT:      -3.5      2.448      3.712
REMARK  3 active torsions:
REMARK  status: ('A' for Active; 'I' for Inactive)
REMARK    1  A    between atoms: C2_2  and  C8_8 
REMARK    2  A    between atoms: C6_6  and  C8_8 
REMARK    3  A    between atoms: C8_8  and  N9_9 
ROOT
HETATM    1  C8  UNL     1     -34.136  15.684  -3.894  1.00 20.00     0.255 C 
ENDROOT
BRANCH   1   2
HETATM    2  C2  UNL     1     -33.980  14.189  -3.896  1.00 20.00    -0.001 C 
HETATM    3  C1  UNL     1     -34.974  13.335  -4.160  1.00 20.00     0.009 C 
ENDBRANCH   1   2
BRANCH   1   4
HETATM    4  C6  UNL     1     -33.415  16.325  -5.074  1.00 20.00     0.084 C 
HETATM    5  C4  UNL     1     -33.985  15.897  -6.425  1.00 20.00     0.018 C 
HETATM    6  C3  UNL     1     -35.190  16.780  -6.713  1.00 20.00     0.011 C 
HETATM    7  C5  UNL     1     -34.747  18.211  -6.473  1.00 20.00     0.074 C 
HETATM    8  S10 UNL     1     -33.645  18.135  -5.034  1.00 20.00    -0.162 SA
ENDBRANCH   1   4
BRANCH   1   9
HETATM    9  N9  UNL     1     -33.619  16.182  -2.640  1.00 20.00     0.088 N 
HETATM   10  C7  UNL     1     -34.669  16.272  -1.629  1.00 20.00     0.307 C 
HETATM   11  H25 UNL     1     -32.885  15.557  -2.294  1.00 20.00     0.316 HD
ENDBRANCH   1   9
TORSDOF 3
ENDMDL
MODEL 8
REMARK VINA RESULT:      -3.5      2.102      3.460
REMARK  3 active torsions:
REMARK  status: ('A' for Active; 'I' for Inactive)
REMARK    1  A    between atoms: C2_2  and  C8_8 
REMARK    2  A    between atoms: C6_6  and  C8_8 
REMARK    3  A    between atoms: C8_8  and  N9_9 
ROOT
HETATM    1  C8  UNL     1     -35.673  15.238  -3.866  1.00 20.00     0.255 C 
ENDROOT
BRANCH   1   2
HETATM    2  C2  UNL     1     -35.055  13.868  -3.827  1.00 20.00    -0.001 C 
HETATM    3  C1  UNL     1     -34.778  13.142  -4.916  1.00 20.00     0.009 C 
ENDBRANCH   1   2
BRANCH   1   4
HETATM    4  C6  UNL     1     -34.723  16.299  -3.326  1.00 20.00     0.084 C 
HETATM    5  C4  UNL     1     -33.316  16.194  -3.913  1.00 20.00     0.018 C 
HETATM    6  C3  UNL     1     -33.325  16.918  -5.251  1.00 20.00     0.011 C 
HETATM    7  C5  UNL     1     -33.969  18.271  -5.008  1.00 20.00     0.074 C 
HETATM    8  S10 UNL     1     -35.300  17.959  -3.817  1.00 20.00    -0.162 SA
ENDBRANCH   1   4
BRANCH   1   9
HETATM    9  N9  UNL     1     -36.893  15.195  -3.093  1.00 20.00     0.088 N 
HETATM   10  C7  UNL     1     -38.036  14.820  -3.922  1.00 20.00     0.307 C 
HETATM   11  H25 UNL     1     -36.801  14.512  -2.336  1.00 20.00     0.316 HD
ENDBRANCH   1   9
TORSDOF 3
ENDMDL
MODEL 9
REMARK VINA RESULT:      -3.5      2.356      2.787
REMARK  3 active torsions:
REMARK  status: ('A' for Active; 'I' for Inactive)
REMARK    1  A    between atoms: C2_2  and  C8_8 
REMARK    2  A    between atoms: C6_6  and  C8_8 
REMARK    3  A    between atoms: C8_8  and  N9_9 
ROOT
HETATM    1  C8  UNL     1     -34.367  16.193  -4.038  1.00 20.00     0.255 C 
ENDROOT
BRANCH   1   2
HETATM    2  C2  UNL     1     -33.897  16.007  -2.623  1.00 20.00    -0.001 C 
HETATM    3  C1  UNL     1     -34.619  16.337  -1.546  1.00 20.00     0.009 C 
ENDBRANCH   1   2
BRANCH   1   4
HETATM    4  C6  UNL     1     -34.755  14.866  -4.679  1.00 20.00     0.084 C 
HETATM    5  C4  UNL     1     -36.222  14.503  -4.459  1.00 20.00     0.018 C 
HETATM    6  C3  UNL     1     -37.036  15.226  -5.521  1.00 20.00     0.011 C 
HETATM    7  C5  UNL     1     -36.357  14.951  -6.851  1.00 20.00     0.074 C 
HETATM    8  S10 UNL     1     -34.579  14.977  -6.492  1.00 20.00    -0.162 SA
ENDBRANCH   1   4
BRANCH   1   9
HETATM    9  N9  UNL     1     -33.305  16.834  -4.778  1.00 20.00     0.088 N 
HETATM   10  C7  UNL     1     -33.537  18.270  -4.908  1.00 20.00     0.307 C 
HETATM   11  H25 UNL     1     -32.412  16.690  -4.298  1.00 20.00     0.316 HD
ENDBRANCH   1   9
TORSDOF 3
ENDMDL
