MODEL 1
REMARK VINA RESULT:      -4.5      0.000      0.000
REMARK  3 active torsions:
REMARK  status: ('A' for Active; 'I' for Inactive)
REMARK    1  A    between atoms: C2_2  and  C8_8 
REMARK    2  A    between atoms: C6_6  and  N9_9 
REMARK    3  A    between atoms: C8_8  and  N9_9 
ROOT
HETATM    1  N9  UNL     1     -32.985   6.027   4.247  1.00 20.00     0.094 N 
HETATM    2  H25 UNL     1     -32.355   6.598   4.816  1.00 20.00     0.316 HD
ENDROOT
BRANCH   1   3
HETATM    3  C6  UNL     1     -34.347   6.138   4.766  1.00 20.00     0.246 C 
HETATM    4  C3  UNL     1     -34.418   5.678   6.206  1.00 20.00     0.064 C 
HETATM    5  C4  UNL     1     -34.501   4.171   6.074  1.00 20.00     0.170 C 
HETATM    6  O10 UNL     1     -35.168   3.903   4.832  1.00 20.00    -0.389 OA
HETATM    7  C5  UNL     1     -35.253   5.127   4.083  1.00 20.00     0.203 C 
ENDBRANCH   1   3
BRANCH   1   8
HETATM    8  C8  UNL     1     -32.910   6.479   2.862  1.00 20.00     0.303 C 
BRANCH   8   9
HETATM    9  C2  UNL     1     -32.020   7.685   2.767  1.00 20.00    -0.066 C 
HETATM   10  C1  UNL     1     -31.156   7.998   3.746  1.00 20.00     0.015 C 
HETATM   11  C7  UNL     1     -32.167   8.549   1.548  1.00 20.00     0.044 C 
ENDBRANCH   8   9
ENDBRANCH   1   8
TORSDOF 3
ENDMDL
MODEL 2
REMARK VINA RESULT:      -4.0     11.530     12.451
REMARK  3 active torsions:
REMARK  status: ('A' for Active; 'I' for Inactive)
REMARK    1  A    between atoms: C2_2  and  C8_8 
REMARK    2  A    between atoms: C6_6  and  N9_9 
REMARK    3  A    between atoms: C8_8  and  N9_9 
ROOT
HETATM    1  N9  UNL     1     -34.626  16.291  -3.841  1.00 20.00     0.094 N 
HETATM    2  H25 UNL     1     -35.325  16.770  -4.413  1.00 20.00     0.316 HD
ENDROOT
BRANCH   1   3
HETATM    3  C6  UNL     1     -33.906  15.318  -4.661  1.00 20.00     0.246 C 
HETATM    4  C3  UNL     1     -34.870  14.420  -5.406  1.00 20.00     0.064 C 
HETATM    5  C4  UNL     1     -35.243  13.388  -4.362  1.00 20.00     0.170 C 
HETATM    6  O10 UNL     1     -34.110  13.253  -3.493  1.00 20.00    -0.389 OA
HETATM    7  C5  UNL     1     -33.185  14.316  -3.776  1.00 20.00     0.203 C 
ENDBRANCH   1   3
BRANCH   1   8
HETATM    8  C8  UNL     1     -33.716  17.283  -3.279  1.00 20.00     0.303 C 
BRANCH   8   9
HETATM    9  C2  UNL     1     -33.917  17.374  -1.793  1.00 20.00    -0.066 C 
HETATM   10  C1  UNL     1     -34.677  16.487  -1.132  1.00 20.00     0.015 C 
HETATM   11  C7  UNL     1     -33.264  18.526  -1.084  1.00 20.00     0.044 C 
ENDBRANCH   8   9
ENDBRANCH   1   8
TORSDOF 3
ENDMDL
MODEL 3
REMARK VINA RESULT:      -3.9     11.409     13.246
REMARK  3 active torsions:
REMARK  status: ('A' for Active; 'I' for Inactive)
REMARK    1  A    between atoms: C2_2  and  C8_8 
REMARK    2  A    between atoms: C6_6  and  N9_9 
REMARK    3  A    between atoms: C8_8  and  N9_9 
ROOT
HETATM    1  N9  UNL     1     -32.830  15.731  -4.921  1.00 20.00     0.094 N 
HETATM    2  H25 UNL     1     -31.820  15.857  -5.015  1.00 20.00     0.316 HD
ENDROOT
BRANCH   1   3
HETATM    3  C6  UNL     1     -33.132  15.166  -3.607  1.00 20.00     0.246 C 
HETATM    4  C3  UNL     1     -33.280  13.662  -3.685  1.00 20.00     0.064 C 
HETATM    5  C4  UNL     1     -34.701  13.489  -4.179  1.00 20.00     0.170 C 
HETATM    6  O10 UNL     1     -35.447  14.613  -3.689  1.00 20.00    -0.389 OA
HETATM    7  C5  UNL     1     -34.525  15.582  -3.164  1.00 20.00     0.203 C 
ENDBRANCH   1   3
BRANCH   1   8
HETATM    8  C8  UNL     1     -33.486  17.022  -5.103  1.00 20.00     0.303 C 
BRANCH   8   9
HETATM    9  C2  UNL     1     -34.101  17.091  -6.472  1.00 20.00    -0.066 C 
HETATM   10  C1  UNL     1     -34.328  18.265  -7.080  1.00 20.00     0.015 C 
HETATM   11  C7  UNL     1     -34.490  15.790  -7.113  1.00 20.00     0.044 C 
ENDBRANCH   8   9
ENDBRANCH   1   8
TORSDOF 3
ENDMDL
MODEL 4
REMARK VINA RESULT:      -3.9     11.704     12.618
REMARK  3 active torsions:
REMARK  status: ('A' for Active; 'I' for Inactive)
REMARK    1  A    between atoms: C2_2  and  C8_8 
REMARK    2  A    between atoms: C6_6  and  N9_9 
REMARK    3  A    between atoms: C8_8  and  N9_9 
ROOT
HETATM    1  N9  UNL     1     -33.621  15.113  -4.866  1.00 20.00     0.094 N 
HETATM    2  H25 UNL     1     -32.714  15.089  -5.336  1.00 20.00     0.316 HD
ENDROOT
BRANCH   1   3
HETATM    3  C6  UNL     1     -34.442  13.997  -5.331  1.00 20.00     0.246 C 
HETATM    4  C3  UNL     1     -35.462  14.461  -6.349  1.00 20.00     0.064 C 
HETATM    5  C4  UNL     1     -36.569  15.024  -5.482  1.00 20.00     0.170 C 
HETATM    6  O10 UNL     1     -36.546  14.285  -4.252  1.00 20.00    -0.389 OA
HETATM    7  C5  UNL     1     -35.341  13.503  -4.209  1.00 20.00     0.203 C 
ENDBRANCH   1   3
BRANCH   1   8
HETATM    8  C8  UNL     1     -33.408  15.046  -3.424  1.00 20.00     0.303 C 
BRANCH   8   9
HETATM    9  C2  UNL     1     -33.923  16.299  -2.775  1.00 20.00    -0.066 C 
HETATM   10  C1  UNL     1     -34.514  16.274  -1.571  1.00 20.00     0.015 C 
HETATM   11  C7  UNL     1     -33.784  17.578  -3.551  1.00 20.00     0.044 C 
ENDBRANCH   8   9
ENDBRANCH   1   8
TORSDOF 3
ENDMDL
MODEL 5
REMARK VINA RESULT:      -3.7     11.316     12.324
REMARK  3 active torsions:
REMARK  status: ('A' for Active; 'I' for Inactive)
REMARK    1  A    between atoms: C2_2  and  C8_8 
REMARK    2  A    between atoms: C6_6  and  N9_9 
REMARK    3  A    between atoms: C8_8  and  N9_9 
ROOT
HETATM    1  N9  UNL     1     -35.148  15.892  -1.972  1.00 20.00     0.094 N 
HETATM    2  H25 UNL     1     -35.935  15.305  -1.690  1.00 20.00     0.316 HD
ENDROOT
BRANCH   1   3
HETATM    3  C6  UNL     1     -34.966  15.805  -3.420  1.00 20.00     0.246 C 
HETATM    4  C3  UNL     1     -35.117  14.378  -3.900  1.00 20.00     0.064 C 
HETATM    5  C4  UNL     1     -33.757  13.779  -3.608  1.00 20.00     0.170 C 
HETATM    6  O10 UNL     1     -32.805  14.848  -3.715  1.00 20.00    -0.389 OA
HETATM    7  C5  UNL     1     -33.520  16.093  -3.785  1.00 20.00     0.203 C 
ENDBRANCH   1   3
BRANCH   1   8
HETATM    8  C8  UNL     1     -35.411  17.266  -1.556  1.00 20.00     0.303 C 
BRANCH   8   9
HETATM    9  C2  UNL     1     -34.551  17.613  -0.375  1.00 20.00    -0.066 C 
HETATM   10  C1  UNL     1     -33.272  17.993  -0.526  1.00 20.00     0.015 C 
HETATM   11  C7  UNL     1     -35.171  17.479   0.986  1.00 20.00     0.044 C 
ENDBRANCH   8   9
ENDBRANCH   1   8
TORSDOF 3
ENDMDL
MODEL 6
REMARK VINA RESULT:      -3.7     12.304     13.426
REMARK  3 active torsions:
REMARK  status: ('A' for Active; 'I' for Inactive)
REMARK    1  A    between atoms: C2_2  and  C8_8 
REMARK    2  A    between atoms: C6_6  and  N9_9 
REMARK    3  A    between atoms: C8_8  and  N9_9 
ROOT
HETATM    1  N9  UNL     1     -35.473  14.316  -4.503  1.00 20.00     0.094 N 
HETATM    2  H25 UNL     1     -35.753  13.352  -4.308  1.00 20.00     0.316 HD
ENDROOT
BRANCH   1   3
HETATM    3  C6  UNL     1     -36.136  14.781  -5.720  1.00 20.00     0.246 C 
HETATM    4  C3  UNL     1     -35.361  14.364  -6.952  1.00 20.00     0.064 C 
HETATM    5  C4  UNL     1     -34.276  15.418  -7.039  1.00 20.00     0.170 C 
HETATM    6  O10 UNL     1     -34.823  16.619  -6.475  1.00 20.00    -0.389 OA
HETATM    7  C5  UNL     1     -36.058  16.296  -5.814  1.00 20.00     0.203 C 
ENDBRANCH   1   3
BRANCH   1   8
HETATM    8  C8  UNL     1     -35.826  15.150  -3.359  1.00 20.00     0.303 C 
BRANCH   8   9
HETATM    9  C2  UNL     1     -34.578  15.631  -2.675  1.00 20.00    -0.066 C 
HETATM   10  C1  UNL     1     -34.629  16.310  -1.519  1.00 20.00     0.015 C 
HETATM   11  C7  UNL     1     -33.272  15.353  -3.363  1.00 20.00     0.044 C 
ENDBRANCH   8   9
ENDBRANCH   1   8
TORSDOF 3
ENDMDL
MODEL 7
REMARK VINA RESULT:      -3.7      9.839     11.547
REMARK  3 active torsions:
REMARK  status: ('A' for Active; 'I' for Inactive)
REMARK    1  A    between atoms: C2_2  and  C8_8 
REMARK    2  A    between atoms: C6_6  and  N9_9 
REMARK    3  A    between atoms: C8_8  and  N9_9 
ROOT
HETATM    1  N9  UNL     1     -41.552   3.594  -1.989  1.00 20.00     0.094 N 
HETATM    2  H25 UNL     1     -41.083   4.053  -2.773  1.00 20.00     0.316 HD
ENDROOT
BRANCH   1   3
HETATM    3  C6  UNL     1     -41.954   4.597  -1.004  1.00 20.00     0.246 C 
HETATM    4  C3  UNL     1     -42.916   5.596  -1.610  1.00 20.00     0.064 C 
HETATM    5  C4  UNL     1     -41.993   6.555  -2.334  1.00 20.00     0.170 C 
HETATM    6  O10 UNL     1     -40.758   6.567  -1.604  1.00 20.00    -0.389 OA
HETATM    7  C5  UNL     1     -40.776   5.489  -0.653  1.00 20.00     0.203 C 
ENDBRANCH   1   3
BRANCH   1   8
HETATM    8  C8  UNL     1     -42.706   2.860  -2.495  1.00 20.00     0.303 C 
BRANCH   8   9
HETATM    9  C2  UNL     1     -42.247   1.634  -3.232  1.00 20.00    -0.066 C 
HETATM   10  C1  UNL     1     -41.210   1.674  -4.083  1.00 20.00     0.015 C 
HETATM   11  C7  UNL     1     -43.024   0.369  -3.004  1.00 20.00     0.044 C 
ENDBRANCH   8   9
ENDBRANCH   1   8
TORSDOF 3
ENDMDL
MODEL 8
REMARK VINA RESULT:      -3.6     11.534     12.553
REMARK  3 active torsions:
REMARK  status: ('A' for Active; 'I' for Inactive)
REMARK    1  A    between atoms: C2_2  and  C8_8 
REMARK    2  A    between atoms: C6_6  and  N9_9 
REMARK    3  A    between atoms: C8_8  and  N9_9 
ROOT
HETATM    1  N9  UNL     1     -36.279  15.381  -2.969  1.00 20.00     0.094 N 
HETATM    2  H25 UNL     1     -37.251  15.135  -2.769  1.00 20.00     0.316 HD
ENDROOT
BRANCH   1   3
HETATM    3  C6  UNL     1     -35.902  14.858  -4.280  1.00 20.00     0.246 C 
HETATM    4  C3  UNL     1     -35.262  13.492  -4.155  1.00 20.00     0.064 C 
HETATM    5  C4  UNL     1     -33.832  13.823  -3.782  1.00 20.00     0.170 C 
HETATM    6  O10 UNL     1     -33.534  15.093  -4.381  1.00 20.00    -0.389 OA
HETATM    7  C5  UNL     1     -34.758  15.673  -4.861  1.00 20.00     0.203 C 
ENDBRANCH   1   3
BRANCH   1   8
HETATM    8  C8  UNL     1     -36.140  16.833  -2.920  1.00 20.00     0.303 C 
BRANCH   8   9
HETATM    9  C2  UNL     1     -35.526  17.241  -1.611  1.00 20.00    -0.066 C 
HETATM   10  C1  UNL     1     -34.502  16.561  -1.075  1.00 20.00     0.015 C 
HETATM   11  C7  UNL     1     -36.136  18.421  -0.909  1.00 20.00     0.044 C 
ENDBRANCH   8   9
ENDBRANCH   1   8
TORSDOF 3
ENDMDL
MODEL 9
REMARK VINA RESULT:      -3.6      2.081      4.439
REMARK  3 active torsions:
REMARK  status: ('A' for Active; 'I' for Inactive)
REMARK    1  A    between atoms: C2_2  and  C8_8 
REMARK    2  A    between atoms: C6_6  and  N9_9 
REMARK    3  A    between atoms: C8_8  and  N9_9 
ROOT
HETATM    1  N9  UNL     1     -34.192   6.745   3.696  1.00 20.00     0.094 N 
HETATM    2  H25 UNL     1     -33.795   7.193   4.525  1.00 20.00     0.316 HD
ENDROOT
BRANCH   1   3
HETATM    3  C6  UNL     1     -33.146   6.555   2.694  1.00 20.00     0.246 C 
HETATM    4  C3  UNL     1     -31.853   6.105   3.340  1.00 20.00     0.064 C 
HETATM    5  C4  UNL     1     -31.256   7.405   3.838  1.00 20.00     0.170 C 
HETATM    6  O10 UNL     1     -31.703   8.433   2.942  1.00 20.00    -0.389 OA
HETATM    7  C5  UNL     1     -32.736   7.892   2.102  1.00 20.00     0.203 C 
ENDBRANCH   1   3
BRANCH   1   8
HETATM    8  C8  UNL     1     -34.786   5.471   4.087  1.00 20.00     0.303 C 
BRANCH   8   9
HETATM    9  C2  UNL     1     -34.656   5.284   5.572  1.00 20.00    -0.066 C 
HETATM   10  C1  UNL     1     -35.074   4.160   6.176  1.00 20.00     0.015 C 
HETATM   11  C7  UNL     1     -34.075   6.425   6.357  1.00 20.00     0.044 C 
ENDBRANCH   8   9
ENDBRANCH   1   8
TORSDOF 3
ENDMDL
