MODEL 1
REMARK VINA RESULT:      -4.7      0.000      0.000
REMARK  2 active torsions:
REMARK  status: ('A' for Active; 'I' for Inactive)
REMARK    1  A    between atoms: C4_4  and  C10_10 
REMARK    2  A    between atoms: C10_10  and  C11_11 
ROOT
HETATM    1  C1  UNL     1     -35.113  18.052  -2.870  1.00 20.00     0.007 C 
HETATM    2  C2  UNL     1     -35.460  18.521  -1.456  1.00 20.00     0.009 C 
HETATM    3  C3  UNL     1     -34.591  16.315  -1.237  1.00 20.00     0.015 C 
HETATM    4  C4  UNL     1     -34.457  16.672  -2.721  1.00 20.00     0.005 C 
HETATM    5  C5  UNL     1     -34.599  17.669  -0.513  1.00 20.00    -0.047 C 
HETATM    6  C6  UNL     1     -35.227  17.557   0.877  1.00 20.00     0.015 C 
HETATM    7  C7  UNL     1     -33.181  18.248  -0.381  1.00 20.00     0.015 C 
ENDROOT
BRANCH   4   8
HETATM    8  C10 UNL     1     -35.071  15.620  -3.633  1.00 20.00     0.089 C 
HETATM    9 CL12 UNL     1     -36.830  15.510  -3.296  1.00 20.00    -0.124 Cl
BRANCH   8  10
HETATM   10  C11 UNL     1     -34.368  14.243  -3.540  1.00 20.00    -0.004 C 
HETATM   11  C8  UNL     1     -34.885  13.208  -4.544  1.00 20.00     0.011 C 
HETATM   12  C9  UNL     1     -32.845  14.368  -3.665  1.00 20.00     0.011 C 
ENDBRANCH   8  10
ENDBRANCH   4   8
TORSDOF 2
ENDMDL
MODEL 2
REMARK VINA RESULT:      -4.7      1.591      2.015
REMARK  2 active torsions:
REMARK  status: ('A' for Active; 'I' for Inactive)
REMARK    1  A    between atoms: C4_4  and  C10_10 
REMARK    2  A    between atoms: C10_10  and  C11_11 
ROOT
HETATM    1  C1  UNL     1     -33.953  17.196  -3.463  1.00 20.00     0.007 C 
HETATM    2  C2  UNL     1     -34.625  18.292  -2.633  1.00 20.00     0.009 C 
HETATM    3  C3  UNL     1     -34.656  16.322  -1.295  1.00 20.00     0.015 C 
HETATM    4  C4  UNL     1     -33.879  15.954  -2.564  1.00 20.00     0.005 C 
HETATM    5  C5  UNL     1     -34.493  17.844  -1.171  1.00 20.00    -0.047 C 
HETATM    6  C6  UNL     1     -35.588  18.454  -0.293  1.00 20.00     0.015 C 
HETATM    7  C7  UNL     1     -33.118  18.221  -0.596  1.00 20.00     0.015 C 
ENDROOT
BRANCH   4   8
HETATM    8  C10 UNL     1     -34.418  14.700  -3.236  1.00 20.00     0.089 C 
HETATM    9 CL12 UNL     1     -33.041  13.643  -3.689  1.00 20.00    -0.124 Cl
BRANCH   8  10
HETATM   10  C11 UNL     1     -35.346  15.002  -4.440  1.00 20.00    -0.004 C 
HETATM   11  C8  UNL     1     -34.935  14.300  -5.738  1.00 20.00     0.011 C 
HETATM   12  C9  UNL     1     -36.813  14.688  -4.125  1.00 20.00     0.011 C 
ENDBRANCH   8  10
ENDBRANCH   4   8
TORSDOF 2
ENDMDL
MODEL 3
REMARK VINA RESULT:      -4.6      1.730      4.921
REMARK  2 active torsions:
REMARK  status: ('A' for Active; 'I' for Inactive)
REMARK    1  A    between atoms: C4_4  and  C10_10 
REMARK    2  A    between atoms: C10_10  and  C11_11 
ROOT
HETATM    1  C1  UNL     1     -36.075  15.430  -3.138  1.00 20.00     0.007 C 
HETATM    2  C2  UNL     1     -36.146  14.943  -4.587  1.00 20.00     0.009 C 
HETATM    3  C3  UNL     1     -33.958  15.834  -4.285  1.00 20.00     0.015 C 
HETATM    4  C4  UNL     1     -34.634  15.910  -2.912  1.00 20.00     0.005 C 
HETATM    5  C5  UNL     1     -34.692  14.699  -5.014  1.00 20.00    -0.047 C 
HETATM    6  C6  UNL     1     -34.524  14.809  -6.532  1.00 20.00     0.015 C 
HETATM    7  C7  UNL     1     -34.200  13.318  -4.551  1.00 20.00     0.015 C 
ENDROOT
BRANCH   4   8
HETATM    8  C10 UNL     1     -34.560  17.300  -2.298  1.00 20.00     0.089 C 
HETATM    9 CL12 UNL     1     -33.725  18.400  -3.445  1.00 20.00    -0.124 Cl
BRANCH   8  10
HETATM   10  C11 UNL     1     -33.909  17.314  -0.892  1.00 20.00    -0.004 C 
HETATM   11  C8  UNL     1     -32.988  18.513  -0.642  1.00 20.00     0.011 C 
HETATM   12  C9  UNL     1     -34.956  17.226   0.224  1.00 20.00     0.011 C 
ENDBRANCH   8  10
ENDBRANCH   4   8
TORSDOF 2
ENDMDL
MODEL 4
REMARK VINA RESULT:      -4.6      1.076      1.134
REMARK  2 active torsions:
REMARK  status: ('A' for Active; 'I' for Inactive)
REMARK    1  A    between atoms: C4_4  and  C10_10 
REMARK    2  A    between atoms: C10_10  and  C11_11 
ROOT
HETATM    1  C1  UNL     1     -34.447  18.440  -2.962  1.00 20.00     0.007 C 
HETATM    2  C2  UNL     1     -35.029  18.743  -1.580  1.00 20.00     0.009 C 
HETATM    3  C3  UNL     1     -34.182  16.520  -1.480  1.00 20.00     0.015 C 
HETATM    4  C4  UNL     1     -33.809  17.047  -2.869  1.00 20.00     0.005 C 
HETATM    5  C5  UNL     1     -34.324  17.780  -0.614  1.00 20.00    -0.047 C 
HETATM    6  C6  UNL     1     -35.173  17.510   0.631  1.00 20.00     0.015 C 
HETATM    7  C7  UNL     1     -32.955  18.328  -0.182  1.00 20.00     0.015 C 
ENDROOT
BRANCH   4   8
HETATM    8  C10 UNL     1     -34.251  16.114  -3.987  1.00 20.00     0.089 C 
HETATM    9 CL12 UNL     1     -35.467  16.957  -5.003  1.00 20.00    -0.124 Cl
BRANCH   8  10
HETATM   10  C11 UNL     1     -34.763  14.744  -3.474  1.00 20.00    -0.004 C 
HETATM   11  C8  UNL     1     -36.194  14.410  -3.908  1.00 20.00     0.011 C 
HETATM   12  C9  UNL     1     -33.823  13.599  -3.867  1.00 20.00     0.011 C 
ENDBRANCH   8  10
ENDBRANCH   4   8
TORSDOF 2
ENDMDL
MODEL 5
REMARK VINA RESULT:      -4.6      1.977      2.822
REMARK  2 active torsions:
REMARK  status: ('A' for Active; 'I' for Inactive)
REMARK    1  A    between atoms: C4_4  and  C10_10 
REMARK    2  A    between atoms: C10_10  and  C11_11 
ROOT
HETATM    1  C1  UNL     1     -33.528  15.675  -3.270  1.00 20.00     0.007 C 
HETATM    2  C2  UNL     1     -33.628  17.130  -2.806  1.00 20.00     0.009 C 
HETATM    3  C3  UNL     1     -35.844  16.259  -2.766  1.00 20.00     0.015 C 
HETATM    4  C4  UNL     1     -34.939  15.082  -3.146  1.00 20.00     0.005 C 
HETATM    5  C5  UNL     1     -34.927  17.217  -1.992  1.00 20.00    -0.047 C 
HETATM    6  C6  UNL     1     -35.489  18.641  -1.979  1.00 20.00     0.015 C 
HETATM    7  C7  UNL     1     -34.709  16.748  -0.545  1.00 20.00     0.015 C 
ENDROOT
BRANCH   4   8
HETATM    8  C10 UNL     1     -35.400  14.374  -4.411  1.00 20.00     0.089 C 
HETATM    9 CL12 UNL     1     -34.289  13.006  -4.752  1.00 20.00    -0.124 Cl
BRANCH   8  10
HETATM   10  C11 UNL     1     -35.548  15.326  -5.625  1.00 20.00    -0.004 C 
HETATM   11  C8  UNL     1     -34.527  15.080  -6.741  1.00 20.00     0.011 C 
HETATM   12  C9  UNL     1     -36.966  15.296  -6.206  1.00 20.00     0.011 C 
ENDBRANCH   8  10
ENDBRANCH   4   8
TORSDOF 2
ENDMDL
MODEL 6
REMARK VINA RESULT:      -4.6      1.510      4.537
REMARK  2 active torsions:
REMARK  status: ('A' for Active; 'I' for Inactive)
REMARK    1  A    between atoms: C4_4  and  C10_10 
REMARK    2  A    between atoms: C10_10  and  C11_11 
ROOT
HETATM    1  C1  UNL     1     -35.063  16.935  -4.204  1.00 20.00     0.007 C 
HETATM    2  C2  UNL     1     -34.099  15.842  -4.668  1.00 20.00     0.009 C 
HETATM    3  C3  UNL     1     -34.651  15.334  -2.408  1.00 20.00     0.015 C 
HETATM    4  C4  UNL     1     -35.500  16.553  -2.782  1.00 20.00     0.005 C 
HETATM    5  C5  UNL     1     -34.359  14.642  -3.747  1.00 20.00    -0.047 C 
HETATM    6  C6  UNL     1     -33.133  13.730  -3.650  1.00 20.00     0.015 C 
HETATM    7  C7  UNL     1     -35.562  13.818  -4.233  1.00 20.00     0.015 C 
ENDROOT
BRANCH   4   8
HETATM    8  C10 UNL     1     -35.354  17.696  -1.788  1.00 20.00     0.089 C 
HETATM    9 CL12 UNL     1     -34.863  19.178  -2.671  1.00 20.00    -0.124 Cl
BRANCH   8  10
HETATM   10  C11 UNL     1     -34.397  17.367  -0.614  1.00 20.00    -0.004 C 
HETATM   11  C8  UNL     1     -33.138  18.239  -0.571  1.00 20.00     0.011 C 
HETATM   12  C9  UNL     1     -35.111  17.423   0.741  1.00 20.00     0.011 C 
ENDBRANCH   8  10
ENDBRANCH   4   8
TORSDOF 2
ENDMDL
MODEL 7
REMARK VINA RESULT:      -4.5      1.883      4.801
REMARK  2 active torsions:
REMARK  status: ('A' for Active; 'I' for Inactive)
REMARK    1  A    between atoms: C4_4  and  C10_10 
REMARK    2  A    between atoms: C10_10  and  C11_11 
ROOT
HETATM    1  C1  UNL     1     -35.830  15.454  -3.048  1.00 20.00     0.007 C 
HETATM    2  C2  UNL     1     -35.980  15.169  -4.544  1.00 20.00     0.009 C 
HETATM    3  C3  UNL     1     -33.681  15.675  -4.185  1.00 20.00     0.015 C 
HETATM    4  C4  UNL     1     -34.332  15.679  -2.797  1.00 20.00     0.005 C 
HETATM    5  C5  UNL     1     -34.582  14.764  -5.031  1.00 20.00    -0.047 C 
HETATM    6  C6  UNL     1     -34.406  15.037  -6.527  1.00 20.00     0.015 C 
HETATM    7  C7  UNL     1     -34.305  13.278  -4.753  1.00 20.00     0.015 C 
ENDROOT
BRANCH   4   8
HETATM    8  C10 UNL     1     -34.044  16.955  -2.020  1.00 20.00     0.089 C 
HETATM    9 CL12 UNL     1     -34.680  16.777  -0.351  1.00 20.00    -0.124 Cl
BRANCH   8  10
HETATM   10  C11 UNL     1     -34.578  18.231  -2.719  1.00 20.00    -0.004 C 
HETATM   11  C8  UNL     1     -35.726  18.918  -1.973  1.00 20.00     0.011 C 
HETATM   12  C9  UNL     1     -33.460  19.244  -2.992  1.00 20.00     0.011 C 
ENDBRANCH   8  10
ENDBRANCH   4   8
TORSDOF 2
ENDMDL
MODEL 8
REMARK VINA RESULT:      -4.4      1.783      5.016
REMARK  2 active torsions:
REMARK  status: ('A' for Active; 'I' for Inactive)
REMARK    1  A    between atoms: C4_4  and  C10_10 
REMARK    2  A    between atoms: C10_10  and  C11_11 
ROOT
HETATM    1  C1  UNL     1     -34.394  14.087  -3.976  1.00 20.00     0.007 C 
HETATM    2  C2  UNL     1     -35.067  13.658  -5.282  1.00 20.00     0.009 C 
HETATM    3  C3  UNL     1     -35.622  15.952  -4.964  1.00 20.00     0.015 C 
HETATM    4  C4  UNL     1     -34.665  15.591  -3.823  1.00 20.00     0.005 C 
HETATM    5  C5  UNL     1     -35.287  14.951  -6.079  1.00 20.00    -0.047 C 
HETATM    6  C6  UNL     1     -36.444  14.811  -7.071  1.00 20.00     0.015 C 
HETATM    7  C7  UNL     1     -34.016  15.358  -6.842  1.00 20.00     0.015 C 
ENDROOT
BRANCH   4   8
HETATM    8  C10 UNL     1     -35.221  15.958  -2.455  1.00 20.00     0.089 C 
HETATM    9 CL12 UNL     1     -36.735  16.896  -2.672  1.00 20.00    -0.124 Cl
BRANCH   8  10
HETATM   10  C11 UNL     1     -34.197  16.697  -1.557  1.00 20.00    -0.004 C 
HETATM   11  C8  UNL     1     -33.631  17.979  -2.178  1.00 20.00     0.011 C 
HETATM   12  C9  UNL     1     -34.769  17.005  -0.168  1.00 20.00     0.011 C 
ENDBRANCH   8  10
ENDBRANCH   4   8
TORSDOF 2
ENDMDL
MODEL 9
REMARK VINA RESULT:      -4.3      1.723      2.429
REMARK  2 active torsions:
REMARK  status: ('A' for Active; 'I' for Inactive)
REMARK    1  A    between atoms: C4_4  and  C10_10 
REMARK    2  A    between atoms: C10_10  and  C11_11 
ROOT
HETATM    1  C1  UNL     1     -34.957  15.895  -1.973  1.00 20.00     0.007 C 
HETATM    2  C2  UNL     1     -34.356  16.810  -0.904  1.00 20.00     0.009 C 
HETATM    3  C3  UNL     1     -33.790  17.773  -3.008  1.00 20.00     0.015 C 
HETATM    4  C4  UNL     1     -34.683  16.569  -3.326  1.00 20.00     0.005 C 
HETATM    5  C5  UNL     1     -34.182  18.178  -1.579  1.00 20.00    -0.047 C 
HETATM    6  C6  UNL     1     -33.080  19.001  -0.909  1.00 20.00     0.015 C 
HETATM    7  C7  UNL     1     -35.494  18.979  -1.558  1.00 20.00     0.015 C 
ENDROOT
BRANCH   4   8
HETATM    8  C10 UNL     1     -34.055  15.627  -4.342  1.00 20.00     0.089 C 
HETATM    9 CL12 UNL     1     -33.193  16.597  -5.582  1.00 20.00    -0.124 Cl
BRANCH   8  10
HETATM   10  C11 UNL     1     -35.070  14.639  -4.970  1.00 20.00    -0.004 C 
HETATM   11  C8  UNL     1     -35.057  14.620  -6.502  1.00 20.00     0.011 C 
HETATM   12  C9  UNL     1     -34.890  13.215  -4.434  1.00 20.00     0.011 C 
ENDBRANCH   8  10
ENDBRANCH   4   8
TORSDOF 2
ENDMDL
