MODEL 1
REMARK VINA RESULT:      -5.6      0.000      0.000
REMARK  2 active torsions:
REMARK  status: ('A' for Active; 'I' for Inactive)
REMARK    1  A    between atoms: C3_3  and  C8_8 
REMARK    2  A    between atoms: C3_3  and  C9_9 
ROOT
HETATM    1  C1  UNL     1     -32.173   9.057   0.874  1.00 20.00     0.012 C 
HETATM    2  C2  UNL     1     -32.026   8.422   1.883  1.00 20.00    -0.110 C 
HETATM    3  C9  UNL     1     -31.839   7.650   3.116  1.00 20.00     0.172 C 
ENDROOT
BRANCH   3   4
HETATM    4  C3  UNL     1     -32.759   6.448   3.194  1.00 20.00     0.151 C 
HETATM    5  O10 UNL     1     -32.600   5.434   2.516  1.00 20.00    -0.296 OA
BRANCH   4   6
HETATM    6  C8  UNL     1     -33.895   6.554   4.161  1.00 20.00     0.117 C 
HETATM    7  C6  UNL     1     -33.397   6.368   5.597  1.00 20.00     0.023 C 
HETATM    8  C4  UNL     1     -34.505   5.967   6.564  1.00 20.00     0.002 C 
HETATM    9  C5  UNL     1     -35.061   4.568   6.288  1.00 20.00     0.010 C 
HETATM   10  C7  UNL     1     -34.877   4.059   4.861  1.00 20.00     0.075 C 
HETATM   11  S11 UNL     1     -35.165   5.354   3.628  1.00 20.00    -0.157 SA
ENDBRANCH   4   6
ENDBRANCH   3   4
TORSDOF 2
ENDMDL
MODEL 2
REMARK VINA RESULT:      -4.7     11.764     12.974
REMARK  2 active torsions:
REMARK  status: ('A' for Active; 'I' for Inactive)
REMARK    1  A    between atoms: C3_3  and  C8_8 
REMARK    2  A    between atoms: C3_3  and  C9_9 
ROOT
HETATM    1  C1  UNL     1     -34.763  17.380   0.191  1.00 20.00     0.012 C 
HETATM    2  C2  UNL     1     -34.624  16.733  -0.810  1.00 20.00    -0.110 C 
HETATM    3  C9  UNL     1     -34.457  15.934  -2.029  1.00 20.00     0.172 C 
ENDROOT
BRANCH   3   4
HETATM    4  C3  UNL     1     -33.828  16.723  -3.159  1.00 20.00     0.151 C 
HETATM    5  O10 UNL     1     -33.651  17.940  -3.113  1.00 20.00    -0.296 OA
BRANCH   4   6
HETATM    6  C8  UNL     1     -33.419  15.934  -4.362  1.00 20.00     0.117 C 
HETATM    7  C6  UNL     1     -34.067  16.508  -5.626  1.00 20.00     0.023 C 
HETATM    8  C4  UNL     1     -34.117  15.508  -6.775  1.00 20.00     0.002 C 
HETATM    9  C5  UNL     1     -35.055  14.331  -6.502  1.00 20.00     0.010 C 
HETATM   10  C7  UNL     1     -35.318  14.030  -5.029  1.00 20.00     0.075 C 
HETATM   11  S11 UNL     1     -33.823  14.187  -4.019  1.00 20.00    -0.157 SA
ENDBRANCH   4   6
ENDBRANCH   3   4
TORSDOF 2
ENDMDL
MODEL 3
REMARK VINA RESULT:      -4.7     11.248     12.496
REMARK  2 active torsions:
REMARK  status: ('A' for Active; 'I' for Inactive)
REMARK    1  A    between atoms: C3_3  and  C8_8 
REMARK    2  A    between atoms: C3_3  and  C9_9 
ROOT
HETATM    1  C1  UNL     1     -35.089  14.785  -7.807  1.00 20.00     0.012 C 
HETATM    2  C2  UNL     1     -35.504  14.703  -6.684  1.00 20.00    -0.110 C 
HETATM    3  C9  UNL     1     -36.017  14.611  -5.313  1.00 20.00     0.172 C 
ENDROOT
BRANCH   3   4
HETATM    4  C3  UNL     1     -35.129  13.772  -4.415  1.00 20.00     0.151 C 
HETATM    5  O10 UNL     1     -34.936  12.570  -4.594  1.00 20.00    -0.296 OA
BRANCH   4   6
HETATM    6  C8  UNL     1     -34.481  14.492  -3.276  1.00 20.00     0.117 C 
HETATM    7  C6  UNL     1     -35.459  15.485  -2.643  1.00 20.00     0.023 C 
HETATM    8  C4  UNL     1     -34.762  16.579  -1.843  1.00 20.00     0.002 C 
HETATM    9  C5  UNL     1     -33.942  17.529  -2.719  1.00 20.00     0.010 C 
HETATM   10  C7  UNL     1     -33.486  16.957  -4.058  1.00 20.00     0.075 C 
HETATM   11  S11 UNL     1     -32.942  15.235  -3.918  1.00 20.00    -0.157 SA
ENDBRANCH   4   6
ENDBRANCH   3   4
TORSDOF 2
ENDMDL
MODEL 4
REMARK VINA RESULT:      -4.7     11.601     13.356
REMARK  2 active torsions:
REMARK  status: ('A' for Active; 'I' for Inactive)
REMARK    1  A    between atoms: C3_3  and  C8_8 
REMARK    2  A    between atoms: C3_3  and  C9_9 
ROOT
HETATM    1  C1  UNL     1     -34.596  16.023  -2.013  1.00 20.00     0.012 C 
HETATM    2  C2  UNL     1     -34.151  15.361  -2.910  1.00 20.00    -0.110 C 
HETATM    3  C9  UNL     1     -33.600  14.556  -4.006  1.00 20.00     0.172 C 
ENDROOT
BRANCH   3   4
HETATM    4  C3  UNL     1     -34.663  13.757  -4.732  1.00 20.00     0.151 C 
HETATM    5  O10 UNL     1     -35.075  12.668  -4.335  1.00 20.00    -0.296 OA
BRANCH   4   6
HETATM    6  C8  UNL     1     -35.204  14.371  -5.985  1.00 20.00     0.117 C 
HETATM    7  C6  UNL     1     -34.163  15.295  -6.623  1.00 20.00     0.023 C 
HETATM    8  C4  UNL     1     -34.776  16.312  -7.577  1.00 20.00     0.002 C 
HETATM    9  C5  UNL     1     -35.653  17.345  -6.866  1.00 20.00     0.010 C 
HETATM   10  C7  UNL     1     -36.228  16.904  -5.523  1.00 20.00     0.075 C 
HETATM   11  S11 UNL     1     -36.781  15.179  -5.547  1.00 20.00    -0.157 SA
ENDBRANCH   4   6
ENDBRANCH   3   4
TORSDOF 2
ENDMDL
MODEL 5
REMARK VINA RESULT:      -4.6     11.502     12.267
REMARK  2 active torsions:
REMARK  status: ('A' for Active; 'I' for Inactive)
REMARK    1  A    between atoms: C3_3  and  C8_8 
REMARK    2  A    between atoms: C3_3  and  C9_9 
ROOT
HETATM    1  C1  UNL     1     -34.389  18.233   1.104  1.00 20.00     0.012 C 
HETATM    2  C2  UNL     1     -34.528  17.464   0.193  1.00 20.00    -0.110 C 
HETATM    3  C9  UNL     1     -34.699  16.517  -0.914  1.00 20.00     0.172 C 
ENDROOT
BRANCH   3   4
HETATM    4  C3  UNL     1     -34.272  17.098  -2.247  1.00 20.00     0.151 C 
HETATM    5  O10 UNL     1     -33.537  18.079  -2.349  1.00 20.00    -0.296 OA
BRANCH   4   6
HETATM    6  C8  UNL     1     -34.796  16.404  -3.464  1.00 20.00     0.117 C 
HETATM    7  C6  UNL     1     -35.914  15.428  -3.085  1.00 20.00     0.023 C 
HETATM    8  C4  UNL     1     -36.147  14.352  -4.139  1.00 20.00     0.002 C 
HETATM    9  C5  UNL     1     -34.972  13.379  -4.268  1.00 20.00     0.010 C 
HETATM   10  C7  UNL     1     -33.621  13.918  -3.809  1.00 20.00     0.075 C 
HETATM   11  S11 UNL     1     -33.365  15.642  -4.304  1.00 20.00    -0.157 SA
ENDBRANCH   4   6
ENDBRANCH   3   4
TORSDOF 2
ENDMDL
MODEL 6
REMARK VINA RESULT:      -4.6     11.372     12.723
REMARK  2 active torsions:
REMARK  status: ('A' for Active; 'I' for Inactive)
REMARK    1  A    between atoms: C3_3  and  C8_8 
REMARK    2  A    between atoms: C3_3  and  C9_9 
ROOT
HETATM    1  C1  UNL     1     -34.108  16.595  -1.656  1.00 20.00     0.012 C 
HETATM    2  C2  UNL     1     -33.723  16.118  -2.689  1.00 20.00    -0.110 C 
HETATM    3  C9  UNL     1     -33.251  15.544  -3.953  1.00 20.00     0.172 C 
ENDROOT
BRANCH   3   4
HETATM    4  C3  UNL     1     -33.696  14.108  -4.142  1.00 20.00     0.151 C 
HETATM    5  O10 UNL     1     -33.197  13.163  -3.532  1.00 20.00    -0.296 OA
BRANCH   4   6
HETATM    6  C8  UNL     1     -34.800  13.887  -5.127  1.00 20.00     0.117 C 
HETATM    7  C6  UNL     1     -34.546  14.689  -6.406  1.00 20.00     0.023 C 
HETATM    8  C4  UNL     1     -35.811  14.920  -7.224  1.00 20.00     0.002 C 
HETATM    9  C5  UNL     1     -36.816  15.839  -6.525  1.00 20.00     0.010 C 
HETATM   10  C7  UNL     1     -36.697  15.903  -5.005  1.00 20.00     0.075 C 
HETATM   11  S11 UNL     1     -36.366  14.280  -4.273  1.00 20.00    -0.157 SA
ENDBRANCH   4   6
ENDBRANCH   3   4
TORSDOF 2
ENDMDL
MODEL 7
REMARK VINA RESULT:      -4.5     11.689     12.538
REMARK  2 active torsions:
REMARK  status: ('A' for Active; 'I' for Inactive)
REMARK    1  A    between atoms: C3_3  and  C8_8 
REMARK    2  A    between atoms: C3_3  and  C9_9 
ROOT
HETATM    1  C1  UNL     1     -34.985  17.426   0.668  1.00 20.00     0.012 C 
HETATM    2  C2  UNL     1     -34.776  16.958  -0.417  1.00 20.00    -0.110 C 
HETATM    3  C9  UNL     1     -34.511  16.386  -1.742  1.00 20.00     0.172 C 
ENDROOT
BRANCH   3   4
HETATM    4  C3  UNL     1     -35.742  16.376  -2.627  1.00 20.00     0.151 C 
HETATM    5  O10 UNL     1     -36.489  17.345  -2.751  1.00 20.00    -0.296 OA
BRANCH   4   6
HETATM    6  C8  UNL     1     -36.010  15.102  -3.362  1.00 20.00     0.117 C 
HETATM    7  C6  UNL     1     -34.712  14.316  -3.567  1.00 20.00     0.023 C 
HETATM    8  C4  UNL     1     -34.803  13.302  -4.700  1.00 20.00     0.002 C 
HETATM    9  C5  UNL     1     -34.942  13.955  -6.077  1.00 20.00     0.010 C 
HETATM   10  C7  UNL     1     -35.523  15.366  -6.077  1.00 20.00     0.075 C 
HETATM   11  S11 UNL     1     -36.888  15.546  -4.900  1.00 20.00    -0.157 SA
ENDBRANCH   4   6
ENDBRANCH   3   4
TORSDOF 2
ENDMDL
MODEL 8
REMARK VINA RESULT:      -4.5     11.378     12.582
REMARK  2 active torsions:
REMARK  status: ('A' for Active; 'I' for Inactive)
REMARK    1  A    between atoms: C3_3  and  C8_8 
REMARK    2  A    between atoms: C3_3  and  C9_9 
ROOT
HETATM    1  C1  UNL     1     -37.173  15.680  -6.336  1.00 20.00     0.012 C 
HETATM    2  C2  UNL     1     -36.937  15.139  -5.290  1.00 20.00    -0.110 C 
HETATM    3  C9  UNL     1     -36.657  14.482  -4.009  1.00 20.00     0.172 C 
ENDROOT
BRANCH   3   4
HETATM    4  C3  UNL     1     -35.261  13.894  -3.950  1.00 20.00     0.151 C 
HETATM    5  O10 UNL     1     -34.969  12.803  -4.439  1.00 20.00    -0.296 OA
BRANCH   4   6
HETATM    6  C8  UNL     1     -34.228  14.724  -3.256  1.00 20.00     0.117 C 
HETATM    7  C6  UNL     1     -34.883  15.633  -2.212  1.00 20.00     0.023 C 
HETATM    8  C4  UNL     1     -34.013  16.825  -1.833  1.00 20.00     0.002 C 
HETATM    9  C5  UNL     1     -33.831  17.821  -2.981  1.00 20.00     0.010 C 
HETATM   10  C7  UNL     1     -34.018  17.247  -4.382  1.00 20.00     0.075 C 
HETATM   11  S11 UNL     1     -33.285  15.599  -4.552  1.00 20.00    -0.157 SA
ENDBRANCH   4   6
ENDBRANCH   3   4
TORSDOF 2
ENDMDL
MODEL 9
REMARK VINA RESULT:      -4.4     11.548     13.116
REMARK  2 active torsions:
REMARK  status: ('A' for Active; 'I' for Inactive)
REMARK    1  A    between atoms: C3_3  and  C8_8 
REMARK    2  A    between atoms: C3_3  and  C9_9 
ROOT
HETATM    1  C1  UNL     1     -34.059  16.465  -2.117  1.00 20.00     0.012 C 
HETATM    2  C2  UNL     1     -33.761  15.524  -2.800  1.00 20.00    -0.110 C 
HETATM    3  C9  UNL     1     -33.388  14.376  -3.632  1.00 20.00     0.172 C 
ENDROOT
BRANCH   3   4
HETATM    4  C3  UNL     1     -34.500  13.952  -4.571  1.00 20.00     0.151 C 
HETATM    5  O10 UNL     1     -34.825  12.778  -4.743  1.00 20.00    -0.296 OA
BRANCH   4   6
HETATM    6  C8  UNL     1     -35.203  15.056  -5.294  1.00 20.00     0.117 C 
HETATM    7  C6  UNL     1     -36.717  14.827  -5.283  1.00 20.00     0.023 C 
HETATM    8  C4  UNL     1     -37.443  15.591  -6.383  1.00 20.00     0.002 C 
HETATM    9  C5  UNL     1     -37.105  15.084  -7.786  1.00 20.00     0.010 C 
HETATM   10  C7  UNL     1     -35.766  14.363  -7.918  1.00 20.00     0.075 C 
HETATM   11  S11 UNL     1     -34.457  15.167  -6.957  1.00 20.00    -0.157 SA
ENDBRANCH   4   6
ENDBRANCH   3   4
TORSDOF 2
ENDMDL
