MODEL 1
REMARK VINA RESULT:      -3.6      0.000      0.000
REMARK  4 active torsions:
REMARK  status: ('A' for Active; 'I' for Inactive)
REMARK    1  A    between atoms: C3_3  and  C5_5 
REMARK    2  A    between atoms: C3_3  and  N7_7 
REMARK    3  A    between atoms: C4_4  and  C6_6 
REMARK    4  A    between atoms: C4_4  and  N7_7 
ROOT
HETATM    1  C2  UNL     1     -32.227   5.419   2.937  1.00 20.00     0.310 C 
HETATM    2  N7  UNL     1     -32.872   6.716   3.145  1.00 20.00     0.087 N 
ENDROOT
BRANCH   2   3
HETATM    3  C3  UNL     1     -31.907   7.800   2.971  1.00 20.00     0.303 C 
BRANCH   3   4
HETATM    4  C5  UNL     1     -32.208   8.617   1.732  1.00 20.00     0.252 C 
HETATM    5  F8  UNL     1     -31.252   8.371   0.797  1.00 20.00    -0.254 F 
ENDBRANCH   3   4
ENDBRANCH   2   3
BRANCH   2   6
HETATM    6  C4  UNL     1     -33.476   6.777   4.475  1.00 20.00     0.291 C 
BRANCH   6   7
HETATM    7  C6  UNL     1     -34.212   5.484   4.831  1.00 20.00     0.106 C 
HETATM    8  C1  UNL     1     -34.534   5.364   6.315  1.00 20.00     0.028 C 
HETATM    9 CL9  UNL     1     -35.719   5.328   3.876  1.00 20.00    -0.124 Cl
ENDBRANCH   6   7
ENDBRANCH   2   6
TORSDOF 4
ENDMDL
MODEL 2
REMARK VINA RESULT:      -3.4     11.023     11.561
REMARK  4 active torsions:
REMARK  status: ('A' for Active; 'I' for Inactive)
REMARK    1  A    between atoms: C3_3  and  C5_5 
REMARK    2  A    between atoms: C3_3  and  N7_7 
REMARK    3  A    between atoms: C4_4  and  C6_6 
REMARK    4  A    between atoms: C4_4  and  N7_7 
ROOT
HETATM    1  C2  UNL     1     -33.992  15.752  -5.559  1.00 20.00     0.310 C 
HETATM    2  N7  UNL     1     -33.299  15.537  -4.288  1.00 20.00     0.087 N 
ENDROOT
BRANCH   2   3
HETATM    3  C3  UNL     1     -33.571  14.194  -3.778  1.00 20.00     0.303 C 
BRANCH   3   4
HETATM    4  C5  UNL     1     -34.370  13.375  -4.770  1.00 20.00     0.252 C 
HETATM    5  F8  UNL     1     -35.537  12.990  -4.187  1.00 20.00    -0.254 F 
ENDBRANCH   3   4
ENDBRANCH   2   3
BRANCH   2   6
HETATM    6  C4  UNL     1     -33.703  16.547  -3.310  1.00 20.00     0.291 C 
BRANCH   6   7
HETATM    7  C6  UNL     1     -34.745  16.009  -2.328  1.00 20.00     0.106 C 
HETATM    8  C1  UNL     1     -34.607  16.592  -0.927  1.00 20.00     0.028 C 
HETATM    9 CL9  UNL     1     -36.403  16.299  -2.939  1.00 20.00    -0.124 Cl
ENDBRANCH   6   7
ENDBRANCH   2   6
TORSDOF 4
ENDMDL
MODEL 3
REMARK VINA RESULT:      -3.4      1.678      1.681
REMARK  4 active torsions:
REMARK  status: ('A' for Active; 'I' for Inactive)
REMARK    1  A    between atoms: C3_3  and  C5_5 
REMARK    2  A    between atoms: C3_3  and  N7_7 
REMARK    3  A    between atoms: C4_4  and  C6_6 
REMARK    4  A    between atoms: C4_4  and  N7_7 
ROOT
HETATM    1  C2  UNL     1     -34.180   5.380   2.619  1.00 20.00     0.310 C 
HETATM    2  N7  UNL     1     -33.430   6.387   3.369  1.00 20.00     0.087 N 
ENDROOT
BRANCH   2   3
HETATM    3  C3  UNL     1     -32.186   6.719   2.676  1.00 20.00     0.303 C 
BRANCH   3   4
HETATM    4  C5  UNL     1     -32.161   8.171   2.247  1.00 20.00     0.252 C 
HETATM    5  F8  UNL     1     -31.451   8.279   1.092  1.00 20.00    -0.254 F 
ENDBRANCH   3   4
ENDBRANCH   2   3
BRANCH   2   6
HETATM    6  C4  UNL     1     -33.149   5.909   4.723  1.00 20.00     0.291 C 
BRANCH   6   7
HETATM    7  C6  UNL     1     -34.338   6.120   5.663  1.00 20.00     0.106 C 
HETATM    8  C1  UNL     1     -34.882   4.821   6.244  1.00 20.00     0.028 C 
HETATM    9 CL9  UNL     1     -33.905   7.238   6.993  1.00 20.00    -0.124 Cl
ENDBRANCH   6   7
ENDBRANCH   2   6
TORSDOF 4
ENDMDL
MODEL 4
REMARK VINA RESULT:      -3.4      1.654      1.980
REMARK  4 active torsions:
REMARK  status: ('A' for Active; 'I' for Inactive)
REMARK    1  A    between atoms: C3_3  and  C5_5 
REMARK    2  A    between atoms: C3_3  and  N7_7 
REMARK    3  A    between atoms: C4_4  and  C6_6 
REMARK    4  A    between atoms: C4_4  and  N7_7 
ROOT
HETATM    1  C2  UNL     1     -31.226   7.856   4.145  1.00 20.00     0.310 C 
HETATM    2  N7  UNL     1     -31.838   7.145   3.022  1.00 20.00     0.087 N 
ENDROOT
BRANCH   2   3
HETATM    3  C3  UNL     1     -32.709   8.042   2.263  1.00 20.00     0.303 C 
BRANCH   3   4
HETATM    4  C5  UNL     1     -31.943   8.775   1.182  1.00 20.00     0.252 C 
HETATM    5  F8  UNL     1     -32.211  10.105   1.275  1.00 20.00    -0.254 F 
ENDBRANCH   3   4
ENDBRANCH   2   3
BRANCH   2   6
HETATM    6  C4  UNL     1     -32.590   5.986   3.501  1.00 20.00     0.291 C 
BRANCH   6   7
HETATM    7  C6  UNL     1     -33.952   6.383   4.074  1.00 20.00     0.106 C 
HETATM    8  C1  UNL     1     -35.086   5.478   3.610  1.00 20.00     0.028 C 
HETATM    9 CL9  UNL     1     -33.902   6.415   5.864  1.00 20.00    -0.124 Cl
ENDBRANCH   6   7
ENDBRANCH   2   6
TORSDOF 4
ENDMDL
MODEL 5
REMARK VINA RESULT:      -3.4     10.779     11.784
REMARK  4 active torsions:
REMARK  status: ('A' for Active; 'I' for Inactive)
REMARK    1  A    between atoms: C3_3  and  C5_5 
REMARK    2  A    between atoms: C3_3  and  N7_7 
REMARK    3  A    between atoms: C4_4  and  C6_6 
REMARK    4  A    between atoms: C4_4  and  N7_7 
ROOT
HETATM    1  C2  UNL     1     -33.369  16.519  -4.811  1.00 20.00     0.310 C 
HETATM    2  N7  UNL     1     -33.487  16.215  -3.385  1.00 20.00     0.087 N 
ENDROOT
BRANCH   2   3
HETATM    3  C3  UNL     1     -34.324  15.033  -3.181  1.00 20.00     0.303 C 
BRANCH   3   4
HETATM    4  C5  UNL     1     -33.779  13.833  -3.925  1.00 20.00     0.252 C 
HETATM    5  F8  UNL     1     -32.512  13.585  -3.496  1.00 20.00    -0.254 F 
ENDBRANCH   3   4
ENDBRANCH   2   3
BRANCH   2   6
HETATM    6  C4  UNL     1     -34.036  17.362  -2.662  1.00 20.00     0.291 C 
BRANCH   6   7
HETATM    7  C6  UNL     1     -33.553  17.410  -1.211  1.00 20.00     0.106 C 
HETATM    8  C1  UNL     1     -32.980  18.764  -0.813  1.00 20.00     0.028 C 
HETATM    9 CL9  UNL     1     -34.873  16.961  -0.088  1.00 20.00    -0.124 Cl
ENDBRANCH   6   7
ENDBRANCH   2   6
TORSDOF 4
ENDMDL
MODEL 6
REMARK VINA RESULT:      -3.4     11.118     11.896
REMARK  4 active torsions:
REMARK  status: ('A' for Active; 'I' for Inactive)
REMARK    1  A    between atoms: C3_3  and  C5_5 
REMARK    2  A    between atoms: C3_3  and  N7_7 
REMARK    3  A    between atoms: C4_4  and  C6_6 
REMARK    4  A    between atoms: C4_4  and  N7_7 
ROOT
HETATM    1  C2  UNL     1     -34.521  16.271  -1.697  1.00 20.00     0.310 C 
HETATM    2  N7  UNL     1     -34.500  15.987  -3.132  1.00 20.00     0.087 N 
ENDROOT
BRANCH   2   3
HETATM    3  C3  UNL     1     -34.695  17.216  -3.899  1.00 20.00     0.303 C 
BRANCH   3   4
HETATM    4  C5  UNL     1     -33.629  17.385  -4.960  1.00 20.00     0.252 C 
HETATM    5  F8  UNL     1     -32.727  16.373  -4.844  1.00 20.00    -0.254 F 
ENDBRANCH   3   4
ENDBRANCH   2   3
BRANCH   2   6
HETATM    6  C4  UNL     1     -35.526  15.002  -3.472  1.00 20.00     0.291 C 
BRANCH   6   7
HETATM    7  C6  UNL     1     -34.941  13.799  -4.213  1.00 20.00     0.106 C 
HETATM    8  C1  UNL     1     -35.012  13.934  -5.729  1.00 20.00     0.028 C 
HETATM    9 CL9  UNL     1     -33.246  13.508  -3.715  1.00 20.00    -0.124 Cl
ENDBRANCH   6   7
ENDBRANCH   2   6
TORSDOF 4
ENDMDL
MODEL 7
REMARK VINA RESULT:      -3.4     11.461     12.281
REMARK  4 active torsions:
REMARK  status: ('A' for Active; 'I' for Inactive)
REMARK    1  A    between atoms: C3_3  and  C5_5 
REMARK    2  A    between atoms: C3_3  and  N7_7 
REMARK    3  A    between atoms: C4_4  and  C6_6 
REMARK    4  A    between atoms: C4_4  and  N7_7 
ROOT
HETATM    1  C2  UNL     1     -33.353  16.897  -5.252  1.00 20.00     0.310 C 
HETATM    2  N7  UNL     1     -34.392  16.705  -4.240  1.00 20.00     0.087 N 
ENDROOT
BRANCH   2   3
HETATM    3  C3  UNL     1     -33.792  16.418  -2.938  1.00 20.00     0.303 C 
BRANCH   3   4
HETATM    4  C5  UNL     1     -34.839  16.022  -1.919  1.00 20.00     0.252 C 
HETATM    5  F8  UNL     1     -34.388  16.340  -0.676  1.00 20.00    -0.254 F 
ENDBRANCH   3   4
ENDBRANCH   2   3
BRANCH   2   6
HETATM    6  C4  UNL     1     -35.297  15.627  -4.636  1.00 20.00     0.291 C 
BRANCH   6   7
HETATM    7  C6  UNL     1     -34.578  14.543  -5.443  1.00 20.00     0.106 C 
HETATM    8  C1  UNL     1     -34.550  13.191  -4.741  1.00 20.00     0.028 C 
HETATM    9 CL9  UNL     1     -35.317  14.364  -7.064  1.00 20.00    -0.124 Cl
ENDBRANCH   6   7
ENDBRANCH   2   6
TORSDOF 4
ENDMDL
MODEL 8
REMARK VINA RESULT:      -3.3      3.254      4.690
REMARK  4 active torsions:
REMARK  status: ('A' for Active; 'I' for Inactive)
REMARK    1  A    between atoms: C3_3  and  C5_5 
REMARK    2  A    between atoms: C3_3  and  N7_7 
REMARK    3  A    between atoms: C4_4  and  C6_6 
REMARK    4  A    between atoms: C4_4  and  N7_7 
ROOT
HETATM    1  C2  UNL     1     -35.032   5.279   3.627  1.00 20.00     0.310 C 
HETATM    2  N7  UNL     1     -33.822   5.939   4.117  1.00 20.00     0.087 N 
ENDROOT
BRANCH   2   3
HETATM    3  C3  UNL     1     -33.934   6.214   5.549  1.00 20.00     0.303 C 
BRANCH   3   4
HETATM    4  C5  UNL     1     -34.789   5.177   6.248  1.00 20.00     0.252 C 
HETATM    5  F8  UNL     1     -34.050   4.051   6.438  1.00 20.00    -0.254 F 
ENDBRANCH   3   4
ENDBRANCH   2   3
BRANCH   2   6
HETATM    6  C4  UNL     1     -33.580   7.177   3.376  1.00 20.00     0.291 C 
BRANCH   6   7
HETATM    7  C6  UNL     1     -32.135   7.277   2.885  1.00 20.00     0.106 C 
HETATM    8  C1  UNL     1     -31.967   8.226   1.705  1.00 20.00     0.028 C 
HETATM    9 CL9  UNL     1     -31.045   7.773   4.215  1.00 20.00    -0.124 Cl
ENDBRANCH   6   7
ENDBRANCH   2   6
TORSDOF 4
ENDMDL
MODEL 9
REMARK VINA RESULT:      -3.3     11.274     12.321
REMARK  4 active torsions:
REMARK  status: ('A' for Active; 'I' for Inactive)
REMARK    1  A    between atoms: C3_3  and  C5_5 
REMARK    2  A    between atoms: C3_3  and  N7_7 
REMARK    3  A    between atoms: C4_4  and  C6_6 
REMARK    4  A    between atoms: C4_4  and  N7_7 
ROOT
HETATM    1  C2  UNL     1     -35.204  13.734  -4.046  1.00 20.00     0.310 C 
HETATM    2  N7  UNL     1     -34.340  14.677  -3.335  1.00 20.00     0.087 N 
ENDROOT
BRANCH   2   3
HETATM    3  C3  UNL     1     -35.142  15.691  -2.653  1.00 20.00     0.303 C 
BRANCH   3   4
HETATM    4  C5  UNL     1     -34.312  16.483  -1.665  1.00 20.00     0.252 C 
HETATM    5  F8  UNL     1     -34.785  16.259  -0.410  1.00 20.00    -0.254 F 
ENDBRANCH   3   4
ENDBRANCH   2   3
BRANCH   2   6
HETATM    6  C4  UNL     1     -33.400  15.306  -4.262  1.00 20.00     0.291 C 
BRANCH   6   7
HETATM    7  C6  UNL     1     -34.115  16.161  -5.310  1.00 20.00     0.106 C 
HETATM    8  C1  UNL     1     -33.555  17.574  -5.416  1.00 20.00     0.028 C 
HETATM    9 CL9  UNL     1     -34.062  15.372  -6.917  1.00 20.00    -0.124 Cl
ENDBRANCH   6   7
ENDBRANCH   2   6
TORSDOF 4
ENDMDL
