MODEL 1
REMARK VINA RESULT:      -5.1      0.000      0.000
REMARK  3 active torsions:
REMARK  status: ('A' for Active; 'I' for Inactive)
REMARK    1  A    between atoms: C3_3  and  C7_7 
REMARK    2  A    between atoms: C6_6  and  C8_8 
REMARK    3  A    between atoms: C7_7  and  C8_8 
ROOT
HETATM    1  C1  UNL     1     -32.205   8.366   1.735  1.00 20.00     0.012 C 
HETATM    2  C2  UNL     1     -32.200   7.603   2.662  1.00 20.00    -0.117 C 
HETATM    3  C6  UNL     1     -32.186   6.671   3.800  1.00 20.00     0.098 C 
ENDROOT
BRANCH   3   4
HETATM    4  C8  UNL     1     -33.361   5.670   3.797  1.00 20.00     0.006 C 
HETATM    5  C5  UNL     1     -34.040   5.643   2.418  1.00 20.00     0.011 C 
BRANCH   4   6
HETATM    6  C7  UNL     1     -34.401   5.915   4.917  1.00 20.00     0.087 C 
HETATM    7  C4  UNL     1     -33.823   6.640   6.134  1.00 20.00     0.021 C 
BRANCH   6   8
HETATM    8  C3  UNL     1     -34.975   4.604   5.493  1.00 20.00     0.177 C 
HETATM    9  O9  UNL     1     -35.116   3.652   4.675  1.00 20.00    -0.648 OA
HETATM   10  O10 UNL     1     -35.234   4.643   6.731  1.00 20.00    -0.648 OA
ENDBRANCH   6   8
ENDBRANCH   4   6
ENDBRANCH   3   4
TORSDOF 3
ENDMDL
MODEL 2
REMARK VINA RESULT:      -5.0     11.439     12.297
REMARK  3 active torsions:
REMARK  status: ('A' for Active; 'I' for Inactive)
REMARK    1  A    between atoms: C3_3  and  C7_7 
REMARK    2  A    between atoms: C6_6  and  C8_8 
REMARK    3  A    between atoms: C7_7  and  C8_8 
ROOT
HETATM    1  C1  UNL     1     -33.946  17.763  -0.260  1.00 20.00     0.012 C 
HETATM    2  C2  UNL     1     -34.376  16.922  -1.002  1.00 20.00    -0.117 C 
HETATM    3  C6  UNL     1     -34.909  15.891  -1.906  1.00 20.00     0.098 C 
ENDROOT
BRANCH   3   4
HETATM    4  C8  UNL     1     -34.070  15.695  -3.187  1.00 20.00     0.006 C 
HETATM    5  C5  UNL     1     -33.688  17.055  -3.793  1.00 20.00     0.011 C 
BRANCH   4   6
HETATM    6  C7  UNL     1     -34.740  14.789  -4.247  1.00 20.00     0.087 C 
HETATM    7  C4  UNL     1     -36.240  14.591  -4.016  1.00 20.00     0.021 C 
BRANCH   6   8
HETATM    8  C3  UNL     1     -34.165  13.357  -4.256  1.00 20.00     0.177 C 
HETATM    9  O9  UNL     1     -33.033  13.209  -3.716  1.00 20.00    -0.648 OA
HETATM   10  O10 UNL     1     -34.910  12.495  -4.806  1.00 20.00    -0.648 OA
ENDBRANCH   6   8
ENDBRANCH   4   6
ENDBRANCH   3   4
TORSDOF 3
ENDMDL
MODEL 3
REMARK VINA RESULT:      -4.9     11.631     12.332
REMARK  3 active torsions:
REMARK  status: ('A' for Active; 'I' for Inactive)
REMARK    1  A    between atoms: C3_3  and  C7_7 
REMARK    2  A    between atoms: C6_6  and  C8_8 
REMARK    3  A    between atoms: C7_7  and  C8_8 
ROOT
HETATM    1  C1  UNL     1     -34.766  16.969  -0.210  1.00 20.00     0.012 C 
HETATM    2  C2  UNL     1     -34.353  16.840  -1.331  1.00 20.00    -0.117 C 
HETATM    3  C6  UNL     1     -33.847  16.690  -2.704  1.00 20.00     0.098 C 
ENDROOT
BRANCH   3   4
HETATM    4  C8  UNL     1     -33.883  15.237  -3.223  1.00 20.00     0.006 C 
HETATM    5  C5  UNL     1     -32.468  14.765  -3.597  1.00 20.00     0.011 C 
BRANCH   4   6
HETATM    6  C7  UNL     1     -34.866  15.011  -4.397  1.00 20.00     0.087 C 
HETATM    7  C4  UNL     1     -35.904  16.126  -4.543  1.00 20.00     0.021 C 
BRANCH   6   8
HETATM    8  C3  UNL     1     -35.707  13.728  -4.230  1.00 20.00     0.177 C 
HETATM    9  O9  UNL     1     -35.107  12.637  -4.443  1.00 20.00    -0.648 OA
HETATM   10  O10 UNL     1     -36.909  13.928  -3.891  1.00 20.00    -0.648 OA
ENDBRANCH   6   8
ENDBRANCH   4   6
ENDBRANCH   3   4
TORSDOF 3
ENDMDL
MODEL 4
REMARK VINA RESULT:      -4.8      1.276      2.083
REMARK  3 active torsions:
REMARK  status: ('A' for Active; 'I' for Inactive)
REMARK    1  A    between atoms: C3_3  and  C7_7 
REMARK    2  A    between atoms: C6_6  and  C8_8 
REMARK    3  A    between atoms: C7_7  and  C8_8 
ROOT
HETATM    1  C1  UNL     1     -32.111   7.964   2.360  1.00 20.00     0.012 C 
HETATM    2  C2  UNL     1     -32.398   7.160   3.205  1.00 20.00    -0.117 C 
HETATM    3  C6  UNL     1     -32.746   6.171   4.236  1.00 20.00     0.098 C 
ENDROOT
BRANCH   3   4
HETATM    4  C8  UNL     1     -33.809   6.667   5.239  1.00 20.00     0.006 C 
HETATM    5  C5  UNL     1     -33.135   7.291   6.472  1.00 20.00     0.011 C 
BRANCH   4   6
HETATM    6  C7  UNL     1     -34.832   5.584   5.662  1.00 20.00     0.087 C 
HETATM    7  C4  UNL     1     -34.238   4.515   6.582  1.00 20.00     0.021 C 
BRANCH   6   8
HETATM    8  C3  UNL     1     -35.385   4.788   4.461  1.00 20.00     0.177 C 
HETATM    9  O9  UNL     1     -35.946   5.466   3.555  1.00 20.00    -0.648 OA
HETATM   10  O10 UNL     1     -35.201   3.538   4.530  1.00 20.00    -0.648 OA
ENDBRANCH   6   8
ENDBRANCH   4   6
ENDBRANCH   3   4
TORSDOF 3
ENDMDL
MODEL 5
REMARK VINA RESULT:      -4.8     11.293     12.610
REMARK  3 active torsions:
REMARK  status: ('A' for Active; 'I' for Inactive)
REMARK    1  A    between atoms: C3_3  and  C7_7 
REMARK    2  A    between atoms: C6_6  and  C8_8 
REMARK    3  A    between atoms: C7_7  and  C8_8 
ROOT
HETATM    1  C1  UNL     1     -34.438  16.470  -6.980  1.00 20.00     0.012 C 
HETATM    2  C2  UNL     1     -33.973  16.400  -5.875  1.00 20.00    -0.117 C 
HETATM    3  C6  UNL     1     -33.395  16.317  -4.525  1.00 20.00     0.098 C 
ENDROOT
BRANCH   3   4
HETATM    4  C8  UNL     1     -34.379  15.785  -3.461  1.00 20.00     0.006 C 
HETATM    5  C5  UNL     1     -34.161  16.504  -2.119  1.00 20.00     0.011 C 
BRANCH   4   6
HETATM    6  C7  UNL     1     -34.336  14.249  -3.274  1.00 20.00     0.087 C 
HETATM    7  C4  UNL     1     -32.977  13.634  -3.615  1.00 20.00     0.021 C 
BRANCH   6   8
HETATM    8  C3  UNL     1     -35.329  13.510  -4.195  1.00 20.00     0.177 C 
HETATM    9  O9  UNL     1     -34.845  12.586  -4.908  1.00 20.00    -0.648 OA
HETATM   10  O10 UNL     1     -36.522  13.923  -4.120  1.00 20.00    -0.648 OA
ENDBRANCH   6   8
ENDBRANCH   4   6
ENDBRANCH   3   4
TORSDOF 3
ENDMDL
MODEL 6
REMARK VINA RESULT:      -4.8     11.481     12.389
REMARK  3 active torsions:
REMARK  status: ('A' for Active; 'I' for Inactive)
REMARK    1  A    between atoms: C3_3  and  C7_7 
REMARK    2  A    between atoms: C6_6  and  C8_8 
REMARK    3  A    between atoms: C7_7  and  C8_8 
ROOT
HETATM    1  C1  UNL     1     -34.825  17.051  -0.093  1.00 20.00     0.012 C 
HETATM    2  C2  UNL     1     -34.339  16.876  -1.178  1.00 20.00    -0.117 C 
HETATM    3  C6  UNL     1     -33.739  16.667  -2.504  1.00 20.00     0.098 C 
ENDROOT
BRANCH   3   4
HETATM    4  C8  UNL     1     -34.597  15.791  -3.443  1.00 20.00     0.006 C 
HETATM    5  C5  UNL     1     -36.077  15.853  -3.031  1.00 20.00     0.011 C 
BRANCH   4   6
HETATM    6  C7  UNL     1     -34.117  14.324  -3.549  1.00 20.00     0.087 C 
HETATM    7  C4  UNL     1     -32.595  14.177  -3.487  1.00 20.00     0.021 C 
BRANCH   6   8
HETATM    8  C3  UNL     1     -34.507  13.667  -4.890  1.00 20.00     0.177 C 
HETATM    9  O9  UNL     1     -34.886  12.463  -4.830  1.00 20.00    -0.648 OA
HETATM   10  O10 UNL     1     -34.403  14.426  -5.897  1.00 20.00    -0.648 OA
ENDBRANCH   6   8
ENDBRANCH   4   6
ENDBRANCH   3   4
TORSDOF 3
ENDMDL
MODEL 7
REMARK VINA RESULT:      -4.7     11.541     12.598
REMARK  3 active torsions:
REMARK  status: ('A' for Active; 'I' for Inactive)
REMARK    1  A    between atoms: C3_3  and  C7_7 
REMARK    2  A    between atoms: C6_6  and  C8_8 
REMARK    3  A    between atoms: C7_7  and  C8_8 
ROOT
HETATM    1  C1  UNL     1     -34.742  16.942  -0.402  1.00 20.00     0.012 C 
HETATM    2  C2  UNL     1     -34.342  16.527  -1.456  1.00 20.00    -0.117 C 
HETATM    3  C6  UNL     1     -33.847  16.024  -2.746  1.00 20.00     0.098 C 
ENDROOT
BRANCH   3   4
HETATM    4  C8  UNL     1     -34.599  14.776  -3.256  1.00 20.00     0.006 C 
HETATM    5  C5  UNL     1     -33.605  13.733  -3.794  1.00 20.00     0.011 C 
BRANCH   4   6
HETATM    6  C7  UNL     1     -35.694  15.085  -4.306  1.00 20.00     0.087 C 
HETATM    7  C4  UNL     1     -35.482  16.416  -5.031  1.00 20.00     0.021 C 
BRANCH   6   8
HETATM    8  C3  UNL     1     -37.098  15.213  -3.680  1.00 20.00     0.177 C 
HETATM    9  O9  UNL     1     -37.391  16.342  -3.196  1.00 20.00    -0.648 OA
HETATM   10  O10 UNL     1     -37.795  14.158  -3.733  1.00 20.00    -0.648 OA
ENDBRANCH   6   8
ENDBRANCH   4   6
ENDBRANCH   3   4
TORSDOF 3
ENDMDL
MODEL 8
REMARK VINA RESULT:      -4.7      2.867      4.440
REMARK  3 active torsions:
REMARK  status: ('A' for Active; 'I' for Inactive)
REMARK    1  A    between atoms: C3_3  and  C7_7 
REMARK    2  A    between atoms: C6_6  and  C8_8 
REMARK    3  A    between atoms: C7_7  and  C8_8 
ROOT
HETATM    1  C1  UNL     1     -35.176   4.222   6.362  1.00 20.00     0.012 C 
HETATM    2  C2  UNL     1     -34.556   5.132   5.883  1.00 20.00    -0.117 C 
HETATM    3  C6  UNL     1     -33.792   6.247   5.303  1.00 20.00     0.098 C 
ENDROOT
BRANCH   3   4
HETATM    4  C8  UNL     1     -34.155   6.551   3.834  1.00 20.00     0.006 C 
HETATM    5  C5  UNL     1     -35.306   5.644   3.367  1.00 20.00     0.011 C 
BRANCH   4   6
HETATM    6  C7  UNL     1     -32.957   6.465   2.858  1.00 20.00     0.087 C 
HETATM    7  C4  UNL     1     -31.989   5.325   3.183  1.00 20.00     0.021 C 
BRANCH   6   8
HETATM    8  C3  UNL     1     -32.076   7.731   2.886  1.00 20.00     0.177 C 
HETATM    9  O9  UNL     1     -32.231   8.539   1.927  1.00 20.00    -0.648 OA
HETATM   10  O10 UNL     1     -31.298   7.808   3.881  1.00 20.00    -0.648 OA
ENDBRANCH   6   8
ENDBRANCH   4   6
ENDBRANCH   3   4
TORSDOF 3
ENDMDL
MODEL 9
REMARK VINA RESULT:      -4.6      3.107      4.714
REMARK  3 active torsions:
REMARK  status: ('A' for Active; 'I' for Inactive)
REMARK    1  A    between atoms: C3_3  and  C7_7 
REMARK    2  A    between atoms: C6_6  and  C8_8 
REMARK    3  A    between atoms: C7_7  and  C8_8 
ROOT
HETATM    1  C1  UNL     1     -35.056   4.399   5.660  1.00 20.00     0.012 C 
HETATM    2  C2  UNL     1     -34.402   5.348   5.321  1.00 20.00    -0.117 C 
HETATM    3  C6  UNL     1     -33.600   6.512   4.914  1.00 20.00     0.098 C 
ENDROOT
BRANCH   3   4
HETATM    4  C8  UNL     1     -33.501   6.693   3.384  1.00 20.00     0.006 C 
HETATM    5  C5  UNL     1     -33.906   5.396   2.663  1.00 20.00     0.011 C 
BRANCH   4   6
HETATM    6  C7  UNL     1     -32.118   7.185   2.895  1.00 20.00     0.087 C 
HETATM    7  C4  UNL     1     -31.209   7.666   4.029  1.00 20.00     0.021 C 
BRANCH   6   8
HETATM    8  C3  UNL     1     -32.219   8.399   1.948  1.00 20.00     0.177 C 
HETATM    9  O9  UNL     1     -33.022   9.310   2.296  1.00 20.00    -0.648 OA
HETATM   10  O10 UNL     1     -31.474   8.334   0.928  1.00 20.00    -0.648 OA
ENDBRANCH   6   8
ENDBRANCH   4   6
ENDBRANCH   3   4
TORSDOF 3
ENDMDL
