MODEL 1
REMARK VINA RESULT:      -4.6      0.000      0.000
REMARK  3 active torsions:
REMARK  status: ('A' for Active; 'I' for Inactive)
REMARK    1  A    between atoms: C2_2  and  C9_9 
REMARK    2  A    between atoms: C3_3  and  C6_6 
REMARK    3  A    between atoms: C7_7  and  C9_9 
ROOT
HETATM    1  C4  UNL     1     -34.240  15.609  -2.648  1.00 20.00     0.016 C 
HETATM    2  C5  UNL     1     -34.898  16.777  -3.409  1.00 20.00     0.007 C 
HETATM    3  C6  UNL     1     -35.010  14.646  -3.583  1.00 20.00     0.091 C 
HETATM    4  C7  UNL     1     -35.080  15.815  -4.613  1.00 20.00     0.004 C 
ENDROOT
BRANCH   4   5
HETATM    5  C9  UNL     1     -34.003  15.920  -5.685  1.00 20.00     0.038 C 
BRANCH   5   6
HETATM    6  C2  UNL     1     -34.573  15.968  -7.081  1.00 20.00    -0.093 C 
HETATM    7  C1  UNL     1     -34.652  17.119  -7.767  1.00 20.00     0.014 C 
HETATM    8  C8  UNL     1     -35.082  14.678  -7.657  1.00 20.00     0.042 C 
ENDBRANCH   5   6
ENDBRANCH   4   5
BRANCH   3   9
HETATM    9  C3  UNL     1     -34.278  13.425  -4.007  1.00 20.00     0.177 C 
HETATM   10  O10 UNL     1     -33.077  13.357  -3.624  1.00 20.00    -0.648 OA
HETATM   11  O11 UNL     1     -34.957  12.612  -4.696  1.00 20.00    -0.648 OA
ENDBRANCH   3   9
TORSDOF 3
ENDMDL
MODEL 2
REMARK VINA RESULT:      -4.6      1.519      3.830
REMARK  3 active torsions:
REMARK  status: ('A' for Active; 'I' for Inactive)
REMARK    1  A    between atoms: C2_2  and  C9_9 
REMARK    2  A    between atoms: C3_3  and  C6_6 
REMARK    3  A    between atoms: C7_7  and  C9_9 
ROOT
HETATM    1  C4  UNL     1     -35.840  14.910  -5.558  1.00 20.00     0.016 C 
HETATM    2  C5  UNL     1     -35.677  16.398  -5.188  1.00 20.00     0.007 C 
HETATM    3  C6  UNL     1     -34.409  14.682  -5.018  1.00 20.00     0.091 C 
HETATM    4  C7  UNL     1     -34.607  15.964  -4.153  1.00 20.00     0.004 C 
ENDROOT
BRANCH   4   5
HETATM    5  C9  UNL     1     -35.117  15.820  -2.725  1.00 20.00     0.038 C 
BRANCH   5   6
HETATM    6  C2  UNL     1     -34.511  16.831  -1.784  1.00 20.00    -0.093 C 
HETATM    7  C1  UNL     1     -34.710  16.762  -0.458  1.00 20.00     0.014 C 
HETATM    8  C8  UNL     1     -33.705  17.940  -2.398  1.00 20.00     0.042 C 
ENDBRANCH   5   6
ENDBRANCH   4   5
BRANCH   3   9
HETATM    9  C3  UNL     1     -34.183  13.410  -4.286  1.00 20.00     0.177 C 
HETATM   10  O10 UNL     1     -35.151  12.599  -4.304  1.00 20.00    -0.648 OA
HETATM   11  O11 UNL     1     -33.048  13.305  -3.740  1.00 20.00    -0.648 OA
ENDBRANCH   3   9
TORSDOF 3
ENDMDL
MODEL 3
REMARK VINA RESULT:      -4.6      0.103      1.062
REMARK  3 active torsions:
REMARK  status: ('A' for Active; 'I' for Inactive)
REMARK    1  A    between atoms: C2_2  and  C9_9 
REMARK    2  A    between atoms: C3_3  and  C6_6 
REMARK    3  A    between atoms: C7_7  and  C9_9 
ROOT
HETATM    1  C4  UNL     1     -34.137  15.585  -2.707  1.00 20.00     0.016 C 
HETATM    2  C5  UNL     1     -34.822  16.749  -3.449  1.00 20.00     0.007 C 
HETATM    3  C6  UNL     1     -34.954  14.618  -3.596  1.00 20.00     0.091 C 
HETATM    4  C7  UNL     1     -35.064  15.778  -4.633  1.00 20.00     0.004 C 
ENDROOT
BRANCH   4   5
HETATM    5  C9  UNL     1     -34.037  15.865  -5.754  1.00 20.00     0.038 C 
BRANCH   5   6
HETATM    6  C2  UNL     1     -34.665  15.812  -7.125  1.00 20.00    -0.093 C 
HETATM    7  C1  UNL     1     -35.078  14.653  -7.662  1.00 20.00     0.014 C 
HETATM    8  C8  UNL     1     -34.774  17.107  -7.879  1.00 20.00     0.042 C 
ENDBRANCH   5   6
ENDBRANCH   4   5
BRANCH   3   9
HETATM    9  C3  UNL     1     -34.249  13.389  -4.040  1.00 20.00     0.177 C 
HETATM   10  O10 UNL     1     -33.059  13.273  -3.634  1.00 20.00    -0.648 OA
HETATM   11  O11 UNL     1     -34.935  12.617  -4.768  1.00 20.00    -0.648 OA
ENDBRANCH   3   9
TORSDOF 3
ENDMDL
MODEL 4
REMARK VINA RESULT:      -4.5      1.579      3.898
REMARK  3 active torsions:
REMARK  status: ('A' for Active; 'I' for Inactive)
REMARK    1  A    between atoms: C2_2  and  C9_9 
REMARK    2  A    between atoms: C3_3  and  C6_6 
REMARK    3  A    between atoms: C7_7  and  C9_9 
ROOT
HETATM    1  C4  UNL     1     -35.625  15.206  -5.279  1.00 20.00     0.016 C 
HETATM    2  C5  UNL     1     -35.316  16.641  -4.809  1.00 20.00     0.007 C 
HETATM    3  C6  UNL     1     -34.204  14.812  -4.812  1.00 20.00     0.091 C 
HETATM    4  C7  UNL     1     -34.257  16.038  -3.850  1.00 20.00     0.004 C 
ENDROOT
BRANCH   4   5
HETATM    5  C9  UNL     1     -34.733  15.831  -2.418  1.00 20.00     0.038 C 
BRANCH   5   6
HETATM    6  C2  UNL     1     -34.319  16.953  -1.498  1.00 20.00    -0.093 C 
HETATM    7  C1  UNL     1     -33.478  17.917  -1.903  1.00 20.00     0.014 C 
HETATM    8  C8  UNL     1     -34.859  16.924  -0.096  1.00 20.00     0.042 C 
ENDBRANCH   5   6
ENDBRANCH   4   5
BRANCH   3   9
HETATM    9  C3  UNL     1     -34.072  13.473  -4.184  1.00 20.00     0.177 C 
HETATM   10  O10 UNL     1     -35.099  12.742  -4.252  1.00 20.00    -0.648 OA
HETATM   11  O11 UNL     1     -32.945  13.240  -3.662  1.00 20.00    -0.648 OA
ENDBRANCH   3   9
TORSDOF 3
ENDMDL
MODEL 5
REMARK VINA RESULT:      -4.4      2.677      4.118
REMARK  3 active torsions:
REMARK  status: ('A' for Active; 'I' for Inactive)
REMARK    1  A    between atoms: C2_2  and  C9_9 
REMARK    2  A    between atoms: C3_3  and  C6_6 
REMARK    3  A    between atoms: C7_7  and  C9_9 
ROOT
HETATM    1  C4  UNL     1     -34.427  13.468  -4.931  1.00 20.00     0.016 C 
HETATM    2  C5  UNL     1     -33.330  13.725  -3.879  1.00 20.00     0.007 C 
HETATM    3  C6  UNL     1     -35.468  13.826  -3.843  1.00 20.00     0.091 C 
HETATM    4  C7  UNL     1     -34.340  14.633  -3.130  1.00 20.00     0.004 C 
ENDROOT
BRANCH   4   5
HETATM    5  C9  UNL     1     -34.201  16.122  -3.421  1.00 20.00     0.038 C 
BRANCH   5   6
HETATM    6  C2  UNL     1     -34.192  16.962  -2.167  1.00 20.00    -0.093 C 
HETATM    7  C1  UNL     1     -34.645  16.482  -0.998  1.00 20.00     0.014 C 
HETATM    8  C8  UNL     1     -33.690  18.372  -2.292  1.00 20.00     0.042 C 
ENDBRANCH   5   6
ENDBRANCH   4   5
BRANCH   3   9
HETATM    9  C3  UNL     1     -36.652  14.596  -4.303  1.00 20.00     0.177 C 
HETATM   10  O10 UNL     1     -36.590  15.025  -5.489  1.00 20.00    -0.648 OA
HETATM   11  O11 UNL     1     -37.570  14.720  -3.444  1.00 20.00    -0.648 OA
ENDBRANCH   3   9
TORSDOF 3
ENDMDL
MODEL 6
REMARK VINA RESULT:      -4.3      2.808      3.939
REMARK  3 active torsions:
REMARK  status: ('A' for Active; 'I' for Inactive)
REMARK    1  A    between atoms: C2_2  and  C9_9 
REMARK    2  A    between atoms: C3_3  and  C6_6 
REMARK    3  A    between atoms: C7_7  and  C9_9 
ROOT
HETATM    1  C4  UNL     1     -34.854  17.972  -1.898  1.00 20.00     0.016 C 
HETATM    2  C5  UNL     1     -34.631  16.737  -1.004  1.00 20.00     0.007 C 
HETATM    3  C6  UNL     1     -33.755  17.417  -2.835  1.00 20.00     0.091 C 
HETATM    4  C7  UNL     1     -34.071  16.006  -2.252  1.00 20.00     0.004 C 
ENDROOT
BRANCH   4   5
HETATM    5  C9  UNL     1     -35.072  15.115  -2.976  1.00 20.00     0.038 C 
BRANCH   5   6
HETATM    6  C2  UNL     1     -34.408  14.012  -3.763  1.00 20.00    -0.093 C 
HETATM    7  C1  UNL     1     -35.109  13.221  -4.590  1.00 20.00     0.014 C 
HETATM    8  C8  UNL     1     -32.934  13.812  -3.552  1.00 20.00     0.042 C 
ENDBRANCH   5   6
ENDBRANCH   4   5
BRANCH   3   9
HETATM    9  C3  UNL     1     -33.983  17.606  -4.291  1.00 20.00     0.177 C 
HETATM   10  O10 UNL     1     -35.046  18.217  -4.595  1.00 20.00    -0.648 OA
HETATM   11  O11 UNL     1     -33.081  17.130  -5.035  1.00 20.00    -0.648 OA
ENDBRANCH   3   9
TORSDOF 3
ENDMDL
MODEL 7
REMARK VINA RESULT:      -4.2      2.744      3.767
REMARK  3 active torsions:
REMARK  status: ('A' for Active; 'I' for Inactive)
REMARK    1  A    between atoms: C2_2  and  C9_9 
REMARK    2  A    between atoms: C3_3  and  C6_6 
REMARK    3  A    between atoms: C7_7  and  C9_9 
ROOT
HETATM    1  C4  UNL     1     -33.879  17.669  -1.593  1.00 20.00     0.016 C 
HETATM    2  C5  UNL     1     -34.660  16.549  -0.878  1.00 20.00     0.007 C 
HETATM    3  C6  UNL     1     -33.493  16.629  -2.671  1.00 20.00     0.091 C 
HETATM    4  C7  UNL     1     -34.758  15.823  -2.245  1.00 20.00     0.004 C 
ENDROOT
BRANCH   4   5
HETATM    5  C9  UNL     1     -36.064  16.048  -2.997  1.00 20.00     0.038 C 
BRANCH   5   6
HETATM    6  C2  UNL     1     -36.518  14.825  -3.755  1.00 20.00    -0.093 C 
HETATM    7  C1  UNL     1     -35.646  13.891  -4.166  1.00 20.00     0.014 C 
HETATM    8  C8  UNL     1     -37.985  14.715  -4.060  1.00 20.00     0.042 C 
ENDBRANCH   5   6
ENDBRANCH   4   5
BRANCH   3   9
HETATM    9  C3  UNL     1     -33.454  17.123  -4.071  1.00 20.00     0.177 C 
HETATM   10  O10 UNL     1     -32.887  16.357  -4.898  1.00 20.00    -0.648 OA
HETATM   11  O11 UNL     1     -33.997  18.250  -4.250  1.00 20.00    -0.648 OA
ENDBRANCH   3   9
TORSDOF 3
ENDMDL
MODEL 8
REMARK VINA RESULT:      -4.2      2.282      3.222
REMARK  3 active torsions:
REMARK  status: ('A' for Active; 'I' for Inactive)
REMARK    1  A    between atoms: C2_2  and  C9_9 
REMARK    2  A    between atoms: C3_3  and  C6_6 
REMARK    3  A    between atoms: C7_7  and  C9_9 
ROOT
HETATM    1  C4  UNL     1     -33.156  15.483  -3.488  1.00 20.00     0.016 C 
HETATM    2  C5  UNL     1     -33.957  16.297  -2.452  1.00 20.00     0.007 C 
HETATM    3  C6  UNL     1     -34.228  14.376  -3.356  1.00 20.00     0.091 C 
HETATM    4  C7  UNL     1     -35.211  15.483  -2.867  1.00 20.00     0.004 C 
ENDROOT
BRANCH   4   5
HETATM    5  C9  UNL     1     -36.114  16.170  -3.883  1.00 20.00     0.038 C 
BRANCH   5   6
HETATM    6  C2  UNL     1     -37.579  15.927  -3.619  1.00 20.00    -0.093 C 
HETATM    7  C1  UNL     1     -38.165  14.762  -3.937  1.00 20.00     0.014 C 
HETATM    8  C8  UNL     1     -38.363  17.059  -3.018  1.00 20.00     0.042 C 
ENDBRANCH   5   6
ENDBRANCH   4   5
BRANCH   3   9
HETATM    9  C3  UNL     1     -34.591  13.667  -4.610  1.00 20.00     0.177 C 
HETATM   10  O10 UNL     1     -34.249  14.249  -5.677  1.00 20.00    -0.648 OA
HETATM   11  O11 UNL     1     -35.195  12.570  -4.444  1.00 20.00    -0.648 OA
ENDBRANCH   3   9
TORSDOF 3
ENDMDL
MODEL 9
REMARK VINA RESULT:      -4.1      1.383      3.541
REMARK  3 active torsions:
REMARK  status: ('A' for Active; 'I' for Inactive)
REMARK    1  A    between atoms: C2_2  and  C9_9 
REMARK    2  A    between atoms: C3_3  and  C6_6 
REMARK    3  A    between atoms: C7_7  and  C9_9 
ROOT
HETATM    1  C4  UNL     1     -36.099  14.933  -6.731  1.00 20.00     0.016 C 
HETATM    2  C5  UNL     1     -34.942  15.897  -7.060  1.00 20.00     0.007 C 
HETATM    3  C6  UNL     1     -35.096  14.112  -5.887  1.00 20.00     0.091 C 
HETATM    4  C7  UNL     1     -34.247  15.414  -5.760  1.00 20.00     0.004 C 
ENDROOT
BRANCH   4   5
HETATM    5  C9  UNL     1     -34.456  16.316  -4.549  1.00 20.00     0.038 C 
BRANCH   5   6
HETATM    6  C2  UNL     1     -33.539  15.971  -3.401  1.00 20.00    -0.093 C 
HETATM    7  C1  UNL     1     -32.493  15.146  -3.563  1.00 20.00     0.014 C 
HETATM    8  C8  UNL     1     -33.869  16.564  -2.061  1.00 20.00     0.042 C 
ENDBRANCH   5   6
ENDBRANCH   4   5
BRANCH   3   9
HETATM    9  C3  UNL     1     -35.625  13.533  -4.627  1.00 20.00     0.177 C 
HETATM   10  O10 UNL     1     -36.722  14.016  -4.230  1.00 20.00    -0.648 OA
HETATM   11  O11 UNL     1     -34.906  12.628  -4.115  1.00 20.00    -0.648 OA
ENDBRANCH   3   9
TORSDOF 3
ENDMDL
