MODEL 1
REMARK VINA RESULT:      -4.9      0.000      0.000
REMARK  2 active torsions:
REMARK  status: ('A' for Active; 'I' for Inactive)
REMARK    1  A    between atoms: C1_1  and  C5_5 
REMARK    2  A    between atoms: C6_6  and  C10_10 
ROOT
HETATM    1  C2  UNL     1     -34.027  16.020  -5.180  1.00 20.00     0.016 C 
HETATM    2  C3  UNL     1     -33.462  17.130  -4.294  1.00 20.00     0.005 C 
HETATM    3  C4  UNL     1     -34.479  16.014  -2.261  1.00 20.00     0.009 C 
HETATM    4  C5  UNL     1     -34.193  14.721  -4.396  1.00 20.00     0.090 C 
HETATM    5  C6  UNL     1     -34.299  17.336  -3.024  1.00 20.00    -0.014 C 
HETATM    6  C7  UNL     1     -35.058  14.887  -3.137  1.00 20.00    -0.004 C 
HETATM    7  C8  UNL     1     -36.545  15.136  -3.430  1.00 20.00     0.011 C 
ENDROOT
BRANCH   4   8
HETATM    8  C1  UNL     1     -34.767  13.660  -5.317  1.00 20.00     0.177 C 
HETATM    9  O11 UNL     1     -35.124  14.069  -6.455  1.00 20.00    -0.648 OA
HETATM   10  O12 UNL     1     -34.814  12.498  -4.821  1.00 20.00    -0.648 OA
ENDBRANCH   4   8
BRANCH   5  11
HETATM   11  C10 UNL     1     -33.653  18.391  -2.124  1.00 20.00     0.000 C 
HETATM   12  C9  UNL     1     -33.465  17.885  -0.731  1.00 20.00     0.005 C 
ENDBRANCH   5  11
TORSDOF 2
ENDMDL
MODEL 2
REMARK VINA RESULT:      -4.8      1.501      2.132
REMARK  2 active torsions:
REMARK  status: ('A' for Active; 'I' for Inactive)
REMARK    1  A    between atoms: C1_1  and  C5_5 
REMARK    2  A    between atoms: C6_6  and  C10_10 
ROOT
HETATM    1  C2  UNL     1     -36.131  15.913  -4.264  1.00 20.00     0.016 C 
HETATM    2  C3  UNL     1     -35.940  16.589  -2.907  1.00 20.00     0.005 C 
HETATM    3  C4  UNL     1     -33.520  15.842  -2.885  1.00 20.00     0.009 C 
HETATM    4  C5  UNL     1     -34.817  15.848  -5.037  1.00 20.00     0.090 C 
HETATM    5  C6  UNL     1     -34.829  15.924  -2.083  1.00 20.00    -0.014 C 
HETATM    6  C7  UNL     1     -33.694  15.153  -4.251  1.00 20.00    -0.004 C 
HETATM    7  C8  UNL     1     -33.898  13.642  -4.076  1.00 20.00     0.011 C 
ENDROOT
BRANCH   4   8
HETATM    8  C1  UNL     1     -35.061  15.158  -6.367  1.00 20.00     0.177 C 
HETATM    9  O11 UNL     1     -34.075  15.139  -7.153  1.00 20.00    -0.648 OA
HETATM   10  O12 UNL     1     -36.225  14.688  -6.514  1.00 20.00    -0.648 OA
ENDBRANCH   4   8
BRANCH   5  11
HETATM   11  C10 UNL     1     -34.608  16.682  -0.773  1.00 20.00     0.000 C 
HETATM   12  C9  UNL     1     -33.551  17.727  -0.913  1.00 20.00     0.005 C 
ENDBRANCH   5  11
TORSDOF 2
ENDMDL
MODEL 3
REMARK VINA RESULT:      -4.6      1.734      2.925
REMARK  2 active torsions:
REMARK  status: ('A' for Active; 'I' for Inactive)
REMARK    1  A    between atoms: C1_1  and  C5_5 
REMARK    2  A    between atoms: C6_6  and  C10_10 
ROOT
HETATM    1  C2  UNL     1     -35.429  15.019  -5.488  1.00 20.00     0.016 C 
HETATM    2  C3  UNL     1     -35.486  16.381  -6.179  1.00 20.00     0.005 C 
HETATM    3  C4  UNL     1     -33.593  17.197  -4.705  1.00 20.00     0.009 C 
HETATM    4  C5  UNL     1     -34.032  14.735  -4.945  1.00 20.00     0.090 C 
HETATM    5  C6  UNL     1     -34.990  17.512  -5.266  1.00 20.00    -0.014 C 
HETATM    6  C7  UNL     1     -33.523  15.832  -3.997  1.00 20.00    -0.004 C 
HETATM    7  C8  UNL     1     -34.256  15.881  -2.649  1.00 20.00     0.011 C 
ENDROOT
BRANCH   4   8
HETATM    8  C1  UNL     1     -34.035  13.380  -4.260  1.00 20.00     0.177 C 
HETATM    9  O11 UNL     1     -35.144  12.779  -4.258  1.00 20.00    -0.648 OA
HETATM   10  O12 UNL     1     -32.921  13.028  -3.778  1.00 20.00    -0.648 OA
ENDBRANCH   4   8
BRANCH   5  11
HETATM   11  C10 UNL     1     -34.978  18.842  -6.020  1.00 20.00     0.000 C 
HETATM   12  C9  UNL     1     -33.653  19.102  -6.657  1.00 20.00     0.005 C 
ENDBRANCH   5  11
TORSDOF 2
ENDMDL
MODEL 4
REMARK VINA RESULT:      -4.5      1.614      2.477
REMARK  2 active torsions:
REMARK  status: ('A' for Active; 'I' for Inactive)
REMARK    1  A    between atoms: C1_1  and  C5_5 
REMARK    2  A    between atoms: C6_6  and  C10_10 
ROOT
HETATM    1  C2  UNL     1     -34.115  15.405  -2.619  1.00 20.00     0.016 C 
HETATM    2  C3  UNL     1     -34.810  16.684  -2.154  1.00 20.00     0.005 C 
HETATM    3  C4  UNL     1     -36.065  16.790  -4.352  1.00 20.00     0.009 C 
HETATM    4  C5  UNL     1     -34.973  14.646  -3.627  1.00 20.00     0.090 C 
HETATM    5  C6  UNL     1     -35.224  17.576  -3.333  1.00 20.00    -0.014 C 
HETATM    6  C7  UNL     1     -35.372  15.503  -4.838  1.00 20.00    -0.004 C 
HETATM    7  C8  UNL     1     -34.205  15.836  -5.779  1.00 20.00     0.011 C 
ENDROOT
BRANCH   4   8
HETATM    8  C1  UNL     1     -34.231  13.396  -4.064  1.00 20.00     0.177 C 
HETATM    9  O11 UNL     1     -33.040  13.306  -3.660  1.00 20.00    -0.648 OA
HETATM   10  O12 UNL     1     -34.907  12.602  -4.779  1.00 20.00    -0.648 OA
ENDBRANCH   4   8
BRANCH   5  11
HETATM   11  C10 UNL     1     -35.994  18.799  -2.833  1.00 20.00     0.000 C 
HETATM   12  C9  UNL     1     -37.084  18.416  -1.887  1.00 20.00     0.005 C 
ENDBRANCH   5  11
TORSDOF 2
ENDMDL
MODEL 5
REMARK VINA RESULT:      -4.4      2.819      4.657
REMARK  2 active torsions:
REMARK  status: ('A' for Active; 'I' for Inactive)
REMARK    1  A    between atoms: C1_1  and  C5_5 
REMARK    2  A    between atoms: C6_6  and  C10_10 
ROOT
HETATM    1  C2  UNL     1     -34.499  15.170  -2.959  1.00 20.00     0.016 C 
HETATM    2  C3  UNL     1     -34.296  14.575  -4.352  1.00 20.00     0.005 C 
HETATM    3  C4  UNL     1     -33.690  16.870  -5.234  1.00 20.00     0.009 C 
HETATM    4  C5  UNL     1     -33.644  16.418  -2.763  1.00 20.00     0.090 C 
HETATM    5  C6  UNL     1     -34.537  15.608  -5.461  1.00 20.00    -0.014 C 
HETATM    6  C7  UNL     1     -33.891  17.488  -3.838  1.00 20.00    -0.004 C 
HETATM    7  C8  UNL     1     -35.265  18.167  -3.737  1.00 20.00     0.011 C 
ENDROOT
BRANCH   4   8
HETATM    8  C1  UNL     1     -33.894  16.974  -1.373  1.00 20.00     0.177 C 
HETATM    9  O11 UNL     1     -33.180  17.963  -1.051  1.00 20.00    -0.648 OA
HETATM   10  O12 UNL     1     -34.789  16.371  -0.715  1.00 20.00    -0.648 OA
ENDBRANCH   4   8
BRANCH   5  11
HETATM   11  C10 UNL     1     -34.239  15.000  -6.832  1.00 20.00     0.000 C 
HETATM   12  C9  UNL     1     -35.479  14.499  -7.495  1.00 20.00     0.005 C 
ENDBRANCH   5  11
TORSDOF 2
ENDMDL
MODEL 6
REMARK VINA RESULT:      -4.4      0.916      1.937
REMARK  2 active torsions:
REMARK  status: ('A' for Active; 'I' for Inactive)
REMARK    1  A    between atoms: C1_1  and  C5_5 
REMARK    2  A    between atoms: C6_6  and  C10_10 
ROOT
HETATM    1  C2  UNL     1     -34.449  14.628  -3.087  1.00 20.00     0.016 C 
HETATM    2  C3  UNL     1     -34.589  15.746  -2.055  1.00 20.00     0.005 C 
HETATM    3  C4  UNL     1     -34.916  17.420  -3.928  1.00 20.00     0.009 C 
HETATM    4  C5  UNL     1     -35.204  14.963  -4.370  1.00 20.00     0.090 C 
HETATM    5  C6  UNL     1     -34.167  17.109  -2.622  1.00 20.00    -0.014 C 
HETATM    6  C7  UNL     1     -34.776  16.306  -4.982  1.00 20.00    -0.004 C 
HETATM    7  C8  UNL     1     -33.361  16.297  -5.578  1.00 20.00     0.011 C 
ENDROOT
BRANCH   4   8
HETATM    8  C1  UNL     1     -35.021  13.829  -5.361  1.00 20.00     0.177 C 
HETATM    9  O11 UNL     1     -35.384  14.080  -6.542  1.00 20.00    -0.648 OA
HETATM   10  O12 UNL     1     -34.525  12.774  -4.872  1.00 20.00    -0.648 OA
ENDBRANCH   4   8
BRANCH   5  11
HETATM   11  C10 UNL     1     -34.404  18.214  -1.591  1.00 20.00     0.000 C 
HETATM   12  C9  UNL     1     -34.435  17.672  -0.200  1.00 20.00     0.005 C 
ENDBRANCH   5  11
TORSDOF 2
ENDMDL
MODEL 7
REMARK VINA RESULT:      -4.4      2.968      4.790
REMARK  2 active torsions:
REMARK  status: ('A' for Active; 'I' for Inactive)
REMARK    1  A    between atoms: C1_1  and  C5_5 
REMARK    2  A    between atoms: C6_6  and  C10_10 
ROOT
HETATM    1  C2  UNL     1     -34.885  15.436  -2.252  1.00 20.00     0.016 C 
HETATM    2  C3  UNL     1     -34.777  14.566  -3.504  1.00 20.00     0.005 C 
HETATM    3  C4  UNL     1     -33.640  16.475  -4.720  1.00 20.00     0.009 C 
HETATM    4  C5  UNL     1     -33.777  16.484  -2.211  1.00 20.00     0.090 C 
HETATM    5  C6  UNL     1     -34.744  15.406  -4.788  1.00 20.00    -0.014 C 
HETATM    6  C7  UNL     1     -33.741  17.366  -3.469  1.00 20.00    -0.004 C 
HETATM    7  C8  UNL     1     -34.928  18.334  -3.586  1.00 20.00     0.011 C 
ENDROOT
BRANCH   4   8
HETATM    8  C1  UNL     1     -33.939  17.325  -0.959  1.00 20.00     0.177 C 
HETATM    9  O11 UNL     1     -34.945  17.049  -0.250  1.00 20.00    -0.648 OA
HETATM   10  O12 UNL     1     -33.040  18.197  -0.787  1.00 20.00    -0.648 OA
ENDBRANCH   4   8
BRANCH   5  11
HETATM   11  C10 UNL     1     -34.546  14.508  -6.010  1.00 20.00     0.000 C 
HETATM   12  C9  UNL     1     -34.460  15.304  -7.270  1.00 20.00     0.005 C 
ENDBRANCH   5  11
TORSDOF 2
ENDMDL
MODEL 8
REMARK VINA RESULT:      -4.3      1.497      2.211
REMARK  2 active torsions:
REMARK  status: ('A' for Active; 'I' for Inactive)
REMARK    1  A    between atoms: C1_1  and  C5_5 
REMARK    2  A    between atoms: C6_6  and  C10_10 
ROOT
HETATM    1  C2  UNL     1     -33.870  16.977  -5.105  1.00 20.00     0.016 C 
HETATM    2  C3  UNL     1     -33.672  16.945  -3.590  1.00 20.00     0.005 C 
HETATM    3  C4  UNL     1     -35.319  15.028  -3.424  1.00 20.00     0.009 C 
HETATM    4  C5  UNL     1     -34.278  15.606  -5.636  1.00 20.00     0.090 C 
HETATM    5  C6  UNL     1     -34.905  16.397  -2.859  1.00 20.00    -0.014 C 
HETATM    6  C7  UNL     1     -35.533  15.046  -4.948  1.00 20.00    -0.004 C 
HETATM    7  C8  UNL     1     -36.826  15.792  -5.307  1.00 20.00     0.011 C 
ENDROOT
BRANCH   4   8
HETATM    8  C1  UNL     1     -34.474  15.697  -7.139  1.00 20.00     0.177 C 
HETATM    9  O11 UNL     1     -34.663  14.597  -7.726  1.00 20.00    -0.648 OA
HETATM   10  O12 UNL     1     -34.422  16.869  -7.609  1.00 20.00    -0.648 OA
ENDBRANCH   4   8
BRANCH   5  11
HETATM   11  C10 UNL     1     -34.635  16.298  -1.357  1.00 20.00     0.000 C 
HETATM   12  C9  UNL     1     -33.806  17.440  -0.870  1.00 20.00     0.005 C 
ENDBRANCH   5  11
TORSDOF 2
ENDMDL
MODEL 9
REMARK VINA RESULT:      -4.3      2.721      4.535
REMARK  2 active torsions:
REMARK  status: ('A' for Active; 'I' for Inactive)
REMARK    1  A    between atoms: C1_1  and  C5_5 
REMARK    2  A    between atoms: C6_6  and  C10_10 
ROOT
HETATM    1  C2  UNL     1     -34.763  16.986  -4.482  1.00 20.00     0.016 C 
HETATM    2  C3  UNL     1     -35.296  16.319  -5.749  1.00 20.00     0.005 C 
HETATM    3  C4  UNL     1     -34.722  14.048  -4.783  1.00 20.00     0.009 C 
HETATM    4  C5  UNL     1     -34.877  16.055  -3.279  1.00 20.00     0.090 C 
HETATM    5  C6  UNL     1     -34.623  14.965  -6.014  1.00 20.00    -0.014 C 
HETATM    6  C7  UNL     1     -34.180  14.703  -3.500  1.00 20.00    -0.004 C 
HETATM    7  C8  UNL     1     -32.647  14.791  -3.540  1.00 20.00     0.011 C 
ENDROOT
BRANCH   4   8
HETATM    8  C1  UNL     1     -34.324  16.760  -2.054  1.00 20.00     0.177 C 
HETATM    9  O11 UNL     1     -33.637  17.792  -2.290  1.00 20.00    -0.648 OA
HETATM   10  O12 UNL     1     -34.625  16.221  -0.951  1.00 20.00    -0.648 OA
ENDBRANCH   4   8
BRANCH   5  11
HETATM   11  C10 UNL     1     -35.243  14.289  -7.237  1.00 20.00     0.000 C 
HETATM   12  C9  UNL     1     -36.527  14.941  -7.634  1.00 20.00     0.005 C 
ENDBRANCH   5  11
TORSDOF 2
ENDMDL
