MODEL 1
REMARK VINA RESULT:      -4.8      0.000      0.000
REMARK  5 active torsions:
REMARK  status: ('A' for Active; 'I' for Inactive)
REMARK    1  A    between atoms: C2_2  and  C6_6 
REMARK    2  A    between atoms: C3_3  and  C7_7 
REMARK    3  A    between atoms: C3_3  and  O10_10 
REMARK    4  A    between atoms: C6_6  and  C8_8 
REMARK    5  A    between atoms: C7_7  and  C8_8 
ROOT
HETATM    1  C1  UNL     1     -34.854  17.169   0.212  1.00 20.00    -0.111 C 
HETATM    2  C2  UNL     1     -34.532  16.732  -0.859  1.00 20.00    -0.107 C 
HETATM    3  C4  UNL     1     -35.248  17.701   1.517  1.00 20.00     0.112 C 
ENDROOT
BRANCH   2   4
HETATM    4  C6  UNL     1     -34.135  16.199  -2.171  1.00 20.00     0.098 C 
BRANCH   4   5
HETATM    5  C8  UNL     1     -35.285  15.516  -2.938  1.00 20.00     0.002 C 
HETATM    6  C5  UNL     1     -36.435  16.492  -3.209  1.00 20.00     0.011 C 
BRANCH   5   7
HETATM    7  C7  UNL     1     -34.840  14.851  -4.251  1.00 20.00     0.115 C 
BRANCH   7   8
HETATM    8  C3  UNL     1     -34.363  13.434  -4.049  1.00 20.00     0.139 C 
HETATM    9  O9  UNL     1     -33.207  13.131  -3.785  1.00 20.00    -0.650 OA
BRANCH   8  10
HETATM   10  O10 UNL     1     -35.360  12.525  -4.186  1.00 20.00    -0.776 OA
HETATM   11  H22 UNL     1     -35.090  11.590  -4.059  1.00 20.00     0.167 HD
ENDBRANCH   8  10
ENDBRANCH   7   8
ENDBRANCH   5   7
ENDBRANCH   4   5
ENDBRANCH   2   4
TORSDOF 5
ENDMDL
MODEL 2
REMARK VINA RESULT:      -4.7     10.917     11.774
REMARK  5 active torsions:
REMARK  status: ('A' for Active; 'I' for Inactive)
REMARK    1  A    between atoms: C2_2  and  C6_6 
REMARK    2  A    between atoms: C3_3  and  C7_7 
REMARK    3  A    between atoms: C3_3  and  O10_10 
REMARK    4  A    between atoms: C6_6  and  C8_8 
REMARK    5  A    between atoms: C7_7  and  C8_8 
ROOT
HETATM    1  C1  UNL     1     -32.282   8.521   1.856  1.00 20.00    -0.111 C 
HETATM    2  C2  UNL     1     -32.297   7.546   2.558  1.00 20.00    -0.107 C 
HETATM    3  C4  UNL     1     -32.265   9.706   0.999  1.00 20.00     0.112 C 
ENDROOT
BRANCH   2   4
HETATM    4  C6  UNL     1     -32.312   6.355   3.420  1.00 20.00     0.098 C 
BRANCH   4   5
HETATM    5  C8  UNL     1     -33.729   5.898   3.822  1.00 20.00     0.002 C 
HETATM    6  C5  UNL     1     -34.533   5.427   2.605  1.00 20.00     0.011 C 
BRANCH   5   7
HETATM    7  C7  UNL     1     -33.740   4.813   4.911  1.00 20.00     0.115 C 
BRANCH   7   8
HETATM    8  C3  UNL     1     -34.656   5.157   6.061  1.00 20.00     0.139 C 
HETATM    9  O9  UNL     1     -34.573   6.187   6.716  1.00 20.00    -0.650 OA
BRANCH   8  10
HETATM   10  O10 UNL     1     -35.588   4.200   6.288  1.00 20.00    -0.776 OA
HETATM   11  H22 UNL     1     -35.486   3.713   7.134  1.00 20.00     0.167 HD
ENDBRANCH   8  10
ENDBRANCH   7   8
ENDBRANCH   5   7
ENDBRANCH   4   5
ENDBRANCH   2   4
TORSDOF 5
ENDMDL
MODEL 3
REMARK VINA RESULT:      -4.7      9.613     10.419
REMARK  5 active torsions:
REMARK  status: ('A' for Active; 'I' for Inactive)
REMARK    1  A    between atoms: C2_2  and  C6_6 
REMARK    2  A    between atoms: C3_3  and  C7_7 
REMARK    3  A    between atoms: C3_3  and  O10_10 
REMARK    4  A    between atoms: C6_6  and  C8_8 
REMARK    5  A    between atoms: C7_7  and  C8_8 
ROOT
HETATM    1  C1  UNL     1     -34.291   5.430   5.047  1.00 20.00    -0.111 C 
HETATM    2  C2  UNL     1     -33.731   5.751   4.034  1.00 20.00    -0.107 C 
HETATM    3  C4  UNL     1     -34.976   5.038   6.278  1.00 20.00     0.112 C 
ENDROOT
BRANCH   2   4
HETATM    4  C6  UNL     1     -33.041   6.146   2.797  1.00 20.00     0.098 C 
BRANCH   4   5
HETATM    5  C8  UNL     1     -32.406   7.550   2.862  1.00 20.00     0.002 C 
HETATM    6  C5  UNL     1     -31.345   7.636   3.965  1.00 20.00     0.011 C 
BRANCH   5   7
HETATM    7  C7  UNL     1     -31.811   8.019   1.524  1.00 20.00     0.115 C 
BRANCH   7   8
HETATM    8  C3  UNL     1     -32.414   9.318   1.047  1.00 20.00     0.139 C 
HETATM    9  O9  UNL     1     -32.539  10.312   1.748  1.00 20.00    -0.650 OA
BRANCH   8  10
HETATM   10  O10 UNL     1     -32.798   9.267  -0.252  1.00 20.00    -0.776 OA
HETATM   11  H22 UNL     1     -32.339   9.898  -0.847  1.00 20.00     0.167 HD
ENDBRANCH   8  10
ENDBRANCH   7   8
ENDBRANCH   5   7
ENDBRANCH   4   5
ENDBRANCH   2   4
TORSDOF 5
ENDMDL
MODEL 4
REMARK VINA RESULT:      -4.6      1.365      2.076
REMARK  5 active torsions:
REMARK  status: ('A' for Active; 'I' for Inactive)
REMARK    1  A    between atoms: C2_2  and  C6_6 
REMARK    2  A    between atoms: C3_3  and  C7_7 
REMARK    3  A    between atoms: C3_3  and  O10_10 
REMARK    4  A    between atoms: C6_6  and  C8_8 
REMARK    5  A    between atoms: C7_7  and  C8_8 
ROOT
HETATM    1  C1  UNL     1     -34.441  16.676  -1.099  1.00 20.00    -0.111 C 
HETATM    2  C2  UNL     1     -34.034  16.180  -2.115  1.00 20.00    -0.107 C 
HETATM    3  C4  UNL     1     -34.938  17.278   0.137  1.00 20.00     0.112 C 
ENDROOT
BRANCH   2   4
HETATM    4  C6  UNL     1     -33.533  15.576  -3.358  1.00 20.00     0.098 C 
BRANCH   4   5
HETATM    5  C8  UNL     1     -34.397  15.894  -4.595  1.00 20.00     0.002 C 
HETATM    6  C5  UNL     1     -33.633  16.754  -5.608  1.00 20.00     0.011 C 
BRANCH   5   7
HETATM    7  C7  UNL     1     -34.963  14.643  -5.288  1.00 20.00     0.115 C 
BRANCH   7   8
HETATM    8  C3  UNL     1     -35.731  13.754  -4.342  1.00 20.00     0.139 C 
HETATM    9  O9  UNL     1     -36.814  14.049  -3.853  1.00 20.00    -0.650 OA
BRANCH   8  10
HETATM   10  O10 UNL     1     -35.094  12.584  -4.093  1.00 20.00    -0.776 OA
HETATM   11  H22 UNL     1     -34.130  12.590  -4.274  1.00 20.00     0.167 HD
ENDBRANCH   8  10
ENDBRANCH   7   8
ENDBRANCH   5   7
ENDBRANCH   4   5
ENDBRANCH   2   4
TORSDOF 5
ENDMDL
MODEL 5
REMARK VINA RESULT:      -4.6     10.844     11.675
REMARK  5 active torsions:
REMARK  status: ('A' for Active; 'I' for Inactive)
REMARK    1  A    between atoms: C2_2  and  C6_6 
REMARK    2  A    between atoms: C3_3  and  C7_7 
REMARK    3  A    between atoms: C3_3  and  O10_10 
REMARK    4  A    between atoms: C6_6  and  C8_8 
REMARK    5  A    between atoms: C7_7  and  C8_8 
ROOT
HETATM    1  C1  UNL     1     -32.293   8.456   1.884  1.00 20.00    -0.111 C 
HETATM    2  C2  UNL     1     -32.281   7.381   2.419  1.00 20.00    -0.107 C 
HETATM    3  C4  UNL     1     -32.310   9.765   1.232  1.00 20.00     0.112 C 
ENDROOT
BRANCH   2   4
HETATM    4  C6  UNL     1     -32.262   6.064   3.074  1.00 20.00     0.098 C 
BRANCH   4   5
HETATM    5  C8  UNL     1     -33.082   6.008   4.379  1.00 20.00     0.002 C 
HETATM    6  C5  UNL     1     -33.001   7.331   5.150  1.00 20.00     0.011 C 
BRANCH   5   7
HETATM    7  C7  UNL     1     -34.552   5.614   4.167  1.00 20.00     0.115 C 
BRANCH   7   8
HETATM    8  C3  UNL     1     -35.093   4.766   5.292  1.00 20.00     0.139 C 
HETATM    9  O9  UNL     1     -35.186   5.147   6.451  1.00 20.00    -0.650 OA
BRANCH   8  10
HETATM   10  O10 UNL     1     -35.472   3.532   4.878  1.00 20.00    -0.776 OA
HETATM   11  H22 UNL     1     -35.065   2.786   5.370  1.00 20.00     0.167 HD
ENDBRANCH   8  10
ENDBRANCH   7   8
ENDBRANCH   5   7
ENDBRANCH   4   5
ENDBRANCH   2   4
TORSDOF 5
ENDMDL
MODEL 6
REMARK VINA RESULT:      -4.5      1.246      1.795
REMARK  5 active torsions:
REMARK  status: ('A' for Active; 'I' for Inactive)
REMARK    1  A    between atoms: C2_2  and  C6_6 
REMARK    2  A    between atoms: C3_3  and  C7_7 
REMARK    3  A    between atoms: C3_3  and  O10_10 
REMARK    4  A    between atoms: C6_6  and  C8_8 
REMARK    5  A    between atoms: C7_7  and  C8_8 
ROOT
HETATM    1  C1  UNL     1     -34.297  16.705  -1.542  1.00 20.00    -0.111 C 
HETATM    2  C2  UNL     1     -33.951  16.471  -2.669  1.00 20.00    -0.107 C 
HETATM    3  C4  UNL     1     -34.719  16.987  -0.171  1.00 20.00     0.112 C 
ENDROOT
BRANCH   2   4
HETATM    4  C6  UNL     1     -33.528  16.189  -4.048  1.00 20.00     0.098 C 
BRANCH   4   5
HETATM    5  C8  UNL     1     -34.669  15.689  -4.957  1.00 20.00     0.002 C 
HETATM    6  C5  UNL     1     -34.979  16.693  -6.074  1.00 20.00     0.011 C 
BRANCH   5   7
HETATM    7  C7  UNL     1     -34.412  14.298  -5.559  1.00 20.00     0.115 C 
BRANCH   7   8
HETATM    8  C3  UNL     1     -34.235  13.234  -4.503  1.00 20.00     0.139 C 
HETATM    9  O9  UNL     1     -33.159  12.942  -4.000  1.00 20.00    -0.650 OA
BRANCH   8  10
HETATM   10  O10 UNL     1     -35.404  12.637  -4.165  1.00 20.00    -0.776 OA
HETATM   11  H22 UNL     1     -35.741  12.858  -3.271  1.00 20.00     0.167 HD
ENDBRANCH   8  10
ENDBRANCH   7   8
ENDBRANCH   5   7
ENDBRANCH   4   5
ENDBRANCH   2   4
TORSDOF 5
ENDMDL
MODEL 7
REMARK VINA RESULT:      -4.4      1.802      4.350
REMARK  5 active torsions:
REMARK  status: ('A' for Active; 'I' for Inactive)
REMARK    1  A    between atoms: C2_2  and  C6_6 
REMARK    2  A    between atoms: C3_3  and  C7_7 
REMARK    3  A    between atoms: C3_3  and  O10_10 
REMARK    4  A    between atoms: C6_6  and  C8_8 
REMARK    5  A    between atoms: C7_7  and  C8_8 
ROOT
HETATM    1  C1  UNL     1     -34.505  15.608  -6.698  1.00 20.00    -0.111 C 
HETATM    2  C2  UNL     1     -34.110  16.137  -5.694  1.00 20.00    -0.107 C 
HETATM    3  C4  UNL     1     -34.987  14.961  -7.918  1.00 20.00     0.112 C 
ENDROOT
BRANCH   2   4
HETATM    4  C6  UNL     1     -33.626  16.788  -4.468  1.00 20.00     0.098 C 
BRANCH   4   5
HETATM    5  C8  UNL     1     -33.689  15.887  -3.219  1.00 20.00     0.002 C 
HETATM    6  C5  UNL     1     -33.801  16.714  -1.934  1.00 20.00     0.011 C 
BRANCH   5   7
HETATM    7  C7  UNL     1     -34.815  14.841  -3.271  1.00 20.00     0.115 C 
BRANCH   7   8
HETATM    8  C3  UNL     1     -34.322  13.480  -3.695  1.00 20.00     0.139 C 
HETATM    9  O9  UNL     1     -33.144  13.148  -3.695  1.00 20.00    -0.650 OA
BRANCH   8  10
HETATM   10  O10 UNL     1     -35.330  12.655  -4.072  1.00 20.00    -0.776 OA
HETATM   11  H22 UNL     1     -36.218  13.071  -4.103  1.00 20.00     0.167 HD
ENDBRANCH   8  10
ENDBRANCH   7   8
ENDBRANCH   5   7
ENDBRANCH   4   5
ENDBRANCH   2   4
TORSDOF 5
ENDMDL
MODEL 8
REMARK VINA RESULT:      -4.3      2.204      3.679
REMARK  5 active torsions:
REMARK  status: ('A' for Active; 'I' for Inactive)
REMARK    1  A    between atoms: C2_2  and  C6_6 
REMARK    2  A    between atoms: C3_3  and  C7_7 
REMARK    3  A    between atoms: C3_3  and  O10_10 
REMARK    4  A    between atoms: C6_6  and  C8_8 
REMARK    5  A    between atoms: C7_7  and  C8_8 
ROOT
HETATM    1  C1  UNL     1     -33.504  17.562  -5.389  1.00 20.00    -0.111 C 
HETATM    2  C2  UNL     1     -33.326  16.637  -4.644  1.00 20.00    -0.107 C 
HETATM    3  C4  UNL     1     -33.723  18.687  -6.297  1.00 20.00     0.112 C 
ENDROOT
BRANCH   2   4
HETATM    4  C6  UNL     1     -33.104  15.506  -3.731  1.00 20.00     0.098 C 
BRANCH   4   5
HETATM    5  C8  UNL     1     -34.339  15.139  -2.885  1.00 20.00     0.002 C 
HETATM    6  C5  UNL     1     -34.648  16.222  -1.844  1.00 20.00     0.011 C 
BRANCH   5   7
HETATM    7  C7  UNL     1     -35.594  14.843  -3.722  1.00 20.00     0.115 C 
BRANCH   7   8
HETATM    8  C3  UNL     1     -35.381  13.718  -4.706  1.00 20.00     0.139 C 
HETATM    9  O9  UNL     1     -35.258  13.879  -5.912  1.00 20.00    -0.650 OA
BRANCH   8  10
HETATM   10  O10 UNL     1     -35.335  12.503  -4.106  1.00 20.00    -0.776 OA
HETATM   11  H22 UNL     1     -35.199  12.524  -3.134  1.00 20.00     0.167 HD
ENDBRANCH   8  10
ENDBRANCH   7   8
ENDBRANCH   5   7
ENDBRANCH   4   5
ENDBRANCH   2   4
TORSDOF 5
ENDMDL
MODEL 9
REMARK VINA RESULT:      -4.2      2.066      2.685
REMARK  5 active torsions:
REMARK  status: ('A' for Active; 'I' for Inactive)
REMARK    1  A    between atoms: C2_2  and  C6_6 
REMARK    2  A    between atoms: C3_3  and  C7_7 
REMARK    3  A    between atoms: C3_3  and  O10_10 
REMARK    4  A    between atoms: C6_6  and  C8_8 
REMARK    5  A    between atoms: C7_7  and  C8_8 
ROOT
HETATM    1  C1  UNL     1     -34.422  17.143  -0.517  1.00 20.00    -0.111 C 
HETATM    2  C2  UNL     1     -34.597  16.400  -1.443  1.00 20.00    -0.107 C 
HETATM    3  C4  UNL     1     -34.206  18.050   0.610  1.00 20.00     0.112 C 
ENDROOT
BRANCH   2   4
HETATM    4  C6  UNL     1     -34.815  15.487  -2.575  1.00 20.00     0.098 C 
BRANCH   4   5
HETATM    5  C8  UNL     1     -33.537  15.181  -3.381  1.00 20.00     0.002 C 
HETATM    6  C5  UNL     1     -33.511  13.726  -3.863  1.00 20.00     0.011 C 
BRANCH   5   7
HETATM    7  C7  UNL     1     -33.316  16.132  -4.569  1.00 20.00     0.115 C 
BRANCH   7   8
HETATM    8  C3  UNL     1     -34.282  15.878  -5.701  1.00 20.00     0.139 C 
HETATM    9  O9  UNL     1     -35.469  16.173  -5.665  1.00 20.00    -0.650 OA
BRANCH   8  10
HETATM   10  O10 UNL     1     -33.690  15.290  -6.769  1.00 20.00    -0.776 OA
HETATM   11  H22 UNL     1     -32.758  15.017  -6.629  1.00 20.00     0.167 HD
ENDBRANCH   8  10
ENDBRANCH   7   8
ENDBRANCH   5   7
ENDBRANCH   4   5
ENDBRANCH   2   4
TORSDOF 5
ENDMDL
