MODEL 1
REMARK VINA RESULT:      -4.2      0.000      0.000
REMARK  3 active torsions:
REMARK  status: ('A' for Active; 'I' for Inactive)
REMARK    1  A    between atoms: C6_6  and  C7_7 
REMARK    2  A    between atoms: C6_6  and  C8_8 
REMARK    3  A    between atoms: C7_7  and  N9_9 
ROOT
HETATM    1  C1  UNL     1     -34.405  13.385  -4.656  1.00 20.00     0.029 C 
HETATM    2  C2  UNL     1     -34.949  14.015  -5.936  1.00 20.00     0.023 C 
HETATM    3  C3  UNL     1     -34.473  14.348  -3.480  1.00 20.00     0.235 C 
HETATM    4  C4  UNL     1     -34.321  16.298  -5.056  1.00 20.00     0.254 C 
HETATM    5  C5  UNL     1     -34.245  15.336  -6.236  1.00 20.00     0.108 C 
HETATM    6  N9  UNL     1     -33.747  15.624  -3.830  1.00 20.00    -0.070 N 
HETATM    7 CL11 UNL     1     -34.978  16.097  -7.676  1.00 20.00    -0.123 Cl
HETATM    8  H27 UNL     1     -32.774  15.371  -4.049  1.00 20.00     0.279 HD
ENDROOT
BRANCH   6   9
HETATM    9  C7  UNL     1     -33.685  16.567  -2.658  1.00 20.00     0.237 C 
BRANCH   9  10
HETATM   10  C6  UNL     1     -34.761  16.183  -1.654  1.00 20.00     0.059 C 
BRANCH  10  11
HETATM   11  C8  UNL     1     -34.637  16.995  -0.377  1.00 20.00     0.223 C 
HETATM   12  F10 UNL     1     -33.421  17.601  -0.350  1.00 20.00    -0.255 F 
ENDBRANCH  10  11
ENDBRANCH   9  10
ENDBRANCH   6   9
TORSDOF 3
ENDMDL
MODEL 2
REMARK VINA RESULT:      -4.0      1.475      1.893
REMARK  3 active torsions:
REMARK  status: ('A' for Active; 'I' for Inactive)
REMARK    1  A    between atoms: C6_6  and  C7_7 
REMARK    2  A    between atoms: C6_6  and  C8_8 
REMARK    3  A    between atoms: C7_7  and  N9_9 
ROOT
HETATM    1  C1  UNL     1     -35.104  14.364  -6.963  1.00 20.00     0.029 C 
HETATM    2  C2  UNL     1     -35.411  15.776  -7.453  1.00 20.00     0.023 C 
HETATM    3  C3  UNL     1     -34.761  14.343  -5.480  1.00 20.00     0.235 C 
HETATM    4  C4  UNL     1     -33.934  16.710  -5.630  1.00 20.00     0.254 C 
HETATM    5  C5  UNL     1     -34.268  16.731  -7.116  1.00 20.00     0.108 C 
HETATM    6  N9  UNL     1     -33.617  15.291  -5.214  1.00 20.00    -0.070 N 
HETATM    7 CL11 UNL     1     -34.706  18.393  -7.607  1.00 20.00    -0.123 Cl
HETATM    8  H27 UNL     1     -32.821  14.976  -5.785  1.00 20.00     0.279 HD
ENDROOT
BRANCH   6   9
HETATM    9  C7  UNL     1     -33.162  15.222  -3.781  1.00 20.00     0.237 C 
BRANCH   9  10
HETATM   10  C6  UNL     1     -34.366  15.400  -2.867  1.00 20.00     0.059 C 
BRANCH  10  11
HETATM   11  C8  UNL     1     -34.118  16.486  -1.835  1.00 20.00     0.223 C 
HETATM   12  F10 UNL     1     -34.750  16.156  -0.679  1.00 20.00    -0.255 F 
ENDBRANCH  10  11
ENDBRANCH   9  10
ENDBRANCH   6   9
TORSDOF 3
ENDMDL
MODEL 3
REMARK VINA RESULT:      -3.9      1.165      1.234
REMARK  3 active torsions:
REMARK  status: ('A' for Active; 'I' for Inactive)
REMARK    1  A    between atoms: C6_6  and  C7_7 
REMARK    2  A    between atoms: C6_6  and  C8_8 
REMARK    3  A    between atoms: C7_7  and  N9_9 
ROOT
HETATM    1  C1  UNL     1     -36.398  14.441  -3.967  1.00 20.00     0.029 C 
HETATM    2  C2  UNL     1     -36.005  14.703  -5.418  1.00 20.00     0.023 C 
HETATM    3  C3  UNL     1     -35.857  15.513  -3.033  1.00 20.00     0.235 C 
HETATM    4  C4  UNL     1     -33.958  15.948  -4.620  1.00 20.00     0.254 C 
HETATM    5  C5  UNL     1     -34.494  14.868  -5.553  1.00 20.00     0.108 C 
HETATM    6  N9  UNL     1     -34.360  15.617  -3.199  1.00 20.00    -0.070 N 
HETATM    7 CL11 UNL     1     -34.080  15.280  -7.242  1.00 20.00    -0.123 Cl
HETATM    8  H27 UNL     1     -33.963  14.694  -2.977  1.00 20.00     0.279 HD
ENDROOT
BRANCH   6   9
HETATM    9  C7  UNL     1     -33.759  16.584  -2.215  1.00 20.00     0.237 C 
BRANCH   9  10
HETATM   10  C6  UNL     1     -34.597  16.587  -0.945  1.00 20.00     0.059 C 
BRANCH  10  11
HETATM   11  C8  UNL     1     -34.212  17.740  -0.035  1.00 20.00     0.223 C 
HETATM   12  F10 UNL     1     -32.887  18.004  -0.184  1.00 20.00    -0.255 F 
ENDBRANCH  10  11
ENDBRANCH   9  10
ENDBRANCH   6   9
TORSDOF 3
ENDMDL
MODEL 4
REMARK VINA RESULT:      -3.9      2.000      2.105
REMARK  3 active torsions:
REMARK  status: ('A' for Active; 'I' for Inactive)
REMARK    1  A    between atoms: C6_6  and  C7_7 
REMARK    2  A    between atoms: C6_6  and  C8_8 
REMARK    3  A    between atoms: C7_7  and  N9_9 
ROOT
HETATM    1  C1  UNL     1     -34.095  13.871  -4.491  1.00 20.00     0.029 C 
HETATM    2  C2  UNL     1     -35.593  13.601  -4.383  1.00 20.00     0.023 C 
HETATM    3  C3  UNL     1     -33.591  14.723  -3.334  1.00 20.00     0.235 C 
HETATM    4  C4  UNL     1     -35.869  15.752  -3.087  1.00 20.00     0.254 C 
HETATM    5  C5  UNL     1     -36.374  14.906  -4.250  1.00 20.00     0.108 C 
HETATM    6  N9  UNL     1     -34.388  16.003  -3.265  1.00 20.00    -0.070 N 
HETATM    7 CL11 UNL     1     -38.110  14.550  -4.018  1.00 20.00    -0.123 Cl
HETATM    8  H27 UNL     1     -34.267  16.486  -4.166  1.00 20.00     0.279 HD
ENDROOT
BRANCH   6   9
HETATM    9  C7  UNL     1     -33.853  16.933  -2.210  1.00 20.00     0.237 C 
BRANCH   9  10
HETATM   10  C6  UNL     1     -34.564  16.654  -0.894  1.00 20.00     0.059 C 
BRANCH  10  11
HETATM   11  C8  UNL     1     -34.273  17.739   0.128  1.00 20.00     0.223 C 
HETATM   12  F10 UNL     1     -32.948  18.038   0.098  1.00 20.00    -0.255 F 
ENDBRANCH  10  11
ENDBRANCH   9  10
ENDBRANCH   6   9
TORSDOF 3
ENDMDL
MODEL 5
REMARK VINA RESULT:      -3.9      1.731      2.371
REMARK  3 active torsions:
REMARK  status: ('A' for Active; 'I' for Inactive)
REMARK    1  A    between atoms: C6_6  and  C7_7 
REMARK    2  A    between atoms: C6_6  and  C8_8 
REMARK    3  A    between atoms: C7_7  and  N9_9 
ROOT
HETATM    1  C1  UNL     1     -34.196  16.955  -5.817  1.00 20.00     0.029 C 
HETATM    2  C2  UNL     1     -34.184  15.438  -5.982  1.00 20.00     0.023 C 
HETATM    3  C3  UNL     1     -33.570  17.384  -4.497  1.00 20.00     0.235 C 
HETATM    4  C4  UNL     1     -34.208  15.182  -3.469  1.00 20.00     0.254 C 
HETATM    5  C5  UNL     1     -34.843  14.754  -4.787  1.00 20.00     0.108 C 
HETATM    6  N9  UNL     1     -34.273  16.689  -3.356  1.00 20.00    -0.070 N 
HETATM    7 CL11 UNL     1     -34.715  12.980  -4.962  1.00 20.00    -0.123 Cl
HETATM    8  H27 UNL     1     -35.266  16.955  -3.402  1.00 20.00     0.279 HD
ENDROOT
BRANCH   6   9
HETATM    9  C7  UNL     1     -33.768  17.166  -2.021  1.00 20.00     0.237 C 
BRANCH   9  10
HETATM   10  C6  UNL     1     -34.658  16.605  -0.922  1.00 20.00     0.059 C 
BRANCH  10  11
HETATM   11  C8  UNL     1     -34.892  17.630   0.174  1.00 20.00     0.223 C 
HETATM   12  F10 UNL     1     -35.207  16.985   1.328  1.00 20.00    -0.255 F 
ENDBRANCH  10  11
ENDBRANCH   9  10
ENDBRANCH   6   9
TORSDOF 3
ENDMDL
MODEL 6
REMARK VINA RESULT:      -3.9     11.219     12.066
REMARK  3 active torsions:
REMARK  status: ('A' for Active; 'I' for Inactive)
REMARK    1  A    between atoms: C6_6  and  C7_7 
REMARK    2  A    between atoms: C6_6  and  C8_8 
REMARK    3  A    between atoms: C7_7  and  N9_9 
ROOT
HETATM    1  C1  UNL     1     -34.551   5.128   2.686  1.00 20.00     0.029 C 
HETATM    2  C2  UNL     1     -34.761   4.763   4.152  1.00 20.00     0.023 C 
HETATM    3  C3  UNL     1     -33.196   5.782   2.455  1.00 20.00     0.235 C 
HETATM    4  C4  UNL     1     -33.190   6.624   4.822  1.00 20.00     0.254 C 
HETATM    5  C5  UNL     1     -34.551   5.978   5.053  1.00 20.00     0.108 C 
HETATM    6  N9  UNL     1     -33.055   6.983   3.359  1.00 20.00    -0.070 N 
HETATM    7 CL11 UNL     1     -34.698   5.492   6.766  1.00 20.00    -0.123 Cl
HETATM    8  H27 UNL     1     -33.824   7.628   3.131  1.00 20.00     0.279 HD
ENDROOT
BRANCH   6   9
HETATM    9  C7  UNL     1     -31.779   7.734   3.088  1.00 20.00     0.237 C 
BRANCH   9  10
HETATM   10  C6  UNL     1     -31.760   8.176   1.632  1.00 20.00     0.059 C 
BRANCH  10  11
HETATM   11  C8  UNL     1     -32.437   9.524   1.458  1.00 20.00     0.223 C 
HETATM   12  F10 UNL     1     -32.837   9.659   0.166  1.00 20.00    -0.255 F 
ENDBRANCH  10  11
ENDBRANCH   9  10
ENDBRANCH   6   9
TORSDOF 3
ENDMDL
MODEL 7
REMARK VINA RESULT:      -3.9     11.937     12.852
REMARK  3 active torsions:
REMARK  status: ('A' for Active; 'I' for Inactive)
REMARK    1  A    between atoms: C6_6  and  C7_7 
REMARK    2  A    between atoms: C6_6  and  C8_8 
REMARK    3  A    between atoms: C7_7  and  N9_9 
ROOT
HETATM    1  C1  UNL     1     -35.220   4.751   5.080  1.00 20.00     0.029 C 
HETATM    2  C2  UNL     1     -34.657   5.397   6.343  1.00 20.00     0.023 C 
HETATM    3  C3  UNL     1     -34.214   4.775   3.938  1.00 20.00     0.235 C 
HETATM    4  C4  UNL     1     -33.139   6.824   4.914  1.00 20.00     0.254 C 
HETATM    5  C5  UNL     1     -34.150   6.808   6.055  1.00 20.00     0.108 C 
HETATM    6  N9  UNL     1     -33.765   6.194   3.690  1.00 20.00    -0.070 N 
HETATM    7 CL11 UNL     1     -33.401   7.492   7.526  1.00 20.00    -0.123 Cl
HETATM    8  H27 UNL     1     -34.604   6.744   3.460  1.00 20.00     0.279 HD
ENDROOT
BRANCH   6   9
HETATM    9  C7  UNL     1     -32.857   6.288   2.494  1.00 20.00     0.237 C 
BRANCH   9  10
HETATM   10  C6  UNL     1     -31.895   7.450   2.688  1.00 20.00     0.059 C 
BRANCH  10  11
HETATM   11  C8  UNL     1     -32.161   8.559   1.685  1.00 20.00     0.223 C 
HETATM   12  F10 UNL     1     -31.321   8.414   0.627  1.00 20.00    -0.255 F 
ENDBRANCH  10  11
ENDBRANCH   9  10
ENDBRANCH   6   9
TORSDOF 3
ENDMDL
MODEL 8
REMARK VINA RESULT:      -3.9     12.888     14.134
REMARK  3 active torsions:
REMARK  status: ('A' for Active; 'I' for Inactive)
REMARK    1  A    between atoms: C6_6  and  C7_7 
REMARK    2  A    between atoms: C6_6  and  C8_8 
REMARK    3  A    between atoms: C7_7  and  N9_9 
ROOT
HETATM    1  C1  UNL     1     -40.931   6.014  -0.368  1.00 20.00     0.029 C 
HETATM    2  C2  UNL     1     -41.100   7.116  -1.411  1.00 20.00     0.023 C 
HETATM    3  C3  UNL     1     -41.106   4.630  -0.976  1.00 20.00     0.235 C 
HETATM    4  C4  UNL     1     -42.599   5.589  -2.754  1.00 20.00     0.254 C 
HETATM    5  C5  UNL     1     -42.433   6.975  -2.142  1.00 20.00     0.108 C 
HETATM    6  N9  UNL     1     -42.445   4.548  -1.668  1.00 20.00    -0.070 N 
HETATM    7 CL11 UNL     1     -42.550   8.213  -3.426  1.00 20.00    -0.123 Cl
HETATM    8  H27 UNL     1     -43.166   4.738  -0.959  1.00 20.00     0.279 HD
ENDROOT
BRANCH   6   9
HETATM    9  C7  UNL     1     -42.717   3.162  -2.187  1.00 20.00     0.237 C 
BRANCH   9  10
HETATM   10  C6  UNL     1     -41.536   2.706  -3.032  1.00 20.00     0.059 C 
BRANCH  10  11
HETATM   11  C8  UNL     1     -41.891   1.483  -3.859  1.00 20.00     0.223 C 
HETATM   12  F10 UNL     1     -40.779   0.719  -4.025  1.00 20.00    -0.255 F 
ENDBRANCH  10  11
ENDBRANCH   9  10
ENDBRANCH   6   9
TORSDOF 3
ENDMDL
MODEL 9
REMARK VINA RESULT:      -3.8      2.435      2.934
REMARK  3 active torsions:
REMARK  status: ('A' for Active; 'I' for Inactive)
REMARK    1  A    between atoms: C6_6  and  C7_7 
REMARK    2  A    between atoms: C6_6  and  C8_8 
REMARK    3  A    between atoms: C7_7  and  N9_9 
ROOT
HETATM    1  C1  UNL     1     -37.037  15.092  -3.879  1.00 20.00     0.029 C 
HETATM    2  C2  UNL     1     -35.761  14.419  -4.375  1.00 20.00     0.023 C 
HETATM    3  C3  UNL     1     -36.750  16.441  -3.235  1.00 20.00     0.235 C 
HETATM    4  C4  UNL     1     -34.443  15.665  -2.617  1.00 20.00     0.254 C 
HETATM    5  C5  UNL     1     -34.730  14.311  -3.254  1.00 20.00     0.108 C 
HETATM    6  N9  UNL     1     -35.741  16.266  -2.127  1.00 20.00    -0.070 N 
HETATM    7 CL11 UNL     1     -33.212  13.618  -3.894  1.00 20.00    -0.123 Cl
HETATM    8  H27 UNL     1     -36.145  15.607  -1.447  1.00 20.00     0.279 HD
ENDROOT
BRANCH   6   9
HETATM    9  C7  UNL     1     -35.508  17.553  -1.381  1.00 20.00     0.237 C 
BRANCH   9  10
HETATM   10  C6  UNL     1     -34.785  17.249  -0.077  1.00 20.00     0.059 C 
BRANCH  10  11
HETATM   11  C8  UNL     1     -35.537  17.815   1.114  1.00 20.00     0.223 C 
HETATM   12  F10 UNL     1     -35.414  16.964   2.166  1.00 20.00    -0.255 F 
ENDBRANCH  10  11
ENDBRANCH   9  10
ENDBRANCH   6   9
TORSDOF 3
ENDMDL
