MODEL 1
REMARK VINA RESULT:      -5.3      0.000      0.000
REMARK  5 active torsions:
REMARK  status: ('A' for Active; 'I' for Inactive)
REMARK    1  A    between atoms: C1_1  and  C4_4 
REMARK    2  A    between atoms: C1_1  and  C8_8 
REMARK    3  A    between atoms: C4_4  and  C5_5 
REMARK    4  A    between atoms: C5_5  and  C6_6 
REMARK    5  A    between atoms: C6_6  and  C7_7 
ROOT
HETATM    1  C1  UNL     1     -34.199   5.685   4.002  1.00 20.00     0.130 C 
HETATM    2  O9  UNL     1     -34.679   5.263   2.950  1.00 20.00    -0.298 OA
ENDROOT
BRANCH   1   3
HETATM    3  C4  UNL     1     -32.875   6.435   4.035  1.00 20.00     0.079 C 
BRANCH   3   4
HETATM    4  C5  UNL     1     -32.342   6.798   2.649  1.00 20.00     0.010 C 
BRANCH   4   5
HETATM    5  C6  UNL     1     -31.992   8.285   2.530  1.00 20.00     0.032 C 
BRANCH   5   6
HETATM    6  C7  UNL     1     -32.054   8.756   1.087  1.00 20.00     0.222 C 
HETATM    7  F10 UNL     1     -32.136  10.114   1.064  1.00 20.00    -0.255 F 
ENDBRANCH   5   6
ENDBRANCH   4   5
ENDBRANCH   3   4
ENDBRANCH   1   3
BRANCH   1   8
HETATM    8  C8  UNL     1     -34.872   5.435   5.352  1.00 20.00     0.047 C 
HETATM    9  C2  UNL     1     -34.183   6.250   6.439  1.00 20.00     0.017 C 
HETATM   10  C3  UNL     1     -34.867   3.949   5.702  1.00 20.00     0.017 C 
ENDBRANCH   1   8
TORSDOF 5
ENDMDL
MODEL 2
REMARK VINA RESULT:      -4.9      1.447      1.694
REMARK  5 active torsions:
REMARK  status: ('A' for Active; 'I' for Inactive)
REMARK    1  A    between atoms: C1_1  and  C4_4 
REMARK    2  A    between atoms: C1_1  and  C8_8 
REMARK    3  A    between atoms: C4_4  and  C5_5 
REMARK    4  A    between atoms: C5_5  and  C6_6 
REMARK    5  A    between atoms: C6_6  and  C7_7 
ROOT
HETATM    1  C1  UNL     1     -33.489   6.129   4.524  1.00 20.00     0.130 C 
HETATM    2  O9  UNL     1     -33.235   6.842   5.496  1.00 20.00    -0.298 OA
ENDROOT
BRANCH   1   3
HETATM    3  C4  UNL     1     -32.775   6.306   3.191  1.00 20.00     0.079 C 
BRANCH   3   4
HETATM    4  C5  UNL     1     -31.967   7.601   3.098  1.00 20.00     0.010 C 
BRANCH   4   5
HETATM    5  C6  UNL     1     -31.847   8.110   1.657  1.00 20.00     0.032 C 
BRANCH   5   6
HETATM    6  C7  UNL     1     -32.454   9.494   1.505  1.00 20.00     0.222 C 
HETATM    7  F10 UNL     1     -32.796   9.691   0.203  1.00 20.00    -0.255 F 
ENDBRANCH   5   6
ENDBRANCH   4   5
ENDBRANCH   3   4
ENDBRANCH   1   3
BRANCH   1   8
HETATM    8  C8  UNL     1     -34.577   5.055   4.575  1.00 20.00     0.047 C 
HETATM    9  C2  UNL     1     -35.786   5.498   3.761  1.00 20.00     0.017 C 
HETATM   10  C3  UNL     1     -34.977   4.746   6.016  1.00 20.00     0.017 C 
ENDBRANCH   1   8
TORSDOF 5
ENDMDL
MODEL 3
REMARK VINA RESULT:      -4.6      1.738      2.080
REMARK  5 active torsions:
REMARK  status: ('A' for Active; 'I' for Inactive)
REMARK    1  A    between atoms: C1_1  and  C4_4 
REMARK    2  A    between atoms: C1_1  and  C8_8 
REMARK    3  A    between atoms: C4_4  and  C5_5 
REMARK    4  A    between atoms: C5_5  and  C6_6 
REMARK    5  A    between atoms: C6_6  and  C7_7 
ROOT
HETATM    1  C1  UNL     1     -35.036   4.929   4.824  1.00 20.00     0.130 C 
HETATM    2  O9  UNL     1     -35.521   3.838   4.524  1.00 20.00    -0.298 OA
ENDROOT
BRANCH   1   3
HETATM    3  C4  UNL     1     -34.772   6.004   3.779  1.00 20.00     0.079 C 
BRANCH   3   4
HETATM    4  C5  UNL     1     -33.741   5.595   2.728  1.00 20.00     0.010 C 
BRANCH   4   5
HETATM    5  C6  UNL     1     -32.314   5.984   3.129  1.00 20.00     0.032 C 
BRANCH   5   6
HETATM    6  C7  UNL     1     -32.078   7.476   2.965  1.00 20.00     0.222 C 
HETATM    7  F10 UNL     1     -31.234   7.904   3.941  1.00 20.00    -0.255 F 
ENDBRANCH   5   6
ENDBRANCH   4   5
ENDBRANCH   3   4
ENDBRANCH   1   3
BRANCH   1   8
HETATM    8  C8  UNL     1     -34.617   5.256   6.258  1.00 20.00     0.047 C 
HETATM    9  C2  UNL     1     -34.020   6.657   6.320  1.00 20.00     0.017 C 
HETATM   10  C3  UNL     1     -33.629   4.222   6.791  1.00 20.00     0.017 C 
ENDBRANCH   1   8
TORSDOF 5
ENDMDL
MODEL 4
REMARK VINA RESULT:      -4.6      2.953      5.390
REMARK  5 active torsions:
REMARK  status: ('A' for Active; 'I' for Inactive)
REMARK    1  A    between atoms: C1_1  and  C4_4 
REMARK    2  A    between atoms: C1_1  and  C8_8 
REMARK    3  A    between atoms: C4_4  and  C5_5 
REMARK    4  A    between atoms: C5_5  and  C6_6 
REMARK    5  A    between atoms: C6_6  and  C7_7 
ROOT
HETATM    1  C1  UNL     1     -32.138   7.611   2.870  1.00 20.00     0.130 C 
HETATM    2  O9  UNL     1     -31.197   7.886   3.615  1.00 20.00    -0.298 OA
ENDROOT
BRANCH   1   3
HETATM    3  C4  UNL     1     -32.962   6.343   3.053  1.00 20.00     0.079 C 
BRANCH   3   4
HETATM    4  C5  UNL     1     -33.736   6.302   4.370  1.00 20.00     0.010 C 
BRANCH   4   5
HETATM    5  C6  UNL     1     -34.809   5.207   4.382  1.00 20.00     0.032 C 
BRANCH   5   6
HETATM    6  C7  UNL     1     -35.012   4.644   5.778  1.00 20.00     0.222 C 
HETATM    7  F10 UNL     1     -34.896   5.649   6.686  1.00 20.00    -0.255 F 
ENDBRANCH   5   6
ENDBRANCH   4   5
ENDBRANCH   3   4
ENDBRANCH   1   3
BRANCH   1   8
HETATM    8  C8  UNL     1     -32.507   8.495   1.678  1.00 20.00     0.047 C 
HETATM    9  C2  UNL     1     -31.421   8.416   0.612  1.00 20.00     0.017 C 
HETATM   10  C3  UNL     1     -32.733   9.940   2.116  1.00 20.00     0.017 C 
ENDBRANCH   1   8
TORSDOF 5
ENDMDL
MODEL 5
REMARK VINA RESULT:      -4.4     10.581     11.836
REMARK  5 active torsions:
REMARK  status: ('A' for Active; 'I' for Inactive)
REMARK    1  A    between atoms: C1_1  and  C4_4 
REMARK    2  A    between atoms: C1_1  and  C8_8 
REMARK    3  A    between atoms: C4_4  and  C5_5 
REMARK    4  A    between atoms: C5_5  and  C6_6 
REMARK    5  A    between atoms: C6_6  and  C7_7 
ROOT
HETATM    1  C1  UNL     1     -34.706  13.676  -4.698  1.00 20.00     0.130 C 
HETATM    2  O9  UNL     1     -34.858  12.487  -4.978  1.00 20.00    -0.298 OA
ENDROOT
BRANCH   1   3
HETATM    3  C4  UNL     1     -34.062  14.116  -3.391  1.00 20.00     0.079 C 
BRANCH   3   4
HETATM    4  C5  UNL     1     -33.176  15.354  -3.533  1.00 20.00     0.010 C 
BRANCH   4   5
HETATM    5  C6  UNL     1     -33.703  16.544  -2.723  1.00 20.00     0.032 C 
BRANCH   5   6
HETATM    6  C7  UNL     1     -34.911  16.155  -1.887  1.00 20.00     0.222 C 
HETATM    7  F10 UNL     1     -34.589  16.247  -0.568  1.00 20.00    -0.255 F 
ENDBRANCH   5   6
ENDBRANCH   4   5
ENDBRANCH   3   4
ENDBRANCH   1   3
BRANCH   1   8
HETATM    8  C8  UNL     1     -35.204  14.790  -5.620  1.00 20.00     0.047 C 
HETATM    9  C2  UNL     1     -36.604  15.227  -5.203  1.00 20.00     0.017 C 
HETATM   10  C3  UNL     1     -35.188  14.344  -7.079  1.00 20.00     0.017 C 
ENDBRANCH   1   8
TORSDOF 5
ENDMDL
MODEL 6
REMARK VINA RESULT:      -4.3      2.708      4.810
REMARK  5 active torsions:
REMARK  status: ('A' for Active; 'I' for Inactive)
REMARK    1  A    between atoms: C1_1  and  C4_4 
REMARK    2  A    between atoms: C1_1  and  C8_8 
REMARK    3  A    between atoms: C4_4  and  C5_5 
REMARK    4  A    between atoms: C5_5  and  C6_6 
REMARK    5  A    between atoms: C6_6  and  C7_7 
ROOT
HETATM    1  C1  UNL     1     -32.995   6.173   2.957  1.00 20.00     0.130 C 
HETATM    2  O9  UNL     1     -33.060   5.208   2.195  1.00 20.00    -0.298 OA
ENDROOT
BRANCH   1   3
HETATM    3  C4  UNL     1     -34.065   6.440   4.007  1.00 20.00     0.079 C 
BRANCH   3   4
HETATM    4  C5  UNL     1     -35.238   5.462   3.946  1.00 20.00     0.010 C 
BRANCH   4   5
HETATM    5  C6  UNL     1     -35.174   4.406   5.055  1.00 20.00     0.032 C 
BRANCH   5   6
HETATM    6  C7  UNL     1     -34.317   4.874   6.219  1.00 20.00     0.222 C 
HETATM    7  F10 UNL     1     -34.999   5.814   6.926  1.00 20.00    -0.255 F 
ENDBRANCH   5   6
ENDBRANCH   4   5
ENDBRANCH   3   4
ENDBRANCH   1   3
BRANCH   1   8
HETATM    8  C8  UNL     1     -31.863   7.198   2.864  1.00 20.00     0.047 C 
HETATM    9  C2  UNL     1     -31.544   7.751   4.247  1.00 20.00     0.017 C 
HETATM   10  C3  UNL     1     -32.221   8.325   1.898  1.00 20.00     0.017 C 
ENDBRANCH   1   8
TORSDOF 5
ENDMDL
MODEL 7
REMARK VINA RESULT:      -4.3     10.850     12.123
REMARK  5 active torsions:
REMARK  status: ('A' for Active; 'I' for Inactive)
REMARK    1  A    between atoms: C1_1  and  C4_4 
REMARK    2  A    between atoms: C1_1  and  C8_8 
REMARK    3  A    between atoms: C4_4  and  C5_5 
REMARK    4  A    between atoms: C5_5  and  C6_6 
REMARK    5  A    between atoms: C6_6  and  C7_7 
ROOT
HETATM    1  C1  UNL     1     -35.027  13.718  -4.372  1.00 20.00     0.130 C 
HETATM    2  O9  UNL     1     -34.969  12.509  -4.596  1.00 20.00    -0.298 OA
ENDROOT
BRANCH   1   3
HETATM    3  C4  UNL     1     -35.844  14.658  -5.247  1.00 20.00     0.079 C 
BRANCH   3   4
HETATM    4  C5  UNL     1     -35.464  14.601  -6.727  1.00 20.00     0.010 C 
BRANCH   4   5
HETATM    5  C6  UNL     1     -34.231  15.454  -7.045  1.00 20.00     0.032 C 
BRANCH   5   6
HETATM    6  C7  UNL     1     -34.338  16.838  -6.426  1.00 20.00     0.222 C 
HETATM    7  F10 UNL     1     -33.232  17.076  -5.671  1.00 20.00    -0.255 F 
ENDBRANCH   5   6
ENDBRANCH   4   5
ENDBRANCH   3   4
ENDBRANCH   1   3
BRANCH   1   8
HETATM    8  C8  UNL     1     -34.237  14.364  -3.234  1.00 20.00     0.047 C 
HETATM    9  C2  UNL     1     -34.895  15.674  -2.818  1.00 20.00     0.017 C 
HETATM   10  C3  UNL     1     -32.782  14.592  -3.635  1.00 20.00     0.017 C 
ENDBRANCH   1   8
TORSDOF 5
ENDMDL
MODEL 8
REMARK VINA RESULT:      -4.1     10.896     12.123
REMARK  5 active torsions:
REMARK  status: ('A' for Active; 'I' for Inactive)
REMARK    1  A    between atoms: C1_1  and  C4_4 
REMARK    2  A    between atoms: C1_1  and  C8_8 
REMARK    3  A    between atoms: C4_4  and  C5_5 
REMARK    4  A    between atoms: C5_5  and  C6_6 
REMARK    5  A    between atoms: C6_6  and  C7_7 
ROOT
HETATM    1  C1  UNL     1     -35.211  13.847  -4.055  1.00 20.00     0.130 C 
HETATM    2  O9  UNL     1     -34.977  12.702  -4.442  1.00 20.00    -0.298 OA
ENDROOT
BRANCH   1   3
HETATM    3  C4  UNL     1     -36.420  14.630  -4.549  1.00 20.00     0.079 C 
BRANCH   3   4
HETATM    4  C5  UNL     1     -36.361  14.971  -6.038  1.00 20.00     0.010 C 
BRANCH   4   5
HETATM    5  C6  UNL     1     -35.652  16.304  -6.303  1.00 20.00     0.032 C 
BRANCH   5   6
HETATM    6  C7  UNL     1     -34.329  16.096  -7.020  1.00 20.00     0.222 C 
HETATM    7  F10 UNL     1     -34.070  14.763  -7.101  1.00 20.00    -0.255 F 
ENDBRANCH   5   6
ENDBRANCH   4   5
ENDBRANCH   3   4
ENDBRANCH   1   3
BRANCH   1   8
HETATM    8  C8  UNL     1     -34.273  14.580  -3.095  1.00 20.00     0.047 C 
HETATM    9  C2  UNL     1     -34.962  15.820  -2.536  1.00 20.00     0.017 C 
HETATM   10  C3  UNL     1     -32.963  14.952  -3.784  1.00 20.00     0.017 C 
ENDBRANCH   1   8
TORSDOF 5
ENDMDL
MODEL 9
REMARK VINA RESULT:      -4.1     10.502     12.066
REMARK  5 active torsions:
REMARK  status: ('A' for Active; 'I' for Inactive)
REMARK    1  A    between atoms: C1_1  and  C4_4 
REMARK    2  A    between atoms: C1_1  and  C8_8 
REMARK    3  A    between atoms: C4_4  and  C5_5 
REMARK    4  A    between atoms: C5_5  and  C6_6 
REMARK    5  A    between atoms: C6_6  and  C7_7 
ROOT
HETATM    1  C1  UNL     1     -35.964  14.068  -4.746  1.00 20.00     0.130 C 
HETATM    2  O9  UNL     1     -36.805  14.005  -3.849  1.00 20.00    -0.298 OA
ENDROOT
BRANCH   1   3
HETATM    3  C4  UNL     1     -34.640  13.321  -4.657  1.00 20.00     0.079 C 
BRANCH   3   4
HETATM    4  C5  UNL     1     -33.748  13.791  -3.507  1.00 20.00     0.010 C 
BRANCH   4   5
HETATM    5  C6  UNL     1     -33.193  15.201  -3.740  1.00 20.00     0.032 C 
BRANCH   5   6
HETATM    6  C7  UNL     1     -33.684  16.173  -2.681  1.00 20.00     0.222 C 
HETATM    7  F10 UNL     1     -34.652  15.573  -1.938  1.00 20.00    -0.255 F 
ENDBRANCH   5   6
ENDBRANCH   4   5
ENDBRANCH   3   4
ENDBRANCH   1   3
BRANCH   1   8
HETATM    8  C8  UNL     1     -36.168  14.943  -5.983  1.00 20.00     0.047 C 
HETATM    9  C2  UNL     1     -35.078  14.661  -7.009  1.00 20.00     0.017 C 
HETATM   10  C3  UNL     1     -36.191  16.423  -5.610  1.00 20.00     0.017 C 
ENDBRANCH   1   8
TORSDOF 5
ENDMDL
