MODEL 1
REMARK VINA RESULT:      -4.2      0.000      0.000
REMARK  3 active torsions:
REMARK  status: ('A' for Active; 'I' for Inactive)
REMARK    1  A    between atoms: C6_6  and  C7_7 
REMARK    2  A    between atoms: C6_6  and  C8_8 
REMARK    3  A    between atoms: C7_7  and  N9_9 
ROOT
HETATM    1  C1  UNL     1     -36.218  14.684  -3.751  1.00 20.00     0.050 C 
HETATM    2  C2  UNL     1     -33.830  13.902  -3.633  1.00 20.00     0.050 C 
HETATM    3  C3  UNL     1     -35.698  16.127  -3.770  1.00 20.00     0.274 C 
HETATM    4  C4  UNL     1     -33.394  15.372  -3.656  1.00 20.00     0.274 C 
HETATM    5  C5  UNL     1     -35.193  13.685  -4.292  1.00 20.00     0.085 C 
HETATM    6  N9  UNL     1     -34.394  16.304  -3.118  1.00 20.00     0.088 N 
HETATM    7 CL11 UNL     1     -35.056  13.836  -6.073  1.00 20.00    -0.125 Cl
ENDROOT
BRANCH   6   8
HETATM    8  C7  UNL     1     -34.489  16.234  -1.661  1.00 20.00     0.275 C 
BRANCH   8   9
HETATM    9  C6  UNL     1     -33.714  17.386  -1.023  1.00 20.00     0.061 C 
BRANCH   9  10
HETATM   10  C8  UNL     1     -34.412  17.901   0.223  1.00 20.00     0.223 C 
HETATM   11  F10 UNL     1     -35.137  16.895   0.779  1.00 20.00    -0.255 F 
ENDBRANCH   9  10
ENDBRANCH   8   9
ENDBRANCH   6   8
TORSDOF 3
ENDMDL
MODEL 2
REMARK VINA RESULT:      -4.1     10.814     11.503
REMARK  3 active torsions:
REMARK  status: ('A' for Active; 'I' for Inactive)
REMARK    1  A    between atoms: C6_6  and  C7_7 
REMARK    2  A    between atoms: C6_6  and  C8_8 
REMARK    3  A    between atoms: C7_7  and  N9_9 
ROOT
HETATM    1  C1  UNL     1     -35.341   5.467   3.633  1.00 20.00     0.050 C 
HETATM    2  C2  UNL     1     -33.935   6.432   5.482  1.00 20.00     0.050 C 
HETATM    3  C3  UNL     1     -34.058   5.277   2.816  1.00 20.00     0.274 C 
HETATM    4  C4  UNL     1     -32.701   6.208   4.599  1.00 20.00     0.274 C 
HETATM    5  C5  UNL     1     -35.080   5.478   5.141  1.00 20.00     0.085 C 
HETATM    6  N9  UNL     1     -32.983   6.217   3.158  1.00 20.00     0.088 N 
HETATM    7 CL11 UNL     1     -34.706   3.823   5.719  1.00 20.00    -0.125 Cl
ENDROOT
BRANCH   6   8
HETATM    8  C7  UNL     1     -33.244   7.564   2.653  1.00 20.00     0.275 C 
BRANCH   8   9
HETATM    9  C6  UNL     1     -31.971   8.161   2.054  1.00 20.00     0.061 C 
BRANCH   9  10
HETATM   10  C8  UNL     1     -32.280   9.365   1.182  1.00 20.00     0.223 C 
HETATM   11  F10 UNL     1     -32.536  10.439   1.974  1.00 20.00    -0.255 F 
ENDBRANCH   9  10
ENDBRANCH   8   9
ENDBRANCH   6   8
TORSDOF 3
ENDMDL
MODEL 3
REMARK VINA RESULT:      -4.1      1.485      1.936
REMARK  3 active torsions:
REMARK  status: ('A' for Active; 'I' for Inactive)
REMARK    1  A    between atoms: C6_6  and  C7_7 
REMARK    2  A    between atoms: C6_6  and  C8_8 
REMARK    3  A    between atoms: C7_7  and  N9_9 
ROOT
HETATM    1  C1  UNL     1     -34.951  13.560  -5.142  1.00 20.00     0.050 C 
HETATM    2  C2  UNL     1     -34.154  15.826  -5.889  1.00 20.00     0.050 C 
HETATM    3  C3  UNL     1     -35.873  14.263  -4.139  1.00 20.00     0.274 C 
HETATM    4  C4  UNL     1     -35.104  16.450  -4.859  1.00 20.00     0.274 C 
HETATM    5  C5  UNL     1     -34.615  14.441  -6.347  1.00 20.00     0.085 C 
HETATM    6  N9  UNL     1     -35.396  15.584  -3.709  1.00 20.00     0.088 N 
HETATM    7 CL11 UNL     1     -36.036  14.583  -7.430  1.00 20.00    -0.125 Cl
ENDROOT
BRANCH   6   8
HETATM    8  C7  UNL     1     -34.267  15.492  -2.785  1.00 20.00     0.275 C 
BRANCH   8   9
HETATM    9  C6  UNL     1     -33.783  16.888  -2.398  1.00 20.00     0.061 C 
BRANCH   9  10
HETATM   10  C8  UNL     1     -34.127  17.216  -0.956  1.00 20.00     0.223 C 
HETATM   11  F10 UNL     1     -34.791  16.167  -0.405  1.00 20.00    -0.255 F 
ENDBRANCH   9  10
ENDBRANCH   8   9
ENDBRANCH   6   8
TORSDOF 3
ENDMDL
MODEL 4
REMARK VINA RESULT:      -4.0      1.126      1.521
REMARK  3 active torsions:
REMARK  status: ('A' for Active; 'I' for Inactive)
REMARK    1  A    between atoms: C6_6  and  C7_7 
REMARK    2  A    between atoms: C6_6  and  C8_8 
REMARK    3  A    between atoms: C7_7  and  N9_9 
ROOT
HETATM    1  C1  UNL     1     -35.121  16.602  -4.946  1.00 20.00     0.050 C 
HETATM    2  C2  UNL     1     -35.522  14.187  -4.368  1.00 20.00     0.050 C 
HETATM    3  C3  UNL     1     -33.827  16.538  -4.126  1.00 20.00     0.274 C 
HETATM    4  C4  UNL     1     -34.213  14.208  -3.568  1.00 20.00     0.274 C 
HETATM    5  C5  UNL     1     -35.543  15.233  -5.484  1.00 20.00     0.085 C 
HETATM    6  N9  UNL     1     -33.843  15.533  -3.055  1.00 20.00     0.088 N 
HETATM    7 CL11 UNL     1     -34.467  14.734  -6.827  1.00 20.00    -0.125 Cl
ENDROOT
BRANCH   6   8
HETATM    8  C7  UNL     1     -34.676  15.941  -1.925  1.00 20.00     0.275 C 
BRANCH   8   9
HETATM    9  C6  UNL     1     -34.019  17.096  -1.172  1.00 20.00     0.061 C 
BRANCH   9  10
HETATM   10  C8  UNL     1     -34.778  17.433   0.100  1.00 20.00     0.223 C 
HETATM   11  F10 UNL     1     -33.898  17.836   1.053  1.00 20.00    -0.255 F 
ENDBRANCH   9  10
ENDBRANCH   8   9
ENDBRANCH   6   8
TORSDOF 3
ENDMDL
MODEL 5
REMARK VINA RESULT:      -3.8      3.522      4.922
REMARK  3 active torsions:
REMARK  status: ('A' for Active; 'I' for Inactive)
REMARK    1  A    between atoms: C6_6  and  C7_7 
REMARK    2  A    between atoms: C6_6  and  C8_8 
REMARK    3  A    between atoms: C7_7  and  N9_9 
ROOT
HETATM    1  C1  UNL     1     -34.925  16.649  -4.088  1.00 20.00     0.050 C 
HETATM    2  C2  UNL     1     -33.245  14.917  -3.378  1.00 20.00     0.050 C 
HETATM    3  C3  UNL     1     -35.930  15.514  -4.324  1.00 20.00     0.274 C 
HETATM    4  C4  UNL     1     -34.308  13.843  -3.639  1.00 20.00     0.274 C 
HETATM    5  C5  UNL     1     -33.857  16.282  -3.057  1.00 20.00     0.085 C 
HETATM    6  N9  UNL     1     -35.310  14.221  -4.643  1.00 20.00     0.088 N 
HETATM    7 CL11 UNL     1     -34.560  16.276  -1.408  1.00 20.00    -0.125 Cl
ENDROOT
BRANCH   6   8
HETATM    8  C7  UNL     1     -34.773  14.185  -6.003  1.00 20.00     0.275 C 
BRANCH   8   9
HETATM    9  C6  UNL     1     -35.816  14.689  -6.998  1.00 20.00     0.061 C 
BRANCH   9  10
HETATM   10  C8  UNL     1     -35.239  15.752  -7.917  1.00 20.00     0.223 C 
HETATM   11  F10 UNL     1     -34.098  16.245  -7.369  1.00 20.00    -0.255 F 
ENDBRANCH   9  10
ENDBRANCH   8   9
ENDBRANCH   6   8
TORSDOF 3
ENDMDL
MODEL 6
REMARK VINA RESULT:      -3.8      3.509      4.928
REMARK  3 active torsions:
REMARK  status: ('A' for Active; 'I' for Inactive)
REMARK    1  A    between atoms: C6_6  and  C7_7 
REMARK    2  A    between atoms: C6_6  and  C8_8 
REMARK    3  A    between atoms: C7_7  and  N9_9 
ROOT
HETATM    1  C1  UNL     1     -34.065  17.606  -3.116  1.00 20.00     0.050 C 
HETATM    2  C2  UNL     1     -34.503  15.132  -3.002  1.00 20.00     0.050 C 
HETATM    3  C3  UNL     1     -35.498  17.792  -3.629  1.00 20.00     0.274 C 
HETATM    4  C4  UNL     1     -35.921  15.404  -3.520  1.00 20.00     0.274 C 
HETATM    5  C5  UNL     1     -33.902  16.338  -2.277  1.00 20.00     0.085 C 
HETATM    6  N9  UNL     1     -36.040  16.622  -4.332  1.00 20.00     0.088 N 
HETATM    7 CL11 UNL     1     -34.675  16.548  -0.674  1.00 20.00    -0.125 Cl
ENDROOT
BRANCH   6   8
HETATM    8  C7  UNL     1     -35.460  16.458  -5.664  1.00 20.00     0.275 C 
BRANCH   8   9
HETATM    9  C6  UNL     1     -36.290  15.473  -6.486  1.00 20.00     0.061 C 
BRANCH   9  10
HETATM   10  C8  UNL     1     -35.419  14.394  -7.104  1.00 20.00     0.223 C 
HETATM   11  F10 UNL     1     -34.114  14.667  -6.842  1.00 20.00    -0.255 F 
ENDBRANCH   9  10
ENDBRANCH   8   9
ENDBRANCH   6   8
TORSDOF 3
ENDMDL
MODEL 7
REMARK VINA RESULT:      -3.8     12.519     14.053
REMARK  3 active torsions:
REMARK  status: ('A' for Active; 'I' for Inactive)
REMARK    1  A    between atoms: C6_6  and  C7_7 
REMARK    2  A    between atoms: C6_6  and  C8_8 
REMARK    3  A    between atoms: C7_7  and  N9_9 
ROOT
HETATM    1  C1  UNL     1     -42.581   6.417  -2.896  1.00 20.00     0.050 C 
HETATM    2  C2  UNL     1     -40.970   6.123  -0.987  1.00 20.00     0.050 C 
HETATM    3  C3  UNL     1     -43.383   5.233  -2.344  1.00 20.00     0.274 C 
HETATM    4  C4  UNL     1     -41.829   4.948  -0.502  1.00 20.00     0.274 C 
HETATM    5  C5  UNL     1     -41.769   7.131  -1.813  1.00 20.00     0.085 C 
HETATM    6  N9  UNL     1     -42.584   4.276  -1.567  1.00 20.00     0.088 N 
HETATM    7 CL11 UNL     1     -42.853   8.087  -0.752  1.00 20.00    -0.125 Cl
ENDROOT
BRANCH   6   8
HETATM    8  C7  UNL     1     -41.728   3.451  -2.417  1.00 20.00     0.275 C 
BRANCH   8   9
HETATM    9  C6  UNL     1     -42.544   2.333  -3.065  1.00 20.00     0.061 C 
BRANCH   9  10
HETATM   10  C8  UNL     1     -41.646   1.309  -3.738  1.00 20.00     0.223 C 
HETATM   11  F10 UNL     1     -40.532   1.930  -4.206  1.00 20.00    -0.255 F 
ENDBRANCH   9  10
ENDBRANCH   8   9
ENDBRANCH   6   8
TORSDOF 3
ENDMDL
MODEL 8
REMARK VINA RESULT:      -3.7      1.478      2.250
REMARK  3 active torsions:
REMARK  status: ('A' for Active; 'I' for Inactive)
REMARK    1  A    between atoms: C6_6  and  C7_7 
REMARK    2  A    between atoms: C6_6  and  C8_8 
REMARK    3  A    between atoms: C7_7  and  N9_9 
ROOT
HETATM    1  C1  UNL     1     -33.408  15.394  -3.566  1.00 20.00     0.050 C 
HETATM    2  C2  UNL     1     -33.670  17.613  -4.722  1.00 20.00     0.050 C 
HETATM    3  C3  UNL     1     -34.814  15.580  -2.985  1.00 20.00     0.274 C 
HETATM    4  C4  UNL     1     -35.068  17.721  -4.099  1.00 20.00     0.274 C 
HETATM    5  C5  UNL     1     -33.207  16.163  -4.873  1.00 20.00     0.085 C 
HETATM    6  N9  UNL     1     -35.223  16.983  -2.840  1.00 20.00     0.088 N 
HETATM    7 CL11 UNL     1     -34.094  15.362  -6.209  1.00 20.00    -0.125 Cl
ENDROOT
BRANCH   6   8
HETATM    8  C7  UNL     1     -34.549  17.644  -1.724  1.00 20.00     0.275 C 
BRANCH   8   9
HETATM    9  C6  UNL     1     -34.653  16.791  -0.461  1.00 20.00     0.061 C 
BRANCH   9  10
HETATM   10  C8  UNL     1     -35.190  17.595   0.710  1.00 20.00     0.223 C 
HETATM   11  F10 UNL     1     -34.157  17.969   1.508  1.00 20.00    -0.255 F 
ENDBRANCH   9  10
ENDBRANCH   8   9
ENDBRANCH   6   8
TORSDOF 3
ENDMDL
MODEL 9
REMARK VINA RESULT:      -3.7      3.441      4.874
REMARK  3 active torsions:
REMARK  status: ('A' for Active; 'I' for Inactive)
REMARK    1  A    between atoms: C6_6  and  C7_7 
REMARK    2  A    between atoms: C6_6  and  C8_8 
REMARK    3  A    between atoms: C7_7  and  N9_9 
ROOT
HETATM    1  C1  UNL     1     -34.570  15.879  -2.288  1.00 20.00     0.050 C 
HETATM    2  C2  UNL     1     -34.976  18.309  -2.794  1.00 20.00     0.050 C 
HETATM    3  C3  UNL     1     -33.461  15.889  -3.347  1.00 20.00     0.274 C 
HETATM    4  C4  UNL     1     -33.853  18.233  -3.837  1.00 20.00     0.274 C 
HETATM    5  C5  UNL     1     -34.820  17.265  -1.688  1.00 20.00     0.085 C 
HETATM    6  N9  UNL     1     -33.647  16.894  -4.402  1.00 20.00     0.088 N 
HETATM    7 CL11 UNL     1     -33.480  17.718  -0.587  1.00 20.00    -0.125 Cl
ENDROOT
BRANCH   6   8
HETATM    8  C7  UNL     1     -34.703  16.521  -5.342  1.00 20.00     0.275 C 
BRANCH   8   9
HETATM    9  C6  UNL     1     -34.220  15.405  -6.266  1.00 20.00     0.061 C 
BRANCH   9  10
HETATM   10  C8  UNL     1     -35.082  14.162  -6.132  1.00 20.00     0.223 C 
HETATM   11  F10 UNL     1     -34.492  13.300  -5.262  1.00 20.00    -0.255 F 
ENDBRANCH   9  10
ENDBRANCH   8   9
ENDBRANCH   6   8
TORSDOF 3
ENDMDL
