MODEL 1
REMARK VINA RESULT:      -4.6      0.000      0.000
REMARK  2 active torsions:
REMARK  status: ('A' for Active; 'I' for Inactive)
REMARK    1  A    between atoms: C5_5  and  C8_8 
REMARK    2  A    between atoms: C9_9  and  C10_10 
ROOT
HETATM    1  C1  UNL     1     -35.461  17.085  -3.167  1.00 20.00     0.009 A 
HETATM    2  C2  UNL     1     -33.511  15.692  -2.865  1.00 20.00     0.009 A 
HETATM    3  C3  UNL     1     -35.340  16.956  -4.550  1.00 20.00     0.024 A 
HETATM    4  C4  UNL     1     -33.391  15.561  -4.248  1.00 20.00     0.024 A 
HETATM    5  C5  UNL     1     -34.547  16.453  -2.324  1.00 20.00    -0.053 A 
HETATM    6  C6  UNL     1     -34.305  16.193  -5.091  1.00 20.00     0.034 A 
HETATM    7 CL11 UNL     1     -34.155  16.033  -6.798  1.00 20.00    -0.084 Cl
ENDROOT
BRANCH   5   8
HETATM    8  C8  UNL     1     -34.676  16.592  -0.846  1.00 20.00     0.024 A 
HETATM    9  C7  UNL     1     -35.472  17.747  -0.286  1.00 20.00     0.016 A 
HETATM   10  C9  UNL     1     -33.984  17.715  -0.104  1.00 20.00     0.008 A 
BRANCH  10  11
HETATM   11  C10 UNL     1     -33.127  18.726  -0.788  1.00 20.00     0.119 C 
HETATM   12 CL12 UNL     1     -31.792  19.262   0.270  1.00 20.00    -0.130 Cl
ENDBRANCH  10  11
ENDBRANCH   5   8
TORSDOF 2
ENDMDL
MODEL 2
REMARK VINA RESULT:      -4.6      2.146      2.446
REMARK  2 active torsions:
REMARK  status: ('A' for Active; 'I' for Inactive)
REMARK    1  A    between atoms: C5_5  and  C8_8 
REMARK    2  A    between atoms: C9_9  and  C10_10 
ROOT
HETATM    1  C1  UNL     1     -33.430  16.511  -4.351  1.00 20.00     0.009 A 
HETATM    2  C2  UNL     1     -35.086  15.164  -3.220  1.00 20.00     0.009 A 
HETATM    3  C3  UNL     1     -33.799  15.942  -5.570  1.00 20.00     0.024 A 
HETATM    4  C4  UNL     1     -35.455  14.596  -4.439  1.00 20.00     0.024 A 
HETATM    5  C5  UNL     1     -34.073  16.122  -3.176  1.00 20.00    -0.053 A 
HETATM    6  C6  UNL     1     -34.813  14.985  -5.614  1.00 20.00     0.034 A 
HETATM    7 CL11 UNL     1     -35.269  14.282  -7.118  1.00 20.00    -0.084 Cl
ENDROOT
BRANCH   5   8
HETATM    8  C8  UNL     1     -33.678  16.730  -1.875  1.00 20.00     0.024 A 
HETATM    9  C7  UNL     1     -34.652  16.691  -0.722  1.00 20.00     0.016 A 
HETATM   10  C9  UNL     1     -34.331  18.001  -1.377  1.00 20.00     0.008 A 
BRANCH  10  11
HETATM   11  C10 UNL     1     -35.380  18.725  -2.150  1.00 20.00     0.119 C 
HETATM   12 CL12 UNL     1     -36.998  18.030  -1.852  1.00 20.00    -0.130 Cl
ENDBRANCH  10  11
ENDBRANCH   5   8
TORSDOF 2
ENDMDL
MODEL 3
REMARK VINA RESULT:      -4.5      2.426      5.663
REMARK  2 active torsions:
REMARK  status: ('A' for Active; 'I' for Inactive)
REMARK    1  A    between atoms: C5_5  and  C8_8 
REMARK    2  A    between atoms: C9_9  and  C10_10 
ROOT
HETATM    1  C1  UNL     1     -35.020  14.525  -3.884  1.00 20.00     0.009 A 
HETATM    2  C2  UNL     1     -33.787  16.185  -5.133  1.00 20.00     0.009 A 
HETATM    3  C3  UNL     1     -34.737  15.206  -2.700  1.00 20.00     0.024 A 
HETATM    4  C4  UNL     1     -33.504  16.865  -3.949  1.00 20.00     0.024 A 
HETATM    5  C5  UNL     1     -34.545  15.015  -5.101  1.00 20.00    -0.053 A 
HETATM    6  C6  UNL     1     -33.979  16.376  -2.732  1.00 20.00     0.034 A 
HETATM    7 CL11 UNL     1     -33.629  17.216  -1.271  1.00 20.00    -0.084 Cl
ENDROOT
BRANCH   5   8
HETATM    8  C8  UNL     1     -34.848  14.287  -6.365  1.00 20.00     0.024 A 
HETATM    9  C7  UNL     1     -34.634  14.990  -7.684  1.00 20.00     0.016 A 
HETATM   10  C9  UNL     1     -36.028  14.679  -7.228  1.00 20.00     0.008 A 
BRANCH  10  11
HETATM   11  C10 UNL     1     -36.959  15.787  -6.866  1.00 20.00     0.119 C 
HETATM   12 CL12 UNL     1     -38.183  15.241  -5.686  1.00 20.00    -0.130 Cl
ENDBRANCH  10  11
ENDBRANCH   5   8
TORSDOF 2
ENDMDL
MODEL 4
REMARK VINA RESULT:      -4.5      2.377      5.611
REMARK  2 active torsions:
REMARK  status: ('A' for Active; 'I' for Inactive)
REMARK    1  A    between atoms: C5_5  and  C8_8 
REMARK    2  A    between atoms: C9_9  and  C10_10 
ROOT
HETATM    1  C1  UNL     1     -33.748  16.243  -5.057  1.00 20.00     0.009 A 
HETATM    2  C2  UNL     1     -35.018  14.626  -3.791  1.00 20.00     0.009 A 
HETATM    3  C3  UNL     1     -33.472  16.946  -3.885  1.00 20.00     0.024 A 
HETATM    4  C4  UNL     1     -34.742  15.328  -2.618  1.00 20.00     0.024 A 
HETATM    5  C5  UNL     1     -34.521  15.083  -5.011  1.00 20.00    -0.053 A 
HETATM    6  C6  UNL     1     -33.969  16.488  -2.664  1.00 20.00     0.034 A 
HETATM    7 CL11 UNL     1     -33.629  17.354  -1.216  1.00 20.00    -0.084 Cl
ENDROOT
BRANCH   5   8
HETATM    8  C8  UNL     1     -34.815  14.333  -6.264  1.00 20.00     0.024 A 
HETATM    9  C7  UNL     1     -34.616  15.021  -7.593  1.00 20.00     0.016 A 
HETATM   10  C9  UNL     1     -36.004  14.695  -7.129  1.00 20.00     0.008 A 
BRANCH  10  11
HETATM   11  C10 UNL     1     -36.951  15.793  -6.780  1.00 20.00     0.119 C 
HETATM   12 CL12 UNL     1     -38.188  15.233  -5.620  1.00 20.00    -0.130 Cl
ENDBRANCH  10  11
ENDBRANCH   5   8
TORSDOF 2
ENDMDL
MODEL 5
REMARK VINA RESULT:      -4.4      2.053      5.153
REMARK  2 active torsions:
REMARK  status: ('A' for Active; 'I' for Inactive)
REMARK    1  A    between atoms: C5_5  and  C8_8 
REMARK    2  A    between atoms: C9_9  and  C10_10 
ROOT
HETATM    1  C1  UNL     1     -33.822  16.212  -2.300  1.00 20.00     0.009 A 
HETATM    2  C2  UNL     1     -35.015  17.929  -3.510  1.00 20.00     0.009 A 
HETATM    3  C3  UNL     1     -34.441  16.615  -1.117  1.00 20.00     0.024 A 
HETATM    4  C4  UNL     1     -35.634  18.332  -2.328  1.00 20.00     0.024 A 
HETATM    5  C5  UNL     1     -34.108  16.869  -3.497  1.00 20.00    -0.053 A 
HETATM    6  C6  UNL     1     -35.348  17.675  -1.131  1.00 20.00     0.034 A 
HETATM    7 CL11 UNL     1     -36.112  18.173   0.329  1.00 20.00    -0.084 Cl
ENDROOT
BRANCH   5   8
HETATM    8  C8  UNL     1     -33.446  16.438  -4.760  1.00 20.00     0.024 A 
HETATM    9  C7  UNL     1     -34.073  16.814  -6.081  1.00 20.00     0.016 A 
HETATM   10  C9  UNL     1     -34.067  15.379  -5.645  1.00 20.00     0.008 A 
BRANCH  10  11
HETATM   11  C10 UNL     1     -35.350  14.697  -5.308  1.00 20.00     0.119 C 
HETATM   12 CL12 UNL     1     -35.071  13.291  -4.242  1.00 20.00    -0.130 Cl
ENDBRANCH  10  11
ENDBRANCH   5   8
TORSDOF 2
ENDMDL
MODEL 6
REMARK VINA RESULT:      -4.4      1.707      4.714
REMARK  2 active torsions:
REMARK  status: ('A' for Active; 'I' for Inactive)
REMARK    1  A    between atoms: C5_5  and  C8_8 
REMARK    2  A    between atoms: C9_9  and  C10_10 
ROOT
HETATM    1  C1  UNL     1     -34.900  16.384  -1.695  1.00 20.00     0.009 A 
HETATM    2  C2  UNL     1     -34.561  18.110  -3.349  1.00 20.00     0.009 A 
HETATM    3  C3  UNL     1     -34.031  17.043  -0.827  1.00 20.00     0.024 A 
HETATM    4  C4  UNL     1     -33.691  18.771  -2.481  1.00 20.00     0.024 A 
HETATM    5  C5  UNL     1     -35.166  16.917  -2.956  1.00 20.00    -0.053 A 
HETATM    6  C6  UNL     1     -33.426  18.238  -1.220  1.00 20.00     0.034 A 
HETATM    7 CL11 UNL     1     -32.353  19.053  -0.149  1.00 20.00    -0.084 Cl
ENDROOT
BRANCH   5   8
HETATM    8  C8  UNL     1     -36.094  16.211  -3.883  1.00 20.00     0.024 A 
HETATM    9  C7  UNL     1     -36.357  14.739  -3.676  1.00 20.00     0.016 A 
HETATM   10  C9  UNL     1     -35.581  15.192  -4.877  1.00 20.00     0.008 A 
BRANCH  10  11
HETATM   11  C10 UNL     1     -34.135  14.847  -5.004  1.00 20.00     0.119 C 
HETATM   12 CL12 UNL     1     -33.653  13.630  -3.790  1.00 20.00    -0.130 Cl
ENDBRANCH  10  11
ENDBRANCH   5   8
TORSDOF 2
ENDMDL
MODEL 7
REMARK VINA RESULT:      -4.3      2.026      5.062
REMARK  2 active torsions:
REMARK  status: ('A' for Active; 'I' for Inactive)
REMARK    1  A    between atoms: C5_5  and  C8_8 
REMARK    2  A    between atoms: C9_9  and  C10_10 
ROOT
HETATM    1  C1  UNL     1     -36.618  16.138  -3.477  1.00 20.00     0.009 A 
HETATM    2  C2  UNL     1     -34.519  15.369  -2.563  1.00 20.00     0.009 A 
HETATM    3  C3  UNL     1     -36.573  17.255  -2.643  1.00 20.00     0.024 A 
HETATM    4  C4  UNL     1     -34.474  16.486  -1.729  1.00 20.00     0.024 A 
HETATM    5  C5  UNL     1     -35.592  15.195  -3.438  1.00 20.00    -0.053 A 
HETATM    6  C6  UNL     1     -35.500  17.429  -1.769  1.00 20.00     0.034 A 
HETATM    7 CL11 UNL     1     -35.443  18.807  -0.739  1.00 20.00    -0.084 Cl
ENDROOT
BRANCH   5   8
HETATM    8  C8  UNL     1     -35.641  14.002  -4.329  1.00 20.00     0.024 A 
HETATM    9  C7  UNL     1     -34.365  13.249  -4.617  1.00 20.00     0.016 A 
HETATM   10  C9  UNL     1     -35.024  14.034  -5.711  1.00 20.00     0.008 A 
BRANCH  10  11
HETATM   11  C10 UNL     1     -34.355  15.246  -6.267  1.00 20.00     0.119 C 
HETATM   12 CL12 UNL     1     -35.531  16.316  -7.079  1.00 20.00    -0.130 Cl
ENDBRANCH  10  11
ENDBRANCH   5   8
TORSDOF 2
ENDMDL
MODEL 8
REMARK VINA RESULT:      -4.3      2.002      5.231
REMARK  2 active torsions:
REMARK  status: ('A' for Active; 'I' for Inactive)
REMARK    1  A    between atoms: C5_5  and  C8_8 
REMARK    2  A    between atoms: C9_9  and  C10_10 
ROOT
HETATM    1  C1  UNL     1     -34.482  15.355  -2.543  1.00 20.00     0.009 A 
HETATM    2  C2  UNL     1     -36.564  16.161  -3.467  1.00 20.00     0.009 A 
HETATM    3  C3  UNL     1     -34.418  16.472  -1.711  1.00 20.00     0.024 A 
HETATM    4  C4  UNL     1     -36.501  17.278  -2.633  1.00 20.00     0.024 A 
HETATM    5  C5  UNL     1     -35.555  15.199  -3.422  1.00 20.00    -0.053 A 
HETATM    6  C6  UNL     1     -35.428  17.434  -1.755  1.00 20.00     0.034 A 
HETATM    7 CL11 UNL     1     -35.351  18.812  -0.728  1.00 20.00    -0.084 Cl
ENDROOT
BRANCH   5   8
HETATM    8  C8  UNL     1     -35.622  14.006  -4.311  1.00 20.00     0.024 A 
HETATM    9  C7  UNL     1     -34.353  13.246  -4.615  1.00 20.00     0.016 A 
HETATM   10  C9  UNL     1     -35.023  14.034  -5.701  1.00 20.00     0.008 A 
BRANCH  10  11
HETATM   11  C10 UNL     1     -34.355  15.242  -6.267  1.00 20.00     0.119 C 
HETATM   12 CL12 UNL     1     -35.536  16.315  -7.069  1.00 20.00    -0.130 Cl
ENDBRANCH  10  11
ENDBRANCH   5   8
TORSDOF 2
ENDMDL
MODEL 9
REMARK VINA RESULT:      -4.2      3.124      4.395
REMARK  2 active torsions:
REMARK  status: ('A' for Active; 'I' for Inactive)
REMARK    1  A    between atoms: C5_5  and  C8_8 
REMARK    2  A    between atoms: C9_9  and  C10_10 
ROOT
HETATM    1  C1  UNL     1     -36.661  14.395  -4.010  1.00 20.00     0.009 A 
HETATM    2  C2  UNL     1     -36.177  15.416  -6.144  1.00 20.00     0.009 A 
HETATM    3  C3  UNL     1     -38.004  14.745  -4.145  1.00 20.00     0.024 A 
HETATM    4  C4  UNL     1     -37.520  15.766  -6.281  1.00 20.00     0.024 A 
HETATM    5  C5  UNL     1     -35.747  14.730  -5.009  1.00 20.00    -0.053 A 
HETATM    6  C6  UNL     1     -38.434  15.431  -5.282  1.00 20.00     0.034 A 
HETATM    7 CL11 UNL     1     -40.091  15.863  -5.451  1.00 20.00    -0.084 Cl
ENDROOT
BRANCH   5   8
HETATM    8  C8  UNL     1     -34.313  14.356  -4.862  1.00 20.00     0.024 A 
HETATM    9  C7  UNL     1     -33.814  13.876  -3.521  1.00 20.00     0.016 A 
HETATM   10  C9  UNL     1     -33.363  15.207  -4.046  1.00 20.00     0.008 A 
BRANCH  10  11
HETATM   11  C10 UNL     1     -33.790  16.461  -3.363  1.00 20.00     0.119 C 
HETATM   12 CL12 UNL     1     -34.441  16.121  -1.735  1.00 20.00    -0.130 Cl
ENDBRANCH  10  11
ENDBRANCH   5   8
TORSDOF 2
ENDMDL
