MODEL 1
REMARK VINA RESULT:      -4.5      0.000      0.000
REMARK  2 active torsions:
REMARK  status: ('A' for Active; 'I' for Inactive)
REMARK    1  A    between atoms: C4_4  and  C6_6 
REMARK    2  A    between atoms: C5_5  and  C8_8 
ROOT
HETATM    1  C3  UNL     1     -34.338   7.355   3.704  1.00 20.00     0.016 A 
HETATM    2  C5  UNL     1     -33.090   6.659   4.166  1.00 20.00     0.009 A 
HETATM    3  C6  UNL     1     -34.345   5.843   3.863  1.00 20.00    -0.035 A 
HETATM    4  C7  UNL     1     -34.394   5.030   2.592  1.00 20.00     0.016 C 
ENDROOT
BRANCH   3   5
HETATM    5  C4  UNL     1     -35.111   5.193   5.026  1.00 20.00    -0.006 A 
HETATM    6  C1  UNL     1     -34.831   3.794   5.503  1.00 20.00     0.006 A 
HETATM    7  C2  UNL     1     -34.496   4.968   6.380  1.00 20.00     0.006 A 
ENDBRANCH   3   5
BRANCH   2   8
HETATM    8  C8  UNL     1     -31.877   6.632   3.301  1.00 20.00     0.120 C 
HETATM    9 CL9  UNL     1     -31.911   7.952   2.099  1.00 20.00    -0.130 Cl
ENDBRANCH   2   8
TORSDOF 2
ENDMDL
MODEL 2
REMARK VINA RESULT:      -4.5      1.209      2.174
REMARK  2 active torsions:
REMARK  status: ('A' for Active; 'I' for Inactive)
REMARK    1  A    between atoms: C4_4  and  C6_6 
REMARK    2  A    between atoms: C5_5  and  C8_8 
ROOT
HETATM    1  C3  UNL     1     -31.915   5.746   3.181  1.00 20.00     0.016 A 
HETATM    2  C5  UNL     1     -32.697   6.850   2.530  1.00 20.00     0.009 A 
HETATM    3  C6  UNL     1     -33.270   6.133   3.751  1.00 20.00    -0.035 A 
HETATM    4  C7  UNL     1     -33.264   6.847   5.081  1.00 20.00     0.016 C 
ENDROOT
BRANCH   3   5
HETATM    5  C4  UNL     1     -34.479   5.202   3.570  1.00 20.00    -0.006 A 
HETATM    6  C1  UNL     1     -35.278   4.673   4.730  1.00 20.00     0.006 A 
HETATM    7  C2  UNL     1     -35.896   5.660   3.779  1.00 20.00     0.006 A 
ENDBRANCH   3   5
BRANCH   2   8
HETATM    8  C8  UNL     1     -32.200   8.254   2.573  1.00 20.00     0.120 C 
HETATM    9 CL9  UNL     1     -32.051   8.939   0.931  1.00 20.00    -0.130 Cl
ENDBRANCH   2   8
TORSDOF 2
ENDMDL
MODEL 3
REMARK VINA RESULT:      -4.1     11.639     12.565
REMARK  2 active torsions:
REMARK  status: ('A' for Active; 'I' for Inactive)
REMARK    1  A    between atoms: C4_4  and  C6_6 
REMARK    2  A    between atoms: C5_5  and  C8_8 
ROOT
HETATM    1  C3  UNL     1     -32.964  14.829  -3.668  1.00 20.00     0.016 A 
HETATM    2  C5  UNL     1     -34.381  14.511  -3.285  1.00 20.00     0.009 A 
HETATM    3  C6  UNL     1     -33.892  15.957  -3.246  1.00 20.00    -0.035 A 
HETATM    4  C7  UNL     1     -34.340  16.906  -4.331  1.00 20.00     0.016 C 
ENDROOT
BRANCH   3   5
HETATM    5  C4  UNL     1     -33.702  16.644  -1.884  1.00 20.00    -0.006 A 
HETATM    6  C1  UNL     1     -34.387  17.933  -1.521  1.00 20.00     0.006 A 
HETATM    7  C2  UNL     1     -34.769  16.657  -0.825  1.00 20.00     0.006 A 
ENDBRANCH   3   5
BRANCH   2   8
HETATM    8  C8  UNL     1     -35.344  14.008  -4.306  1.00 20.00     0.120 C 
HETATM    9 CL9  UNL     1     -37.018  14.482  -3.903  1.00 20.00    -0.130 Cl
ENDBRANCH   2   8
TORSDOF 2
ENDMDL
MODEL 4
REMARK VINA RESULT:      -4.1     11.705     12.663
REMARK  2 active torsions:
REMARK  status: ('A' for Active; 'I' for Inactive)
REMARK    1  A    between atoms: C4_4  and  C6_6 
REMARK    2  A    between atoms: C5_5  and  C8_8 
ROOT
HETATM    1  C3  UNL     1     -33.431  16.958  -4.772  1.00 20.00     0.016 A 
HETATM    2  C5  UNL     1     -34.273  16.816  -3.536  1.00 20.00     0.009 A 
HETATM    3  C6  UNL     1     -33.727  15.569  -4.229  1.00 20.00    -0.035 A 
HETATM    4  C7  UNL     1     -32.573  14.832  -3.593  1.00 20.00     0.016 C 
ENDROOT
BRANCH   3   5
HETATM    5  C4  UNL     1     -34.701  14.641  -4.972  1.00 20.00    -0.006 A 
HETATM    6  C1  UNL     1     -34.670  13.145  -4.824  1.00 20.00     0.006 A 
HETATM    7  C2  UNL     1     -35.831  13.929  -4.281  1.00 20.00     0.006 A 
ENDBRANCH   3   5
BRANCH   2   8
HETATM    8  C8  UNL     1     -33.769  17.299  -2.220  1.00 20.00     0.120 C 
HETATM    9 CL9  UNL     1     -34.620  16.499  -0.869  1.00 20.00    -0.130 Cl
ENDBRANCH   2   8
TORSDOF 2
ENDMDL
MODEL 5
REMARK VINA RESULT:      -4.1     11.719     12.656
REMARK  2 active torsions:
REMARK  status: ('A' for Active; 'I' for Inactive)
REMARK    1  A    between atoms: C4_4  and  C6_6 
REMARK    2  A    between atoms: C5_5  and  C8_8 
ROOT
HETATM    1  C3  UNL     1     -34.874  13.468  -4.119  1.00 20.00     0.016 A 
HETATM    2  C5  UNL     1     -35.134  14.672  -4.978  1.00 20.00     0.009 A 
HETATM    3  C6  UNL     1     -34.410  14.835  -3.643  1.00 20.00    -0.035 A 
HETATM    4  C7  UNL     1     -32.921  15.084  -3.650  1.00 20.00     0.016 C 
ENDROOT
BRANCH   3   5
HETATM    5  C4  UNL     1     -35.134  15.535  -2.482  1.00 20.00    -0.006 A 
HETATM    6  C1  UNL     1     -34.425  16.434  -1.507  1.00 20.00     0.006 A 
HETATM    7  C2  UNL     1     -35.419  17.012  -2.475  1.00 20.00     0.006 A 
ENDBRANCH   3   5
BRANCH   2   8
HETATM    8  C8  UNL     1     -34.451  14.821  -6.294  1.00 20.00     0.120 C 
HETATM    9 CL9  UNL     1     -35.528  14.346  -7.638  1.00 20.00    -0.130 Cl
ENDBRANCH   2   8
TORSDOF 2
ENDMDL
MODEL 6
REMARK VINA RESULT:      -4.0     11.533     13.018
REMARK  2 active torsions:
REMARK  status: ('A' for Active; 'I' for Inactive)
REMARK    1  A    between atoms: C4_4  and  C6_6 
REMARK    2  A    between atoms: C5_5  and  C8_8 
ROOT
HETATM    1  C3  UNL     1     -32.939  15.042  -3.690  1.00 20.00     0.016 A 
HETATM    2  C5  UNL     1     -34.166  15.876  -3.456  1.00 20.00     0.009 A 
HETATM    3  C6  UNL     1     -34.191  14.772  -4.510  1.00 20.00    -0.035 A 
HETATM    4  C7  UNL     1     -34.934  13.493  -4.206  1.00 20.00     0.016 C 
ENDROOT
BRANCH   3   5
HETATM    5  C4  UNL     1     -34.239  15.159  -5.997  1.00 20.00    -0.006 A 
HETATM    6  C1  UNL     1     -35.130  14.464  -6.989  1.00 20.00     0.006 A 
HETATM    7  C2  UNL     1     -35.402  15.893  -6.608  1.00 20.00     0.006 A 
ENDBRANCH   3   5
BRANCH   2   8
HETATM    8  C8  UNL     1     -34.907  15.783  -2.166  1.00 20.00     0.120 C 
HETATM    9 CL9  UNL     1     -34.205  16.872  -0.937  1.00 20.00    -0.130 Cl
ENDBRANCH   2   8
TORSDOF 2
ENDMDL
MODEL 7
REMARK VINA RESULT:      -4.0     11.298     12.294
REMARK  2 active torsions:
REMARK  status: ('A' for Active; 'I' for Inactive)
REMARK    1  A    between atoms: C4_4  and  C6_6 
REMARK    2  A    between atoms: C5_5  and  C8_8 
ROOT
HETATM    1  C3  UNL     1     -35.693  16.508  -2.501  1.00 20.00     0.016 A 
HETATM    2  C5  UNL     1     -34.520  16.250  -1.599  1.00 20.00     0.009 A 
HETATM    3  C6  UNL     1     -34.460  15.820  -3.064  1.00 20.00    -0.035 A 
HETATM    4  C7  UNL     1     -33.616  16.625  -4.023  1.00 20.00     0.016 C 
ENDROOT
BRANCH   3   5
HETATM    5  C4  UNL     1     -34.499  14.322  -3.404  1.00 20.00    -0.006 A 
HETATM    6  C1  UNL     1     -34.275  13.799  -4.796  1.00 20.00     0.006 A 
HETATM    7  C2  UNL     1     -33.261  13.528  -3.721  1.00 20.00     0.006 A 
ENDBRANCH   3   5
BRANCH   2   8
HETATM    8  C8  UNL     1     -33.724  17.385  -1.054  1.00 20.00     0.120 C 
HETATM    9 CL9  UNL     1     -34.312  17.870   0.561  1.00 20.00    -0.130 Cl
ENDBRANCH   2   8
TORSDOF 2
ENDMDL
MODEL 8
REMARK VINA RESULT:      -4.0      2.376      4.020
REMARK  2 active torsions:
REMARK  status: ('A' for Active; 'I' for Inactive)
REMARK    1  A    between atoms: C4_4  and  C6_6 
REMARK    2  A    between atoms: C5_5  and  C8_8 
ROOT
HETATM    1  C3  UNL     1     -35.102   6.339   3.471  1.00 20.00     0.016 A 
HETATM    2  C5  UNL     1     -34.606   4.993   3.916  1.00 20.00     0.009 A 
HETATM    3  C6  UNL     1     -33.769   6.239   4.194  1.00 20.00    -0.035 A 
HETATM    4  C7  UNL     1     -33.721   6.784   5.601  1.00 20.00     0.016 C 
ENDROOT
BRANCH   3   5
HETATM    5  C4  UNL     1     -32.455   6.443   3.423  1.00 20.00    -0.006 A 
HETATM    6  C1  UNL     1     -32.258   7.558   2.433  1.00 20.00     0.006 A 
HETATM    7  C2  UNL     1     -31.498   7.562   3.729  1.00 20.00     0.006 A 
ENDBRANCH   3   5
BRANCH   2   8
HETATM    8  C8  UNL     1     -35.322   4.242   4.987  1.00 20.00     0.120 C 
HETATM    9 CL9  UNL     1     -34.179   3.601   6.200  1.00 20.00    -0.130 Cl
ENDBRANCH   2   8
TORSDOF 2
ENDMDL
MODEL 9
REMARK VINA RESULT:      -3.9      2.376      4.224
REMARK  2 active torsions:
REMARK  status: ('A' for Active; 'I' for Inactive)
REMARK    1  A    between atoms: C4_4  and  C6_6 
REMARK    2  A    between atoms: C5_5  and  C8_8 
ROOT
HETATM    1  C3  UNL     1     -33.130   6.594   4.883  1.00 20.00     0.016 A 
HETATM    2  C5  UNL     1     -34.187   6.663   3.818  1.00 20.00     0.009 A 
HETATM    3  C6  UNL     1     -32.712   6.685   3.425  1.00 20.00    -0.035 A 
HETATM    4  C7  UNL     1     -32.103   5.444   2.818  1.00 20.00     0.016 C 
ENDROOT
BRANCH   3   5
HETATM    5  C4  UNL     1     -32.105   7.986   2.875  1.00 20.00    -0.006 A 
HETATM    6  C1  UNL     1     -31.752   8.169   1.425  1.00 20.00     0.006 A 
HETATM    7  C2  UNL     1     -32.885   8.952   2.026  1.00 20.00     0.006 A 
ENDBRANCH   3   5
BRANCH   2   8
HETATM    8  C8  UNL     1     -35.077   5.496   3.562  1.00 20.00     0.120 C 
HETATM    9 CL9  UNL     1     -35.087   4.374   4.951  1.00 20.00    -0.130 Cl
ENDBRANCH   2   8
TORSDOF 2
ENDMDL
