MODEL 1
REMARK VINA RESULT:      -4.1      0.000      0.000
REMARK  4 active torsions:
REMARK  status: ('A' for Active; 'I' for Inactive)
REMARK    1  A    between atoms: C4_4  and  C6_6 
REMARK    2  A    between atoms: C5_5  and  C8_8 
REMARK    3  A    between atoms: C6_6  and  C9_9 
REMARK    4  A    between atoms: C9_9  and  O10_10 
ROOT
HETATM    1  C3  UNL     1     -35.624  16.458  -2.735  1.00 20.00     0.019 A 
HETATM    2  C5  UNL     1     -34.575  16.198  -1.692  1.00 20.00     0.011 A 
HETATM    3  C6  UNL     1     -34.395  15.643  -3.104  1.00 20.00    -0.010 A 
ENDROOT
BRANCH   3   4
HETATM    4  C4  UNL     1     -34.512  14.127  -3.330  1.00 20.00    -0.004 A 
HETATM    5  C1  UNL     1     -35.508  13.524  -4.283  1.00 20.00     0.006 A 
HETATM    6  C2  UNL     1     -34.037  13.456  -4.589  1.00 20.00     0.006 A 
ENDBRANCH   3   4
BRANCH   3   7
HETATM    7  C9  UNL     1     -33.397  16.305  -4.024  1.00 20.00     0.177 C 
BRANCH   7   8
HETATM    8  O10 UNL     1     -34.095  16.986  -5.057  1.00 20.00    -0.395 OA
HETATM    9  C7  UNL     1     -33.582  18.296  -5.257  1.00 20.00     0.201 C 
ENDBRANCH   7   8
ENDBRANCH   3   7
BRANCH   2  10
HETATM   10  C8  UNL     1     -33.753  17.319  -1.152  1.00 20.00     0.120 C 
HETATM   11 CL11 UNL     1     -34.306  17.799   0.476  1.00 20.00    -0.130 Cl
ENDBRANCH   2  10
TORSDOF 4
ENDMDL
MODEL 2
REMARK VINA RESULT:      -4.0      2.547      4.059
REMARK  4 active torsions:
REMARK  status: ('A' for Active; 'I' for Inactive)
REMARK    1  A    between atoms: C4_4  and  C6_6 
REMARK    2  A    between atoms: C5_5  and  C8_8 
REMARK    3  A    between atoms: C6_6  and  C9_9 
REMARK    4  A    between atoms: C9_9  and  O10_10 
ROOT
HETATM    1  C3  UNL     1     -33.593  15.578  -3.824  1.00 20.00     0.019 A 
HETATM    2  C5  UNL     1     -34.380  14.408  -3.306  1.00 20.00     0.011 A 
HETATM    3  C6  UNL     1     -34.743  15.823  -2.860  1.00 20.00    -0.010 A 
ENDROOT
BRANCH   3   4
HETATM    4  C4  UNL     1     -34.459  16.244  -1.409  1.00 20.00    -0.004 A 
HETATM    5  C1  UNL     1     -33.688  17.487  -1.061  1.00 20.00     0.006 A 
HETATM    6  C2  UNL     1     -35.156  17.402  -0.749  1.00 20.00     0.006 A 
ENDBRANCH   3   4
BRANCH   3   7
HETATM    7  C9  UNL     1     -35.979  16.472  -3.434  1.00 20.00     0.177 C 
BRANCH   7   8
HETATM    8  O10 UNL     1     -35.593  17.457  -4.382  1.00 20.00    -0.395 OA
HETATM    9  C7  UNL     1     -36.384  17.385  -5.561  1.00 20.00     0.201 C 
ENDBRANCH   7   8
ENDBRANCH   3   7
BRANCH   2  10
HETATM   10  C8  UNL     1     -35.234  13.605  -4.228  1.00 20.00     0.120 C 
HETATM   11 CL11 UNL     1     -34.906  14.014  -5.934  1.00 20.00    -0.130 Cl
ENDBRANCH   2  10
TORSDOF 4
ENDMDL
MODEL 3
REMARK VINA RESULT:      -4.0      2.558      4.180
REMARK  4 active torsions:
REMARK  status: ('A' for Active; 'I' for Inactive)
REMARK    1  A    between atoms: C4_4  and  C6_6 
REMARK    2  A    between atoms: C5_5  and  C8_8 
REMARK    3  A    between atoms: C6_6  and  C9_9 
REMARK    4  A    between atoms: C9_9  and  O10_10 
ROOT
HETATM    1  C3  UNL     1     -33.607  16.296  -4.191  1.00 20.00     0.019 A 
HETATM    2  C5  UNL     1     -33.399  14.938  -3.582  1.00 20.00     0.011 A 
HETATM    3  C6  UNL     1     -34.287  15.961  -2.873  1.00 20.00    -0.010 A 
ENDROOT
BRANCH   3   4
HETATM    4  C4  UNL     1     -33.792  16.597  -1.564  1.00 20.00    -0.004 A 
HETATM    5  C1  UNL     1     -34.029  18.043  -1.226  1.00 20.00     0.006 A 
HETATM    6  C2  UNL     1     -34.721  16.964  -0.440  1.00 20.00     0.006 A 
ENDBRANCH   3   4
BRANCH   3   7
HETATM    7  C9  UNL     1     -35.784  15.775  -2.914  1.00 20.00     0.177 C 
BRANCH   7   8
HETATM    8  O10 UNL     1     -36.339  16.662  -3.876  1.00 20.00    -0.395 OA
HETATM    9  C7  UNL     1     -37.150  17.655  -3.263  1.00 20.00     0.201 C 
ENDBRANCH   7   8
ENDBRANCH   3   7
BRANCH   2  10
HETATM   10  C8  UNL     1     -33.941  13.720  -4.250  1.00 20.00     0.120 C 
HETATM   11 CL11 UNL     1     -34.568  14.101  -5.878  1.00 20.00    -0.130 Cl
ENDBRANCH   2  10
TORSDOF 4
ENDMDL
MODEL 4
REMARK VINA RESULT:      -3.9      2.408      3.916
REMARK  4 active torsions:
REMARK  status: ('A' for Active; 'I' for Inactive)
REMARK    1  A    between atoms: C4_4  and  C6_6 
REMARK    2  A    between atoms: C5_5  and  C8_8 
REMARK    3  A    between atoms: C6_6  and  C9_9 
REMARK    4  A    between atoms: C9_9  and  O10_10 
ROOT
HETATM    1  C3  UNL     1     -33.374  15.216  -3.356  1.00 20.00     0.019 A 
HETATM    2  C5  UNL     1     -34.800  14.743  -3.327  1.00 20.00     0.011 A 
HETATM    3  C6  UNL     1     -34.454  16.141  -2.819  1.00 20.00    -0.010 A 
ENDROOT
BRANCH   3   4
HETATM    4  C4  UNL     1     -34.545  16.431  -1.312  1.00 20.00    -0.004 A 
HETATM    5  C1  UNL     1     -33.753  17.523  -0.647  1.00 20.00     0.006 A 
HETATM    6  C2  UNL     1     -35.247  17.640  -0.759  1.00 20.00     0.006 A 
ENDBRANCH   3   4
BRANCH   3   7
HETATM    7  C9  UNL     1     -34.809  17.334  -3.674  1.00 20.00     0.177 C 
BRANCH   7   8
HETATM    8  O10 UNL     1     -33.616  17.913  -4.184  1.00 20.00    -0.395 OA
HETATM    9  C7  UNL     1     -33.689  18.103  -5.591  1.00 20.00     0.201 C 
ENDBRANCH   7   8
ENDBRANCH   3   7
BRANCH   2  10
HETATM   10  C8  UNL     1     -35.542  14.503  -4.598  1.00 20.00     0.120 C 
HETATM   11 CL11 UNL     1     -34.434  14.476  -5.998  1.00 20.00    -0.130 Cl
ENDBRANCH   2  10
TORSDOF 4
ENDMDL
MODEL 5
REMARK VINA RESULT:      -3.8      2.126      3.138
REMARK  4 active torsions:
REMARK  status: ('A' for Active; 'I' for Inactive)
REMARK    1  A    between atoms: C4_4  and  C6_6 
REMARK    2  A    between atoms: C5_5  and  C8_8 
REMARK    3  A    between atoms: C6_6  and  C9_9 
REMARK    4  A    between atoms: C9_9  and  O10_10 
ROOT
HETATM    1  C3  UNL     1     -34.389  14.243  -3.503  1.00 20.00     0.019 A 
HETATM    2  C5  UNL     1     -33.999  15.607  -3.008  1.00 20.00     0.011 A 
HETATM    3  C6  UNL     1     -34.751  15.467  -4.331  1.00 20.00    -0.010 A 
ENDROOT
BRANCH   3   4
HETATM    4  C4  UNL     1     -34.010  15.758  -5.645  1.00 20.00    -0.004 A 
HETATM    5  C1  UNL     1     -34.326  15.043  -6.930  1.00 20.00     0.006 A 
HETATM    6  C2  UNL     1     -34.644  16.505  -6.786  1.00 20.00     0.006 A 
ENDBRANCH   3   4
BRANCH   3   7
HETATM    7  C9  UNL     1     -36.213  15.841  -4.379  1.00 20.00     0.177 C 
BRANCH   7   8
HETATM    8  O10 UNL     1     -36.991  14.664  -4.548  1.00 20.00    -0.395 OA
HETATM    9  C7  UNL     1     -38.265  14.789  -3.931  1.00 20.00     0.201 C 
ENDBRANCH   7   8
ENDBRANCH   3   7
BRANCH   2  10
HETATM   10  C8  UNL     1     -34.623  16.171  -1.777  1.00 20.00     0.120 C 
HETATM   11 CL11 UNL     1     -33.578  17.411  -1.032  1.00 20.00    -0.130 Cl
ENDBRANCH   2  10
TORSDOF 4
ENDMDL
MODEL 6
REMARK VINA RESULT:      -3.8      1.725      2.243
REMARK  4 active torsions:
REMARK  status: ('A' for Active; 'I' for Inactive)
REMARK    1  A    between atoms: C4_4  and  C6_6 
REMARK    2  A    between atoms: C5_5  and  C8_8 
REMARK    3  A    between atoms: C6_6  and  C9_9 
REMARK    4  A    between atoms: C9_9  and  O10_10 
ROOT
HETATM    1  C3  UNL     1     -34.718  16.581  -0.966  1.00 20.00     0.019 A 
HETATM    2  C5  UNL     1     -33.447  17.347  -1.199  1.00 20.00     0.011 A 
HETATM    3  C6  UNL     1     -34.184  16.722  -2.382  1.00 20.00    -0.010 A 
ENDROOT
BRANCH   3   4
HETATM    4  C4  UNL     1     -33.558  15.514  -3.097  1.00 20.00    -0.004 A 
HETATM    5  C1  UNL     1     -34.356  14.300  -3.487  1.00 20.00     0.006 A 
HETATM    6  C2  UNL     1     -33.807  15.211  -4.549  1.00 20.00     0.006 A 
ENDBRANCH   3   4
BRANCH   3   7
HETATM    7  C9  UNL     1     -34.963  17.622  -3.311  1.00 20.00     0.177 C 
BRANCH   7   8
HETATM    8  O10 UNL     1     -36.353  17.438  -3.083  1.00 20.00    -0.395 OA
HETATM    9  C7  UNL     1     -37.033  17.073  -4.276  1.00 20.00     0.201 C 
ENDBRANCH   7   8
ENDBRANCH   3   7
BRANCH   2  10
HETATM   10  C8  UNL     1     -33.398  18.818  -0.960  1.00 20.00     0.120 C 
HETATM   11 CL11 UNL     1     -32.010  19.259   0.073  1.00 20.00    -0.130 Cl
ENDBRANCH   2  10
TORSDOF 4
ENDMDL
MODEL 7
REMARK VINA RESULT:      -3.8      2.514      3.201
REMARK  4 active torsions:
REMARK  status: ('A' for Active; 'I' for Inactive)
REMARK    1  A    between atoms: C4_4  and  C6_6 
REMARK    2  A    between atoms: C5_5  and  C8_8 
REMARK    3  A    between atoms: C6_6  and  C9_9 
REMARK    4  A    between atoms: C9_9  and  O10_10 
ROOT
HETATM    1  C3  UNL     1     -34.498  16.116  -1.777  1.00 20.00     0.019 A 
HETATM    2  C5  UNL     1     -33.899  16.542  -3.088  1.00 20.00     0.011 A 
HETATM    3  C6  UNL     1     -34.985  15.467  -3.062  1.00 20.00    -0.010 A 
ENDROOT
BRANCH   3   4
HETATM    4  C4  UNL     1     -34.605  14.014  -3.387  1.00 20.00    -0.004 A 
HETATM    5  C1  UNL     1     -34.299  13.549  -4.785  1.00 20.00     0.006 A 
HETATM    6  C2  UNL     1     -33.205  13.605  -3.755  1.00 20.00     0.006 A 
ENDBRANCH   3   4
BRANCH   3   7
HETATM    7  C9  UNL     1     -36.378  15.831  -3.516  1.00 20.00     0.177 C 
BRANCH   7   8
HETATM    8  O10 UNL     1     -37.240  14.720  -3.317  1.00 20.00    -0.395 OA
HETATM    9  C7  UNL     1     -38.391  14.796  -4.147  1.00 20.00     0.201 C 
ENDBRANCH   7   8
ENDBRANCH   3   7
BRANCH   2  10
HETATM   10  C8  UNL     1     -34.132  17.917  -3.614  1.00 20.00     0.120 C 
HETATM   11 CL11 UNL     1     -33.493  18.092  -5.271  1.00 20.00    -0.130 Cl
ENDBRANCH   2  10
TORSDOF 4
ENDMDL
MODEL 8
REMARK VINA RESULT:      -3.7      2.059      2.605
REMARK  4 active torsions:
REMARK  status: ('A' for Active; 'I' for Inactive)
REMARK    1  A    between atoms: C4_4  and  C6_6 
REMARK    2  A    between atoms: C5_5  and  C8_8 
REMARK    3  A    between atoms: C6_6  and  C9_9 
REMARK    4  A    between atoms: C9_9  and  O10_10 
ROOT
HETATM    1  C3  UNL     1     -34.686  14.996  -3.162  1.00 20.00     0.019 A 
HETATM    2  C5  UNL     1     -33.631  16.059  -3.039  1.00 20.00     0.011 A 
HETATM    3  C6  UNL     1     -34.527  16.019  -4.276  1.00 20.00    -0.010 A 
ENDROOT
BRANCH   3   4
HETATM    4  C4  UNL     1     -33.918  15.604  -5.625  1.00 20.00    -0.004 A 
HETATM    5  C1  UNL     1     -34.645  14.727  -6.607  1.00 20.00     0.006 A 
HETATM    6  C2  UNL     1     -34.389  16.171  -6.936  1.00 20.00     0.006 A 
ENDBRANCH   3   4
BRANCH   3   7
HETATM    7  C9  UNL     1     -35.626  17.045  -4.412  1.00 20.00     0.177 C 
BRANCH   7   8
HETATM    8  O10 UNL     1     -36.877  16.430  -4.140  1.00 20.00    -0.395 OA
HETATM    9  C7  UNL     1     -37.729  16.455  -5.278  1.00 20.00     0.201 C 
ENDBRANCH   7   8
ENDBRANCH   3   7
BRANCH   2  10
HETATM   10  C8  UNL     1     -33.742  17.115  -1.993  1.00 20.00     0.120 C 
HETATM   11 CL11 UNL     1     -34.717  16.553  -0.607  1.00 20.00    -0.130 Cl
ENDBRANCH   2  10
TORSDOF 4
ENDMDL
MODEL 9
REMARK VINA RESULT:      -3.6      2.893      4.386
REMARK  4 active torsions:
REMARK  status: ('A' for Active; 'I' for Inactive)
REMARK    1  A    between atoms: C4_4  and  C6_6 
REMARK    2  A    between atoms: C5_5  and  C8_8 
REMARK    3  A    between atoms: C6_6  and  C9_9 
REMARK    4  A    between atoms: C9_9  and  O10_10 
ROOT
HETATM    1  C3  UNL     1     -33.745  17.791  -4.358  1.00 20.00     0.019 A 
HETATM    2  C5  UNL     1     -33.480  16.344  -4.665  1.00 20.00     0.011 A 
HETATM    3  C6  UNL     1     -34.353  16.718  -3.468  1.00 20.00    -0.010 A 
ENDROOT
BRANCH   3   4
HETATM    4  C4  UNL     1     -33.809  16.491  -2.049  1.00 20.00    -0.004 A 
HETATM    5  C1  UNL     1     -33.543  17.621  -1.093  1.00 20.00     0.006 A 
HETATM    6  C2  UNL     1     -34.659  16.653  -0.819  1.00 20.00     0.006 A 
ENDBRANCH   3   4
BRANCH   3   7
HETATM    7  C9  UNL     1     -35.847  16.524  -3.569  1.00 20.00     0.177 C 
BRANCH   7   8
HETATM    8  O10 UNL     1     -36.166  15.180  -3.235  1.00 20.00    -0.395 OA
HETATM    9  C7  UNL     1     -37.269  14.702  -3.995  1.00 20.00     0.201 C 
ENDBRANCH   7   8
ENDBRANCH   3   7
BRANCH   2  10
HETATM   10  C8  UNL     1     -34.028  15.722  -5.905  1.00 20.00     0.120 C 
HETATM   11 CL11 UNL     1     -34.435  16.962  -7.124  1.00 20.00    -0.130 Cl
ENDBRANCH   2  10
TORSDOF 4
ENDMDL
