MODEL 1
REMARK VINA RESULT:      -4.3      0.000      0.000
REMARK  2 active torsions:
REMARK  status: ('A' for Active; 'I' for Inactive)
REMARK    1  A    between atoms: C4_4  and  C9_9 
REMARK    2  A    between atoms: C5_5  and  C6_6 
ROOT
HETATM    1  C3  UNL     1     -33.402  16.880  -4.728  1.00 20.00     0.017 A 
HETATM    2  C4  UNL     1     -34.236  16.729  -3.488  1.00 20.00     0.009 A 
HETATM    3  C6  UNL     1     -33.693  15.486  -4.194  1.00 20.00    -0.032 A 
HETATM    4  C8  UNL     1     -32.534  14.746  -3.572  1.00 20.00     0.016 C 
ENDROOT
BRANCH   3   5
HETATM    5  C5  UNL     1     -34.671  14.563  -4.937  1.00 20.00    -0.036 A 
HETATM    6  C1  UNL     1     -34.938  13.166  -4.427  1.00 20.00     0.011 A 
HETATM    7  C2  UNL     1     -36.008  14.216  -4.323  1.00 20.00     0.011 A 
HETATM    8  C7  UNL     1     -34.646  14.739  -6.435  1.00 20.00     0.016 C 
ENDBRANCH   3   5
BRANCH   2   9
HETATM    9  C9  UNL     1     -33.723  17.200  -2.170  1.00 20.00     0.120 C 
HETATM   10 CL10 UNL     1     -34.656  16.491  -0.824  1.00 20.00    -0.130 Cl
ENDBRANCH   2   9
TORSDOF 2
ENDMDL
MODEL 2
REMARK VINA RESULT:      -4.0     11.718     13.026
REMARK  2 active torsions:
REMARK  status: ('A' for Active; 'I' for Inactive)
REMARK    1  A    between atoms: C4_4  and  C9_9 
REMARK    2  A    between atoms: C5_5  and  C6_6 
ROOT
HETATM    1  C3  UNL     1     -34.045   7.447   4.012  1.00 20.00     0.017 A 
HETATM    2  C4  UNL     1     -32.783   6.637   3.928  1.00 20.00     0.009 A 
HETATM    3  C6  UNL     1     -34.110   5.944   4.240  1.00 20.00    -0.032 A 
HETATM    4  C8  UNL     1     -34.771   5.125   3.159  1.00 20.00     0.016 C 
ENDROOT
BRANCH   3   5
HETATM    5  C5  UNL     1     -34.348   5.387   5.651  1.00 20.00    -0.036 A 
HETATM    6  C1  UNL     1     -35.340   4.270   5.873  1.00 20.00     0.011 A 
HETATM    7  C2  UNL     1     -33.869   4.000   6.014  1.00 20.00     0.011 A 
HETATM    8  C7  UNL     1     -34.258   6.432   6.736  1.00 20.00     0.016 C 
ENDBRANCH   3   5
BRANCH   2   9
HETATM    9  C9  UNL     1     -32.071   6.477   2.629  1.00 20.00     0.120 C 
HETATM   10 CL10 UNL     1     -31.879   8.047   1.801  1.00 20.00    -0.130 Cl
ENDBRANCH   2   9
TORSDOF 2
ENDMDL
MODEL 3
REMARK VINA RESULT:      -4.0      1.168      2.006
REMARK  2 active torsions:
REMARK  status: ('A' for Active; 'I' for Inactive)
REMARK    1  A    between atoms: C4_4  and  C9_9 
REMARK    2  A    between atoms: C5_5  and  C6_6 
ROOT
HETATM    1  C3  UNL     1     -35.783  16.223  -2.891  1.00 20.00     0.017 A 
HETATM    2  C4  UNL     1     -34.685  15.945  -1.905  1.00 20.00     0.009 A 
HETATM    3  C6  UNL     1     -34.413  15.803  -3.402  1.00 20.00    -0.032 A 
HETATM    4  C8  UNL     1     -33.596  16.866  -4.095  1.00 20.00     0.016 C 
ENDROOT
BRANCH   3   5
HETATM    5  C5  UNL     1     -34.206  14.401  -3.994  1.00 20.00    -0.036 A 
HETATM    6  C1  UNL     1     -35.387  13.483  -4.212  1.00 20.00     0.011 A 
HETATM    7  C2  UNL     1     -34.682  14.086  -5.394  1.00 20.00     0.011 A 
HETATM    8  C7  UNL     1     -32.918  13.747  -3.561  1.00 20.00     0.016 C 
ENDBRANCH   3   5
BRANCH   2   9
HETATM    9  C9  UNL     1     -34.115  17.046  -1.079  1.00 20.00     0.120 C 
HETATM   10 CL10 UNL     1     -35.012  17.236   0.452  1.00 20.00    -0.130 Cl
ENDBRANCH   2   9
TORSDOF 2
ENDMDL
MODEL 4
REMARK VINA RESULT:      -4.0      2.523      4.057
REMARK  2 active torsions:
REMARK  status: ('A' for Active; 'I' for Inactive)
REMARK    1  A    between atoms: C4_4  and  C9_9 
REMARK    2  A    between atoms: C5_5  and  C6_6 
ROOT
HETATM    1  C3  UNL     1     -36.815  15.170  -4.012  1.00 20.00     0.017 A 
HETATM    2  C4  UNL     1     -36.116  15.491  -5.302  1.00 20.00     0.009 A 
HETATM    3  C6  UNL     1     -35.366  14.745  -4.199  1.00 20.00    -0.032 A 
HETATM    4  C8  UNL     1     -35.112  13.267  -4.366  1.00 20.00     0.016 C 
ENDROOT
BRANCH   3   5
HETATM    5  C5  UNL     1     -34.245  15.468  -3.437  1.00 20.00    -0.036 A 
HETATM    6  C1  UNL     1     -32.810  15.018  -3.583  1.00 20.00     0.011 A 
HETATM    7  C2  UNL     1     -33.247  16.325  -4.182  1.00 20.00     0.011 A 
HETATM    8  C7  UNL     1     -34.661  15.957  -2.072  1.00 20.00     0.016 C 
ENDBRANCH   3   5
BRANCH   2   9
HETATM    9  C9  UNL     1     -36.541  14.842  -6.574  1.00 20.00     0.120 C 
HETATM   10 CL10 UNL     1     -35.172  14.687  -7.709  1.00 20.00    -0.130 Cl
ENDBRANCH   2   9
TORSDOF 2
ENDMDL
MODEL 5
REMARK VINA RESULT:      -3.9      0.464      1.439
REMARK  2 active torsions:
REMARK  status: ('A' for Active; 'I' for Inactive)
REMARK    1  A    between atoms: C4_4  and  C9_9 
REMARK    2  A    between atoms: C5_5  and  C6_6 
ROOT
HETATM    1  C3  UNL     1     -33.451  16.956  -4.659  1.00 20.00     0.017 A 
HETATM    2  C4  UNL     1     -34.251  16.718  -3.410  1.00 20.00     0.009 A 
HETATM    3  C6  UNL     1     -33.721  15.528  -4.209  1.00 20.00    -0.032 A 
HETATM    4  C8  UNL     1     -32.542  14.757  -3.667  1.00 20.00     0.016 C 
ENDROOT
BRANCH   3   5
HETATM    5  C5  UNL     1     -34.712  14.649  -4.985  1.00 20.00    -0.036 A 
HETATM    6  C1  UNL     1     -35.789  15.282  -5.836  1.00 20.00     0.011 A 
HETATM    7  C2  UNL     1     -34.642  14.569  -6.493  1.00 20.00     0.011 A 
HETATM    8  C7  UNL     1     -35.087  13.378  -4.262  1.00 20.00     0.016 C 
ENDBRANCH   3   5
BRANCH   2   9
HETATM    9  C9  UNL     1     -33.706  17.107  -2.078  1.00 20.00     0.120 C 
HETATM   10 CL10 UNL     1     -34.723  16.473  -0.755  1.00 20.00    -0.130 Cl
ENDBRANCH   2   9
TORSDOF 2
ENDMDL
MODEL 6
REMARK VINA RESULT:      -3.8      1.123      1.340
REMARK  2 active torsions:
REMARK  status: ('A' for Active; 'I' for Inactive)
REMARK    1  A    between atoms: C4_4  and  C9_9 
REMARK    2  A    between atoms: C5_5  and  C6_6 
ROOT
HETATM    1  C3  UNL     1     -35.720  16.991  -4.978  1.00 20.00     0.017 A 
HETATM    2  C4  UNL     1     -35.669  16.470  -3.570  1.00 20.00     0.009 A 
HETATM    3  C6  UNL     1     -34.689  15.934  -4.613  1.00 20.00    -0.032 A 
HETATM    4  C8  UNL     1     -33.250  16.386  -4.556  1.00 20.00     0.016 C 
ENDROOT
BRANCH   3   5
HETATM    5  C5  UNL     1     -34.849  14.492  -5.117  1.00 20.00    -0.036 A 
HETATM    6  C1  UNL     1     -33.997  13.384  -4.544  1.00 20.00     0.011 A 
HETATM    7  C2  UNL     1     -35.465  13.437  -4.227  1.00 20.00     0.011 A 
HETATM    8  C7  UNL     1     -35.172  14.400  -6.589  1.00 20.00     0.016 C 
ENDBRANCH   3   5
BRANCH   2   9
HETATM    9  C9  UNL     1     -35.254  17.359  -2.449  1.00 20.00     0.120 C 
HETATM   10 CL10 UNL     1     -34.652  16.411  -1.062  1.00 20.00    -0.130 Cl
ENDBRANCH   2   9
TORSDOF 2
ENDMDL
MODEL 7
REMARK VINA RESULT:      -3.8      1.286      2.102
REMARK  2 active torsions:
REMARK  status: ('A' for Active; 'I' for Inactive)
REMARK    1  A    between atoms: C4_4  and  C9_9 
REMARK    2  A    between atoms: C5_5  and  C6_6 
ROOT
HETATM    1  C3  UNL     1     -35.950  16.899  -2.649  1.00 20.00     0.017 A 
HETATM    2  C4  UNL     1     -34.884  16.261  -1.806  1.00 20.00     0.009 A 
HETATM    3  C6  UNL     1     -34.846  16.099  -3.325  1.00 20.00    -0.032 A 
HETATM    4  C8  UNL     1     -33.828  16.886  -4.114  1.00 20.00     0.016 C 
ENDROOT
BRANCH   3   5
HETATM    5  C5  UNL     1     -35.154  14.725  -3.937  1.00 20.00    -0.036 A 
HETATM    6  C1  UNL     1     -34.255  14.147  -5.006  1.00 20.00     0.011 A 
HETATM    7  C2  UNL     1     -34.268  13.539  -3.632  1.00 20.00     0.011 A 
HETATM    8  C7  UNL     1     -36.629  14.441  -4.075  1.00 20.00     0.016 C 
ENDBRANCH   3   5
BRANCH   2   9
HETATM    9  C9  UNL     1     -33.908  17.102  -1.056  1.00 20.00     0.120 C 
HETATM   10 CL10 UNL     1     -34.561  17.588   0.532  1.00 20.00    -0.130 Cl
ENDBRANCH   2   9
TORSDOF 2
ENDMDL
MODEL 8
REMARK VINA RESULT:      -3.7      2.414      3.970
REMARK  2 active torsions:
REMARK  status: ('A' for Active; 'I' for Inactive)
REMARK    1  A    between atoms: C4_4  and  C9_9 
REMARK    2  A    between atoms: C5_5  and  C6_6 
ROOT
HETATM    1  C3  UNL     1     -34.016  14.093  -3.382  1.00 20.00     0.017 A 
HETATM    2  C4  UNL     1     -35.088  14.352  -4.402  1.00 20.00     0.009 A 
HETATM    3  C6  UNL     1     -34.307  15.524  -3.809  1.00 20.00    -0.032 A 
HETATM    4  C8  UNL     1     -33.259  16.202  -4.657  1.00 20.00     0.016 C 
ENDROOT
BRANCH   3   5
HETATM    5  C5  UNL     1     -35.021  16.486  -2.847  1.00 20.00    -0.036 A 
HETATM    6  C1  UNL     1     -35.363  17.891  -3.287  1.00 20.00     0.011 A 
HETATM    7  C2  UNL     1     -36.459  16.882  -3.093  1.00 20.00     0.011 A 
HETATM    8  C7  UNL     1     -34.609  16.315  -1.406  1.00 20.00     0.016 C 
ENDBRANCH   3   5
BRANCH   2   9
HETATM    9  C9  UNL     1     -34.917  13.895  -5.810  1.00 20.00     0.120 C 
HETATM   10 CL10 UNL     1     -36.025  14.763  -6.909  1.00 20.00    -0.130 Cl
ENDBRANCH   2   9
TORSDOF 2
ENDMDL
MODEL 9
REMARK VINA RESULT:      -3.7      2.202      3.454
REMARK  2 active torsions:
REMARK  status: ('A' for Active; 'I' for Inactive)
REMARK    1  A    between atoms: C4_4  and  C9_9 
REMARK    2  A    between atoms: C5_5  and  C6_6 
ROOT
HETATM    1  C3  UNL     1     -34.684  14.564  -6.307  1.00 20.00     0.017 A 
HETATM    2  C4  UNL     1     -35.800  15.408  -5.761  1.00 20.00     0.009 A 
HETATM    3  C6  UNL     1     -34.383  15.576  -5.212  1.00 20.00    -0.032 A 
HETATM    4  C8  UNL     1     -33.588  16.793  -5.617  1.00 20.00     0.016 C 
ENDROOT
BRANCH   3   5
HETATM    5  C5  UNL     1     -34.075  15.100  -3.784  1.00 20.00    -0.036 A 
HETATM    6  C1  UNL     1     -33.679  16.094  -2.717  1.00 20.00     0.011 A 
HETATM    7  C2  UNL     1     -35.022  15.424  -2.651  1.00 20.00     0.011 A 
HETATM    8  C7  UNL     1     -33.400  13.752  -3.730  1.00 20.00     0.016 C 
ENDBRANCH   3   5
BRANCH   2   9
HETATM    9  C9  UNL     1     -36.463  16.431  -6.618  1.00 20.00     0.120 C 
HETATM   10 CL10 UNL     1     -37.300  17.658  -5.627  1.00 20.00    -0.130 Cl
ENDBRANCH   2   9
TORSDOF 2
ENDMDL
