MODEL 1
REMARK VINA RESULT:      -4.5      0.000      0.000
REMARK  1 active torsions:
REMARK  status: ('A' for Active; 'I' for Inactive)
REMARK    1  A    between atoms: C5_5  and  C10_10 
ROOT
HETATM    1  C1  UNL     1     -34.390  14.136  -5.127  1.00 20.00     0.019 C 
HETATM    2  C2  UNL     1     -34.703  15.987  -1.824  1.00 20.00     0.017 A 
HETATM    3  C3  UNL     1     -35.553  14.446  -6.071  1.00 20.00     0.075 C 
HETATM    4  C4  UNL     1     -36.384  15.301  -3.600  1.00 20.00     0.084 C 
HETATM    5  C5  UNL     1     -34.945  17.224  -2.627  1.00 20.00     0.006 A 
HETATM    6  C6  UNL     1     -34.989  15.848  -3.319  1.00 20.00    -0.020 A 
HETATM    7  C7  UNL     1     -33.864  15.347  -4.293  1.00 20.00    -0.038 C 
HETATM    8  C8  UNL     1     -33.414  16.447  -5.279  1.00 20.00     0.015 C 
HETATM    9  C9  UNL     1     -32.615  14.833  -3.545  1.00 20.00     0.015 C 
HETATM   10  S11 UNL     1     -36.850  15.475  -5.329  1.00 20.00    -0.168 SA
ENDROOT
BRANCH   5  11
HETATM   11  C10 UNL     1     -33.858  18.236  -2.705  1.00 20.00     0.090 C 
HETATM   12 BR12 UNL     1     -33.214  18.691  -0.919  1.00 20.00    -0.096 Br
ENDBRANCH   5  11
TORSDOF 1
ENDMDL
MODEL 2
REMARK VINA RESULT:      -4.5      2.787      4.320
REMARK  1 active torsions:
REMARK  status: ('A' for Active; 'I' for Inactive)
REMARK    1  A    between atoms: C5_5  and  C10_10 
ROOT
HETATM    1  C1  UNL     1     -33.651  14.924  -3.342  1.00 20.00     0.019 C 
HETATM    2  C2  UNL     1     -34.372  15.014  -7.072  1.00 20.00     0.017 A 
HETATM    3  C3  UNL     1     -33.703  16.318  -2.714  1.00 20.00     0.075 C 
HETATM    4  C4  UNL     1     -33.539  16.753  -5.418  1.00 20.00     0.084 C 
HETATM    5  C5  UNL     1     -35.572  15.842  -6.742  1.00 20.00     0.006 A 
HETATM    6  C6  UNL     1     -34.500  15.595  -5.664  1.00 20.00    -0.020 A 
HETATM    7  C7  UNL     1     -34.729  14.643  -4.436  1.00 20.00    -0.038 C 
HETATM    8  C8  UNL     1     -36.122  14.840  -3.798  1.00 20.00     0.015 C 
HETATM    9  C9  UNL     1     -34.577  13.151  -4.804  1.00 20.00     0.015 C 
HETATM   10  S11 UNL     1     -33.931  17.659  -3.914  1.00 20.00    -0.168 SA
ENDROOT
BRANCH   5  11
HETATM   11  C10 UNL     1     -36.913  15.207  -6.840  1.00 20.00     0.090 C 
HETATM   12 BR12 UNL     1     -38.319  16.513  -6.482  1.00 20.00    -0.096 Br
ENDBRANCH   5  11
TORSDOF 1
ENDMDL
MODEL 3
REMARK VINA RESULT:      -4.4      2.801      4.171
REMARK  1 active torsions:
REMARK  status: ('A' for Active; 'I' for Inactive)
REMARK    1  A    between atoms: C5_5  and  C10_10 
ROOT
HETATM    1  C1  UNL     1     -34.519  16.218  -1.560  1.00 20.00     0.019 C 
HETATM    2  C2  UNL     1     -33.307  16.686  -5.131  1.00 20.00     0.017 A 
HETATM    3  C3  UNL     1     -35.203  17.473  -1.017  1.00 20.00     0.075 C 
HETATM    4  C4  UNL     1     -33.839  18.305  -3.247  1.00 20.00     0.084 C 
HETATM    5  C5  UNL     1     -34.671  17.211  -5.444  1.00 20.00     0.006 A 
HETATM    6  C6  UNL     1     -34.246  17.028  -3.974  1.00 20.00    -0.020 A 
HETATM    7  C7  UNL     1     -34.816  15.888  -3.057  1.00 20.00    -0.038 C 
HETATM    8  C8  UNL     1     -36.343  15.720  -3.217  1.00 20.00     0.015 C 
HETATM    9  C9  UNL     1     -34.152  14.520  -3.327  1.00 20.00     0.015 C 
HETATM   10  S11 UNL     1     -35.124  18.898  -2.136  1.00 20.00    -0.168 SA
ENDROOT
BRANCH   5  11
HETATM   11  C10 UNL     1     -35.594  16.347  -6.227  1.00 20.00     0.090 C 
HETATM   12 BR12 UNL     1     -34.597  14.966  -7.183  1.00 20.00    -0.096 Br
ENDBRANCH   5  11
TORSDOF 1
ENDMDL
MODEL 4
REMARK VINA RESULT:      -4.4      1.588      2.172
REMARK  1 active torsions:
REMARK  status: ('A' for Active; 'I' for Inactive)
REMARK    1  A    between atoms: C5_5  and  C10_10 
ROOT
HETATM    1  C1  UNL     1     -36.256  15.844  -6.227  1.00 20.00     0.019 C 
HETATM    2  C2  UNL     1     -33.792  14.538  -3.646  1.00 20.00     0.017 A 
HETATM    3  C3  UNL     1     -37.703  15.728  -5.748  1.00 20.00     0.075 C 
HETATM    4  C4  UNL     1     -36.259  14.107  -4.071  1.00 20.00     0.084 C 
HETATM    5  C5  UNL     1     -34.511  15.382  -2.645  1.00 20.00     0.006 A 
HETATM    6  C6  UNL     1     -35.141  15.144  -4.030  1.00 20.00    -0.020 A 
HETATM    7  C7  UNL     1     -35.221  16.258  -5.134  1.00 20.00    -0.038 C 
HETATM    8  C8  UNL     1     -35.656  17.623  -4.555  1.00 20.00     0.015 C 
HETATM    9  C9  UNL     1     -33.881  16.457  -5.875  1.00 20.00     0.015 C 
HETATM   10  S11 UNL     1     -37.889  14.863  -4.165  1.00 20.00    -0.168 SA
ENDROOT
BRANCH   5  11
HETATM   11  C10 UNL     1     -33.845  16.621  -2.160  1.00 20.00     0.090 C 
HETATM   12 BR12 UNL     1     -34.590  17.175  -0.442  1.00 20.00    -0.096 Br
ENDBRANCH   5  11
TORSDOF 1
ENDMDL
MODEL 5
REMARK VINA RESULT:      -4.3      1.567      2.074
REMARK  1 active torsions:
REMARK  status: ('A' for Active; 'I' for Inactive)
REMARK    1  A    between atoms: C5_5  and  C10_10 
ROOT
HETATM    1  C1  UNL     1     -34.470  15.174  -6.635  1.00 20.00     0.019 C 
HETATM    2  C2  UNL     1     -36.448  15.008  -3.395  1.00 20.00     0.017 A 
HETATM    3  C3  UNL     1     -34.460  16.583  -7.229  1.00 20.00     0.075 C 
HETATM    4  C4  UNL     1     -36.482  16.599  -5.374  1.00 20.00     0.084 C 
HETATM    5  C5  UNL     1     -35.668  16.201  -2.946  1.00 20.00     0.006 A 
HETATM    6  C6  UNL     1     -35.620  15.774  -4.426  1.00 20.00    -0.020 A 
HETATM    7  C7  UNL     1     -34.358  15.104  -5.079  1.00 20.00    -0.038 C 
HETATM    8  C8  UNL     1     -33.046  15.802  -4.661  1.00 20.00     0.015 C 
HETATM    9  C9  UNL     1     -34.235  13.604  -4.733  1.00 20.00     0.015 C 
HETATM   10  S11 UNL     1     -35.511  17.766  -6.340  1.00 20.00    -0.168 SA
ENDROOT
BRANCH   5  11
HETATM   11  C10 UNL     1     -34.612  16.005  -1.918  1.00 20.00     0.090 C 
HETATM   12 BR12 UNL     1     -34.846  17.264  -0.443  1.00 20.00    -0.096 Br
ENDBRANCH   5  11
TORSDOF 1
ENDMDL
MODEL 6
REMARK VINA RESULT:      -4.3      1.600      2.135
REMARK  1 active torsions:
REMARK  status: ('A' for Active; 'I' for Inactive)
REMARK    1  A    between atoms: C5_5  and  C10_10 
ROOT
HETATM    1  C1  UNL     1     -34.015  15.689  -5.915  1.00 20.00     0.019 C 
HETATM    2  C2  UNL     1     -33.577  16.503  -2.230  1.00 20.00     0.017 A 
HETATM    3  C3  UNL     1     -34.799  14.393  -6.127  1.00 20.00     0.075 C 
HETATM    4  C4  UNL     1     -34.031  14.347  -3.493  1.00 20.00     0.084 C 
HETATM    5  C5  UNL     1     -35.046  16.268  -2.082  1.00 20.00     0.006 A 
HETATM    6  C6  UNL     1     -34.334  15.837  -3.378  1.00 20.00    -0.020 A 
HETATM    7  C7  UNL     1     -34.518  16.590  -4.743  1.00 20.00    -0.038 C 
HETATM    8  C8  UNL     1     -35.995  16.951  -5.016  1.00 20.00     0.015 C 
HETATM    9  C9  UNL     1     -33.685  17.888  -4.823  1.00 20.00     0.015 C 
HETATM   10  S11 UNL     1     -35.176  13.500  -4.593  1.00 20.00    -0.168 SA
ENDROOT
BRANCH   5  11
HETATM   11  C10 UNL     1     -35.930  17.449  -1.891  1.00 20.00     0.090 C 
HETATM   12 BR12 UNL     1     -35.692  18.205  -0.107  1.00 20.00    -0.096 Br
ENDBRANCH   5  11
TORSDOF 1
ENDMDL
MODEL 7
REMARK VINA RESULT:      -4.3      1.522      2.050
REMARK  1 active torsions:
REMARK  status: ('A' for Active; 'I' for Inactive)
REMARK    1  A    between atoms: C5_5  and  C10_10 
ROOT
HETATM    1  C1  UNL     1     -34.980  13.932  -3.739  1.00 20.00     0.019 C 
HETATM    2  C2  UNL     1     -35.923  17.599  -4.057  1.00 20.00     0.017 A 
HETATM    3  C3  UNL     1     -34.755  13.278  -5.102  1.00 20.00     0.075 C 
HETATM    4  C4  UNL     1     -36.082  15.618  -5.638  1.00 20.00     0.084 C 
HETATM    5  C5  UNL     1     -34.753  17.742  -4.976  1.00 20.00     0.006 A 
HETATM    6  C6  UNL     1     -35.245  16.335  -4.585  1.00 20.00    -0.020 A 
HETATM    7  C7  UNL     1     -34.454  15.397  -3.605  1.00 20.00    -0.038 C 
HETATM    8  C8  UNL     1     -32.938  15.391  -3.900  1.00 20.00     0.015 C 
HETATM    9  C9  UNL     1     -34.653  15.782  -2.123  1.00 20.00     0.015 C 
HETATM   10  S11 UNL     1     -35.145  14.353  -6.510  1.00 20.00    -0.168 SA
ENDROOT
BRANCH   5  11
HETATM   11  C10 UNL     1     -33.544  18.444  -4.470  1.00 20.00     0.090 C 
HETATM   12 BR12 UNL     1     -33.900  19.261  -2.732  1.00 20.00    -0.096 Br
ENDBRANCH   5  11
TORSDOF 1
ENDMDL
MODEL 8
REMARK VINA RESULT:      -4.2      2.601      4.101
REMARK  1 active torsions:
REMARK  status: ('A' for Active; 'I' for Inactive)
REMARK    1  A    between atoms: C5_5  and  C10_10 
ROOT
HETATM    1  C1  UNL     1     -33.691  18.130  -2.688  1.00 20.00     0.019 C 
HETATM    2  C2  UNL     1     -34.274  14.444  -3.405  1.00 20.00     0.017 A 
HETATM    3  C3  UNL     1     -33.630  18.961  -3.970  1.00 20.00     0.075 C 
HETATM    4  C4  UNL     1     -33.334  16.358  -4.785  1.00 20.00     0.084 C 
HETATM    5  C5  UNL     1     -35.399  14.872  -4.290  1.00 20.00     0.006 A 
HETATM    6  C6  UNL     1     -34.393  15.921  -3.779  1.00 20.00    -0.020 A 
HETATM    7  C7  UNL     1     -34.754  16.986  -2.682  1.00 20.00    -0.038 C 
HETATM    8  C8  UNL     1     -36.142  17.620  -2.920  1.00 20.00     0.015 C 
HETATM    9  C9  UNL     1     -34.734  16.399  -1.254  1.00 20.00     0.015 C 
HETATM   10  S11 UNL     1     -33.689  17.975  -5.492  1.00 20.00    -0.168 SA
ENDROOT
BRANCH   5  11
HETATM   11  C10 UNL     1     -36.791  14.654  -3.814  1.00 20.00     0.090 C 
HETATM   12 BR12 UNL     1     -38.078  15.254  -5.155  1.00 20.00    -0.096 Br
ENDBRANCH   5  11
TORSDOF 1
ENDMDL
MODEL 9
REMARK VINA RESULT:      -4.0      1.743      2.812
REMARK  1 active torsions:
REMARK  status: ('A' for Active; 'I' for Inactive)
REMARK    1  A    between atoms: C5_5  and  C10_10 
ROOT
HETATM    1  C1  UNL     1     -36.902  15.158  -6.065  1.00 20.00     0.019 C 
HETATM    2  C2  UNL     1     -35.107  17.658  -3.837  1.00 20.00     0.017 A 
HETATM    3  C3  UNL     1     -36.010  14.659  -7.202  1.00 20.00     0.075 C 
HETATM    4  C4  UNL     1     -34.758  16.901  -6.236  1.00 20.00     0.084 C 
HETATM    5  C5  UNL     1     -33.981  16.679  -3.775  1.00 20.00     0.006 A 
HETATM    6  C6  UNL     1     -35.103  16.481  -4.812  1.00 20.00    -0.020 A 
HETATM    7  C7  UNL     1     -36.187  15.352  -4.690  1.00 20.00    -0.038 C 
HETATM    8  C8  UNL     1     -35.575  13.997  -4.273  1.00 20.00     0.015 C 
HETATM    9  C9  UNL     1     -37.302  15.705  -3.682  1.00 20.00     0.015 C 
HETATM   10  S11 UNL     1     -34.401  15.492  -7.297  1.00 20.00    -0.168 SA
ENDROOT
BRANCH   5  11
HETATM   11  C10 UNL     1     -33.779  15.919  -2.512  1.00 20.00     0.090 C 
HETATM   12 BR12 UNL     1     -34.637  16.835  -1.015  1.00 20.00    -0.096 Br
ENDBRANCH   5  11
TORSDOF 1
ENDMDL
