MODEL 1
REMARK VINA RESULT:      -4.4      0.000      0.000
REMARK  0 active torsions:
REMARK  status: ('A' for Active; 'I' for Inactive)
ROOT
HETATM    1  C1  UNL     1     -34.635  13.158  -4.806  1.00 20.00     0.006 C 
HETATM    2  C2  UNL     1     -34.534  14.390  -5.720  1.00 20.00     0.038 C 
HETATM    3  C3  UNL     1     -33.729  13.896  -3.806  1.00 20.00     0.038 C 
HETATM    4  C4  UNL     1     -34.196  18.158  -3.854  1.00 20.00     0.046 C 
HETATM    5  C5  UNL     1     -35.380  15.925  -3.792  1.00 20.00     0.058 C 
HETATM    6  C6  UNL     1     -33.454  17.502  -5.014  1.00 20.00     0.170 C 
HETATM    7  C7  UNL     1     -34.952  17.150  -2.980  1.00 20.00     0.087 C 
HETATM    8  C8  UNL     1     -34.173  15.242  -4.464  1.00 20.00     0.062 C 
HETATM    9  O9  UNL     1     -33.079  16.176  -4.668  1.00 20.00    -0.380 OA
HETATM   10 CL10 UNL     1     -33.947  16.653  -1.580  1.00 20.00    -0.125 Cl
ENDROOT
TORSDOF 0
ENDMDL
MODEL 2
REMARK VINA RESULT:      -4.3      1.996      3.468
REMARK  0 active torsions:
REMARK  status: ('A' for Active; 'I' for Inactive)
ROOT
HETATM    1  C1  UNL     1     -33.777  17.093  -1.223  1.00 20.00     0.006 C 
HETATM    2  C2  UNL     1     -33.743  17.738  -2.618  1.00 20.00     0.038 C 
HETATM    3  C3  UNL     1     -34.861  16.140  -1.753  1.00 20.00     0.038 C 
HETATM    4  C4  UNL     1     -34.489  15.231  -5.928  1.00 20.00     0.046 C 
HETATM    5  C5  UNL     1     -33.285  15.419  -3.712  1.00 20.00     0.058 C 
HETATM    6  C6  UNL     1     -35.000  16.614  -5.534  1.00 20.00     0.170 C 
HETATM    7  C7  UNL     1     -33.877  14.462  -4.750  1.00 20.00     0.087 C 
HETATM    8  C8  UNL     1     -34.339  16.419  -3.199  1.00 20.00     0.062 C 
HETATM    9  O9  UNL     1     -35.401  16.619  -4.171  1.00 20.00    -0.380 OA
HETATM   10 CL10 UNL     1     -35.102  13.394  -3.992  1.00 20.00    -0.125 Cl
ENDROOT
TORSDOF 0
ENDMDL
MODEL 3
REMARK VINA RESULT:      -4.2      1.756      3.226
REMARK  0 active torsions:
REMARK  status: ('A' for Active; 'I' for Inactive)
ROOT
HETATM    1  C1  UNL     1     -34.829  17.472  -6.925  1.00 20.00     0.006 C 
HETATM    2  C2  UNL     1     -34.458  15.994  -7.129  1.00 20.00     0.038 C 
HETATM    3  C3  UNL     1     -35.431  17.075  -5.567  1.00 20.00     0.038 C 
HETATM    4  C4  UNL     1     -33.459  13.759  -3.693  1.00 20.00     0.046 C 
HETATM    5  C5  UNL     1     -33.161  15.977  -4.869  1.00 20.00     0.058 C 
HETATM    6  C6  UNL     1     -34.362  13.478  -4.891  1.00 20.00     0.170 C 
HETATM    7  C7  UNL     1     -33.138  15.249  -3.523  1.00 20.00     0.087 C 
HETATM    8  C8  UNL     1     -34.518  15.807  -5.581  1.00 20.00     0.062 C 
HETATM    9  O9  UNL     1     -35.197  14.597  -5.149  1.00 20.00    -0.380 OA
HETATM   10 CL10 UNL     1     -34.287  16.014  -2.377  1.00 20.00    -0.125 Cl
ENDROOT
TORSDOF 0
ENDMDL
MODEL 4
REMARK VINA RESULT:      -4.2      1.891      2.700
REMARK  0 active torsions:
REMARK  status: ('A' for Active; 'I' for Inactive)
ROOT
HETATM    1  C1  UNL     1     -35.426  14.453  -7.620  1.00 20.00     0.006 C 
HETATM    2  C2  UNL     1     -36.423  15.044  -6.611  1.00 20.00     0.038 C 
HETATM    3  C3  UNL     1     -34.305  15.166  -6.845  1.00 20.00     0.038 C 
HETATM    4  C4  UNL     1     -35.080  15.570  -2.646  1.00 20.00     0.046 C 
HETATM    5  C5  UNL     1     -35.083  14.006  -4.633  1.00 20.00     0.058 C 
HETATM    6  C6  UNL     1     -35.852  16.467  -3.611  1.00 20.00     0.170 C 
HETATM    7  C7  UNL     1     -34.354  14.418  -3.351  1.00 20.00     0.087 C 
HETATM    8  C8  UNL     1     -35.246  15.196  -5.598  1.00 20.00     0.062 C 
HETATM    9  O9  UNL     1     -35.228  16.464  -4.887  1.00 20.00    -0.380 OA
HETATM   10 CL10 UNL     1     -32.657  14.872  -3.713  1.00 20.00    -0.125 Cl
ENDROOT
TORSDOF 0
ENDMDL
MODEL 5
REMARK VINA RESULT:      -4.1      1.988      3.811
REMARK  0 active torsions:
REMARK  status: ('A' for Active; 'I' for Inactive)
ROOT
HETATM    1  C1  UNL     1     -35.202  17.566  -1.905  1.00 20.00     0.006 C 
HETATM    2  C2  UNL     1     -34.479  16.241  -1.619  1.00 20.00     0.038 C 
HETATM    3  C3  UNL     1     -34.839  17.379  -3.388  1.00 20.00     0.038 C 
HETATM    4  C4  UNL     1     -34.613  13.276  -4.618  1.00 20.00     0.046 C 
HETATM    5  C5  UNL     1     -35.963  15.016  -3.375  1.00 20.00     0.058 C 
HETATM    6  C6  UNL     1     -33.484  13.834  -3.755  1.00 20.00     0.170 C 
HETATM    7  C7  UNL     1     -35.841  14.194  -4.660  1.00 20.00     0.087 C 
HETATM    8  C8  UNL     1     -34.692  15.848  -3.114  1.00 20.00     0.062 C 
HETATM    9  O9  UNL     1     -33.528  15.254  -3.749  1.00 20.00    -0.380 OA
HETATM   10 CL10 UNL     1     -35.771  15.273  -6.092  1.00 20.00    -0.125 Cl
ENDROOT
TORSDOF 0
ENDMDL
MODEL 6
REMARK VINA RESULT:      -4.1      2.130      2.895
REMARK  0 active torsions:
REMARK  status: ('A' for Active; 'I' for Inactive)
ROOT
HETATM    1  C1  UNL     1     -34.820  16.508  -7.713  1.00 20.00     0.006 C 
HETATM    2  C2  UNL     1     -34.404  17.341  -6.491  1.00 20.00     0.038 C 
HETATM    3  C3  UNL     1     -34.267  15.270  -6.987  1.00 20.00     0.038 C 
HETATM    4  C4  UNL     1     -34.597  15.468  -2.716  1.00 20.00     0.046 C 
HETATM    5  C5  UNL     1     -35.788  15.788  -4.923  1.00 20.00     0.058 C 
HETATM    6  C6  UNL     1     -33.537  16.329  -3.397  1.00 20.00     0.170 C 
HETATM    7  C7  UNL     1     -35.616  14.882  -3.701  1.00 20.00     0.087 C 
HETATM    8  C8  UNL     1     -34.445  16.036  -5.637  1.00 20.00     0.062 C 
HETATM    9  O9  UNL     1     -33.323  15.880  -4.728  1.00 20.00    -0.380 OA
HETATM   10 CL10 UNL     1     -35.124  13.233  -4.208  1.00 20.00    -0.125 Cl
ENDROOT
TORSDOF 0
ENDMDL
MODEL 7
REMARK VINA RESULT:      -4.1      1.809      2.397
REMARK  0 active torsions:
REMARK  status: ('A' for Active; 'I' for Inactive)
ROOT
HETATM    1  C1  UNL     1     -34.660  13.465  -4.994  1.00 20.00     0.006 C 
HETATM    2  C2  UNL     1     -34.153  13.664  -3.557  1.00 20.00     0.038 C 
HETATM    3  C3  UNL     1     -35.572  14.685  -4.782  1.00 20.00     0.038 C 
HETATM    4  C4  UNL     1     -33.955  17.621  -2.107  1.00 20.00     0.046 C 
HETATM    5  C5  UNL     1     -33.501  16.128  -4.096  1.00 20.00     0.058 C 
HETATM    6  C6  UNL     1     -34.489  16.321  -1.512  1.00 20.00     0.170 C 
HETATM    7  C7  UNL     1     -33.787  17.558  -3.630  1.00 20.00     0.087 C 
HETATM    8  C8  UNL     1     -34.607  15.154  -3.646  1.00 20.00     0.062 C 
HETATM    9  O9  UNL     1     -35.297  15.642  -2.464  1.00 20.00    -0.380 OA
HETATM   10 CL10 UNL     1     -35.245  18.205  -4.451  1.00 20.00    -0.125 Cl
ENDROOT
TORSDOF 0
ENDMDL
MODEL 8
REMARK VINA RESULT:      -4.0      2.066      3.441
REMARK  0 active torsions:
REMARK  status: ('A' for Active; 'I' for Inactive)
ROOT
HETATM    1  C1  UNL     1     -34.786  16.548  -1.249  1.00 20.00     0.006 C 
HETATM    2  C2  UNL     1     -33.638  16.476  -2.268  1.00 20.00     0.038 C 
HETATM    3  C3  UNL     1     -35.744  16.780  -2.429  1.00 20.00     0.038 C 
HETATM    4  C4  UNL     1     -34.520  14.862  -6.065  1.00 20.00     0.046 C 
HETATM    5  C5  UNL     1     -34.877  14.595  -3.576  1.00 20.00     0.058 C 
HETATM    6  C6  UNL     1     -33.758  16.106  -5.614  1.00 20.00     0.170 C 
HETATM    7  C7  UNL     1     -35.429  14.289  -4.971  1.00 20.00     0.087 C 
HETATM    8  C8  UNL     1     -34.686  16.109  -3.363  1.00 20.00     0.062 C 
HETATM    9  O9  UNL     1     -34.502  16.804  -4.626  1.00 20.00    -0.380 OA
HETATM   10 CL10 UNL     1     -37.097  14.927  -5.139  1.00 20.00    -0.125 Cl
ENDROOT
TORSDOF 0
ENDMDL
MODEL 9
REMARK VINA RESULT:      -4.0      1.833      3.607
REMARK  0 active torsions:
REMARK  status: ('A' for Active; 'I' for Inactive)
ROOT
HETATM    1  C1  UNL     1     -33.843  17.931  -6.055  1.00 20.00     0.006 C 
HETATM    2  C2  UNL     1     -35.269  17.380  -5.905  1.00 20.00     0.038 C 
HETATM    3  C3  UNL     1     -33.475  17.175  -4.768  1.00 20.00     0.038 C 
HETATM    4  C4  UNL     1     -35.691  13.549  -4.188  1.00 20.00     0.046 C 
HETATM    5  C5  UNL     1     -34.350  14.944  -5.816  1.00 20.00     0.058 C 
HETATM    6  C6  UNL     1     -36.408  14.877  -3.959  1.00 20.00     0.170 C 
HETATM    7  C7  UNL     1     -34.346  13.713  -4.907  1.00 20.00     0.087 C 
HETATM    8  C8  UNL     1     -34.688  16.226  -5.031  1.00 20.00     0.062 C 
HETATM    9  O9  UNL     1     -35.463  15.930  -3.837  1.00 20.00    -0.380 OA
HETATM   10 CL10 UNL     1     -33.006  13.815  -3.718  1.00 20.00    -0.125 Cl
ENDROOT
TORSDOF 0
ENDMDL
