MODEL 1
REMARK VINA RESULT:      -4.7      0.000      0.000
REMARK  1 active torsions:
REMARK  status: ('A' for Active; 'I' for Inactive)
REMARK    1  A    between atoms: C5_5  and  C10_10 
ROOT
HETATM    1  C1  UNL     1     -34.760  16.375  -1.235  1.00 20.00     0.017 A 
HETATM    2  C2  UNL     1     -33.738  15.434  -3.448  1.00 20.00     0.020 C 
HETATM    3  C3  UNL     1     -35.167  17.544  -3.512  1.00 20.00     0.083 C 
HETATM    4  C4  UNL     1     -36.179  15.007  -4.109  1.00 20.00     0.082 C 
HETATM    5  C5  UNL     1     -33.502  17.137  -1.534  1.00 20.00     0.005 A 
HETATM    6  C6  UNL     1     -34.350  16.596  -2.681  1.00 20.00    -0.026 A 
HETATM    7  C7  UNL     1     -34.699  14.740  -4.449  1.00 20.00    -0.038 C 
HETATM    8  C8  UNL     1     -34.375  15.182  -5.893  1.00 20.00     0.015 C 
HETATM    9  C9  UNL     1     -34.465  13.215  -4.380  1.00 20.00     0.015 C 
HETATM   10  S11 UNL     1     -36.682  16.759  -4.126  1.00 20.00    -0.168 SA
ENDROOT
BRANCH   5  11
HETATM   11  C10 UNL     1     -33.405  18.587  -1.202  1.00 20.00     0.090 C 
HETATM   12 BR12 UNL     1     -33.387  18.844   0.732  1.00 20.00    -0.096 Br
ENDBRANCH   5  11
TORSDOF 1
ENDMDL
MODEL 2
REMARK VINA RESULT:      -4.5      2.738      4.693
REMARK  1 active torsions:
REMARK  status: ('A' for Active; 'I' for Inactive)
REMARK    1  A    between atoms: C5_5  and  C10_10 
ROOT
HETATM    1  C1  UNL     1     -33.661  15.680  -3.809  1.00 20.00     0.017 A 
HETATM    2  C2  UNL     1     -34.479  16.311  -1.409  1.00 20.00     0.020 C 
HETATM    3  C3  UNL     1     -36.028  16.657  -3.405  1.00 20.00     0.083 C 
HETATM    4  C4  UNL     1     -34.486  18.714  -2.307  1.00 20.00     0.082 C 
HETATM    5  C5  UNL     1     -34.488  14.544  -3.279  1.00 20.00     0.005 A 
HETATM    6  C6  UNL     1     -34.807  15.974  -2.856  1.00 20.00    -0.026 A 
HETATM    7  C7  UNL     1     -34.583  17.819  -1.055  1.00 20.00    -0.038 C 
HETATM    8  C8  UNL     1     -35.887  18.096  -0.277  1.00 20.00     0.015 C 
HETATM    9  C9  UNL     1     -33.411  18.186  -0.119  1.00 20.00     0.015 C 
HETATM   10  S11 UNL     1     -35.779  18.445  -3.563  1.00 20.00    -0.168 SA
ENDROOT
BRANCH   5  11
HETATM   11  C10 UNL     1     -35.352  13.751  -4.198  1.00 20.00     0.090 C 
HETATM   12 BR12 UNL     1     -34.948  14.183  -6.058  1.00 20.00    -0.096 Br
ENDBRANCH   5  11
TORSDOF 1
ENDMDL
MODEL 3
REMARK VINA RESULT:      -4.5      1.946      2.715
REMARK  1 active torsions:
REMARK  status: ('A' for Active; 'I' for Inactive)
REMARK    1  A    between atoms: C5_5  and  C10_10 
ROOT
HETATM    1  C1  UNL     1     -35.782  18.276  -0.219  1.00 20.00     0.017 A 
HETATM    2  C2  UNL     1     -34.682  16.187  -1.339  1.00 20.00     0.020 C 
HETATM    3  C3  UNL     1     -33.476  18.432  -1.393  1.00 20.00     0.083 C 
HETATM    4  C4  UNL     1     -35.017  17.486  -3.526  1.00 20.00     0.082 C 
HETATM    5  C5  UNL     1     -34.790  17.691   0.745  1.00 20.00     0.005 A 
HETATM    6  C6  UNL     1     -34.540  17.584  -0.755  1.00 20.00    -0.026 A 
HETATM    7  C7  UNL     1     -34.661  16.127  -2.890  1.00 20.00    -0.038 C 
HETATM    8  C8  UNL     1     -33.287  15.626  -3.386  1.00 20.00     0.015 C 
HETATM    9  C9  UNL     1     -35.713  15.096  -3.357  1.00 20.00     0.015 C 
HETATM   10  S11 UNL     1     -33.900  18.863  -3.102  1.00 20.00    -0.168 SA
ENDROOT
BRANCH   5  11
HETATM   11  C10 UNL     1     -34.002  18.580   1.645  1.00 20.00     0.090 C 
HETATM   12 BR12 UNL     1     -34.348  18.138   3.514  1.00 20.00    -0.096 Br
ENDBRANCH   5  11
TORSDOF 1
ENDMDL
MODEL 4
REMARK VINA RESULT:      -4.3      1.686      2.645
REMARK  1 active torsions:
REMARK  status: ('A' for Active; 'I' for Inactive)
REMARK    1  A    between atoms: C5_5  and  C10_10 
ROOT
HETATM    1  C1  UNL     1     -33.256  16.012  -3.210  1.00 20.00     0.017 A 
HETATM    2  C2  UNL     1     -35.085  16.747  -4.925  1.00 20.00     0.020 C 
HETATM    3  C3  UNL     1     -35.476  14.696  -3.461  1.00 20.00     0.083 C 
HETATM    4  C4  UNL     1     -34.540  14.528  -6.090  1.00 20.00     0.082 C 
HETATM    5  C5  UNL     1     -34.292  16.814  -2.478  1.00 20.00     0.005 A 
HETATM    6  C6  UNL     1     -34.700  15.965  -3.678  1.00 20.00    -0.026 A 
HETATM    7  C7  UNL     1     -35.267  15.883  -6.201  1.00 20.00    -0.038 C 
HETATM    8  C8  UNL     1     -36.769  15.681  -6.499  1.00 20.00     0.015 C 
HETATM    9  C9  UNL     1     -34.666  16.645  -7.402  1.00 20.00     0.015 C 
HETATM   10  S11 UNL     1     -35.090  13.454  -4.723  1.00 20.00    -0.168 SA
ENDROOT
BRANCH   5  11
HETATM   11  C10 UNL     1     -34.654  16.472  -1.073  1.00 20.00     0.090 C 
HETATM   12 BR12 UNL     1     -34.252  17.966   0.117  1.00 20.00    -0.096 Br
ENDBRANCH   5  11
TORSDOF 1
ENDMDL
MODEL 5
REMARK VINA RESULT:      -4.3      3.635      5.206
REMARK  1 active torsions:
REMARK  status: ('A' for Active; 'I' for Inactive)
REMARK    1  A    between atoms: C5_5  and  C10_10 
ROOT
HETATM    1  C1  UNL     1     -34.678  14.969  -7.458  1.00 20.00     0.017 A 
HETATM    2  C2  UNL     1     -34.985  14.277  -4.957  1.00 20.00     0.020 C 
HETATM    3  C3  UNL     1     -35.403  16.691  -5.661  1.00 20.00     0.083 C 
HETATM    4  C4  UNL     1     -32.991  15.835  -4.534  1.00 20.00     0.082 C 
HETATM    5  C5  UNL     1     -36.138  14.717  -7.215  1.00 20.00     0.005 A 
HETATM    6  C6  UNL     1     -35.265  15.257  -6.087  1.00 20.00    -0.026 A 
HETATM    7  C7  UNL     1     -33.911  14.748  -3.941  1.00 20.00    -0.038 C 
HETATM    8  C8  UNL     1     -34.586  15.243  -2.643  1.00 20.00     0.015 C 
HETATM    9  C9  UNL     1     -33.029  13.539  -3.559  1.00 20.00     0.015 C 
HETATM   10  S11 UNL     1     -33.830  17.365  -5.063  1.00 20.00    -0.168 SA
ENDROOT
BRANCH   5  11
HETATM   11  C10 UNL     1     -37.169  15.536  -7.914  1.00 20.00     0.090 C 
HETATM   12 BR12 UNL     1     -38.960  14.993  -7.362  1.00 20.00    -0.096 Br
ENDBRANCH   5  11
TORSDOF 1
ENDMDL
MODEL 6
REMARK VINA RESULT:      -4.3      1.501      1.849
REMARK  1 active torsions:
REMARK  status: ('A' for Active; 'I' for Inactive)
REMARK    1  A    between atoms: C5_5  and  C10_10 
ROOT
HETATM    1  C1  UNL     1     -36.180  17.595  -2.189  1.00 20.00     0.017 A 
HETATM    2  C2  UNL     1     -34.491  15.603  -2.275  1.00 20.00     0.020 C 
HETATM    3  C3  UNL     1     -33.725  17.940  -2.947  1.00 20.00     0.083 C 
HETATM    4  C4  UNL     1     -34.516  16.008  -4.808  1.00 20.00     0.082 C 
HETATM    5  C5  UNL     1     -35.362  17.617  -0.930  1.00 20.00     0.005 A 
HETATM    6  C6  UNL     1     -34.744  17.103  -2.226  1.00 20.00    -0.026 A 
HETATM    7  C7  UNL     1     -34.088  15.058  -3.670  1.00 20.00    -0.038 C 
HETATM    8  C8  UNL     1     -32.568  14.787  -3.719  1.00 20.00     0.015 C 
HETATM    9  C9  UNL     1     -34.796  13.704  -3.894  1.00 20.00     0.015 C 
HETATM   10  S11 UNL     1     -33.796  17.682  -4.740  1.00 20.00    -0.168 SA
ENDROOT
BRANCH   5  11
HETATM   11  C10 UNL     1     -34.984  18.914  -0.302  1.00 20.00     0.090 C 
HETATM   12 BR12 UNL     1     -33.750  18.620   1.181  1.00 20.00    -0.096 Br
ENDBRANCH   5  11
TORSDOF 1
ENDMDL
MODEL 7
REMARK VINA RESULT:      -4.2      1.602      2.273
REMARK  1 active torsions:
REMARK  status: ('A' for Active; 'I' for Inactive)
REMARK    1  A    between atoms: C5_5  and  C10_10 
ROOT
HETATM    1  C1  UNL     1     -35.333  17.936  -2.477  1.00 20.00     0.017 A 
HETATM    2  C2  UNL     1     -36.067  15.508  -3.104  1.00 20.00     0.020 C 
HETATM    3  C3  UNL     1     -33.589  16.055  -2.852  1.00 20.00     0.083 C 
HETATM    4  C4  UNL     1     -34.884  15.985  -5.330  1.00 20.00     0.082 C 
HETATM    5  C5  UNL     1     -35.346  17.110  -1.224  1.00 20.00     0.005 A 
HETATM    6  C6  UNL     1     -35.008  16.455  -2.559  1.00 20.00    -0.026 A 
HETATM    7  C7  UNL     1     -35.825  15.035  -4.562  1.00 20.00    -0.038 C 
HETATM    8  C8  UNL     1     -35.278  13.590  -4.570  1.00 20.00     0.015 C 
HETATM    9  C9  UNL     1     -37.180  15.009  -5.303  1.00 20.00     0.015 C 
HETATM   10  S11 UNL     1     -33.215  16.173  -4.622  1.00 20.00    -0.168 SA
ENDROOT
BRANCH   5  11
HETATM   11  C10 UNL     1     -34.338  17.352  -0.153  1.00 20.00     0.090 C 
HETATM   12 BR12 UNL     1     -35.220  17.868   1.510  1.00 20.00    -0.096 Br
ENDBRANCH   5  11
TORSDOF 1
ENDMDL
MODEL 8
REMARK VINA RESULT:      -4.1      2.609      4.802
REMARK  1 active torsions:
REMARK  status: ('A' for Active; 'I' for Inactive)
REMARK    1  A    between atoms: C5_5  and  C10_10 
ROOT
HETATM    1  C1  UNL     1     -33.425  15.763  -2.959  1.00 20.00     0.017 A 
HETATM    2  C2  UNL     1     -34.720  16.933  -1.014  1.00 20.00     0.020 C 
HETATM    3  C3  UNL     1     -35.059  17.723  -3.415  1.00 20.00     0.083 C 
HETATM    4  C4  UNL     1     -33.309  18.984  -1.634  1.00 20.00     0.082 C 
HETATM    5  C5  UNL     1     -34.804  15.172  -2.888  1.00 20.00     0.005 A 
HETATM    6  C6  UNL     1     -34.584  16.630  -2.499  1.00 20.00    -0.026 A 
HETATM    7  C7  UNL     1     -34.265  18.358  -0.599  1.00 20.00    -0.038 C 
HETATM    8  C8  UNL     1     -35.494  19.262  -0.362  1.00 20.00     0.015 C 
HETATM    9  C9  UNL     1     -33.509  18.261   0.745  1.00 20.00     0.015 C 
HETATM   10  S11 UNL     1     -33.998  19.190  -3.310  1.00 20.00    -0.168 SA
ENDROOT
BRANCH   5  11
HETATM   11  C10 UNL     1     -35.507  14.755  -4.133  1.00 20.00     0.090 C 
HETATM   12 BR12 UNL     1     -37.441  14.799  -3.872  1.00 20.00    -0.096 Br
ENDBRANCH   5  11
TORSDOF 1
ENDMDL
MODEL 9
REMARK VINA RESULT:      -4.0      1.477      1.712
REMARK  1 active torsions:
REMARK  status: ('A' for Active; 'I' for Inactive)
REMARK    1  A    between atoms: C5_5  and  C10_10 
ROOT
HETATM    1  C1  UNL     1     -34.809  16.664  -0.455  1.00 20.00     0.017 A 
HETATM    2  C2  UNL     1     -33.487  16.717  -2.708  1.00 20.00     0.020 C 
HETATM    3  C3  UNL     1     -35.966  17.309  -2.683  1.00 20.00     0.083 C 
HETATM    4  C4  UNL     1     -35.019  14.770  -3.373  1.00 20.00     0.082 C 
HETATM    5  C5  UNL     1     -34.404  18.083  -0.731  1.00 20.00     0.005 A 
HETATM    6  C6  UNL     1     -34.699  17.141  -1.893  1.00 20.00    -0.026 A 
HETATM    7  C7  UNL     1     -33.757  15.582  -3.731  1.00 20.00    -0.038 C 
HETATM    8  C8  UNL     1     -33.860  16.163  -5.158  1.00 20.00     0.015 C 
HETATM    9  C9  UNL     1     -32.554  14.614  -3.723  1.00 20.00     0.015 C 
HETATM   10  S11 UNL     1     -36.572  15.723  -3.319  1.00 20.00    -0.168 SA
ENDROOT
BRANCH   5  11
HETATM   11  C10 UNL     1     -35.301  19.209  -0.343  1.00 20.00     0.090 C 
HETATM   12 BR12 UNL     1     -36.363  18.727   1.221  1.00 20.00    -0.096 Br
ENDBRANCH   5  11
TORSDOF 1
ENDMDL
