MODEL 1
REMARK VINA RESULT:      -4.2      0.000      0.000
REMARK  3 active torsions:
REMARK  status: ('A' for Active; 'I' for Inactive)
REMARK    1  A    between atoms: C2_2  and  C6_6 
REMARK    2  A    between atoms: C3_3  and  C7_7 
REMARK    3  A    between atoms: C6_6  and  O8_8 
ROOT
HETATM    1  C1  UNL     1     -32.909  15.295  -3.552  1.00 20.00     0.017 A 
HETATM    2  C2  UNL     1     -33.961  14.233  -3.403  1.00 20.00     0.018 A 
HETATM    3  C3  UNL     1     -34.322  15.699  -3.167  1.00 20.00    -0.038 A 
HETATM    4  C4  UNL     1     -35.148  16.445  -4.182  1.00 20.00     0.015 C 
ENDROOT
BRANCH   2   5
HETATM    5  C6  UNL     1     -34.432  13.470  -4.594  1.00 20.00     0.169 C 
BRANCH   5   6
HETATM    6  O8  UNL     1     -35.436  12.532  -4.203  1.00 20.00    -0.400 OA
HETATM    7  H22 UNL     1     -36.287  12.981  -4.315  1.00 20.00     0.209 HD
ENDBRANCH   5   6
ENDBRANCH   2   5
BRANCH   3   8
HETATM    8  C7  UNL     1     -34.570  16.125  -1.743  1.00 20.00     0.005 C 
HETATM    9  C5  UNL     1     -33.737  17.308  -1.346  1.00 20.00     0.006 C 
ENDBRANCH   3   8
TORSDOF 3
ENDMDL
MODEL 2
REMARK VINA RESULT:      -4.1     11.611     12.407
REMARK  3 active torsions:
REMARK  status: ('A' for Active; 'I' for Inactive)
REMARK    1  A    between atoms: C2_2  and  C6_6 
REMARK    2  A    between atoms: C3_3  and  C7_7 
REMARK    3  A    between atoms: C6_6  and  O8_8 
ROOT
HETATM    1  C1  UNL     1     -33.887   6.563   5.150  1.00 20.00     0.017 A 
HETATM    2  C2  UNL     1     -33.085   5.847   4.100  1.00 20.00     0.018 A 
HETATM    3  C3  UNL     1     -34.547   5.467   4.330  1.00 20.00    -0.038 A 
HETATM    4  C4  UNL     1     -35.596   5.867   3.327  1.00 20.00     0.015 C 
ENDROOT
BRANCH   2   5
HETATM    5  C6  UNL     1     -32.624   6.573   2.883  1.00 20.00     0.169 C 
BRANCH   5   6
HETATM    6  O8  UNL     1     -31.697   7.595   3.250  1.00 20.00    -0.400 OA
HETATM    7  H22 UNL     1     -31.266   7.881   2.430  1.00 20.00     0.209 HD
ENDBRANCH   5   6
ENDBRANCH   2   5
BRANCH   3   8
HETATM    8  C7  UNL     1     -34.817   4.147   5.004  1.00 20.00     0.005 C 
HETATM    9  C5  UNL     1     -35.162   4.305   6.456  1.00 20.00     0.006 C 
ENDBRANCH   3   8
TORSDOF 3
ENDMDL
MODEL 3
REMARK VINA RESULT:      -4.0     11.944     12.743
REMARK  3 active torsions:
REMARK  status: ('A' for Active; 'I' for Inactive)
REMARK    1  A    between atoms: C2_2  and  C6_6 
REMARK    2  A    between atoms: C3_3  and  C7_7 
REMARK    3  A    between atoms: C6_6  and  O8_8 
ROOT
HETATM    1  C1  UNL     1     -35.468   5.474   4.069  1.00 20.00     0.017 A 
HETATM    2  C2  UNL     1     -34.468   4.426   4.468  1.00 20.00     0.018 A 
HETATM    3  C3  UNL     1     -34.012   5.868   4.251  1.00 20.00    -0.038 A 
HETATM    4  C4  UNL     1     -33.653   6.731   5.432  1.00 20.00     0.015 C 
ENDROOT
BRANCH   2   5
HETATM    5  C6  UNL     1     -34.535   3.798   5.818  1.00 20.00     0.169 C 
BRANCH   5   6
HETATM    6  O8  UNL     1     -35.791   4.096   6.429  1.00 20.00    -0.400 OA
HETATM    7  H22 UNL     1     -36.196   4.796   5.895  1.00 20.00     0.209 HD
ENDBRANCH   5   6
ENDBRANCH   2   5
BRANCH   3   8
HETATM    8  C7  UNL     1     -33.200   6.154   3.015  1.00 20.00     0.005 C 
HETATM    9  C5  UNL     1     -32.059   7.092   3.282  1.00 20.00     0.006 C 
ENDBRANCH   3   8
TORSDOF 3
ENDMDL
MODEL 4
REMARK VINA RESULT:      -4.0     10.555     11.469
REMARK  3 active torsions:
REMARK  status: ('A' for Active; 'I' for Inactive)
REMARK    1  A    between atoms: C2_2  and  C6_6 
REMARK    2  A    between atoms: C3_3  and  C7_7 
REMARK    3  A    between atoms: C6_6  and  O8_8 
ROOT
HETATM    1  C1  UNL     1     -32.241   5.561   3.223  1.00 20.00     0.017 A 
HETATM    2  C2  UNL     1     -32.867   6.784   2.615  1.00 20.00     0.018 A 
HETATM    3  C3  UNL     1     -33.504   6.136   3.843  1.00 20.00    -0.038 A 
HETATM    4  C4  UNL     1     -33.392   6.802   5.189  1.00 20.00     0.015 C 
ENDROOT
BRANCH   2   5
HETATM    5  C6  UNL     1     -32.162   8.095   2.671  1.00 20.00     0.169 C 
BRANCH   5   6
HETATM    6  O8  UNL     1     -31.837   8.529   1.349  1.00 20.00    -0.400 OA
HETATM    7  H22 UNL     1     -31.315   9.339   1.448  1.00 20.00     0.209 HD
ENDBRANCH   5   6
ENDBRANCH   2   5
BRANCH   3   8
HETATM    8  C7  UNL     1     -34.795   5.388   3.635  1.00 20.00     0.005 C 
HETATM    9  C5  UNL     1     -35.191   4.583   4.838  1.00 20.00     0.006 C 
ENDBRANCH   3   8
TORSDOF 3
ENDMDL
MODEL 5
REMARK VINA RESULT:      -3.6      1.867      2.474
REMARK  3 active torsions:
REMARK  status: ('A' for Active; 'I' for Inactive)
REMARK    1  A    between atoms: C2_2  and  C6_6 
REMARK    2  A    between atoms: C3_3  and  C7_7 
REMARK    3  A    between atoms: C6_6  and  O8_8 
ROOT
HETATM    1  C1  UNL     1     -35.738  14.643  -3.760  1.00 20.00     0.017 A 
HETATM    2  C2  UNL     1     -35.009  15.228  -4.936  1.00 20.00     0.018 A 
HETATM    3  C3  UNL     1     -34.246  14.914  -3.650  1.00 20.00    -0.038 A 
HETATM    4  C4  UNL     1     -33.313  13.734  -3.596  1.00 20.00     0.015 C 
ENDROOT
BRANCH   2   5
HETATM    5  C6  UNL     1     -34.841  14.433  -6.186  1.00 20.00     0.169 C 
BRANCH   5   6
HETATM    6  O8  UNL     1     -33.877  15.060  -7.033  1.00 20.00    -0.400 OA
HETATM    7  H22 UNL     1     -33.566  15.846  -6.559  1.00 20.00     0.209 HD
ENDBRANCH   5   6
ENDBRANCH   2   5
BRANCH   3   8
HETATM    8  C7  UNL     1     -33.802  16.084  -2.811  1.00 20.00     0.005 C 
HETATM    9  C5  UNL     1     -34.614  16.231  -1.557  1.00 20.00     0.006 C 
ENDBRANCH   3   8
TORSDOF 3
ENDMDL
MODEL 6
REMARK VINA RESULT:      -3.6      2.267      3.766
REMARK  3 active torsions:
REMARK  status: ('A' for Active; 'I' for Inactive)
REMARK    1  A    between atoms: C2_2  and  C6_6 
REMARK    2  A    between atoms: C3_3  and  C7_7 
REMARK    3  A    between atoms: C6_6  and  O8_8 
ROOT
HETATM    1  C1  UNL     1     -35.681  15.623  -3.255  1.00 20.00     0.017 A 
HETATM    2  C2  UNL     1     -34.768  15.578  -2.063  1.00 20.00     0.018 A 
HETATM    3  C3  UNL     1     -34.224  15.236  -3.449  1.00 20.00    -0.038 A 
HETATM    4  C4  UNL     1     -33.323  16.206  -4.166  1.00 20.00     0.015 C 
ENDROOT
BRANCH   2   5
HETATM    5  C6  UNL     1     -34.408  16.833  -1.345  1.00 20.00     0.169 C 
BRANCH   5   6
HETATM    6  O8  UNL     1     -34.995  16.833  -0.043  1.00 20.00    -0.400 OA
HETATM    7  H22 UNL     1     -34.898  17.733   0.301  1.00 20.00     0.209 HD
ENDBRANCH   5   6
ENDBRANCH   2   5
BRANCH   3   8
HETATM    8  C7  UNL     1     -33.911  13.789  -3.728  1.00 20.00     0.005 C 
HETATM    9  C5  UNL     1     -34.726  13.233  -4.859  1.00 20.00     0.006 C 
ENDBRANCH   3   8
TORSDOF 3
ENDMDL
MODEL 7
REMARK VINA RESULT:      -3.5     11.972     12.708
REMARK  3 active torsions:
REMARK  status: ('A' for Active; 'I' for Inactive)
REMARK    1  A    between atoms: C2_2  and  C6_6 
REMARK    2  A    between atoms: C3_3  and  C7_7 
REMARK    3  A    between atoms: C6_6  and  O8_8 
ROOT
HETATM    1  C1  UNL     1     -35.732   5.537   4.037  1.00 20.00     0.017 A 
HETATM    2  C2  UNL     1     -34.298   5.972   3.933  1.00 20.00     0.018 A 
HETATM    3  C3  UNL     1     -34.734   5.063   5.080  1.00 20.00    -0.038 A 
HETATM    4  C4  UNL     1     -34.344   3.608   5.078  1.00 20.00     0.015 C 
ENDROOT
BRANCH   2   5
HETATM    5  C6  UNL     1     -33.448   5.495   2.806  1.00 20.00     0.169 C 
BRANCH   5   6
HETATM    6  O8  UNL     1     -32.108   5.957   2.979  1.00 20.00    -0.400 OA
HETATM    7  H22 UNL     1     -31.770   5.524   3.777  1.00 20.00     0.209 HD
ENDBRANCH   5   6
ENDBRANCH   2   5
BRANCH   3   8
HETATM    8  C7  UNL     1     -34.807   5.675   6.455  1.00 20.00     0.005 C 
HETATM    9  C5  UNL     1     -33.807   6.778   6.644  1.00 20.00     0.006 C 
ENDBRANCH   3   8
TORSDOF 3
ENDMDL
MODEL 8
REMARK VINA RESULT:      -3.5      1.445      2.391
REMARK  3 active torsions:
REMARK  status: ('A' for Active; 'I' for Inactive)
REMARK    1  A    between atoms: C2_2  and  C6_6 
REMARK    2  A    between atoms: C3_3  and  C7_7 
REMARK    3  A    between atoms: C6_6  and  O8_8 
ROOT
HETATM    1  C1  UNL     1     -35.500  15.538  -4.759  1.00 20.00     0.017 A 
HETATM    2  C2  UNL     1     -34.333  14.609  -4.937  1.00 20.00     0.018 A 
HETATM    3  C3  UNL     1     -34.100  16.033  -4.434  1.00 20.00    -0.038 A 
HETATM    4  C4  UNL     1     -33.751  16.273  -2.989  1.00 20.00     0.015 C 
ENDROOT
BRANCH   2   5
HETATM    5  C6  UNL     1     -34.184  13.412  -4.062  1.00 20.00     0.169 C 
BRANCH   5   6
HETATM    6  O8  UNL     1     -35.343  12.584  -4.173  1.00 20.00    -0.400 OA
HETATM    7  H22 UNL     1     -36.072  13.167  -4.429  1.00 20.00     0.209 HD
ENDBRANCH   5   6
ENDBRANCH   2   5
BRANCH   3   8
HETATM    8  C7  UNL     1     -33.456  17.004  -5.389  1.00 20.00     0.005 C 
HETATM    9  C5  UNL     1     -33.557  18.425  -4.916  1.00 20.00     0.006 C 
ENDBRANCH   3   8
TORSDOF 3
ENDMDL
MODEL 9
REMARK VINA RESULT:      -3.5     10.675     11.497
REMARK  3 active torsions:
REMARK  status: ('A' for Active; 'I' for Inactive)
REMARK    1  A    between atoms: C2_2  and  C6_6 
REMARK    2  A    between atoms: C3_3  and  C7_7 
REMARK    3  A    between atoms: C6_6  and  O8_8 
ROOT
HETATM    1  C1  UNL     1     -33.325   6.361   5.098  1.00 20.00     0.017 A 
HETATM    2  C2  UNL     1     -34.362   6.487   4.019  1.00 20.00     0.018 A 
HETATM    3  C3  UNL     1     -32.880   6.589   3.663  1.00 20.00    -0.038 A 
HETATM    4  C4  UNL     1     -32.198   5.456   2.944  1.00 20.00     0.015 C 
ENDROOT
BRANCH   2   5
HETATM    5  C6  UNL     1     -35.201   5.314   3.642  1.00 20.00     0.169 C 
BRANCH   5   6
HETATM    6  O8  UNL     1     -35.559   4.578   4.812  1.00 20.00    -0.400 OA
HETATM    7  H22 UNL     1     -35.239   5.093   5.568  1.00 20.00     0.209 HD
ENDBRANCH   5   6
ENDBRANCH   2   5
BRANCH   3   8
HETATM    8  C7  UNL     1     -32.352   7.952   3.297  1.00 20.00     0.005 C 
HETATM    9  C5  UNL     1     -31.998   8.058   1.843  1.00 20.00     0.006 C 
ENDBRANCH   3   8
TORSDOF 3
ENDMDL
