MODEL 1
REMARK VINA RESULT:      -4.0      0.000      0.000
REMARK  3 active torsions:
REMARK  status: ('A' for Active; 'I' for Inactive)
REMARK    1  A    between atoms: C4_4  and  C6_6 
REMARK    2  A    between atoms: C5_5  and  C8_8 
REMARK    3  A    between atoms: C6_6  and  C9_9 
ROOT
HETATM    1  C3  UNL     1     -35.808  15.377  -3.516  1.00 20.00     0.017 A 
HETATM    2  C5  UNL     1     -34.714  14.389  -3.227  1.00 20.00     0.009 A 
HETATM    3  C6  UNL     1     -34.508  15.862  -2.896  1.00 20.00    -0.032 A 
ENDROOT
BRANCH   3   4
HETATM    4  C4  UNL     1     -34.470  16.298  -1.423  1.00 20.00    -0.006 A 
HETATM    5  C1  UNL     1     -33.712  17.509  -0.955  1.00 20.00     0.006 A 
HETATM    6  C2  UNL     1     -35.215  17.501  -0.914  1.00 20.00     0.006 A 
ENDBRANCH   3   4
BRANCH   3   7
HETATM    7  C9  UNL     1     -33.604  16.686  -3.780  1.00 20.00     0.006 C 
HETATM    8  C7  UNL     1     -34.370  17.642  -4.645  1.00 20.00     0.006 C 
ENDBRANCH   3   7
BRANCH   2   9
HETATM    9  C8  UNL     1     -34.003  13.702  -4.343  1.00 20.00     0.120 C 
HETATM   10 CL10 UNL     1     -34.873  13.909  -5.888  1.00 20.00    -0.130 Cl
ENDBRANCH   2   9
TORSDOF 3
ENDMDL
MODEL 2
REMARK VINA RESULT:      -4.0     11.752     12.871
REMARK  3 active torsions:
REMARK  status: ('A' for Active; 'I' for Inactive)
REMARK    1  A    between atoms: C4_4  and  C6_6 
REMARK    2  A    between atoms: C5_5  and  C8_8 
REMARK    3  A    between atoms: C6_6  and  C9_9 
ROOT
HETATM    1  C3  UNL     1     -34.089   6.148   3.139  1.00 20.00     0.017 A 
HETATM    2  C5  UNL     1     -32.656   6.097   3.585  1.00 20.00     0.009 A 
HETATM    3  C6  UNL     1     -33.772   6.030   4.620  1.00 20.00    -0.032 A 
ENDROOT
BRANCH   3   4
HETATM    4  C4  UNL     1     -34.024   4.707   5.361  1.00 20.00    -0.006 A 
HETATM    5  C1  UNL     1     -35.168   4.520   6.320  1.00 20.00     0.006 A 
HETATM    6  C2  UNL     1     -35.158   3.784   5.008  1.00 20.00     0.006 A 
ENDBRANCH   3   4
BRANCH   3   7
HETATM    7  C9  UNL     1     -34.049   7.246   5.470  1.00 20.00     0.006 C 
HETATM    8  C7  UNL     1     -33.334   7.194   6.788  1.00 20.00     0.006 C 
ENDBRANCH   3   7
BRANCH   2   9
HETATM    9  C8  UNL     1     -31.772   7.286   3.422  1.00 20.00     0.120 C 
HETATM   10 CL10 UNL     1     -32.150   8.172   1.919  1.00 20.00    -0.130 Cl
ENDBRANCH   2   9
TORSDOF 3
ENDMDL
MODEL 3
REMARK VINA RESULT:      -3.9      1.310      2.447
REMARK  3 active torsions:
REMARK  status: ('A' for Active; 'I' for Inactive)
REMARK    1  A    between atoms: C4_4  and  C6_6 
REMARK    2  A    between atoms: C5_5  and  C8_8 
REMARK    3  A    between atoms: C6_6  and  C9_9 
ROOT
HETATM    1  C3  UNL     1     -33.443  16.401  -4.840  1.00 20.00     0.017 A 
HETATM    2  C5  UNL     1     -34.905  16.534  -5.151  1.00 20.00     0.009 A 
HETATM    3  C6  UNL     1     -34.468  16.033  -3.781  1.00 20.00    -0.032 A 
ENDROOT
BRANCH   3   4
HETATM    4  C4  UNL     1     -34.672  16.937  -2.555  1.00 20.00    -0.006 A 
HETATM    5  C1  UNL     1     -34.701  16.403  -1.149  1.00 20.00     0.006 A 
HETATM    6  C2  UNL     1     -33.558  17.271  -1.600  1.00 20.00     0.006 A 
ENDBRANCH   3   4
BRANCH   3   7
HETATM    7  C9  UNL     1     -34.614  14.564  -3.463  1.00 20.00     0.006 C 
HETATM    8  C7  UNL     1     -33.341  13.804  -3.687  1.00 20.00     0.006 C 
ENDBRANCH   3   7
BRANCH   2   9
HETATM    9  C8  UNL     1     -35.544  15.653  -6.171  1.00 20.00     0.120 C 
HETATM   10 CL10 UNL     1     -34.324  14.938  -7.262  1.00 20.00    -0.130 Cl
ENDBRANCH   2   9
TORSDOF 3
ENDMDL
MODEL 4
REMARK VINA RESULT:      -3.8      2.520      4.140
REMARK  3 active torsions:
REMARK  status: ('A' for Active; 'I' for Inactive)
REMARK    1  A    between atoms: C4_4  and  C6_6 
REMARK    2  A    between atoms: C5_5  and  C8_8 
REMARK    3  A    between atoms: C6_6  and  C9_9 
ROOT
HETATM    1  C3  UNL     1     -33.714  16.708  -2.896  1.00 20.00     0.017 A 
HETATM    2  C5  UNL     1     -34.479  16.372  -1.648  1.00 20.00     0.009 A 
HETATM    3  C6  UNL     1     -34.882  15.740  -2.975  1.00 20.00    -0.032 A 
ENDROOT
BRANCH   3   4
HETATM    4  C4  UNL     1     -34.628  14.240  -3.193  1.00 20.00    -0.006 A 
HETATM    5  C1  UNL     1     -35.319  13.449  -4.269  1.00 20.00     0.006 A 
HETATM    6  C2  UNL     1     -33.841  13.713  -4.362  1.00 20.00     0.006 A 
ENDBRANCH   3   4
BRANCH   3   7
HETATM    7  C9  UNL     1     -36.126  16.236  -3.669  1.00 20.00     0.006 C 
HETATM    8  C7  UNL     1     -35.811  17.054  -4.886  1.00 20.00     0.006 C 
ENDBRANCH   3   7
BRANCH   2   9
HETATM    9  C8  UNL     1     -35.301  17.412  -0.964  1.00 20.00     0.120 C 
HETATM   10 CL10 UNL     1     -35.078  17.349   0.806  1.00 20.00    -0.130 Cl
ENDBRANCH   2   9
TORSDOF 3
ENDMDL
MODEL 5
REMARK VINA RESULT:      -3.7      1.434      2.318
REMARK  3 active torsions:
REMARK  status: ('A' for Active; 'I' for Inactive)
REMARK    1  A    between atoms: C4_4  and  C6_6 
REMARK    2  A    between atoms: C5_5  and  C8_8 
REMARK    3  A    between atoms: C6_6  and  C9_9 
ROOT
HETATM    1  C3  UNL     1     -35.035  13.523  -3.980  1.00 20.00     0.017 A 
HETATM    2  C5  UNL     1     -34.314  14.325  -5.024  1.00 20.00     0.009 A 
HETATM    3  C6  UNL     1     -34.968  15.035  -3.845  1.00 20.00    -0.032 A 
ENDROOT
BRANCH   3   4
HETATM    4  C4  UNL     1     -34.074  15.675  -2.771  1.00 20.00    -0.006 A 
HETATM    5  C1  UNL     1     -34.028  17.159  -2.534  1.00 20.00     0.006 A 
HETATM    6  C2  UNL     1     -34.626  16.252  -1.495  1.00 20.00     0.006 A 
ENDBRANCH   3   4
BRANCH   3   7
HETATM    7  C9  UNL     1     -36.253  15.792  -4.073  1.00 20.00     0.006 C 
HETATM    8  C7  UNL     1     -37.460  15.004  -3.657  1.00 20.00     0.006 C 
ENDBRANCH   3   7
BRANCH   2   9
HETATM    9  C8  UNL     1     -34.846  14.406  -6.414  1.00 20.00     0.120 C 
HETATM   10 CL10 UNL     1     -34.320  15.909  -7.221  1.00 20.00    -0.130 Cl
ENDBRANCH   2   9
TORSDOF 3
ENDMDL
MODEL 6
REMARK VINA RESULT:      -3.7      2.480      4.131
REMARK  3 active torsions:
REMARK  status: ('A' for Active; 'I' for Inactive)
REMARK    1  A    between atoms: C4_4  and  C6_6 
REMARK    2  A    between atoms: C5_5  and  C8_8 
REMARK    3  A    between atoms: C6_6  and  C9_9 
ROOT
HETATM    1  C3  UNL     1     -33.075  15.397  -3.798  1.00 20.00     0.017 A 
HETATM    2  C5  UNL     1     -34.404  15.105  -3.163  1.00 20.00     0.009 A 
HETATM    3  C6  UNL     1     -34.346  15.573  -4.611  1.00 20.00    -0.032 A 
ENDROOT
BRANCH   3   4
HETATM    4  C4  UNL     1     -34.690  14.579  -5.731  1.00 20.00    -0.006 A 
HETATM    5  C1  UNL     1     -35.830  14.797  -6.687  1.00 20.00     0.006 A 
HETATM    6  C2  UNL     1     -34.412  14.863  -7.182  1.00 20.00     0.006 A 
ENDBRANCH   3   4
BRANCH   3   7
HETATM    7  C9  UNL     1     -34.750  16.991  -4.934  1.00 20.00     0.006 C 
HETATM    8  C7  UNL     1     -33.569  17.867  -5.231  1.00 20.00     0.006 C 
ENDBRANCH   3   7
BRANCH   2   9
HETATM    9  C8  UNL     1     -34.915  15.961  -2.054  1.00 20.00     0.120 C 
HETATM   10 CL10 UNL     1     -33.629  17.018  -1.407  1.00 20.00    -0.130 Cl
ENDBRANCH   2   9
TORSDOF 3
ENDMDL
MODEL 7
REMARK VINA RESULT:      -3.7      2.319      3.872
REMARK  3 active torsions:
REMARK  status: ('A' for Active; 'I' for Inactive)
REMARK    1  A    between atoms: C4_4  and  C6_6 
REMARK    2  A    between atoms: C5_5  and  C8_8 
REMARK    3  A    between atoms: C6_6  and  C9_9 
ROOT
HETATM    1  C3  UNL     1     -33.686  16.530  -2.228  1.00 20.00     0.017 A 
HETATM    2  C5  UNL     1     -35.169  16.434  -2.017  1.00 20.00     0.009 A 
HETATM    3  C6  UNL     1     -34.541  15.808  -3.255  1.00 20.00    -0.032 A 
ENDROOT
BRANCH   3   4
HETATM    4  C4  UNL     1     -34.483  14.276  -3.370  1.00 20.00    -0.006 A 
HETATM    5  C1  UNL     1     -34.396  13.564  -4.692  1.00 20.00     0.006 A 
HETATM    6  C2  UNL     1     -33.228  13.538  -3.746  1.00 20.00     0.006 A 
ENDBRANCH   3   4
BRANCH   3   7
HETATM    7  C9  UNL     1     -34.722  16.494  -4.587  1.00 20.00     0.006 C 
HETATM    8  C7  UNL     1     -33.454  17.126  -5.078  1.00 20.00     0.006 C 
ENDBRANCH   3   7
BRANCH   2   9
HETATM    9  C8  UNL     1     -36.020  17.657  -2.069  1.00 20.00     0.120 C 
HETATM   10 CL10 UNL     1     -35.030  19.139  -1.965  1.00 20.00    -0.130 Cl
ENDBRANCH   2   9
TORSDOF 3
ENDMDL
MODEL 8
REMARK VINA RESULT:      -3.6     10.935     11.998
REMARK  3 active torsions:
REMARK  status: ('A' for Active; 'I' for Inactive)
REMARK    1  A    between atoms: C4_4  and  C6_6 
REMARK    2  A    between atoms: C5_5  and  C8_8 
REMARK    3  A    between atoms: C6_6  and  C9_9 
ROOT
HETATM    1  C3  UNL     1     -31.996   5.936   3.860  1.00 20.00     0.017 A 
HETATM    2  C5  UNL     1     -32.397   7.314   3.418  1.00 20.00     0.009 A 
HETATM    3  C6  UNL     1     -33.463   6.328   3.878  1.00 20.00    -0.032 A 
ENDROOT
BRANCH   3   4
HETATM    4  C4  UNL     1     -34.181   6.575   5.215  1.00 20.00    -0.006 A 
HETATM    5  C1  UNL     1     -34.185   5.567   6.331  1.00 20.00     0.006 A 
HETATM    6  C2  UNL     1     -33.440   6.864   6.491  1.00 20.00     0.006 A 
ENDBRANCH   3   4
BRANCH   3   7
HETATM    7  C9  UNL     1     -34.349   5.680   2.842  1.00 20.00     0.006 C 
HETATM    8  C7  UNL     1     -35.782   5.612   3.280  1.00 20.00     0.006 C 
ENDBRANCH   3   7
BRANCH   2   9
HETATM    9  C8  UNL     1     -32.235   7.727   1.995  1.00 20.00     0.120 C 
HETATM   10 CL10 UNL     1     -32.521   9.478   1.793  1.00 20.00    -0.130 Cl
ENDBRANCH   2   9
TORSDOF 3
ENDMDL
MODEL 9
REMARK VINA RESULT:      -3.6      2.419      3.985
REMARK  3 active torsions:
REMARK  status: ('A' for Active; 'I' for Inactive)
REMARK    1  A    between atoms: C4_4  and  C6_6 
REMARK    2  A    between atoms: C5_5  and  C8_8 
REMARK    3  A    between atoms: C6_6  and  C9_9 
ROOT
HETATM    1  C3  UNL     1     -35.853  15.327  -3.051  1.00 20.00     0.017 A 
HETATM    2  C5  UNL     1     -35.244  16.547  -2.421  1.00 20.00     0.009 A 
HETATM    3  C6  UNL     1     -34.620  15.955  -3.679  1.00 20.00    -0.032 A 
ENDROOT
BRANCH   3   4
HETATM    4  C4  UNL     1     -34.735  16.726  -5.003  1.00 20.00    -0.006 A 
HETATM    5  C1  UNL     1     -33.832  16.462  -6.176  1.00 20.00     0.006 A 
HETATM    6  C2  UNL     1     -35.291  16.107  -6.256  1.00 20.00     0.006 A 
ENDBRANCH   3   4
BRANCH   3   7
HETATM    7  C9  UNL     1     -33.330  15.181  -3.555  1.00 20.00     0.006 C 
HETATM    8  C7  UNL     1     -33.522  13.712  -3.791  1.00 20.00     0.006 C 
ENDBRANCH   3   7
BRANCH   2   9
HETATM    9  C8  UNL     1     -34.599  16.462  -1.079  1.00 20.00     0.120 C 
HETATM   10 CL10 UNL     1     -33.414  17.776  -0.847  1.00 20.00    -0.130 Cl
ENDBRANCH   2   9
TORSDOF 3
ENDMDL
