MODEL 1
REMARK VINA RESULT:      -4.4      0.000      0.000
REMARK  1 active torsions:
REMARK  status: ('A' for Active; 'I' for Inactive)
REMARK    1  A    between atoms: C4_4  and  C10_10 
ROOT
HETATM    1  C1  UNL     1     -36.267  16.605  -4.431  1.00 20.00     0.007 C 
HETATM    2  C2  UNL     1     -36.144  16.758  -2.914  1.00 20.00     0.009 C 
HETATM    3  C3  UNL     1     -34.196  15.125  -2.812  1.00 20.00     0.013 C 
HETATM    4  C4  UNL     1     -35.382  15.493  -5.030  1.00 20.00     0.003 C 
HETATM    5  C5  UNL     1     -34.991  14.457  -3.958  1.00 20.00    -0.013 C 
HETATM    6  C6  UNL     1     -34.719  16.521  -2.382  1.00 20.00    -0.047 C 
HETATM    7  C7  UNL     1     -34.182  13.283  -4.516  1.00 20.00     0.010 C 
HETATM    8  C8  UNL     1     -33.770  17.625  -2.891  1.00 20.00     0.015 C 
HETATM    9  C9  UNL     1     -34.743  16.604  -0.842  1.00 20.00     0.015 C 
ENDROOT
BRANCH   4  10
HETATM   10  C10 UNL     1     -36.083  14.882  -6.247  1.00 20.00     0.119 C 
HETATM   11 CL11 UNL     1     -34.976  14.846  -7.628  1.00 20.00    -0.130 Cl
ENDBRANCH   4  10
TORSDOF 1
ENDMDL
MODEL 2
REMARK VINA RESULT:      -4.4      1.219      2.427
REMARK  1 active torsions:
REMARK  status: ('A' for Active; 'I' for Inactive)
REMARK    1  A    between atoms: C4_4  and  C10_10 
ROOT
HETATM    1  C1  UNL     1     -33.651  15.258  -3.426  1.00 20.00     0.007 C 
HETATM    2  C2  UNL     1     -33.736  16.767  -3.191  1.00 20.00     0.009 C 
HETATM    3  C3  UNL     1     -36.232  16.647  -2.715  1.00 20.00     0.013 C 
HETATM    4  C4  UNL     1     -35.016  14.544  -3.462  1.00 20.00     0.003 C 
HETATM    5  C5  UNL     1     -36.153  15.535  -3.785  1.00 20.00    -0.013 C 
HETATM    6  C6  UNL     1     -34.860  17.180  -2.223  1.00 20.00    -0.047 C 
HETATM    7  C7  UNL     1     -37.523  14.864  -3.918  1.00 20.00     0.010 C 
HETATM    8  C8  UNL     1     -34.561  16.654  -0.805  1.00 20.00     0.015 C 
HETATM    9  C9  UNL     1     -34.909  18.720  -2.145  1.00 20.00     0.015 C 
ENDROOT
BRANCH   4  10
HETATM   10  C10 UNL     1     -34.947  13.356  -4.426  1.00 20.00     0.119 C 
HETATM   11 CL11 UNL     1     -34.867  13.936  -6.097  1.00 20.00    -0.130 Cl
ENDBRANCH   4  10
TORSDOF 1
ENDMDL
MODEL 3
REMARK VINA RESULT:      -4.4      2.753      4.279
REMARK  1 active torsions:
REMARK  status: ('A' for Active; 'I' for Inactive)
REMARK    1  A    between atoms: C4_4  and  C10_10 
ROOT
HETATM    1  C1  UNL     1     -34.369  16.284  -2.174  1.00 20.00     0.007 C 
HETATM    2  C2  UNL     1     -35.025  15.061  -2.818  1.00 20.00     0.009 C 
HETATM    3  C3  UNL     1     -33.998  15.585  -5.085  1.00 20.00     0.013 C 
HETATM    4  C4  UNL     1     -33.670  17.227  -3.174  1.00 20.00     0.003 C 
HETATM    5  C5  UNL     1     -34.224  17.035  -4.599  1.00 20.00    -0.013 C 
HETATM    6  C6  UNL     1     -34.236  14.491  -4.010  1.00 20.00    -0.047 C 
HETATM    7  C7  UNL     1     -33.625  18.007  -5.619  1.00 20.00     0.010 C 
HETATM    8  C8  UNL     1     -32.889  13.913  -3.530  1.00 20.00     0.015 C 
HETATM    9  C9  UNL     1     -35.042  13.332  -4.632  1.00 20.00     0.015 C 
ENDROOT
BRANCH   4  10
HETATM   10  C10 UNL     1     -33.767  18.670  -2.669  1.00 20.00     0.119 C 
HETATM   11 CL11 UNL     1     -33.058  18.794  -1.051  1.00 20.00    -0.130 Cl
ENDBRANCH   4  10
TORSDOF 1
ENDMDL
MODEL 4
REMARK VINA RESULT:      -4.3      2.461      4.205
REMARK  1 active torsions:
REMARK  status: ('A' for Active; 'I' for Inactive)
REMARK    1  A    between atoms: C4_4  and  C10_10 
ROOT
HETATM    1  C1  UNL     1     -34.830  17.114  -4.693  1.00 20.00     0.007 C 
HETATM    2  C2  UNL     1     -34.862  16.713  -6.169  1.00 20.00     0.009 C 
HETATM    3  C3  UNL     1     -34.581  14.249  -5.605  1.00 20.00     0.013 C 
HETATM    4  C4  UNL     1     -34.465  15.964  -3.733  1.00 20.00     0.003 C 
HETATM    5  C5  UNL     1     -33.711  14.841  -4.472  1.00 20.00    -0.013 C 
HETATM    6  C6  UNL     1     -35.399  15.291  -6.413  1.00 20.00    -0.047 C 
HETATM    7  C7  UNL     1     -33.249  13.710  -3.548  1.00 20.00     0.010 C 
HETATM    8  C8  UNL     1     -36.890  15.211  -6.029  1.00 20.00     0.015 C 
HETATM    9  C9  UNL     1     -35.290  14.969  -7.917  1.00 20.00     0.015 C 
ENDROOT
BRANCH   4  10
HETATM   10  C10 UNL     1     -33.701  16.525  -2.530  1.00 20.00     0.119 C 
HETATM   11 CL11 UNL     1     -34.691  16.390  -1.068  1.00 20.00    -0.130 Cl
ENDBRANCH   4  10
TORSDOF 1
ENDMDL
MODEL 5
REMARK VINA RESULT:      -4.2      1.989      2.978
REMARK  1 active torsions:
REMARK  status: ('A' for Active; 'I' for Inactive)
REMARK    1  A    between atoms: C4_4  and  C10_10 
ROOT
HETATM    1  C1  UNL     1     -34.830  15.909  -1.909  1.00 20.00     0.007 C 
HETATM    2  C2  UNL     1     -33.955  16.937  -1.190  1.00 20.00     0.009 C 
HETATM    3  C3  UNL     1     -33.638  18.296  -3.317  1.00 20.00     0.013 C 
HETATM    4  C4  UNL     1     -34.888  16.086  -3.440  1.00 20.00     0.003 C 
HETATM    5  C5  UNL     1     -33.674  16.887  -3.952  1.00 20.00    -0.013 C 
HETATM    6  C6  UNL     1     -34.015  18.344  -1.813  1.00 20.00    -0.047 C 
HETATM    7  C7  UNL     1     -33.636  17.020  -5.477  1.00 20.00     0.010 C 
HETATM    8  C8  UNL     1     -35.424  18.946  -1.636  1.00 20.00     0.015 C 
HETATM    9  C9  UNL     1     -33.023  19.261  -1.068  1.00 20.00     0.015 C 
ENDROOT
BRANCH   4  10
HETATM   10  C10 UNL     1     -35.044  14.717  -4.107  1.00 20.00     0.119 C 
HETATM   11 CL11 UNL     1     -33.652  13.693  -3.722  1.00 20.00    -0.130 Cl
ENDBRANCH   4  10
TORSDOF 1
ENDMDL
MODEL 6
REMARK VINA RESULT:      -4.2      2.523      4.358
REMARK  1 active torsions:
REMARK  status: ('A' for Active; 'I' for Inactive)
REMARK    1  A    between atoms: C4_4  and  C10_10 
ROOT
HETATM    1  C1  UNL     1     -36.410  15.225  -3.421  1.00 20.00     0.007 C 
HETATM    2  C2  UNL     1     -36.517  14.822  -4.893  1.00 20.00     0.009 C 
HETATM    3  C3  UNL     1     -34.254  15.847  -5.437  1.00 20.00     0.013 C 
HETATM    4  C4  UNL     1     -35.211  16.140  -3.100  1.00 20.00     0.003 C 
HETATM    5  C5  UNL     1     -34.711  16.864  -4.366  1.00 20.00    -0.013 C 
HETATM    6  C6  UNL     1     -35.155  14.591  -5.572  1.00 20.00    -0.047 C 
HETATM    7  C7  UNL     1     -33.574  17.852  -4.090  1.00 20.00     0.010 C 
HETATM    8  C8  UNL     1     -34.453  13.364  -4.955  1.00 20.00     0.015 C 
HETATM    9  C9  UNL     1     -35.388  14.289  -7.066  1.00 20.00     0.015 C 
ENDROOT
BRANCH   4  10
HETATM   10  C10 UNL     1     -35.583  17.089  -1.958  1.00 20.00     0.119 C 
HETATM   11 CL11 UNL     1     -34.627  16.707  -0.517  1.00 20.00    -0.130 Cl
ENDBRANCH   4  10
TORSDOF 1
ENDMDL
MODEL 7
REMARK VINA RESULT:      -4.2      1.281      1.281
REMARK  1 active torsions:
REMARK  status: ('A' for Active; 'I' for Inactive)
REMARK    1  A    between atoms: C4_4  and  C10_10 
ROOT
HETATM    1  C1  UNL     1     -36.524  16.840  -4.264  1.00 20.00     0.007 C 
HETATM    2  C2  UNL     1     -36.225  16.951  -2.768  1.00 20.00     0.009 C 
HETATM    3  C3  UNL     1     -34.488  15.095  -2.881  1.00 20.00     0.013 C 
HETATM    4  C4  UNL     1     -35.848  15.641  -4.958  1.00 20.00     0.003 C 
HETATM    5  C5  UNL     1     -35.474  14.547  -3.938  1.00 20.00    -0.013 C 
HETATM    6  C6  UNL     1     -34.790  16.536  -2.392  1.00 20.00    -0.047 C 
HETATM    7  C7  UNL     1     -34.875  13.294  -4.584  1.00 20.00     0.010 C 
HETATM    8  C8  UNL     1     -33.774  17.528  -2.994  1.00 20.00     0.015 C 
HETATM    9  C9  UNL     1     -34.642  16.596  -0.858  1.00 20.00     0.015 C 
ENDROOT
BRANCH   4  10
HETATM   10  C10 UNL     1     -36.741  15.138  -6.096  1.00 20.00     0.119 C 
HETATM   11 CL11 UNL     1     -38.441  15.201  -5.604  1.00 20.00    -0.130 Cl
ENDBRANCH   4  10
TORSDOF 1
ENDMDL
MODEL 8
REMARK VINA RESULT:      -4.2      1.901      2.483
REMARK  1 active torsions:
REMARK  status: ('A' for Active; 'I' for Inactive)
REMARK    1  A    between atoms: C4_4  and  C10_10 
ROOT
HETATM    1  C1  UNL     1     -34.066  18.534  -3.324  1.00 20.00     0.007 C 
HETATM    2  C2  UNL     1     -34.941  18.696  -2.080  1.00 20.00     0.009 C 
HETATM    3  C3  UNL     1     -34.589  16.271  -1.399  1.00 20.00     0.013 C 
HETATM    4  C4  UNL     1     -33.640  17.081  -3.614  1.00 20.00     0.003 C 
HETATM    5  C5  UNL     1     -34.592  16.077  -2.933  1.00 20.00    -0.013 C 
HETATM    6  C6  UNL     1     -34.561  17.749  -0.928  1.00 20.00    -0.047 C 
HETATM    7  C7  UNL     1     -34.266  14.616  -3.258  1.00 20.00     0.010 C 
HETATM    8  C8  UNL     1     -33.163  18.107  -0.382  1.00 20.00     0.015 C 
HETATM    9  C9  UNL     1     -35.569  17.936   0.224  1.00 20.00     0.015 C 
ENDROOT
BRANCH   4  10
HETATM   10  C10 UNL     1     -33.514  16.877  -5.126  1.00 20.00     0.119 C 
HETATM   11 CL11 UNL     1     -35.099  17.057  -5.895  1.00 20.00    -0.130 Cl
ENDBRANCH   4  10
TORSDOF 1
ENDMDL
MODEL 9
REMARK VINA RESULT:      -4.1      2.588      4.335
REMARK  1 active torsions:
REMARK  status: ('A' for Active; 'I' for Inactive)
REMARK    1  A    between atoms: C4_4  and  C10_10 
ROOT
HETATM    1  C1  UNL     1     -33.726  16.117  -2.756  1.00 20.00     0.007 C 
HETATM    2  C2  UNL     1     -33.845  14.741  -3.414  1.00 20.00     0.009 C 
HETATM    3  C3  UNL     1     -36.103  15.319  -4.433  1.00 20.00     0.013 C 
HETATM    4  C4  UNL     1     -34.999  16.981  -2.858  1.00 20.00     0.003 C 
HETATM    5  C5  UNL     1     -36.244  16.107  -3.110  1.00 20.00    -0.013 C 
HETATM    6  C6  UNL     1     -34.688  14.742  -4.702  1.00 20.00    -0.047 C 
HETATM    7  C7  UNL     1     -37.550  16.906  -3.135  1.00 20.00     0.010 C 
HETATM    8  C8  UNL     1     -33.980  15.560  -5.802  1.00 20.00     0.015 C 
HETATM    9  C9  UNL     1     -34.817  13.293  -5.214  1.00 20.00     0.015 C 
ENDROOT
BRANCH   4  10
HETATM   10  C10 UNL     1     -35.115  17.869  -1.616  1.00 20.00     0.119 C 
HETATM   11 CL11 UNL     1     -34.793  16.917  -0.159  1.00 20.00    -0.130 Cl
ENDBRANCH   4  10
TORSDOF 1
ENDMDL
