MODEL 1
REMARK VINA RESULT:      -5.0      0.000      0.000
REMARK  1 active torsions:
REMARK  status: ('A' for Active; 'I' for Inactive)
REMARK    1  A    between atoms: C5_5  and  C10_10 
ROOT
HETATM    1  C1  UNL     1     -34.334  16.225  -6.951  1.00 20.00     0.002 C 
HETATM    2  C2  UNL     1     -33.444  16.544  -5.755  1.00 20.00     0.011 C 
HETATM    3  C3  UNL     1     -34.669  14.754  -6.755  1.00 20.00     0.010 C 
HETATM    4  C4  UNL     1     -32.845  15.173  -3.642  1.00 20.00     0.017 A 
HETATM    5  C5  UNL     1     -33.904  16.141  -3.211  1.00 20.00     0.009 A 
HETATM    6  C6  UNL     1     -33.904  15.609  -4.644  1.00 20.00    -0.028 A 
HETATM    7  C7  UNL     1     -34.930  14.620  -5.230  1.00 20.00    -0.040 C 
HETATM    8  C8  UNL     1     -36.378  15.048  -4.928  1.00 20.00     0.015 C 
HETATM    9  C9  UNL     1     -34.734  13.157  -4.824  1.00 20.00     0.015 C 
ENDROOT
BRANCH   5  10
HETATM   10  C10 UNL     1     -34.853  15.735  -2.138  1.00 20.00     0.120 C 
HETATM   11 CL11 UNL     1     -34.570  16.662  -0.638  1.00 20.00    -0.130 Cl
ENDBRANCH   5  10
TORSDOF 1
ENDMDL
MODEL 2
REMARK VINA RESULT:      -4.7      1.097      2.760
REMARK  1 active torsions:
REMARK  status: ('A' for Active; 'I' for Inactive)
REMARK    1  A    between atoms: C5_5  and  C10_10 
ROOT
HETATM    1  C1  UNL     1     -35.240  13.411  -4.678  1.00 20.00     0.002 C 
HETATM    2  C2  UNL     1     -36.030  14.371  -3.795  1.00 20.00     0.011 C 
HETATM    3  C3  UNL     1     -34.313  14.332  -5.455  1.00 20.00     0.010 C 
HETATM    4  C4  UNL     1     -35.755  16.903  -3.333  1.00 20.00     0.017 A 
HETATM    5  C5  UNL     1     -35.140  16.207  -2.158  1.00 20.00     0.009 A 
HETATM    6  C6  UNL     1     -35.097  15.547  -3.536  1.00 20.00    -0.028 A 
HETATM    7  C7  UNL     1     -33.836  15.371  -4.404  1.00 20.00    -0.040 C 
HETATM    8  C8  UNL     1     -32.665  14.775  -3.602  1.00 20.00     0.015 C 
HETATM    9  C9  UNL     1     -33.367  16.632  -5.136  1.00 20.00     0.015 C 
ENDROOT
BRANCH   5  10
HETATM   10  C10 UNL     1     -33.986  16.846  -1.469  1.00 20.00     0.120 C 
HETATM   11 CL11 UNL     1     -34.445  17.439   0.152  1.00 20.00    -0.130 Cl
ENDBRANCH   5  10
TORSDOF 1
ENDMDL
MODEL 3
REMARK VINA RESULT:      -4.7      2.348      4.043
REMARK  1 active torsions:
REMARK  status: ('A' for Active; 'I' for Inactive)
REMARK    1  A    between atoms: C5_5  and  C10_10 
ROOT
HETATM    1  C1  UNL     1     -35.424  16.605  -2.345  1.00 20.00     0.002 C 
HETATM    2  C2  UNL     1     -36.104  15.468  -3.100  1.00 20.00     0.011 C 
HETATM    3  C3  UNL     1     -33.968  16.166  -2.287  1.00 20.00     0.010 C 
HETATM    4  C4  UNL     1     -35.141  13.419  -4.356  1.00 20.00     0.017 A 
HETATM    5  C5  UNL     1     -35.472  14.425  -5.415  1.00 20.00     0.009 A 
HETATM    6  C6  UNL     1     -35.038  14.902  -4.029  1.00 20.00    -0.028 A 
HETATM    7  C7  UNL     1     -33.691  15.574  -3.696  1.00 20.00    -0.040 C 
HETATM    8  C8  UNL     1     -33.366  16.722  -4.669  1.00 20.00     0.015 C 
HETATM    9  C9  UNL     1     -32.493  14.625  -3.604  1.00 20.00     0.015 C 
ENDROOT
BRANCH   5  10
HETATM   10  C10 UNL     1     -34.638  14.472  -6.646  1.00 20.00     0.120 C 
HETATM   11 CL11 UNL     1     -35.113  15.834  -7.700  1.00 20.00    -0.130 Cl
ENDBRANCH   5  10
TORSDOF 1
ENDMDL
MODEL 4
REMARK VINA RESULT:      -4.7      2.533      3.906
REMARK  1 active torsions:
REMARK  status: ('A' for Active; 'I' for Inactive)
REMARK    1  A    between atoms: C5_5  and  C10_10 
ROOT
HETATM    1  C1  UNL     1     -33.015  15.406  -3.531  1.00 20.00     0.002 C 
HETATM    2  C2  UNL     1     -33.254  16.218  -4.799  1.00 20.00     0.011 C 
HETATM    3  C3  UNL     1     -34.416  14.982  -3.118  1.00 20.00     0.010 C 
HETATM    4  C4  UNL     1     -35.378  16.584  -6.233  1.00 20.00     0.017 A 
HETATM    5  C5  UNL     1     -34.575  15.547  -6.955  1.00 20.00     0.009 A 
HETATM    6  C6  UNL     1     -34.508  15.628  -5.430  1.00 20.00    -0.028 A 
HETATM    7  C7  UNL     1     -35.110  14.599  -4.453  1.00 20.00    -0.040 C 
HETATM    8  C8  UNL     1     -34.722  13.157  -4.827  1.00 20.00     0.015 C 
HETATM    9  C9  UNL     1     -36.626  14.688  -4.263  1.00 20.00     0.015 C 
ENDROOT
BRANCH   5  10
HETATM   10  C10 UNL     1     -35.290  14.500  -7.734  1.00 20.00     0.120 C 
HETATM   11 CL11 UNL     1     -37.022  14.895  -7.916  1.00 20.00    -0.130 Cl
ENDBRANCH   5  10
TORSDOF 1
ENDMDL
MODEL 5
REMARK VINA RESULT:      -4.5      1.242      2.405
REMARK  1 active torsions:
REMARK  status: ('A' for Active; 'I' for Inactive)
REMARK    1  A    between atoms: C5_5  and  C10_10 
ROOT
HETATM    1  C1  UNL     1     -34.441  14.815  -6.869  1.00 20.00     0.002 C 
HETATM    2  C2  UNL     1     -34.696  14.197  -5.498  1.00 20.00     0.011 C 
HETATM    3  C3  UNL     1     -35.197  16.133  -6.805  1.00 20.00     0.010 C 
HETATM    4  C4  UNL     1     -35.797  15.153  -3.359  1.00 20.00     0.017 A 
HETATM    5  C5  UNL     1     -34.320  15.243  -3.130  1.00 20.00     0.009 A 
HETATM    6  C6  UNL     1     -34.874  15.374  -4.548  1.00 20.00    -0.028 A 
HETATM    7  C7  UNL     1     -34.907  16.673  -5.378  1.00 20.00    -0.040 C 
HETATM    8  C8  UNL     1     -33.544  17.389  -5.379  1.00 20.00     0.015 C 
HETATM    9  C9  UNL     1     -36.007  17.665  -4.994  1.00 20.00     0.015 C 
ENDROOT
BRANCH   5  10
HETATM   10  C10 UNL     1     -33.789  16.360  -2.302  1.00 20.00     0.120 C 
HETATM   11 CL11 UNL     1     -34.701  16.527  -0.775  1.00 20.00    -0.130 Cl
ENDBRANCH   5  10
TORSDOF 1
ENDMDL
MODEL 6
REMARK VINA RESULT:      -4.5      2.016      2.844
REMARK  1 active torsions:
REMARK  status: ('A' for Active; 'I' for Inactive)
REMARK    1  A    between atoms: C5_5  and  C10_10 
ROOT
HETATM    1  C1  UNL     1     -34.090  13.282  -4.559  1.00 20.00     0.002 C 
HETATM    2  C2  UNL     1     -33.441  14.187  -3.518  1.00 20.00     0.011 C 
HETATM    3  C3  UNL     1     -35.576  13.559  -4.386  1.00 20.00     0.010 C 
HETATM    4  C4  UNL     1     -34.418  16.049  -2.008  1.00 20.00     0.017 A 
HETATM    5  C5  UNL     1     -33.756  16.758  -3.150  1.00 20.00     0.009 A 
HETATM    6  C6  UNL     1     -34.378  15.379  -3.374  1.00 20.00    -0.028 A 
HETATM    7  C7  UNL     1     -35.658  15.097  -4.184  1.00 20.00    -0.040 C 
HETATM    8  C8  UNL     1     -35.631  15.787  -5.559  1.00 20.00     0.015 C 
HETATM    9  C9  UNL     1     -36.970  15.430  -3.468  1.00 20.00     0.015 C 
ENDROOT
BRANCH   5  10
HETATM   10  C10 UNL     1     -34.327  18.049  -3.620  1.00 20.00     0.120 C 
HETATM   11 CL11 UNL     1     -33.441  18.670  -5.042  1.00 20.00    -0.130 Cl
ENDBRANCH   5  10
TORSDOF 1
ENDMDL
MODEL 7
REMARK VINA RESULT:      -4.5      2.463      4.015
REMARK  1 active torsions:
REMARK  status: ('A' for Active; 'I' for Inactive)
REMARK    1  A    between atoms: C5_5  and  C10_10 
ROOT
HETATM    1  C1  UNL     1     -33.950  13.667  -3.548  1.00 20.00     0.002 C 
HETATM    2  C2  UNL     1     -34.448  13.383  -4.961  1.00 20.00     0.011 C 
HETATM    3  C3  UNL     1     -33.244  15.007  -3.690  1.00 20.00     0.010 C 
HETATM    4  C4  UNL     1     -34.497  14.847  -7.096  1.00 20.00     0.017 A 
HETATM    5  C5  UNL     1     -35.884  14.902  -6.534  1.00 20.00     0.009 A 
HETATM    6  C6  UNL     1     -34.692  14.748  -5.590  1.00 20.00    -0.028 A 
HETATM    7  C7  UNL     1     -34.171  15.831  -4.625  1.00 20.00    -0.040 C 
HETATM    8  C8  UNL     1     -35.305  16.452  -3.790  1.00 20.00     0.015 C 
HETATM    9  C9  UNL     1     -33.346  16.944  -5.277  1.00 20.00     0.015 C 
ENDROOT
BRANCH   5  10
HETATM   10  C10 UNL     1     -36.685  16.143  -6.720  1.00 20.00     0.120 C 
HETATM   11 CL11 UNL     1     -35.902  17.253  -7.880  1.00 20.00    -0.130 Cl
ENDBRANCH   5  10
TORSDOF 1
ENDMDL
MODEL 8
REMARK VINA RESULT:      -4.4      2.047      3.599
REMARK  1 active torsions:
REMARK  status: ('A' for Active; 'I' for Inactive)
REMARK    1  A    between atoms: C5_5  and  C10_10 
ROOT
HETATM    1  C1  UNL     1     -33.207  13.687  -3.610  1.00 20.00     0.002 C 
HETATM    2  C2  UNL     1     -34.477  13.414  -4.410  1.00 20.00     0.011 C 
HETATM    3  C3  UNL     1     -33.016  15.189  -3.759  1.00 20.00     0.010 C 
HETATM    4  C4  UNL     1     -36.198  15.010  -5.501  1.00 20.00     0.017 A 
HETATM    5  C5  UNL     1     -36.820  14.562  -4.215  1.00 20.00     0.009 A 
HETATM    6  C6  UNL     1     -35.300  14.692  -4.315  1.00 20.00    -0.028 A 
HETATM    7  C7  UNL     1     -34.448  15.773  -3.622  1.00 20.00    -0.040 C 
HETATM    8  C8  UNL     1     -34.796  15.908  -2.128  1.00 20.00     0.015 C 
HETATM    9  C9  UNL     1     -34.481  17.154  -4.282  1.00 20.00     0.015 C 
ENDROOT
BRANCH   5  10
HETATM   10  C10 UNL     1     -37.721  15.497  -3.489  1.00 20.00     0.120 C 
HETATM   11 CL11 UNL     1     -38.144  16.907  -4.502  1.00 20.00    -0.130 Cl
ENDBRANCH   5  10
TORSDOF 1
ENDMDL
MODEL 9
REMARK VINA RESULT:      -4.4      1.879      3.009
REMARK  1 active torsions:
REMARK  status: ('A' for Active; 'I' for Inactive)
REMARK    1  A    between atoms: C5_5  and  C10_10 
ROOT
HETATM    1  C1  UNL     1     -34.812  13.327  -4.961  1.00 20.00     0.002 C 
HETATM    2  C2  UNL     1     -34.473  14.466  -5.916  1.00 20.00     0.011 C 
HETATM    3  C3  UNL     1     -34.297  13.829  -3.620  1.00 20.00     0.010 C 
HETATM    4  C4  UNL     1     -33.584  16.860  -5.492  1.00 20.00     0.017 A 
HETATM    5  C5  UNL     1     -35.058  17.008  -5.716  1.00 20.00     0.009 A 
HETATM    6  C6  UNL     1     -34.515  15.732  -5.071  1.00 20.00    -0.028 A 
HETATM    7  C7  UNL     1     -34.697  15.330  -3.595  1.00 20.00    -0.040 C 
HETATM    8  C8  UNL     1     -36.163  15.453  -3.142  1.00 20.00     0.015 C 
HETATM    9  C9  UNL     1     -33.791  16.063  -2.602  1.00 20.00     0.015 C 
ENDROOT
BRANCH   5  10
HETATM   10  C10 UNL     1     -35.786  18.093  -5.004  1.00 20.00     0.120 C 
HETATM   11 CL11 UNL     1     -34.653  19.233  -4.226  1.00 20.00    -0.130 Cl
ENDBRANCH   5  10
TORSDOF 1
ENDMDL
