MODEL 1
REMARK VINA RESULT:      -4.7      0.000      0.000
REMARK  2 active torsions:
REMARK  status: ('A' for Active; 'I' for Inactive)
REMARK    1  A    between atoms: C6_6  and  C7_7 
REMARK    2  A    between atoms: C8_8  and  C9_9 
ROOT
HETATM    1  C1  UNL     1     -33.326   6.247   5.497  1.00 20.00     0.031 C 
HETATM    2  C2  UNL     1     -34.335   5.218   3.443  1.00 20.00     0.031 C 
HETATM    3  C4  UNL     1     -34.652   5.977   6.198  1.00 20.00     0.168 C 
HETATM    4  C5  UNL     1     -35.604   5.004   4.260  1.00 20.00     0.168 C 
HETATM    5  C6  UNL     1     -33.535   6.407   3.987  1.00 20.00    -0.006 C 
HETATM    6  O10 UNL     1     -35.294   4.830   5.642  1.00 20.00    -0.391 OA
ENDROOT
BRANCH   5   7
HETATM    7  C7  UNL     1     -32.202   6.553   3.259  1.00 20.00    -0.005 A 
HETATM    8  C3  UNL     1     -31.199   7.560   3.735  1.00 20.00     0.011 A 
HETATM    9  C8  UNL     1     -31.885   7.751   2.407  1.00 20.00     0.004 A 
BRANCH   9  10
HETATM   10  C9  UNL     1     -32.840   8.877   2.209  1.00 20.00     0.119 C 
HETATM   11 CL11 UNL     1     -32.341   9.916   0.845  1.00 20.00    -0.130 Cl
ENDBRANCH   9  10
ENDBRANCH   5   7
TORSDOF 2
ENDMDL
MODEL 2
REMARK VINA RESULT:      -4.7     10.999     11.783
REMARK  2 active torsions:
REMARK  status: ('A' for Active; 'I' for Inactive)
REMARK    1  A    between atoms: C6_6  and  C7_7 
REMARK    2  A    between atoms: C8_8  and  C9_9 
ROOT
HETATM    1  C1  UNL     1     -35.862  15.134  -3.170  1.00 20.00     0.031 C 
HETATM    2  C2  UNL     1     -33.650  14.058  -3.662  1.00 20.00     0.031 C 
HETATM    3  C4  UNL     1     -36.452  14.262  -4.271  1.00 20.00     0.168 C 
HETATM    4  C5  UNL     1     -34.364  13.246  -4.736  1.00 20.00     0.168 C 
HETATM    5  C6  UNL     1     -34.371  15.389  -3.420  1.00 20.00    -0.006 C 
HETATM    6  O10 UNL     1     -35.731  13.035  -4.386  1.00 20.00    -0.391 OA
ENDROOT
BRANCH   5   7
HETATM    7  C7  UNL     1     -33.740  16.155  -2.261  1.00 20.00    -0.005 A 
HETATM    8  C3  UNL     1     -34.615  16.782  -1.219  1.00 20.00     0.011 A 
HETATM    9  C8  UNL     1     -33.820  17.652  -2.157  1.00 20.00     0.004 A 
BRANCH   9  10
HETATM   10  C9  UNL     1     -34.514  18.497  -3.169  1.00 20.00     0.119 C 
HETATM   11 CL11 UNL     1     -33.529  18.677  -4.647  1.00 20.00    -0.130 Cl
ENDBRANCH   9  10
ENDBRANCH   5   7
TORSDOF 2
ENDMDL
MODEL 3
REMARK VINA RESULT:      -4.3     11.364     12.429
REMARK  2 active torsions:
REMARK  status: ('A' for Active; 'I' for Inactive)
REMARK    1  A    between atoms: C6_6  and  C7_7 
REMARK    2  A    between atoms: C8_8  and  C9_9 
ROOT
HETATM    1  C1  UNL     1     -34.124  17.417  -3.426  1.00 20.00     0.031 C 
HETATM    2  C2  UNL     1     -34.364  14.963  -2.960  1.00 20.00     0.031 C 
HETATM    3  C4  UNL     1     -33.574  17.032  -4.794  1.00 20.00     0.168 C 
HETATM    4  C5  UNL     1     -33.801  14.716  -4.355  1.00 20.00     0.168 C 
HETATM    5  C6  UNL     1     -33.866  16.303  -2.405  1.00 20.00    -0.006 C 
HETATM    6  O10 UNL     1     -34.130  15.793  -5.232  1.00 20.00    -0.391 OA
ENDROOT
BRANCH   5   7
HETATM    7  C7  UNL     1     -34.522  16.621  -1.064  1.00 20.00    -0.005 A 
HETATM    8  C3  UNL     1     -35.351  17.861  -0.916  1.00 20.00     0.011 A 
HETATM    9  C8  UNL     1     -34.038  17.740  -0.186  1.00 20.00     0.004 A 
BRANCH   9  10
HETATM   10  C9  UNL     1     -32.891  18.617  -0.551  1.00 20.00     0.119 C 
HETATM   11 CL11 UNL     1     -31.772  18.825   0.825  1.00 20.00    -0.130 Cl
ENDBRANCH   9  10
ENDBRANCH   5   7
TORSDOF 2
ENDMDL
MODEL 4
REMARK VINA RESULT:      -4.1     10.597     11.868
REMARK  2 active torsions:
REMARK  status: ('A' for Active; 'I' for Inactive)
REMARK    1  A    between atoms: C6_6  and  C7_7 
REMARK    2  A    between atoms: C8_8  and  C9_9 
ROOT
HETATM    1  C1  UNL     1     -33.213  15.202  -3.703  1.00 20.00     0.031 C 
HETATM    2  C2  UNL     1     -35.630  14.804  -4.249  1.00 20.00     0.031 C 
HETATM    3  C4  UNL     1     -33.040  13.689  -3.686  1.00 20.00     0.168 C 
HETATM    4  C5  UNL     1     -35.321  13.311  -4.202  1.00 20.00     0.168 C 
HETATM    5  C6  UNL     1     -34.657  15.587  -3.359  1.00 20.00    -0.006 C 
HETATM    6  O10 UNL     1     -33.966  13.063  -4.575  1.00 20.00    -0.391 OA
ENDROOT
BRANCH   5   7
HETATM    7  C7  UNL     1     -34.875  17.091  -3.496  1.00 20.00    -0.005 A 
HETATM    8  C3  UNL     1     -33.710  17.989  -3.783  1.00 20.00     0.011 A 
HETATM    9  C8  UNL     1     -34.408  18.062  -2.449  1.00 20.00     0.004 A 
BRANCH   9  10
HETATM   10  C9  UNL     1     -33.703  17.637  -1.208  1.00 20.00     0.119 C 
HETATM   11 CL11 UNL     1     -34.850  16.990  -0.003  1.00 20.00    -0.130 Cl
ENDBRANCH   9  10
ENDBRANCH   5   7
TORSDOF 2
ENDMDL
MODEL 5
REMARK VINA RESULT:      -4.1     11.070     12.007
REMARK  2 active torsions:
REMARK  status: ('A' for Active; 'I' for Inactive)
REMARK    1  A    between atoms: C6_6  and  C7_7 
REMARK    2  A    between atoms: C8_8  and  C9_9 
ROOT
HETATM    1  C1  UNL     1     -34.505  16.120  -1.800  1.00 20.00     0.031 C 
HETATM    2  C2  UNL     1     -36.517  16.041  -3.298  1.00 20.00     0.031 C 
HETATM    3  C4  UNL     1     -34.876  17.566  -1.496  1.00 20.00     0.168 C 
HETATM    4  C5  UNL     1     -36.775  17.492  -2.909  1.00 20.00     0.168 C 
HETATM    5  C6  UNL     1     -35.025  15.707  -3.182  1.00 20.00    -0.006 C 
HETATM    6  O10 UNL     1     -36.287  17.758  -1.594  1.00 20.00    -0.391 OA
ENDROOT
BRANCH   5   7
HETATM    7  C7  UNL     1     -34.771  14.226  -3.446  1.00 20.00    -0.005 A 
HETATM    8  C3  UNL     1     -33.395  13.761  -3.817  1.00 20.00     0.011 A 
HETATM    9  C8  UNL     1     -34.509  13.696  -4.829  1.00 20.00     0.004 A 
BRANCH   9  10
HETATM   10  C9  UNL     1     -34.480  14.567  -6.036  1.00 20.00     0.119 C 
HETATM   11 CL11 UNL     1     -36.113  14.766  -6.730  1.00 20.00    -0.130 Cl
ENDBRANCH   9  10
ENDBRANCH   5   7
TORSDOF 2
ENDMDL
MODEL 6
REMARK VINA RESULT:      -4.1     11.246     12.300
REMARK  2 active torsions:
REMARK  status: ('A' for Active; 'I' for Inactive)
REMARK    1  A    between atoms: C6_6  and  C7_7 
REMARK    2  A    between atoms: C8_8  and  C9_9 
ROOT
HETATM    1  C1  UNL     1     -33.704  16.992  -3.531  1.00 20.00     0.031 C 
HETATM    2  C2  UNL     1     -34.539  16.438  -1.231  1.00 20.00     0.031 C 
HETATM    3  C4  UNL     1     -33.809  18.460  -3.139  1.00 20.00     0.168 C 
HETATM    4  C5  UNL     1     -34.596  17.938  -0.968  1.00 20.00     0.168 C 
HETATM    5  C6  UNL     1     -34.697  16.144  -2.728  1.00 20.00    -0.006 C 
HETATM    6  O10 UNL     1     -33.609  18.625  -1.736  1.00 20.00    -0.391 OA
ENDROOT
BRANCH   5   7
HETATM    7  C7  UNL     1     -34.515  14.658  -3.019  1.00 20.00    -0.005 A 
HETATM    8  C3  UNL     1     -33.898  14.222  -4.314  1.00 20.00     0.011 A 
HETATM    9  C8  UNL     1     -35.352  13.937  -4.039  1.00 20.00     0.004 A 
BRANCH   9  10
HETATM   10  C9  UNL     1     -36.414  14.612  -4.836  1.00 20.00     0.119 C 
HETATM   11 CL11 UNL     1     -37.940  14.724  -3.917  1.00 20.00    -0.130 Cl
ENDBRANCH   9  10
ENDBRANCH   5   7
TORSDOF 2
ENDMDL
MODEL 7
REMARK VINA RESULT:      -4.0     11.355     12.111
REMARK  2 active torsions:
REMARK  status: ('A' for Active; 'I' for Inactive)
REMARK    1  A    between atoms: C6_6  and  C7_7 
REMARK    2  A    between atoms: C8_8  and  C9_9 
ROOT
HETATM    1  C1  UNL     1     -35.774  18.068  -1.969  1.00 20.00     0.031 C 
HETATM    2  C2  UNL     1     -34.577  17.347   0.115  1.00 20.00     0.031 C 
HETATM    3  C4  UNL     1     -36.885  18.589  -1.066  1.00 20.00     0.168 C 
HETATM    4  C5  UNL     1     -35.756  17.910   0.901  1.00 20.00     0.168 C 
HETATM    5  C6  UNL     1     -35.018  16.921  -1.290  1.00 20.00    -0.006 C 
HETATM    6  O10 UNL     1     -36.362  18.994   0.199  1.00 20.00    -0.391 OA
ENDROOT
BRANCH   5   7
HETATM    7  C7  UNL     1     -33.824  16.474  -2.129  1.00 20.00    -0.005 A 
HETATM    8  C3  UNL     1     -33.758  16.837  -3.582  1.00 20.00     0.011 A 
HETATM    9  C8  UNL     1     -33.941  15.398  -3.172  1.00 20.00     0.004 A 
BRANCH   9  10
HETATM   10  C9  UNL     1     -35.218  14.690  -3.464  1.00 20.00     0.119 C 
HETATM   11 CL11 UNL     1     -34.934  13.216  -4.432  1.00 20.00    -0.130 Cl
ENDBRANCH   9  10
ENDBRANCH   5   7
TORSDOF 2
ENDMDL
MODEL 8
REMARK VINA RESULT:      -4.0     11.120     12.940
REMARK  2 active torsions:
REMARK  status: ('A' for Active; 'I' for Inactive)
REMARK    1  A    between atoms: C6_6  and  C7_7 
REMARK    2  A    between atoms: C8_8  and  C9_9 
ROOT
HETATM    1  C1  UNL     1     -36.184  14.866  -5.264  1.00 20.00     0.031 C 
HETATM    2  C2  UNL     1     -34.348  15.264  -6.926  1.00 20.00     0.031 C 
HETATM    3  C4  UNL     1     -37.163  15.309  -6.344  1.00 20.00     0.168 C 
HETATM    4  C5  UNL     1     -35.430  15.684  -7.914  1.00 20.00     0.168 C 
HETATM    5  C6  UNL     1     -34.808  15.504  -5.484  1.00 20.00    -0.006 C 
HETATM    6  O10 UNL     1     -36.655  15.004  -7.643  1.00 20.00    -0.391 OA
ENDROOT
BRANCH   5   7
HETATM    7  C7  UNL     1     -33.786  14.971  -4.484  1.00 20.00    -0.005 A 
HETATM    8  C3  UNL     1     -34.240  14.117  -3.338  1.00 20.00     0.011 A 
HETATM    9  C8  UNL     1     -33.696  15.498  -3.079  1.00 20.00     0.004 A 
BRANCH   9  10
HETATM   10  C9  UNL     1     -34.588  16.572  -2.559  1.00 20.00     0.119 C 
HETATM   11 CL11 UNL     1     -34.628  16.572  -0.774  1.00 20.00    -0.130 Cl
ENDBRANCH   9  10
ENDBRANCH   5   7
TORSDOF 2
ENDMDL
MODEL 9
REMARK VINA RESULT:      -3.9     11.779     13.035
REMARK  2 active torsions:
REMARK  status: ('A' for Active; 'I' for Inactive)
REMARK    1  A    between atoms: C6_6  and  C7_7 
REMARK    2  A    between atoms: C8_8  and  C9_9 
ROOT
HETATM    1  C1  UNL     1     -33.698  18.294  -4.062  1.00 20.00     0.031 C 
HETATM    2  C2  UNL     1     -33.585  16.071  -2.905  1.00 20.00     0.031 C 
HETATM    3  C4  UNL     1     -34.096  18.894  -2.720  1.00 20.00     0.168 C 
HETATM    4  C5  UNL     1     -33.989  16.796  -1.626  1.00 20.00     0.168 C 
HETATM    5  C6  UNL     1     -34.105  16.817  -4.139  1.00 20.00    -0.006 C 
HETATM    6  O10 UNL     1     -33.530  18.147  -1.644  1.00 20.00    -0.391 OA
ENDROOT
BRANCH   5   7
HETATM    7  C7  UNL     1     -33.600  16.172  -5.426  1.00 20.00    -0.005 A 
HETATM    8  C3  UNL     1     -34.334  16.403  -6.712  1.00 20.00     0.011 A 
HETATM    9  C8  UNL     1     -34.328  15.033  -6.085  1.00 20.00     0.004 A 
BRANCH   9  10
HETATM   10  C9  UNL     1     -35.585  14.451  -5.537  1.00 20.00     0.119 C 
HETATM   11 CL11 UNL     1     -35.238  13.196  -4.315  1.00 20.00    -0.130 Cl
ENDBRANCH   9  10
ENDBRANCH   5   7
TORSDOF 2
ENDMDL
