MODEL 1
REMARK VINA RESULT:      -4.3      0.000      0.000
REMARK  2 active torsions:
REMARK  status: ('A' for Active; 'I' for Inactive)
REMARK    1  A    between atoms: C4_4  and  C9_9 
REMARK    2  A    between atoms: C5_5  and  C6_6 
ROOT
HETATM    1  C3  UNL     1     -32.881  14.830  -3.724  1.00 20.00     0.017 A 
HETATM    2  C4  UNL     1     -34.065  15.144  -2.854  1.00 20.00     0.009 A 
HETATM    3  C6  UNL     1     -34.284  14.692  -4.292  1.00 20.00    -0.032 A 
HETATM    4  C8  UNL     1     -34.802  13.284  -4.466  1.00 20.00     0.016 C 
ENDROOT
BRANCH   3   5
HETATM    5  C5  UNL     1     -34.774  15.654  -5.382  1.00 20.00    -0.036 A 
HETATM    6  C1  UNL     1     -33.882  16.773  -5.868  1.00 20.00     0.011 A 
HETATM    7  C2  UNL     1     -34.173  15.606  -6.767  1.00 20.00     0.011 A 
HETATM    8  C7  UNL     1     -36.250  15.958  -5.301  1.00 20.00     0.016 C 
ENDBRANCH   3   5
BRANCH   2   9
HETATM    9  C9  UNL     1     -34.323  16.545  -2.418  1.00 20.00     0.120 C 
HETATM   10 CL10 UNL     1     -34.664  16.624  -0.667  1.00 20.00    -0.130 Cl
ENDBRANCH   2   9
TORSDOF 2
ENDMDL
MODEL 2
REMARK VINA RESULT:      -4.2      2.448      3.684
REMARK  2 active torsions:
REMARK  status: ('A' for Active; 'I' for Inactive)
REMARK    1  A    between atoms: C4_4  and  C9_9 
REMARK    2  A    between atoms: C5_5  and  C6_6 
ROOT
HETATM    1  C3  UNL     1     -35.324  13.381  -4.083  1.00 20.00     0.017 A 
HETATM    2  C4  UNL     1     -34.686  13.933  -5.326  1.00 20.00     0.009 A 
HETATM    3  C6  UNL     1     -34.178  14.371  -3.959  1.00 20.00    -0.032 A 
HETATM    4  C8  UNL     1     -32.842  13.804  -3.541  1.00 20.00     0.016 C 
ENDROOT
BRANCH   3   5
HETATM    5  C5  UNL     1     -34.432  15.782  -3.409  1.00 20.00    -0.036 A 
HETATM    6  C1  UNL     1     -35.823  16.196  -2.987  1.00 20.00     0.011 A 
HETATM    7  C2  UNL     1     -34.759  15.981  -1.948  1.00 20.00     0.011 A 
HETATM    8  C7  UNL     1     -33.581  16.846  -4.058  1.00 20.00     0.016 C 
ENDBRANCH   3   5
BRANCH   2   9
HETATM    9  C9  UNL     1     -35.452  14.851  -6.216  1.00 20.00     0.120 C 
HETATM   10 CL10 UNL     1     -34.376  15.657  -7.391  1.00 20.00    -0.130 Cl
ENDBRANCH   2   9
TORSDOF 2
ENDMDL
MODEL 3
REMARK VINA RESULT:      -4.2     11.873     13.469
REMARK  2 active torsions:
REMARK  status: ('A' for Active; 'I' for Inactive)
REMARK    1  A    between atoms: C4_4  and  C9_9 
REMARK    2  A    between atoms: C5_5  and  C6_6 
ROOT
HETATM    1  C3  UNL     1     -34.289   7.320   3.602  1.00 20.00     0.017 A 
HETATM    2  C4  UNL     1     -33.514   6.124   3.129  1.00 20.00     0.009 A 
HETATM    3  C6  UNL     1     -34.616   5.947   4.165  1.00 20.00    -0.032 A 
HETATM    4  C8  UNL     1     -35.888   5.303   3.669  1.00 20.00     0.016 C 
ENDROOT
BRANCH   3   5
HETATM    5  C5  UNL     1     -34.309   5.621   5.633  1.00 20.00    -0.036 A 
HETATM    6  C1  UNL     1     -35.184   4.657   6.399  1.00 20.00     0.011 A 
HETATM    7  C2  UNL     1     -33.788   4.256   6.017  1.00 20.00     0.011 A 
HETATM    8  C7  UNL     1     -33.759   6.792   6.410  1.00 20.00     0.016 C 
ENDBRANCH   3   5
BRANCH   2   9
HETATM    9  C9  UNL     1     -32.072   5.980   3.476  1.00 20.00     0.120 C 
HETATM   10 CL10 UNL     1     -31.321   7.569   3.789  1.00 20.00    -0.130 Cl
ENDBRANCH   2   9
TORSDOF 2
ENDMDL
MODEL 4
REMARK VINA RESULT:      -4.1      1.134      1.314
REMARK  2 active torsions:
REMARK  status: ('A' for Active; 'I' for Inactive)
REMARK    1  A    between atoms: C4_4  and  C9_9 
REMARK    2  A    between atoms: C5_5  and  C6_6 
ROOT
HETATM    1  C3  UNL     1     -33.081  15.954  -4.368  1.00 20.00     0.017 A 
HETATM    2  C4  UNL     1     -33.605  15.821  -2.967  1.00 20.00     0.009 A 
HETATM    3  C6  UNL     1     -34.212  14.979  -4.082  1.00 20.00    -0.032 A 
HETATM    4  C8  UNL     1     -33.850  13.513  -4.070  1.00 20.00     0.016 C 
ENDROOT
BRANCH   3   5
HETATM    5  C5  UNL     1     -35.620  15.249  -4.631  1.00 20.00    -0.036 A 
HETATM    6  C1  UNL     1     -35.893  16.486  -5.454  1.00 20.00     0.011 A 
HETATM    7  C2  UNL     1     -35.893  15.137  -6.113  1.00 20.00     0.011 A 
HETATM    8  C7  UNL     1     -36.725  14.797  -3.709  1.00 20.00     0.016 C 
ENDBRANCH   3   5
BRANCH   2   9
HETATM    9  C9  UNL     1     -34.347  16.949  -2.335  1.00 20.00     0.120 C 
HETATM   10 CL10 UNL     1     -34.656  16.631  -0.606  1.00 20.00    -0.130 Cl
ENDBRANCH   2   9
TORSDOF 2
ENDMDL
MODEL 5
REMARK VINA RESULT:      -4.1      1.913      3.629
REMARK  2 active torsions:
REMARK  status: ('A' for Active; 'I' for Inactive)
REMARK    1  A    between atoms: C4_4  and  C9_9 
REMARK    2  A    between atoms: C5_5  and  C6_6 
ROOT
HETATM    1  C3  UNL     1     -34.430  14.953  -6.764  1.00 20.00     0.017 A 
HETATM    2  C4  UNL     1     -35.518  15.883  -6.310  1.00 20.00     0.009 A 
HETATM    3  C6  UNL     1     -34.338  15.597  -5.390  1.00 20.00    -0.032 A 
HETATM    4  C8  UNL     1     -33.337  16.717  -5.238  1.00 20.00     0.016 C 
ENDROOT
BRANCH   3   5
HETATM    5  C5  UNL     1     -34.481  14.740  -4.125  1.00 20.00    -0.036 A 
HETATM    6  C1  UNL     1     -34.909  13.294  -4.229  1.00 20.00     0.011 A 
HETATM    7  C2  UNL     1     -33.497  13.629  -3.843  1.00 20.00     0.011 A 
HETATM    8  C7  UNL     1     -34.989  15.507  -2.929  1.00 20.00     0.016 C 
ENDBRANCH   3   5
BRANCH   2   9
HETATM    9  C9  UNL     1     -36.884  15.357  -6.030  1.00 20.00     0.120 C 
HETATM   10 CL10 UNL     1     -37.828  16.506  -5.042  1.00 20.00    -0.130 Cl
ENDBRANCH   2   9
TORSDOF 2
ENDMDL
MODEL 6
REMARK VINA RESULT:      -4.0      1.082      2.779
REMARK  2 active torsions:
REMARK  status: ('A' for Active; 'I' for Inactive)
REMARK    1  A    between atoms: C4_4  and  C9_9 
REMARK    2  A    between atoms: C5_5  and  C6_6 
ROOT
HETATM    1  C3  UNL     1     -35.832  16.609  -4.882  1.00 20.00     0.017 A 
HETATM    2  C4  UNL     1     -35.123  16.941  -3.599  1.00 20.00     0.009 A 
HETATM    3  C6  UNL     1     -34.454  16.025  -4.616  1.00 20.00    -0.032 A 
HETATM    4  C8  UNL     1     -33.307  16.629  -5.391  1.00 20.00     0.016 C 
ENDROOT
BRANCH   3   5
HETATM    5  C5  UNL     1     -34.289  14.519  -4.370  1.00 20.00    -0.036 A 
HETATM    6  C1  UNL     1     -35.499  13.652  -4.113  1.00 20.00     0.011 A 
HETATM    7  C2  UNL     1     -34.750  13.523  -5.408  1.00 20.00     0.011 A 
HETATM    8  C7  UNL     1     -33.033  14.165  -3.611  1.00 20.00     0.016 C 
ENDBRANCH   3   5
BRANCH   2   9
HETATM    9  C9  UNL     1     -35.647  16.431  -2.301  1.00 20.00     0.120 C 
HETATM   10 CL10 UNL     1     -34.401  16.515  -1.024  1.00 20.00    -0.130 Cl
ENDBRANCH   2   9
TORSDOF 2
ENDMDL
MODEL 7
REMARK VINA RESULT:      -3.9      1.829      2.220
REMARK  2 active torsions:
REMARK  status: ('A' for Active; 'I' for Inactive)
REMARK    1  A    between atoms: C4_4  and  C9_9 
REMARK    2  A    between atoms: C5_5  and  C6_6 
ROOT
HETATM    1  C3  UNL     1     -35.056  13.503  -4.064  1.00 20.00     0.017 A 
HETATM    2  C4  UNL     1     -34.962  14.797  -3.308  1.00 20.00     0.009 A 
HETATM    3  C6  UNL     1     -35.915  14.682  -4.491  1.00 20.00    -0.032 A 
HETATM    4  C8  UNL     1     -37.383  14.603  -4.147  1.00 20.00     0.016 C 
ENDROOT
BRANCH   3   5
HETATM    5  C5  UNL     1     -35.645  15.390  -5.825  1.00 20.00    -0.036 A 
HETATM    6  C1  UNL     1     -34.435  15.023  -6.652  1.00 20.00     0.011 A 
HETATM    7  C2  UNL     1     -35.808  14.646  -7.129  1.00 20.00     0.011 A 
HETATM    8  C7  UNL     1     -36.045  16.846  -5.829  1.00 20.00     0.016 C 
ENDBRANCH   3   5
BRANCH   2   9
HETATM    9  C9  UNL     1     -33.717  15.614  -3.372  1.00 20.00     0.120 C 
HETATM   10 CL10 UNL     1     -32.277  14.579  -3.578  1.00 20.00    -0.130 Cl
ENDBRANCH   2   9
TORSDOF 2
ENDMDL
MODEL 8
REMARK VINA RESULT:      -3.9      2.058      3.487
REMARK  2 active torsions:
REMARK  status: ('A' for Active; 'I' for Inactive)
REMARK    1  A    between atoms: C4_4  and  C9_9 
REMARK    2  A    between atoms: C5_5  and  C6_6 
ROOT
HETATM    1  C3  UNL     1     -32.873  15.069  -3.698  1.00 20.00     0.017 A 
HETATM    2  C4  UNL     1     -34.170  14.837  -4.421  1.00 20.00     0.009 A 
HETATM    3  C6  UNL     1     -33.803  16.242  -3.962  1.00 20.00    -0.032 A 
HETATM    4  C8  UNL     1     -33.384  17.201  -5.051  1.00 20.00     0.016 C 
ENDROOT
BRANCH   3   5
HETATM    5  C5  UNL     1     -34.525  16.932  -2.796  1.00 20.00    -0.036 A 
HETATM    6  C1  UNL     1     -34.607  16.259  -1.446  1.00 20.00     0.011 A 
HETATM    7  C2  UNL     1     -33.737  17.471  -1.625  1.00 20.00     0.011 A 
HETATM    8  C7  UNL     1     -35.730  17.735  -3.221  1.00 20.00     0.016 C 
ENDBRANCH   3   5
BRANCH   2   9
HETATM    9  C9  UNL     1     -35.258  14.053  -3.773  1.00 20.00     0.120 C 
HETATM   10 CL10 UNL     1     -36.862  14.543  -4.387  1.00 20.00    -0.130 Cl
ENDBRANCH   2   9
TORSDOF 2
ENDMDL
MODEL 9
REMARK VINA RESULT:      -3.9      2.524      3.367
REMARK  2 active torsions:
REMARK  status: ('A' for Active; 'I' for Inactive)
REMARK    1  A    between atoms: C4_4  and  C9_9 
REMARK    2  A    between atoms: C5_5  and  C6_6 
ROOT
HETATM    1  C3  UNL     1     -33.206  16.328  -4.816  1.00 20.00     0.017 A 
HETATM    2  C4  UNL     1     -34.433  17.190  -4.724  1.00 20.00     0.009 A 
HETATM    3  C6  UNL     1     -34.342  15.915  -3.894  1.00 20.00    -0.032 A 
HETATM    4  C8  UNL     1     -34.112  16.110  -2.414  1.00 20.00     0.016 C 
ENDROOT
BRANCH   3   5
HETATM    5  C5  UNL     1     -35.183  14.673  -4.215  1.00 20.00    -0.036 A 
HETATM    6  C1  UNL     1     -34.932  13.889  -5.483  1.00 20.00     0.011 A 
HETATM    7  C2  UNL     1     -34.563  13.297  -4.153  1.00 20.00     0.011 A 
HETATM    8  C7  UNL     1     -36.620  14.783  -3.766  1.00 20.00     0.016 C 
ENDBRANCH   3   5
BRANCH   2   9
HETATM    9  C9  UNL     1     -35.353  17.309  -5.890  1.00 20.00     0.120 C 
HETATM   10 CL10 UNL     1     -34.506  16.950  -7.420  1.00 20.00    -0.130 Cl
ENDBRANCH   2   9
TORSDOF 2
ENDMDL
