MODEL 1
REMARK VINA RESULT:      -3.9      0.000      0.000
REMARK  2 active torsions:
REMARK  status: ('A' for Active; 'I' for Inactive)
REMARK    1  A    between atoms: C4_4  and  C6_6 
REMARK    2  A    between atoms: C7_7  and  C8_8 
ROOT
HETATM    1  C1  UNL     1     -34.512  16.172  -1.627  1.00 20.00     0.015 A 
HETATM    2  C2  UNL     1     -34.389  17.534  -1.460  1.00 20.00     0.050 A 
HETATM    3  C3  UNL     1     -33.786  16.826  -3.736  1.00 20.00     0.057 A 
HETATM    4  C4  UNL     1     -34.162  15.762  -2.946  1.00 20.00    -0.047 A 
HETATM    5  S9  UNL     1     -33.855  18.312  -2.889  1.00 20.00    -0.113 SA
ENDROOT
BRANCH   4   6
HETATM    6  C6  UNL     1     -34.200  14.302  -3.431  1.00 20.00     0.024 A 
HETATM    7  C5  UNL     1     -34.288  14.037  -4.918  1.00 20.00     0.016 A 
HETATM    8  C7  UNL     1     -35.463  13.724  -4.041  1.00 20.00     0.004 A 
BRANCH   8   9
HETATM    9  C8  UNL     1     -36.722  14.512  -4.170  1.00 20.00     0.090 C 
HETATM   10 BR10 UNL     1     -36.810  15.375  -5.918  1.00 20.00    -0.096 Br
ENDBRANCH   8   9
ENDBRANCH   4   6
TORSDOF 2
ENDMDL
MODEL 2
REMARK VINA RESULT:      -3.9      3.472      4.818
REMARK  2 active torsions:
REMARK  status: ('A' for Active; 'I' for Inactive)
REMARK    1  A    between atoms: C4_4  and  C6_6 
REMARK    2  A    between atoms: C7_7  and  C8_8 
ROOT
HETATM    1  C1  UNL     1     -33.461  15.842  -3.142  1.00 20.00     0.015 A 
HETATM    2  C2  UNL     1     -33.534  16.000  -4.508  1.00 20.00     0.050 A 
HETATM    3  C3  UNL     1     -35.335  17.202  -3.342  1.00 20.00     0.057 A 
HETATM    4  C4  UNL     1     -34.505  16.538  -2.467  1.00 20.00    -0.047 A 
HETATM    5  S9  UNL     1     -34.856  16.985  -4.972  1.00 20.00    -0.113 SA
ENDROOT
BRANCH   4   6
HETATM    6  C6  UNL     1     -34.683  16.547  -0.938  1.00 20.00     0.024 A 
HETATM    7  C5  UNL     1     -35.495  17.660  -0.313  1.00 20.00     0.016 A 
HETATM    8  C7  UNL     1     -34.013  17.610  -0.089  1.00 20.00     0.004 A 
BRANCH   8   9
HETATM    9  C8  UNL     1     -33.134  18.663  -0.672  1.00 20.00     0.090 C 
HETATM   10 BR10 UNL     1     -31.823  19.262   0.643  1.00 20.00    -0.096 Br
ENDBRANCH   8   9
ENDBRANCH   4   6
TORSDOF 2
ENDMDL
MODEL 3
REMARK VINA RESULT:      -3.8      2.827      4.168
REMARK  2 active torsions:
REMARK  status: ('A' for Active; 'I' for Inactive)
REMARK    1  A    between atoms: C4_4  and  C6_6 
REMARK    2  A    between atoms: C7_7  and  C8_8 
ROOT
HETATM    1  C1  UNL     1     -34.387  15.274  -7.256  1.00 20.00     0.015 A 
HETATM    2  C2  UNL     1     -35.142  16.222  -7.910  1.00 20.00     0.050 A 
HETATM    3  C3  UNL     1     -36.347  15.231  -6.008  1.00 20.00     0.057 A 
HETATM    4  C4  UNL     1     -35.085  14.700  -6.154  1.00 20.00    -0.047 A 
HETATM    5  S9  UNL     1     -36.686  16.417  -7.196  1.00 20.00    -0.113 SA
ENDROOT
BRANCH   4   6
HETATM    6  C6  UNL     1     -34.497  13.614  -5.236  1.00 20.00     0.024 A 
HETATM    7  C5  UNL     1     -35.060  13.468  -3.840  1.00 20.00     0.016 A 
HETATM    8  C7  UNL     1     -33.668  13.994  -4.024  1.00 20.00     0.004 A 
BRANCH   8   9
HETATM    9  C8  UNL     1     -33.354  15.411  -3.682  1.00 20.00     0.090 C 
HETATM   10 BR10 UNL     1     -34.530  16.044  -2.258  1.00 20.00    -0.096 Br
ENDBRANCH   8   9
ENDBRANCH   4   6
TORSDOF 2
ENDMDL
MODEL 4
REMARK VINA RESULT:      -3.8      1.434      1.816
REMARK  2 active torsions:
REMARK  status: ('A' for Active; 'I' for Inactive)
REMARK    1  A    between atoms: C4_4  and  C6_6 
REMARK    2  A    between atoms: C7_7  and  C8_8 
ROOT
HETATM    1  C1  UNL     1     -33.885  15.991  -2.650  1.00 20.00     0.015 A 
HETATM    2  C2  UNL     1     -34.121  17.261  -2.174  1.00 20.00     0.050 A 
HETATM    3  C3  UNL     1     -36.155  16.227  -3.092  1.00 20.00     0.057 A 
HETATM    4  C4  UNL     1     -35.063  15.392  -3.182  1.00 20.00    -0.047 A 
HETATM    5  S9  UNL     1     -35.758  17.727  -2.368  1.00 20.00    -0.113 SA
ENDROOT
BRANCH   4   6
HETATM    6  C6  UNL     1     -35.110  13.977  -3.787  1.00 20.00     0.024 A 
HETATM    7  C5  UNL     1     -33.812  13.338  -4.228  1.00 20.00     0.016 A 
HETATM    8  C7  UNL     1     -34.818  13.756  -5.259  1.00 20.00     0.004 A 
BRANCH   8   9
HETATM    9  C8  UNL     1     -34.510  14.879  -6.190  1.00 20.00     0.090 C 
HETATM   10 BR10 UNL     1     -35.504  14.673  -7.857  1.00 20.00    -0.096 Br
ENDBRANCH   8   9
ENDBRANCH   4   6
TORSDOF 2
ENDMDL
MODEL 5
REMARK VINA RESULT:      -3.7      1.595      1.906
REMARK  2 active torsions:
REMARK  status: ('A' for Active; 'I' for Inactive)
REMARK    1  A    between atoms: C4_4  and  C6_6 
REMARK    2  A    between atoms: C7_7  and  C8_8 
ROOT
HETATM    1  C1  UNL     1     -34.673  16.542  -0.799  1.00 20.00     0.015 A 
HETATM    2  C2  UNL     1     -34.900  17.666  -0.035  1.00 20.00     0.050 A 
HETATM    3  C3  UNL     1     -33.679  18.188  -2.105  1.00 20.00     0.057 A 
HETATM    4  C4  UNL     1     -33.965  16.845  -1.998  1.00 20.00    -0.047 A 
HETATM    5  S9  UNL     1     -34.263  19.078  -0.764  1.00 20.00    -0.113 SA
ENDROOT
BRANCH   4   6
HETATM    6  C6  UNL     1     -33.568  15.794  -3.049  1.00 20.00     0.024 A 
HETATM    7  C5  UNL     1     -33.234  16.264  -4.448  1.00 20.00     0.016 A 
HETATM    8  C7  UNL     1     -34.490  15.478  -4.212  1.00 20.00     0.004 A 
BRANCH   8   9
HETATM    9  C8  UNL     1     -35.820  16.130  -4.378  1.00 20.00     0.090 C 
HETATM   10 BR10 UNL     1     -37.248  14.905  -3.857  1.00 20.00    -0.096 Br
ENDBRANCH   8   9
ENDBRANCH   4   6
TORSDOF 2
ENDMDL
MODEL 6
REMARK VINA RESULT:      -3.7      2.675      3.336
REMARK  2 active torsions:
REMARK  status: ('A' for Active; 'I' for Inactive)
REMARK    1  A    between atoms: C4_4  and  C6_6 
REMARK    2  A    between atoms: C7_7  and  C8_8 
ROOT
HETATM    1  C1  UNL     1     -33.376  17.132  -5.196  1.00 20.00     0.015 A 
HETATM    2  C2  UNL     1     -33.734  18.072  -6.137  1.00 20.00     0.050 A 
HETATM    3  C3  UNL     1     -34.790  15.892  -6.560  1.00 20.00     0.057 A 
HETATM    4  C4  UNL     1     -33.987  15.869  -5.442  1.00 20.00    -0.047 A 
HETATM    5  S9  UNL     1     -34.805  17.431  -7.310  1.00 20.00    -0.113 SA
ENDROOT
BRANCH   4   6
HETATM    6  C6  UNL     1     -33.776  14.626  -4.560  1.00 20.00     0.024 A 
HETATM    7  C5  UNL     1     -34.908  13.631  -4.432  1.00 20.00     0.016 A 
HETATM    8  C7  UNL     1     -34.527  14.471  -3.251  1.00 20.00     0.004 A 
BRANCH   8   9
HETATM    9  C8  UNL     1     -35.466  15.510  -2.739  1.00 20.00     0.090 C 
HETATM   10 BR10 UNL     1     -34.625  16.545  -1.314  1.00 20.00    -0.096 Br
ENDBRANCH   8   9
ENDBRANCH   4   6
TORSDOF 2
ENDMDL
MODEL 7
REMARK VINA RESULT:      -3.7      2.752      3.650
REMARK  2 active torsions:
REMARK  status: ('A' for Active; 'I' for Inactive)
REMARK    1  A    between atoms: C4_4  and  C6_6 
REMARK    2  A    between atoms: C7_7  and  C8_8 
ROOT
HETATM    1  C1  UNL     1     -34.279  15.760  -6.410  1.00 20.00     0.015 A 
HETATM    2  C2  UNL     1     -34.713  16.759  -7.253  1.00 20.00     0.050 A 
HETATM    3  C3  UNL     1     -33.466  17.652  -5.331  1.00 20.00     0.057 A 
HETATM    4  C4  UNL     1     -33.556  16.278  -5.296  1.00 20.00    -0.047 A 
HETATM    5  S9  UNL     1     -34.250  18.313  -6.703  1.00 20.00    -0.113 SA
ENDROOT
BRANCH   4   6
HETATM    6  C6  UNL     1     -32.948  15.404  -4.186  1.00 20.00     0.024 A 
HETATM    7  C5  UNL     1     -33.637  14.103  -3.833  1.00 20.00     0.016 A 
HETATM    8  C7  UNL     1     -33.660  15.240  -2.855  1.00 20.00     0.004 A 
BRANCH   8   9
HETATM    9  C8  UNL     1     -34.943  15.931  -2.544  1.00 20.00     0.090 C 
HETATM   10 BR10 UNL     1     -34.788  16.938  -0.880  1.00 20.00    -0.096 Br
ENDBRANCH   8   9
ENDBRANCH   4   6
TORSDOF 2
ENDMDL
MODEL 8
REMARK VINA RESULT:      -3.7      2.403      3.910
REMARK  2 active torsions:
REMARK  status: ('A' for Active; 'I' for Inactive)
REMARK    1  A    between atoms: C4_4  and  C6_6 
REMARK    2  A    between atoms: C7_7  and  C8_8 
ROOT
HETATM    1  C1  UNL     1     -35.892  15.057  -3.227  1.00 20.00     0.015 A 
HETATM    2  C2  UNL     1     -36.155  14.100  -4.182  1.00 20.00     0.050 A 
HETATM    3  C3  UNL     1     -33.741  14.443  -3.862  1.00 20.00     0.057 A 
HETATM    4  C4  UNL     1     -34.493  15.256  -3.042  1.00 20.00    -0.047 A 
HETATM    5  S9  UNL     1     -34.721  13.446  -4.850  1.00 20.00    -0.113 SA
ENDROOT
BRANCH   4   6
HETATM    6  C6  UNL     1     -33.893  16.260  -2.043  1.00 20.00     0.024 A 
HETATM    7  C5  UNL     1     -34.834  17.043  -1.153  1.00 20.00     0.016 A 
HETATM    8  C7  UNL     1     -34.083  17.753  -2.240  1.00 20.00     0.004 A 
BRANCH   8   9
HETATM    9  C8  UNL     1     -34.816  18.318  -3.408  1.00 20.00     0.090 C 
HETATM   10 BR10 UNL     1     -33.615  18.522  -4.932  1.00 20.00    -0.096 Br
ENDBRANCH   8   9
ENDBRANCH   4   6
TORSDOF 2
ENDMDL
MODEL 9
REMARK VINA RESULT:      -3.7      1.611      2.346
REMARK  2 active torsions:
REMARK  status: ('A' for Active; 'I' for Inactive)
REMARK    1  A    between atoms: C4_4  and  C6_6 
REMARK    2  A    between atoms: C7_7  and  C8_8 
ROOT
HETATM    1  C1  UNL     1     -37.053  15.637  -3.722  1.00 20.00     0.015 A 
HETATM    2  C2  UNL     1     -37.270  16.871  -3.151  1.00 20.00     0.050 A 
HETATM    3  C3  UNL     1     -35.037  15.989  -2.620  1.00 20.00     0.057 A 
HETATM    4  C4  UNL     1     -35.759  15.125  -3.414  1.00 20.00    -0.047 A 
HETATM    5  S9  UNL     1     -35.918  17.409  -2.249  1.00 20.00    -0.113 SA
ENDROOT
BRANCH   4   6
HETATM    6  C6  UNL     1     -35.231  13.768  -3.911  1.00 20.00     0.024 A 
HETATM    7  C5  UNL     1     -33.735  13.574  -4.024  1.00 20.00     0.016 A 
HETATM    8  C7  UNL     1     -34.566  13.649  -5.269  1.00 20.00     0.004 A 
BRANCH   8   9
HETATM    9  C8  UNL     1     -34.422  14.809  -6.194  1.00 20.00     0.090 C 
HETATM   10 BR10 UNL     1     -35.591  14.596  -7.742  1.00 20.00    -0.096 Br
ENDBRANCH   8   9
ENDBRANCH   4   6
TORSDOF 2
ENDMDL
