MODEL 1
REMARK VINA RESULT:      -4.7      0.000      0.000
REMARK  3 active torsions:
REMARK  status: ('A' for Active; 'I' for Inactive)
REMARK    1  A    between atoms: C2_2  and  C6_6 
REMARK    2  A    between atoms: C3_3  and  C7_7 
REMARK    3  A    between atoms: C7_7  and  C8_8 
ROOT
HETATM    1  C1  UNL     1     -32.081   5.662   3.208  1.00 20.00     0.016 A 
HETATM    2  C2  UNL     1     -32.735   6.832   2.531  1.00 20.00     0.008 A 
HETATM    3  C3  UNL     1     -33.393   6.201   3.756  1.00 20.00    -0.039 A 
HETATM    4  C4  UNL     1     -33.367   6.918   5.078  1.00 20.00     0.015 C 
ENDROOT
BRANCH   3   5
HETATM    5  C7  UNL     1     -34.639   5.387   3.524  1.00 20.00     0.009 C 
BRANCH   5   6
HETATM    6  C8  UNL     1     -35.370   5.072   4.834  1.00 20.00    -0.004 C 
HETATM    7  C5  UNL     1     -34.839   3.811   5.494  1.00 20.00     0.005 C 
ENDBRANCH   5   6
ENDBRANCH   3   5
BRANCH   2   8
HETATM    8  C6  UNL     1     -32.090   8.175   2.565  1.00 20.00     0.120 C 
HETATM    9 CL9  UNL     1     -32.003   8.892   0.932  1.00 20.00    -0.130 Cl
ENDBRANCH   2   8
TORSDOF 3
ENDMDL
MODEL 2
REMARK VINA RESULT:      -4.3      2.565      4.550
REMARK  3 active torsions:
REMARK  status: ('A' for Active; 'I' for Inactive)
REMARK    1  A    between atoms: C2_2  and  C6_6 
REMARK    2  A    between atoms: C3_3  and  C7_7 
REMARK    3  A    between atoms: C7_7  and  C8_8 
ROOT
HETATM    1  C1  UNL     1     -33.301   6.450   5.072  1.00 20.00     0.016 A 
HETATM    2  C2  UNL     1     -34.367   6.521   4.017  1.00 20.00     0.008 A 
HETATM    3  C3  UNL     1     -32.899   6.663   3.622  1.00 20.00    -0.039 A 
HETATM    4  C4  UNL     1     -32.198   5.538   2.909  1.00 20.00     0.015 C 
ENDROOT
BRANCH   3   5
HETATM    5  C7  UNL     1     -32.425   8.034   3.216  1.00 20.00     0.009 C 
BRANCH   5   6
HETATM    6  C8  UNL     1     -31.963   8.072   1.755  1.00 20.00    -0.004 C 
HETATM    7  C5  UNL     1     -32.302   9.393   1.085  1.00 20.00     0.005 C 
ENDBRANCH   5   6
ENDBRANCH   3   5
BRANCH   2   8
HETATM    8  C6  UNL     1     -35.177   5.314   3.686  1.00 20.00     0.120 C 
HETATM    9 CL9  UNL     1     -35.130   4.120   5.013  1.00 20.00    -0.130 Cl
ENDBRANCH   2   8
TORSDOF 3
ENDMDL
MODEL 3
REMARK VINA RESULT:      -4.2      2.719      4.489
REMARK  3 active torsions:
REMARK  status: ('A' for Active; 'I' for Inactive)
REMARK    1  A    between atoms: C2_2  and  C6_6 
REMARK    2  A    between atoms: C3_3  and  C7_7 
REMARK    3  A    between atoms: C7_7  and  C8_8 
ROOT
HETATM    1  C1  UNL     1     -35.559   5.773   3.649  1.00 20.00     0.016 A 
HETATM    2  C2  UNL     1     -34.832   4.607   4.254  1.00 20.00     0.008 A 
HETATM    3  C3  UNL     1     -34.099   5.930   4.044  1.00 20.00    -0.039 A 
HETATM    4  C4  UNL     1     -33.775   6.807   5.223  1.00 20.00     0.015 C 
ENDROOT
BRANCH   3   5
HETATM    5  C7  UNL     1     -33.073   5.980   2.943  1.00 20.00     0.009 C 
BRANCH   5   6
HETATM    6  C8  UNL     1     -32.022   7.069   3.187  1.00 20.00    -0.004 C 
HETATM    7  C5  UNL     1     -32.074   8.158   2.128  1.00 20.00     0.005 C 
ENDBRANCH   5   6
ENDBRANCH   3   5
BRANCH   2   8
HETATM    8  C6  UNL     1     -35.214   4.103   5.604  1.00 20.00     0.120 C 
HETATM    9 CL9  UNL     1     -33.772   3.786   6.608  1.00 20.00    -0.130 Cl
ENDBRANCH   2   8
TORSDOF 3
ENDMDL
MODEL 4
REMARK VINA RESULT:      -4.2     11.162     11.980
REMARK  3 active torsions:
REMARK  status: ('A' for Active; 'I' for Inactive)
REMARK    1  A    between atoms: C2_2  and  C6_6 
REMARK    2  A    between atoms: C3_3  and  C7_7 
REMARK    3  A    between atoms: C7_7  and  C8_8 
ROOT
HETATM    1  C1  UNL     1     -34.941  13.440  -4.099  1.00 20.00     0.016 A 
HETATM    2  C2  UNL     1     -35.152  14.629  -4.993  1.00 20.00     0.008 A 
HETATM    3  C3  UNL     1     -34.387  14.793  -3.681  1.00 20.00    -0.039 A 
HETATM    4  C4  UNL     1     -32.894  14.982  -3.699  1.00 20.00     0.015 C 
ENDROOT
BRANCH   3   5
HETATM    5  C7  UNL     1     -35.084  15.525  -2.565  1.00 20.00     0.009 C 
BRANCH   5   6
HETATM    6  C8  UNL     1     -34.153  16.518  -1.860  1.00 20.00    -0.004 C 
HETATM    7  C5  UNL     1     -34.652  16.880  -0.472  1.00 20.00     0.005 C 
ENDBRANCH   5   6
ENDBRANCH   3   5
BRANCH   2   8
HETATM    8  C6  UNL     1     -34.489  14.693  -6.326  1.00 20.00     0.120 C 
HETATM    9 CL9  UNL     1     -34.347  16.379  -6.897  1.00 20.00    -0.130 Cl
ENDBRANCH   2   8
TORSDOF 3
ENDMDL
MODEL 5
REMARK VINA RESULT:      -4.1     11.002     11.982
REMARK  3 active torsions:
REMARK  status: ('A' for Active; 'I' for Inactive)
REMARK    1  A    between atoms: C2_2  and  C6_6 
REMARK    2  A    between atoms: C3_3  and  C7_7 
REMARK    3  A    between atoms: C7_7  and  C8_8 
ROOT
HETATM    1  C1  UNL     1     -33.607  13.697  -3.799  1.00 20.00     0.016 A 
HETATM    2  C2  UNL     1     -34.852  14.076  -4.548  1.00 20.00     0.008 A 
HETATM    3  C3  UNL     1     -34.126  15.122  -3.706  1.00 20.00    -0.039 A 
HETATM    4  C4  UNL     1     -33.332  16.211  -4.377  1.00 20.00     0.015 C 
ENDROOT
BRANCH   3   5
HETATM    5  C7  UNL     1     -34.786  15.549  -2.421  1.00 20.00     0.009 C 
BRANCH   5   6
HETATM    6  C8  UNL     1     -34.024  16.688  -1.735  1.00 20.00    -0.004 C 
HETATM    7  C5  UNL     1     -34.616  17.035  -0.380  1.00 20.00     0.005 C 
ENDBRANCH   5   6
ENDBRANCH   3   5
BRANCH   2   8
HETATM    8  C6  UNL     1     -34.853  14.100  -6.038  1.00 20.00     0.120 C 
HETATM    9 CL9  UNL     1     -36.297  14.939  -6.670  1.00 20.00    -0.130 Cl
ENDBRANCH   2   8
TORSDOF 3
ENDMDL
MODEL 6
REMARK VINA RESULT:      -4.1      2.405      4.052
REMARK  3 active torsions:
REMARK  status: ('A' for Active; 'I' for Inactive)
REMARK    1  A    between atoms: C2_2  and  C6_6 
REMARK    2  A    between atoms: C3_3  and  C7_7 
REMARK    3  A    between atoms: C7_7  and  C8_8 
ROOT
HETATM    1  C1  UNL     1     -34.836   3.941   4.658  1.00 20.00     0.016 A 
HETATM    2  C2  UNL     1     -34.092   5.069   5.314  1.00 20.00     0.008 A 
HETATM    3  C3  UNL     1     -34.680   5.259   3.918  1.00 20.00    -0.039 A 
HETATM    4  C4  UNL     1     -35.904   6.113   3.727  1.00 20.00     0.015 C 
ENDROOT
BRANCH   3   5
HETATM    5  C7  UNL     1     -33.712   5.309   2.766  1.00 20.00     0.009 C 
BRANCH   5   6
HETATM    6  C8  UNL     1     -32.405   6.015   3.143  1.00 20.00    -0.004 C 
HETATM    7  C5  UNL     1     -32.357   7.441   2.622  1.00 20.00     0.005 C 
ENDBRANCH   5   6
ENDBRANCH   3   5
BRANCH   2   8
HETATM    8  C6  UNL     1     -34.654   5.736   6.523  1.00 20.00     0.120 C 
HETATM    9 CL9  UNL     1     -33.803   7.267   6.871  1.00 20.00    -0.130 Cl
ENDBRANCH   2   8
TORSDOF 3
ENDMDL
MODEL 7
REMARK VINA RESULT:      -4.0     10.959     11.857
REMARK  3 active torsions:
REMARK  status: ('A' for Active; 'I' for Inactive)
REMARK    1  A    between atoms: C2_2  and  C6_6 
REMARK    2  A    between atoms: C3_3  and  C7_7 
REMARK    3  A    between atoms: C7_7  and  C8_8 
ROOT
HETATM    1  C1  UNL     1     -33.715  16.198  -4.328  1.00 20.00     0.016 A 
HETATM    2  C2  UNL     1     -33.431  14.924  -3.583  1.00 20.00     0.008 A 
HETATM    3  C3  UNL     1     -34.325  15.989  -2.952  1.00 20.00    -0.039 A 
HETATM    4  C4  UNL     1     -35.811  15.768  -2.861  1.00 20.00     0.015 C 
ENDROOT
BRANCH   3   5
HETATM    5  C7  UNL     1     -33.751  16.774  -1.802  1.00 20.00     0.009 C 
BRANCH   5   6
HETATM    6  C8  UNL     1     -34.675  16.759  -0.578  1.00 20.00    -0.004 C 
HETATM    7  C5  UNL     1     -34.354  17.884   0.391  1.00 20.00     0.005 C 
ENDBRANCH   5   6
ENDBRANCH   3   5
BRANCH   2   8
HETATM    8  C6  UNL     1     -33.959  13.626  -4.088  1.00 20.00     0.120 C 
HETATM    9 CL9  UNL     1     -34.725  13.818  -5.690  1.00 20.00    -0.130 Cl
ENDBRANCH   2   8
TORSDOF 3
ENDMDL
MODEL 8
REMARK VINA RESULT:      -3.9     10.996     11.853
REMARK  3 active torsions:
REMARK  status: ('A' for Active; 'I' for Inactive)
REMARK    1  A    between atoms: C2_2  and  C6_6 
REMARK    2  A    between atoms: C3_3  and  C7_7 
REMARK    3  A    between atoms: C7_7  and  C8_8 
ROOT
HETATM    1  C1  UNL     1     -35.641  15.912  -2.872  1.00 20.00     0.016 A 
HETATM    2  C2  UNL     1     -34.579  15.890  -1.809  1.00 20.00     0.008 A 
HETATM    3  C3  UNL     1     -34.209  15.576  -3.257  1.00 20.00    -0.039 A 
HETATM    4  C4  UNL     1     -33.441  16.581  -4.073  1.00 20.00     0.015 C 
ENDROOT
BRANCH   3   5
HETATM    5  C7  UNL     1     -33.888  14.143  -3.590  1.00 20.00     0.009 C 
BRANCH   5   6
HETATM    6  C8  UNL     1     -35.023  13.466  -4.367  1.00 20.00    -0.004 C 
HETATM    7  C5  UNL     1     -35.018  13.853  -5.836  1.00 20.00     0.005 C 
ENDBRANCH   5   6
ENDBRANCH   3   5
BRANCH   2   8
HETATM    8  C6  UNL     1     -34.171  17.152  -1.129  1.00 20.00     0.120 C 
HETATM    9 CL9  UNL     1     -34.955  17.307   0.468  1.00 20.00    -0.130 Cl
ENDBRANCH   2   8
TORSDOF 3
ENDMDL
MODEL 9
REMARK VINA RESULT:      -3.7     11.050     12.452
REMARK  3 active torsions:
REMARK  status: ('A' for Active; 'I' for Inactive)
REMARK    1  A    between atoms: C2_2  and  C6_6 
REMARK    2  A    between atoms: C3_3  and  C7_7 
REMARK    3  A    between atoms: C7_7  and  C8_8 
ROOT
HETATM    1  C1  UNL     1     -32.933  15.105  -3.691  1.00 20.00     0.016 A 
HETATM    2  C2  UNL     1     -34.118  15.975  -3.384  1.00 20.00     0.008 A 
HETATM    3  C3  UNL     1     -34.239  14.872  -4.432  1.00 20.00    -0.039 A 
HETATM    4  C4  UNL     1     -35.016  13.620  -4.123  1.00 20.00     0.015 C 
ENDROOT
BRANCH   3   5
HETATM    5  C7  UNL     1     -34.315  15.299  -5.874  1.00 20.00     0.009 C 
BRANCH   5   6
HETATM    6  C8  UNL     1     -34.987  14.237  -6.753  1.00 20.00    -0.004 C 
HETATM    7  C5  UNL     1     -36.093  14.825  -7.612  1.00 20.00     0.005 C 
ENDBRANCH   5   6
ENDBRANCH   3   5
BRANCH   2   8
HETATM    8  C6  UNL     1     -34.781  15.897  -2.052  1.00 20.00     0.120 C 
HETATM    9 CL9  UNL     1     -34.060  17.056  -0.901  1.00 20.00    -0.130 Cl
ENDBRANCH   2   8
TORSDOF 3
ENDMDL
