MODEL 1
REMARK VINA RESULT:      -4.2      0.000      0.000
REMARK  1 active torsions:
REMARK  status: ('A' for Active; 'I' for Inactive)
REMARK    1  A    between atoms: C6_6  and  C8_8 
ROOT
HETATM    1  C1  UNL     1     -34.803  13.465  -5.303  1.00 20.00     0.011 C 
HETATM    2  C2  UNL     1     -35.267  13.979  -3.941  1.00 20.00     0.011 C 
HETATM    3  C3  UNL     1     -33.395  15.568  -3.074  1.00 20.00     0.017 A 
HETATM    4  C4  UNL     1     -35.300  14.326  -6.458  1.00 20.00     0.074 C 
HETATM    5  C5  UNL     1     -35.274  16.417  -4.658  1.00 20.00     0.083 C 
HETATM    6  C6  UNL     1     -34.607  15.770  -2.208  1.00 20.00     0.009 A 
HETATM    7  C7  UNL     1     -34.776  15.389  -3.673  1.00 20.00    -0.027 A 
HETATM    8  S9  UNL     1     -34.688  16.033  -6.331  1.00 20.00    -0.168 SA
ENDROOT
BRANCH   6   9
HETATM    9  C8  UNL     1     -34.935  17.123  -1.677  1.00 20.00     0.120 C 
HETATM   10 CL10 UNL     1     -34.866  17.154   0.106  1.00 20.00    -0.130 Cl
ENDBRANCH   6   9
TORSDOF 1
ENDMDL
MODEL 2
REMARK VINA RESULT:      -4.0      1.452      1.630
REMARK  1 active torsions:
REMARK  status: ('A' for Active; 'I' for Inactive)
REMARK    1  A    between atoms: C6_6  and  C8_8 
ROOT
HETATM    1  C1  UNL     1     -34.037  13.616  -4.470  1.00 20.00     0.011 C 
HETATM    2  C2  UNL     1     -33.655  14.380  -3.203  1.00 20.00     0.011 C 
HETATM    3  C3  UNL     1     -33.751  16.911  -3.809  1.00 20.00     0.017 A 
HETATM    4  C4  UNL     1     -35.529  13.317  -4.550  1.00 20.00     0.074 C 
HETATM    5  C5  UNL     1     -35.873  15.611  -3.055  1.00 20.00     0.083 C 
HETATM    6  C6  UNL     1     -33.659  16.800  -2.313  1.00 20.00     0.009 A 
HETATM    7  C7  UNL     1     -34.369  15.715  -3.112  1.00 20.00    -0.027 A 
HETATM    8  S9  UNL     1     -36.516  14.844  -4.568  1.00 20.00    -0.168 SA
ENDROOT
BRANCH   6   9
HETATM    9  C8  UNL     1     -34.379  17.770  -1.441  1.00 20.00     0.120 C 
HETATM   10 CL10 UNL     1     -34.826  17.029   0.121  1.00 20.00    -0.130 Cl
ENDBRANCH   6   9
TORSDOF 1
ENDMDL
MODEL 3
REMARK VINA RESULT:      -4.0      3.087      4.479
REMARK  1 active torsions:
REMARK  status: ('A' for Active; 'I' for Inactive)
REMARK    1  A    between atoms: C6_6  and  C8_8 
ROOT
HETATM    1  C1  UNL     1     -34.860  17.065  -0.238  1.00 20.00     0.011 C 
HETATM    2  C2  UNL     1     -33.749  16.987  -1.284  1.00 20.00     0.011 C 
HETATM    3  C3  UNL     1     -34.518  15.235  -3.050  1.00 20.00     0.017 A 
HETATM    4  C4  UNL     1     -35.885  18.150  -0.548  1.00 20.00     0.074 C 
HETATM    5  C5  UNL     1     -35.246  17.727  -3.199  1.00 20.00     0.083 C 
HETATM    6  C6  UNL     1     -33.342  15.977  -3.621  1.00 20.00     0.009 A 
HETATM    7  C7  UNL     1     -34.295  16.684  -2.666  1.00 20.00    -0.027 A 
HETATM    8  S9  UNL     1     -36.712  17.852  -2.139  1.00 20.00    -0.168 SA
ENDROOT
BRANCH   6   9
HETATM    9  C8  UNL     1     -33.278  16.280  -5.078  1.00 20.00     0.120 C 
HETATM   10 CL10 UNL     1     -34.286  15.146  -6.020  1.00 20.00    -0.130 Cl
ENDBRANCH   6   9
TORSDOF 1
ENDMDL
MODEL 4
REMARK VINA RESULT:      -4.0      2.714      4.234
REMARK  1 active torsions:
REMARK  status: ('A' for Active; 'I' for Inactive)
REMARK    1  A    between atoms: C6_6  and  C8_8 
ROOT
HETATM    1  C1  UNL     1     -34.837  17.710  -1.300  1.00 20.00     0.011 C 
HETATM    2  C2  UNL     1     -34.439  16.251  -1.513  1.00 20.00     0.011 C 
HETATM    3  C3  UNL     1     -35.814  15.400  -3.554  1.00 20.00     0.017 A 
HETATM    4  C4  UNL     1     -33.927  18.682  -2.042  1.00 20.00     0.074 C 
HETATM    5  C5  UNL     1     -33.550  16.642  -3.861  1.00 20.00     0.083 C 
HETATM    6  C6  UNL     1     -34.743  14.386  -3.267  1.00 20.00     0.009 A 
HETATM    7  C7  UNL     1     -34.490  15.860  -2.977  1.00 20.00    -0.027 A 
HETATM    8  S9  UNL     1     -33.975  18.405  -3.837  1.00 20.00    -0.168 SA
ENDROOT
BRANCH   6   9
HETATM    9  C8  UNL     1     -34.082  13.652  -4.383  1.00 20.00     0.120 C 
HETATM   10 CL10 UNL     1     -34.965  13.876  -5.918  1.00 20.00    -0.130 Cl
ENDBRANCH   6   9
TORSDOF 1
ENDMDL
MODEL 5
REMARK VINA RESULT:      -3.9     12.642     13.863
REMARK  1 active torsions:
REMARK  status: ('A' for Active; 'I' for Inactive)
REMARK    1  A    between atoms: C6_6  and  C8_8 
ROOT
HETATM    1  C1  UNL     1     -40.864   5.857  -0.172  1.00 20.00     0.011 C 
HETATM    2  C2  UNL     1     -40.798   4.703  -1.170  1.00 20.00     0.011 C 
HETATM    3  C3  UNL     1     -43.200   3.706  -1.307  1.00 20.00     0.017 A 
HETATM    4  C4  UNL     1     -41.146   7.198  -0.841  1.00 20.00     0.074 C 
HETATM    5  C5  UNL     1     -42.484   5.739  -2.763  1.00 20.00     0.083 C 
HETATM    6  C6  UNL     1     -42.401   3.139  -2.447  1.00 20.00     0.009 A 
HETATM    7  C7  UNL     1     -42.098   4.540  -1.932  1.00 20.00    -0.027 A 
HETATM    8  S9  UNL     1     -42.745   7.189  -1.706  1.00 20.00    -0.168 SA
ENDROOT
BRANCH   6   9
HETATM    9  C8  UNL     1     -43.048   2.878  -3.764  1.00 20.00     0.120 C 
HETATM   10 CL10 UNL     1     -42.185   1.606  -4.670  1.00 20.00    -0.130 Cl
ENDBRANCH   6   9
TORSDOF 1
ENDMDL
MODEL 6
REMARK VINA RESULT:      -3.9      2.034      2.487
REMARK  1 active torsions:
REMARK  status: ('A' for Active; 'I' for Inactive)
REMARK    1  A    between atoms: C6_6  and  C8_8 
ROOT
HETATM    1  C1  UNL     1     -33.217  15.537  -3.790  1.00 20.00     0.011 C 
HETATM    2  C2  UNL     1     -34.176  15.504  -2.601  1.00 20.00     0.011 C 
HETATM    3  C3  UNL     1     -33.452  17.437  -1.013  1.00 20.00     0.017 A 
HETATM    4  C4  UNL     1     -33.739  16.387  -4.943  1.00 20.00     0.074 C 
HETATM    5  C5  UNL     1     -35.063  17.849  -3.014  1.00 20.00     0.083 C 
HETATM    6  C6  UNL     1     -34.803  16.955  -0.564  1.00 20.00     0.009 A 
HETATM    7  C7  UNL     1     -34.426  16.890  -2.038  1.00 20.00    -0.027 A 
HETATM    8  S9  UNL     1     -33.978  18.118  -4.442  1.00 20.00    -0.168 SA
ENDROOT
BRANCH   6   9
HETATM    9  C8  UNL     1     -35.804  17.917  -0.022  1.00 20.00     0.120 C 
HETATM   10 CL10 UNL     1     -35.815  17.904   1.763  1.00 20.00    -0.130 Cl
ENDBRANCH   6   9
TORSDOF 1
ENDMDL
MODEL 7
REMARK VINA RESULT:      -3.8      2.830      4.292
REMARK  1 active torsions:
REMARK  status: ('A' for Active; 'I' for Inactive)
REMARK    1  A    between atoms: C6_6  and  C8_8 
ROOT
HETATM    1  C1  UNL     1     -34.560  16.219  -1.719  1.00 20.00     0.011 C 
HETATM    2  C2  UNL     1     -33.970  15.677  -3.019  1.00 20.00     0.011 C 
HETATM    3  C3  UNL     1     -35.647  13.891  -3.903  1.00 20.00     0.017 A 
HETATM    4  C4  UNL     1     -35.425  17.455  -1.935  1.00 20.00     0.074 C 
HETATM    5  C5  UNL     1     -35.942  16.419  -4.439  1.00 20.00     0.083 C 
HETATM    6  C6  UNL     1     -34.675  14.196  -5.009  1.00 20.00     0.009 A 
HETATM    7  C7  UNL     1     -35.050  15.281  -4.007  1.00 20.00    -0.027 A 
HETATM    8  S9  UNL     1     -36.840  17.098  -3.019  1.00 20.00    -0.168 SA
ENDROOT
BRANCH   6   9
HETATM    9  C8  UNL     1     -35.129  14.208  -6.428  1.00 20.00     0.120 C 
HETATM   10 CL10 UNL     1     -34.126  15.301  -7.420  1.00 20.00    -0.130 Cl
ENDBRANCH   6   9
TORSDOF 1
ENDMDL
MODEL 8
REMARK VINA RESULT:      -3.8      1.757      2.443
REMARK  1 active torsions:
REMARK  status: ('A' for Active; 'I' for Inactive)
REMARK    1  A    between atoms: C6_6  and  C8_8 
ROOT
HETATM    1  C1  UNL     1     -36.338  14.902  -3.484  1.00 20.00     0.011 C 
HETATM    2  C2  UNL     1     -36.109  16.384  -3.197  1.00 20.00     0.011 C 
HETATM    3  C3  UNL     1     -34.626  16.502  -1.059  1.00 20.00     0.017 A 
HETATM    4  C4  UNL     1     -35.300  14.320  -4.437  1.00 20.00     0.074 C 
HETATM    5  C5  UNL     1     -33.584  16.229  -3.426  1.00 20.00     0.083 C 
HETATM    6  C6  UNL     1     -34.646  17.871  -1.681  1.00 20.00     0.009 A 
HETATM    7  C7  UNL     1     -34.754  16.634  -2.564  1.00 20.00    -0.027 A 
HETATM    8  S9  UNL     1     -33.621  14.445  -3.752  1.00 20.00    -0.168 SA
ENDROOT
BRANCH   6   9
HETATM    9  C8  UNL     1     -33.432  18.734  -1.637  1.00 20.00     0.120 C 
HETATM   10 CL10 UNL     1     -32.546  18.529  -0.101  1.00 20.00    -0.130 Cl
ENDBRANCH   6   9
TORSDOF 1
ENDMDL
MODEL 9
REMARK VINA RESULT:      -3.8     11.641     12.441
REMARK  1 active torsions:
REMARK  status: ('A' for Active; 'I' for Inactive)
REMARK    1  A    between atoms: C6_6  and  C8_8 
ROOT
HETATM    1  C1  UNL     1     -33.807   5.607   6.346  1.00 20.00     0.011 C 
HETATM    2  C2  UNL     1     -33.356   6.832   5.552  1.00 20.00     0.011 C 
HETATM    3  C3  UNL     1     -31.978   5.937   3.532  1.00 20.00     0.017 A 
HETATM    4  C4  UNL     1     -35.179   5.100   5.915  1.00 20.00     0.074 C 
HETATM    5  C5  UNL     1     -34.569   6.136   3.432  1.00 20.00     0.083 C 
HETATM    6  C6  UNL     1     -32.273   7.390   3.280  1.00 20.00     0.009 A 
HETATM    7  C7  UNL     1     -33.262   6.540   4.068  1.00 20.00    -0.027 A 
HETATM    8  S9  UNL     1     -35.187   4.598   4.168  1.00 20.00    -0.168 SA
ENDROOT
BRANCH   6   9
HETATM    9  C8  UNL     1     -32.539   7.874   1.896  1.00 20.00     0.120 C 
HETATM   10 CL10 UNL     1     -32.519   9.658   1.820  1.00 20.00    -0.130 Cl
ENDBRANCH   6   9
TORSDOF 1
ENDMDL
