MODEL 1
REMARK VINA RESULT:      -5.5      0.000      0.000
REMARK  3 active torsions:
REMARK  status: ('A' for Active; 'I' for Inactive)
REMARK    1  A    between atoms: C1_1  and  C9_9 
REMARK    2  A    between atoms: C5_5  and  C8_8 
REMARK    3  A    between atoms: C6_6  and  C9_9 
ROOT
HETATM    1  C2  UNL     1     -34.764   5.113   3.757  1.00 20.00     0.005 C 
HETATM    2  C3  UNL     1     -33.935   5.759   2.643  1.00 20.00     0.008 C 
HETATM    3  C4  UNL     1     -33.288   6.746   4.736  1.00 20.00     0.012 C 
HETATM    4  C5  UNL     1     -34.609   6.021   4.982  1.00 20.00    -0.014 C 
HETATM    5  C6  UNL     1     -33.352   7.042   3.241  1.00 20.00     0.030 C 
ENDROOT
BRANCH   5   6
HETATM    6  C9  UNL     1     -32.006   7.422   2.648  1.00 20.00     0.274 C 
HETATM    7  F12 UNL     1     -31.187   7.785   3.673  1.00 20.00    -0.238 F 
BRANCH   6   8
HETATM    8  C1  UNL     1     -32.012   8.601   1.679  1.00 20.00     0.208 C 
HETATM    9  O10 UNL     1     -32.668   9.618   2.035  1.00 20.00    -0.646 OA
HETATM   10  O11 UNL     1     -31.357   8.403   0.615  1.00 20.00    -0.646 OA
ENDBRANCH   6   8
ENDBRANCH   5   6
BRANCH   4  11
HETATM   11  C8  UNL     1     -34.639   5.263   6.298  1.00 20.00     0.000 C 
HETATM   12  C7  UNL     1     -34.775   3.787   6.091  1.00 20.00     0.005 C 
ENDBRANCH   4  11
TORSDOF 3
ENDMDL
MODEL 2
REMARK VINA RESULT:      -5.3     10.461     11.592
REMARK  3 active torsions:
REMARK  status: ('A' for Active; 'I' for Inactive)
REMARK    1  A    between atoms: C1_1  and  C9_9 
REMARK    2  A    between atoms: C5_5  and  C8_8 
REMARK    3  A    between atoms: C6_6  and  C9_9 
ROOT
HETATM    1  C2  UNL     1     -33.641  18.266  -2.509  1.00 20.00     0.005 C 
HETATM    2  C3  UNL     1     -33.858  17.254  -3.639  1.00 20.00     0.008 C 
HETATM    3  C4  UNL     1     -34.514  16.228  -1.568  1.00 20.00     0.012 C 
HETATM    4  C5  UNL     1     -33.694  17.463  -1.205  1.00 20.00    -0.014 C 
HETATM    5  C6  UNL     1     -33.994  15.888  -2.962  1.00 20.00     0.030 C 
ENDROOT
BRANCH   5   6
HETATM    6  C9  UNL     1     -34.896  14.930  -3.720  1.00 20.00     0.274 C 
HETATM    7  F12 UNL     1     -36.038  14.772  -2.996  1.00 20.00    -0.238 F 
BRANCH   6   8
HETATM    8  C1  UNL     1     -34.342  13.525  -3.941  1.00 20.00     0.208 C 
HETATM    9  O10 UNL     1     -35.156  12.661  -4.368  1.00 20.00    -0.646 OA
HETATM   10  O11 UNL     1     -33.118  13.398  -3.650  1.00 20.00    -0.646 OA
ENDBRANCH   6   8
ENDBRANCH   5   6
BRANCH   4  11
HETATM   11  C8  UNL     1     -34.277  18.247  -0.042  1.00 20.00     0.000 C 
HETATM   12  C7  UNL     1     -35.204  17.413   0.786  1.00 20.00     0.005 C 
ENDBRANCH   4  11
TORSDOF 3
ENDMDL
MODEL 3
REMARK VINA RESULT:      -5.0     11.089     11.913
REMARK  3 active torsions:
REMARK  status: ('A' for Active; 'I' for Inactive)
REMARK    1  A    between atoms: C1_1  and  C9_9 
REMARK    2  A    between atoms: C5_5  and  C8_8 
REMARK    3  A    between atoms: C6_6  and  C9_9 
ROOT
HETATM    1  C2  UNL     1     -33.763  17.900  -2.321  1.00 20.00     0.005 C 
HETATM    2  C3  UNL     1     -33.854  17.240  -3.701  1.00 20.00     0.008 C 
HETATM    3  C4  UNL     1     -34.901  15.789  -2.097  1.00 20.00     0.012 C 
HETATM    4  C5  UNL     1     -34.077  16.799  -1.303  1.00 20.00    -0.014 C 
HETATM    5  C6  UNL     1     -34.182  15.767  -3.443  1.00 20.00     0.030 C 
ENDROOT
BRANCH   5   6
HETATM    6  C9  UNL     1     -35.005  15.133  -4.551  1.00 20.00     0.274 C 
HETATM    7  F12 UNL     1     -36.006  15.999  -4.874  1.00 20.00    -0.238 F 
BRANCH   6   8
HETATM    8  C1  UNL     1     -35.689  13.814  -4.203  1.00 20.00     0.208 C 
HETATM    9  O10 UNL     1     -34.962  12.783  -4.214  1.00 20.00    -0.646 OA
HETATM   10  O11 UNL     1     -36.926  13.919  -3.956  1.00 20.00    -0.646 OA
ENDBRANCH   6   8
ENDBRANCH   5   6
BRANCH   4  11
HETATM   11  C8  UNL     1     -34.793  17.313  -0.065  1.00 20.00     0.000 C 
HETATM   12  C7  UNL     1     -33.946  18.271   0.714  1.00 20.00     0.005 C 
ENDBRANCH   4  11
TORSDOF 3
ENDMDL
MODEL 4
REMARK VINA RESULT:      -4.8     10.989     11.803
REMARK  3 active torsions:
REMARK  status: ('A' for Active; 'I' for Inactive)
REMARK    1  A    between atoms: C1_1  and  C9_9 
REMARK    2  A    between atoms: C5_5  and  C8_8 
REMARK    3  A    between atoms: C6_6  and  C9_9 
ROOT
HETATM    1  C2  UNL     1     -33.667  17.876  -2.373  1.00 20.00     0.005 C 
HETATM    2  C3  UNL     1     -33.982  17.069  -3.636  1.00 20.00     0.008 C 
HETATM    3  C4  UNL     1     -34.980  15.953  -1.757  1.00 20.00     0.012 C 
HETATM    4  C5  UNL     1     -33.972  16.950  -1.191  1.00 20.00    -0.014 C 
HETATM    5  C6  UNL     1     -34.427  15.686  -3.154  1.00 20.00     0.030 C 
ENDROOT
BRANCH   5   6
HETATM    6  C9  UNL     1     -35.432  15.022  -4.079  1.00 20.00     0.274 C 
HETATM    7  F12 UNL     1     -36.452  14.546  -3.314  1.00 20.00    -0.238 F 
BRANCH   6   8
HETATM    8  C1  UNL     1     -34.916  13.830  -4.879  1.00 20.00     0.208 C 
HETATM    9  O10 UNL     1     -34.952  12.708  -4.302  1.00 20.00    -0.646 OA
HETATM   10  O11 UNL     1     -34.498  14.122  -6.037  1.00 20.00    -0.646 OA
ENDBRANCH   6   8
ENDBRANCH   5   6
BRANCH   4  11
HETATM   11  C8  UNL     1     -34.485  17.689   0.033  1.00 20.00     0.000 C 
HETATM   12  C7  UNL     1     -33.407  18.486   0.698  1.00 20.00     0.005 C 
ENDBRANCH   4  11
TORSDOF 3
ENDMDL
MODEL 5
REMARK VINA RESULT:      -4.7     10.686     11.958
REMARK  3 active torsions:
REMARK  status: ('A' for Active; 'I' for Inactive)
REMARK    1  A    between atoms: C1_1  and  C9_9 
REMARK    2  A    between atoms: C5_5  and  C8_8 
REMARK    3  A    between atoms: C6_6  and  C9_9 
ROOT
HETATM    1  C2  UNL     1     -34.565  16.581  -1.415  1.00 20.00     0.005 C 
HETATM    2  C3  UNL     1     -34.767  15.372  -2.334  1.00 20.00     0.008 C 
HETATM    3  C4  UNL     1     -33.738  17.129  -3.610  1.00 20.00     0.012 C 
HETATM    4  C5  UNL     1     -34.281  17.772  -2.337  1.00 20.00    -0.014 C 
HETATM    5  C6  UNL     1     -34.632  15.902  -3.764  1.00 20.00     0.030 C 
ENDROOT
BRANCH   5   6
HETATM    6  C9  UNL     1     -34.075  14.874  -4.734  1.00 20.00     0.274 C 
HETATM    7  F12 UNL     1     -34.893  14.841  -5.822  1.00 20.00    -0.238 F 
BRANCH   6   8
HETATM    8  C1  UNL     1     -34.007  13.439  -4.219  1.00 20.00     0.208 C 
HETATM    9  O10 UNL     1     -32.902  13.066  -3.737  1.00 20.00    -0.646 OA
HETATM   10  O11 UNL     1     -35.082  12.786  -4.354  1.00 20.00    -0.646 OA
ENDBRANCH   6   8
ENDBRANCH   5   6
BRANCH   4  11
HETATM   11  C8  UNL     1     -33.332  18.789  -1.728  1.00 20.00     0.000 C 
HETATM   12  C7  UNL     1     -32.938  18.421  -0.332  1.00 20.00     0.005 C 
ENDBRANCH   4  11
TORSDOF 3
ENDMDL
MODEL 6
REMARK VINA RESULT:      -4.7     10.957     11.716
REMARK  3 active torsions:
REMARK  status: ('A' for Active; 'I' for Inactive)
REMARK    1  A    between atoms: C1_1  and  C9_9 
REMARK    2  A    between atoms: C5_5  and  C8_8 
REMARK    3  A    between atoms: C6_6  and  C9_9 
ROOT
HETATM    1  C2  UNL     1     -34.074  18.872  -0.578  1.00 20.00     0.005 C 
HETATM    2  C3  UNL     1     -33.706  18.310  -1.955  1.00 20.00     0.008 C 
HETATM    3  C4  UNL     1     -34.735  16.558  -0.672  1.00 20.00     0.012 C 
HETATM    4  C5  UNL     1     -34.355  17.659   0.314  1.00 20.00    -0.014 C 
HETATM    5  C6  UNL     1     -33.748  16.786  -1.813  1.00 20.00     0.030 C 
ENDROOT
BRANCH   5   6
HETATM    6  C9  UNL     1     -34.141  16.075  -3.097  1.00 20.00     0.274 C 
HETATM    7  F12 UNL     1     -34.761  14.912  -2.756  1.00 20.00    -0.238 F 
BRANCH   6   8
HETATM    8  C1  UNL     1     -32.992  15.681  -4.020  1.00 20.00     0.208 C 
HETATM    9  O10 UNL     1     -32.820  16.401  -5.042  1.00 20.00    -0.646 OA
HETATM   10  O11 UNL     1     -32.353  14.656  -3.647  1.00 20.00    -0.646 OA
ENDBRANCH   6   8
ENDBRANCH   5   6
BRANCH   4  11
HETATM   11  C8  UNL     1     -35.425  17.919   1.361  1.00 20.00     0.000 C 
HETATM   12  C7  UNL     1     -34.846  18.025   2.738  1.00 20.00     0.005 C 
ENDBRANCH   4  11
TORSDOF 3
ENDMDL
MODEL 7
REMARK VINA RESULT:      -4.5      3.264      5.147
REMARK  3 active torsions:
REMARK  status: ('A' for Active; 'I' for Inactive)
REMARK    1  A    between atoms: C1_1  and  C9_9 
REMARK    2  A    between atoms: C5_5  and  C8_8 
REMARK    3  A    between atoms: C6_6  and  C9_9 
ROOT
HETATM    1  C2  UNL     1     -31.560   7.204   2.685  1.00 20.00     0.005 C 
HETATM    2  C3  UNL     1     -32.171   5.958   3.332  1.00 20.00     0.008 C 
HETATM    3  C4  UNL     1     -33.903   7.605   3.078  1.00 20.00     0.012 C 
HETATM    4  C5  UNL     1     -32.573   8.333   2.899  1.00 20.00    -0.014 C 
HETATM    5  C6  UNL     1     -33.505   6.406   3.935  1.00 20.00     0.030 C 
ENDROOT
BRANCH   5   6
HETATM    6  C9  UNL     1     -34.555   5.308   3.953  1.00 20.00     0.274 C 
HETATM    7  F12 UNL     1     -35.721   5.840   3.494  1.00 20.00    -0.238 F 
BRANCH   6   8
HETATM    8  C1  UNL     1     -34.875   4.713   5.321  1.00 20.00     0.208 C 
HETATM    9  O10 UNL     1     -34.832   5.505   6.303  1.00 20.00    -0.646 OA
HETATM   10  O11 UNL     1     -35.136   3.476   5.302  1.00 20.00    -0.646 OA
ENDBRANCH   6   8
ENDBRANCH   5   6
BRANCH   4  11
HETATM   11  C8  UNL     1     -32.594   9.344   1.765  1.00 20.00     0.000 C 
HETATM   12  C7  UNL     1     -31.889   8.833   0.547  1.00 20.00     0.005 C 
ENDBRANCH   4  11
TORSDOF 3
ENDMDL
MODEL 8
REMARK VINA RESULT:      -4.5     11.316     12.528
REMARK  3 active torsions:
REMARK  status: ('A' for Active; 'I' for Inactive)
REMARK    1  A    between atoms: C1_1  and  C9_9 
REMARK    2  A    between atoms: C5_5  and  C8_8 
REMARK    3  A    between atoms: C6_6  and  C9_9 
ROOT
HETATM    1  C2  UNL     1     -33.980  13.753  -3.476  1.00 20.00     0.005 C 
HETATM    2  C3  UNL     1     -34.405  13.248  -4.858  1.00 20.00     0.008 C 
HETATM    3  C4  UNL     1     -35.005  15.569  -4.682  1.00 20.00     0.012 C 
HETATM    4  C5  UNL     1     -34.714  15.082  -3.265  1.00 20.00    -0.014 C 
HETATM    5  C6  UNL     1     -35.401  14.279  -5.396  1.00 20.00     0.030 C 
ENDROOT
BRANCH   5   6
HETATM    6  C9  UNL     1     -35.379  14.402  -6.909  1.00 20.00     0.274 C 
HETATM    7  F12 UNL     1     -34.152  14.866  -7.272  1.00 20.00    -0.238 F 
BRANCH   6   8
HETATM    8  C1  UNL     1     -36.389  15.372  -7.515  1.00 20.00     0.208 C 
HETATM    9  O10 UNL     1     -35.935  16.478  -7.918  1.00 20.00    -0.646 OA
HETATM   10  O11 UNL     1     -37.579  14.944  -7.526  1.00 20.00    -0.646 OA
ENDBRANCH   6   8
ENDBRANCH   5   6
BRANCH   4  11
HETATM   11  C8  UNL     1     -33.920  16.081  -2.441  1.00 20.00     0.000 C 
HETATM   12  C7  UNL     1     -34.648  16.481  -1.195  1.00 20.00     0.005 C 
ENDBRANCH   4  11
TORSDOF 3
ENDMDL
MODEL 9
REMARK VINA RESULT:      -4.3     11.625     12.364
REMARK  3 active torsions:
REMARK  status: ('A' for Active; 'I' for Inactive)
REMARK    1  A    between atoms: C1_1  and  C9_9 
REMARK    2  A    between atoms: C5_5  and  C8_8 
REMARK    3  A    between atoms: C6_6  and  C9_9 
ROOT
HETATM    1  C2  UNL     1     -33.299  15.929  -3.839  1.00 20.00     0.005 C 
HETATM    2  C3  UNL     1     -34.192  15.359  -4.945  1.00 20.00     0.008 C 
HETATM    3  C4  UNL     1     -35.558  15.793  -3.016  1.00 20.00     0.012 C 
HETATM    4  C5  UNL     1     -34.108  15.822  -2.542  1.00 20.00    -0.014 C 
HETATM    5  C6  UNL     1     -35.480  14.904  -4.254  1.00 20.00     0.030 C 
ENDROOT
BRANCH   5   6
HETATM    6  C9  UNL     1     -36.707  15.006  -5.144  1.00 20.00     0.274 C 
HETATM    7  F12 UNL     1     -36.571  16.122  -5.913  1.00 20.00    -0.238 F 
BRANCH   6   8
HETATM    8  C1  UNL     1     -38.043  15.155  -4.423  1.00 20.00     0.208 C 
HETATM    9  O10 UNL     1     -38.660  16.241  -4.601  1.00 20.00    -0.646 OA
HETATM   10  O11 UNL     1     -38.366  14.158  -3.714  1.00 20.00    -0.646 OA
ENDBRANCH   6   8
ENDBRANCH   5   6
BRANCH   4  11
HETATM   11  C8  UNL     1     -33.822  16.947  -1.562  1.00 20.00     0.000 C 
HETATM   12  C7  UNL     1     -34.748  16.913  -0.386  1.00 20.00     0.005 C 
ENDBRANCH   4  11
TORSDOF 3
ENDMDL
