MODEL 1
REMARK VINA RESULT:      -4.4      0.000      0.000
REMARK  1 active torsions:
REMARK  status: ('A' for Active; 'I' for Inactive)
REMARK    1  A    between atoms: C4_4  and  C10_10 
ROOT
HETATM    1  C1  UNL     1     -33.394  15.593  -3.017  1.00 20.00     0.006 C 
HETATM    2  C2  UNL     1     -33.267  15.685  -4.539  1.00 20.00     0.009 C 
HETATM    3  C3  UNL     1     -35.787  15.852  -4.835  1.00 20.00     0.013 C 
HETATM    4  C4  UNL     1     -34.819  15.835  -2.484  1.00 20.00    -0.001 C 
HETATM    5  C5  UNL     1     -35.665  16.626  -3.502  1.00 20.00    -0.013 C 
HETATM    6  C6  UNL     1     -34.490  15.138  -5.297  1.00 20.00    -0.047 C 
HETATM    7  C7  UNL     1     -37.067  16.969  -2.989  1.00 20.00     0.010 C 
HETATM    8  C8  UNL     1     -34.612  13.616  -5.081  1.00 20.00     0.015 C 
HETATM    9  C9  UNL     1     -34.287  15.376  -6.807  1.00 20.00     0.015 C 
ENDROOT
BRANCH   4  10
HETATM   10  C10 UNL     1     -34.746  16.495  -1.105  1.00 20.00     0.090 C 
HETATM   11 BR11 UNL     1     -33.571  18.034  -1.194  1.00 20.00    -0.096 Br
ENDBRANCH   4  10
TORSDOF 1
ENDMDL
MODEL 2
REMARK VINA RESULT:      -4.4      2.526      4.390
REMARK  1 active torsions:
REMARK  status: ('A' for Active; 'I' for Inactive)
REMARK    1  A    between atoms: C4_4  and  C10_10 
ROOT
HETATM    1  C1  UNL     1     -34.124  17.059  -5.018  1.00 20.00     0.006 C 
HETATM    2  C2  UNL     1     -33.847  17.242  -3.525  1.00 20.00     0.009 C 
HETATM    3  C3  UNL     1     -34.793  14.947  -2.970  1.00 20.00     0.013 C 
HETATM    4  C4  UNL     1     -34.591  15.643  -5.408  1.00 20.00    -0.001 C 
HETATM    5  C5  UNL     1     -34.170  14.608  -4.344  1.00 20.00    -0.013 C 
HETATM    6  C6  UNL     1     -34.809  16.457  -2.615  1.00 20.00    -0.047 C 
HETATM    7  C7  UNL     1     -34.535  13.169  -4.721  1.00 20.00     0.010 C 
HETATM    8  C8  UNL     1     -36.240  17.020  -2.744  1.00 20.00     0.015 C 
HETATM    9  C9  UNL     1     -34.370  16.641  -1.148  1.00 20.00     0.015 C 
ENDROOT
BRANCH   4  10
HETATM   10  C10 UNL     1     -34.096  15.309  -6.817  1.00 20.00     0.090 C 
HETATM   11 BR11 UNL     1     -35.603  14.785  -7.918  1.00 20.00    -0.096 Br
ENDBRANCH   4  10
TORSDOF 1
ENDMDL
MODEL 3
REMARK VINA RESULT:      -4.3      2.796      4.389
REMARK  1 active torsions:
REMARK  status: ('A' for Active; 'I' for Inactive)
REMARK    1  A    between atoms: C4_4  and  C10_10 
ROOT
HETATM    1  C1  UNL     1     -35.001  13.943  -5.480  1.00 20.00     0.006 C 
HETATM    2  C2  UNL     1     -35.131  14.440  -4.039  1.00 20.00     0.009 C 
HETATM    3  C3  UNL     1     -33.984  16.641  -4.593  1.00 20.00     0.013 C 
HETATM    4  C4  UNL     1     -34.485  15.003  -6.472  1.00 20.00    -0.001 C 
HETATM    5  C5  UNL     1     -34.724  16.429  -5.934  1.00 20.00    -0.013 C 
HETATM    6  C6  UNL     1     -34.029  15.431  -3.623  1.00 20.00    -0.047 C 
HETATM    7  C7  UNL     1     -34.308  17.526  -6.918  1.00 20.00     0.010 C 
HETATM    8  C8  UNL     1     -32.660  14.721  -3.591  1.00 20.00     0.015 C 
HETATM    9  C9  UNL     1     -34.323  15.933  -2.195  1.00 20.00     0.015 C 
ENDROOT
BRANCH   4  10
HETATM   10  C10 UNL     1     -35.104  14.759  -7.852  1.00 20.00     0.090 C 
HETATM   11 BR11 UNL     1     -37.015  15.070  -7.760  1.00 20.00    -0.096 Br
ENDBRANCH   4  10
TORSDOF 1
ENDMDL
MODEL 4
REMARK VINA RESULT:      -4.3      2.341      3.996
REMARK  1 active torsions:
REMARK  status: ('A' for Active; 'I' for Inactive)
REMARK    1  A    between atoms: C4_4  and  C10_10 
ROOT
HETATM    1  C1  UNL     1     -33.694  17.078  -5.297  1.00 20.00     0.006 C 
HETATM    2  C2  UNL     1     -33.034  15.942  -4.513  1.00 20.00     0.009 C 
HETATM    3  C3  UNL     1     -34.551  14.198  -5.575  1.00 20.00     0.013 C 
HETATM    4  C4  UNL     1     -34.693  16.608  -6.373  1.00 20.00    -0.001 C 
HETATM    5  C5  UNL     1     -34.417  15.149  -6.787  1.00 20.00    -0.013 C 
HETATM    6  C6  UNL     1     -33.968  14.748  -4.246  1.00 20.00    -0.047 C 
HETATM    7  C7  UNL     1     -35.327  14.656  -7.916  1.00 20.00     0.010 C 
HETATM    8  C8  UNL     1     -35.109  15.168  -3.297  1.00 20.00     0.015 C 
HETATM    9  C9  UNL     1     -33.166  13.636  -3.541  1.00 20.00     0.015 C 
ENDROOT
BRANCH   4  10
HETATM   10  C10 UNL     1     -34.681  17.590  -7.548  1.00 20.00     0.090 C 
HETATM   11 BR11 UNL     1     -33.794  19.226  -7.005  1.00 20.00    -0.096 Br
ENDBRANCH   4  10
TORSDOF 1
ENDMDL
MODEL 5
REMARK VINA RESULT:      -4.3      1.499      2.318
REMARK  1 active torsions:
REMARK  status: ('A' for Active; 'I' for Inactive)
REMARK    1  A    between atoms: C4_4  and  C10_10 
ROOT
HETATM    1  C1  UNL     1     -34.273  16.106  -2.292  1.00 20.00     0.006 C 
HETATM    2  C2  UNL     1     -34.132  14.738  -2.962  1.00 20.00     0.009 C 
HETATM    3  C3  UNL     1     -34.426  15.737  -5.282  1.00 20.00     0.013 C 
HETATM    4  C4  UNL     1     -34.306  17.293  -3.275  1.00 20.00    -0.001 C 
HETATM    5  C5  UNL     1     -33.666  16.913  -4.625  1.00 20.00    -0.013 C 
HETATM    6  C6  UNL     1     -34.881  14.624  -4.302  1.00 20.00    -0.047 C 
HETATM    7  C7  UNL     1     -33.594  18.081  -5.613  1.00 20.00     0.010 C 
HETATM    8  C8  UNL     1     -36.404  14.708  -4.070  1.00 20.00     0.015 C 
HETATM    9  C9  UNL     1     -34.583  13.244  -4.924  1.00 20.00     0.015 C 
ENDROOT
BRANCH   4  10
HETATM   10  C10 UNL     1     -33.668  18.520  -2.618  1.00 20.00     0.090 C 
HETATM   11 BR11 UNL     1     -33.447  18.189  -0.721  1.00 20.00    -0.096 Br
ENDBRANCH   4  10
TORSDOF 1
ENDMDL
MODEL 6
REMARK VINA RESULT:      -4.3      2.512      4.049
REMARK  1 active torsions:
REMARK  status: ('A' for Active; 'I' for Inactive)
REMARK    1  A    between atoms: C4_4  and  C10_10 
ROOT
HETATM    1  C1  UNL     1     -33.575  15.276  -4.410  1.00 20.00     0.006 C 
HETATM    2  C2  UNL     1     -33.432  15.657  -2.936  1.00 20.00     0.009 C 
HETATM    3  C3  UNL     1     -35.934  16.044  -2.693  1.00 20.00     0.013 C 
HETATM    4  C4  UNL     1     -35.033  15.132  -4.889  1.00 20.00    -0.001 C 
HETATM    5  C5  UNL     1     -35.983  14.873  -3.702  1.00 20.00    -0.013 C 
HETATM    6  C6  UNL     1     -34.519  16.626  -2.437  1.00 20.00    -0.047 C 
HETATM    7  C7  UNL     1     -37.435  14.636  -4.128  1.00 20.00     0.010 C 
HETATM    8  C8  UNL     1     -34.372  17.995  -3.134  1.00 20.00     0.015 C 
HETATM    9  C9  UNL     1     -34.327  16.855  -0.924  1.00 20.00     0.015 C 
ENDROOT
BRANCH   4  10
HETATM   10  C10 UNL     1     -35.111  14.061  -5.980  1.00 20.00     0.090 C 
HETATM   11 BR11 UNL     1     -35.088  14.916  -7.719  1.00 20.00    -0.096 Br
ENDBRANCH   4  10
TORSDOF 1
ENDMDL
MODEL 7
REMARK VINA RESULT:      -4.2      1.595      2.406
REMARK  1 active torsions:
REMARK  status: ('A' for Active; 'I' for Inactive)
REMARK    1  A    between atoms: C4_4  and  C10_10 
ROOT
HETATM    1  C1  UNL     1     -34.718  14.433  -4.061  1.00 20.00     0.006 C 
HETATM    2  C2  UNL     1     -34.864  13.960  -5.508  1.00 20.00     0.009 C 
HETATM    3  C3  UNL     1     -34.820  16.343  -6.394  1.00 20.00     0.013 C 
HETATM    4  C4  UNL     1     -34.436  15.941  -3.913  1.00 20.00    -0.001 C 
HETATM    5  C5  UNL     1     -33.841  16.524  -5.211  1.00 20.00    -0.013 C 
HETATM    6  C6  UNL     1     -35.560  14.980  -6.427  1.00 20.00    -0.047 C 
HETATM    7  C7  UNL     1     -33.461  18.003  -5.093  1.00 20.00     0.010 C 
HETATM    8  C8  UNL     1     -37.032  15.161  -6.002  1.00 20.00     0.015 C 
HETATM    9  C9  UNL     1     -35.559  14.434  -7.869  1.00 20.00     0.015 C 
ENDROOT
BRANCH   4  10
HETATM   10  C10 UNL     1     -33.563  16.180  -2.678  1.00 20.00     0.090 C 
HETATM   11 BR11 UNL     1     -34.697  16.614  -1.167  1.00 20.00    -0.096 Br
ENDBRANCH   4  10
TORSDOF 1
ENDMDL
MODEL 8
REMARK VINA RESULT:      -4.2      2.434      4.301
REMARK  1 active torsions:
REMARK  status: ('A' for Active; 'I' for Inactive)
REMARK    1  A    between atoms: C4_4  and  C10_10 
ROOT
HETATM    1  C1  UNL     1     -36.450  16.617  -3.018  1.00 20.00     0.006 C 
HETATM    2  C2  UNL     1     -35.474  17.760  -2.736  1.00 20.00     0.009 C 
HETATM    3  C3  UNL     1     -33.525  16.153  -2.444  1.00 20.00     0.013 C 
HETATM    4  C4  UNL     1     -35.782  15.236  -3.173  1.00 20.00    -0.001 C 
HETATM    5  C5  UNL     1     -34.292  15.380  -3.542  1.00 20.00    -0.013 C 
HETATM    6  C6  UNL     1     -34.290  17.358  -1.838  1.00 20.00    -0.047 C 
HETATM    7  C7  UNL     1     -33.596  14.038  -3.793  1.00 20.00     0.010 C 
HETATM    8  C8  UNL     1     -34.793  17.013  -0.420  1.00 20.00     0.015 C 
HETATM    9  C9  UNL     1     -33.332  18.559  -1.709  1.00 20.00     0.015 C 
ENDROOT
BRANCH   4  10
HETATM   10  C10 UNL     1     -36.580  14.389  -4.168  1.00 20.00     0.090 C 
HETATM   11 BR11 UNL     1     -36.575  15.261  -5.899  1.00 20.00    -0.096 Br
ENDBRANCH   4  10
TORSDOF 1
ENDMDL
MODEL 9
REMARK VINA RESULT:      -4.1      1.240      2.758
REMARK  1 active torsions:
REMARK  status: ('A' for Active; 'I' for Inactive)
REMARK    1  A    between atoms: C4_4  and  C10_10 
ROOT
HETATM    1  C1  UNL     1     -36.094  16.437  -4.383  1.00 20.00     0.006 C 
HETATM    2  C2  UNL     1     -36.553  15.852  -5.720  1.00 20.00     0.009 C 
HETATM    3  C3  UNL     1     -34.480  14.391  -5.903  1.00 20.00     0.013 C 
HETATM    4  C4  UNL     1     -34.845  15.756  -3.790  1.00 20.00    -0.001 C 
HETATM    5  C5  UNL     1     -34.658  14.339  -4.368  1.00 20.00    -0.013 C 
HETATM    6  C6  UNL     1     -35.396  15.408  -6.633  1.00 20.00    -0.047 C 
HETATM    7  C7  UNL     1     -33.478  13.582  -3.749  1.00 20.00     0.010 C 
HETATM    8  C8  UNL     1     -34.576  16.634  -7.086  1.00 20.00     0.015 C 
HETATM    9  C9  UNL     1     -35.983  14.750  -7.898  1.00 20.00     0.015 C 
ENDROOT
BRANCH   4  10
HETATM   10  C10 UNL     1     -34.921  15.788  -2.261  1.00 20.00     0.090 C 
HETATM   11 BR11 UNL     1     -33.842  17.256  -1.597  1.00 20.00    -0.096 Br
ENDBRANCH   4  10
TORSDOF 1
ENDMDL
