MODEL 1
REMARK VINA RESULT:      -4.0      0.000      0.000
REMARK  1 active torsions:
REMARK  status: ('A' for Active; 'I' for Inactive)
REMARK    1  A    between atoms: C6_6  and  C8_8 
ROOT
HETATM    1  C1  UNL     1     -33.293  14.267  -3.756  1.00 20.00     0.011 C 
HETATM    2  C2  UNL     1     -33.306  15.781  -3.553  1.00 20.00     0.011 C 
HETATM    3  C3  UNL     1     -34.808  16.249  -1.480  1.00 20.00     0.017 A 
HETATM    4  C4  UNL     1     -34.386  13.782  -4.702  1.00 20.00     0.074 C 
HETATM    5  C5  UNL     1     -35.819  15.974  -3.862  1.00 20.00     0.083 C 
HETATM    6  C6  UNL     1     -34.674  17.565  -2.196  1.00 20.00     0.009 A 
HETATM    7  C7  UNL     1     -34.626  16.262  -2.986  1.00 20.00    -0.027 A 
HETATM    8  S9  UNL     1     -36.041  14.189  -4.072  1.00 20.00    -0.168 SA
ENDROOT
BRANCH   6   9
HETATM    9  C8  UNL     1     -33.478  18.425  -1.970  1.00 20.00     0.120 C 
HETATM   10 CL10 UNL     1     -32.903  18.302  -0.284  1.00 20.00    -0.130 Cl
ENDBRANCH   6   9
TORSDOF 1
ENDMDL
MODEL 2
REMARK VINA RESULT:      -3.9      1.420      1.575
REMARK  1 active torsions:
REMARK  status: ('A' for Active; 'I' for Inactive)
REMARK    1  A    between atoms: C6_6  and  C8_8 
ROOT
HETATM    1  C1  UNL     1     -34.809  13.562  -3.915  1.00 20.00     0.011 C 
HETATM    2  C2  UNL     1     -34.073  14.747  -3.291  1.00 20.00     0.011 C 
HETATM    3  C3  UNL     1     -35.849  16.606  -2.883  1.00 20.00     0.017 A 
HETATM    4  C4  UNL     1     -34.815  13.597  -5.439  1.00 20.00     0.074 C 
HETATM    5  C5  UNL     1     -34.666  16.332  -5.185  1.00 20.00     0.083 C 
HETATM    6  C6  UNL     1     -34.511  17.289  -2.802  1.00 20.00     0.009 A 
HETATM    7  C7  UNL     1     -34.688  16.070  -3.700  1.00 20.00    -0.027 A 
HETATM    8  S9  UNL     1     -35.643  15.087  -6.067  1.00 20.00    -0.168 SA
ENDROOT
BRANCH   6   9
HETATM    9  C8  UNL     1     -33.729  17.261  -1.535  1.00 20.00     0.120 C 
HETATM   10 CL10 UNL     1     -34.774  16.880  -0.138  1.00 20.00    -0.130 Cl
ENDBRANCH   6   9
TORSDOF 1
ENDMDL
MODEL 3
REMARK VINA RESULT:      -3.9      2.110      2.520
REMARK  1 active torsions:
REMARK  status: ('A' for Active; 'I' for Inactive)
REMARK    1  A    between atoms: C6_6  and  C8_8 
ROOT
HETATM    1  C1  UNL     1     -34.042  16.901  -6.401  1.00 20.00     0.011 C 
HETATM    2  C2  UNL     1     -34.345  17.045  -4.909  1.00 20.00     0.011 C 
HETATM    3  C3  UNL     1     -33.120  15.092  -3.701  1.00 20.00     0.017 A 
HETATM    4  C4  UNL     1     -35.081  16.069  -7.143  1.00 20.00     0.074 C 
HETATM    5  C5  UNL     1     -35.482  14.780  -4.747  1.00 20.00     0.083 C 
HETATM    6  C6  UNL     1     -34.135  15.612  -2.720  1.00 20.00     0.009 A 
HETATM    7  C7  UNL     1     -34.411  15.700  -4.216  1.00 20.00    -0.027 A 
HETATM    8  S9  UNL     1     -35.174  14.378  -6.486  1.00 20.00    -0.168 SA
ENDROOT
BRANCH   6   9
HETATM    9  C8  UNL     1     -33.825  16.802  -1.877  1.00 20.00     0.120 C 
HETATM   10 CL10 UNL     1     -34.736  16.762  -0.342  1.00 20.00    -0.130 Cl
ENDBRANCH   6   9
TORSDOF 1
ENDMDL
MODEL 4
REMARK VINA RESULT:      -3.8      3.084      4.402
REMARK  1 active torsions:
REMARK  status: ('A' for Active; 'I' for Inactive)
REMARK    1  A    between atoms: C6_6  and  C8_8 
ROOT
HETATM    1  C1  UNL     1     -34.018  17.133  -0.779  1.00 20.00     0.011 C 
HETATM    2  C2  UNL     1     -34.855  16.315  -1.762  1.00 20.00     0.011 C 
HETATM    3  C3  UNL     1     -33.353  15.868  -3.840  1.00 20.00     0.017 A 
HETATM    4  C4  UNL     1     -34.185  18.637  -0.961  1.00 20.00     0.074 C 
HETATM    5  C5  UNL     1     -34.725  18.066  -3.597  1.00 20.00     0.083 C 
HETATM    6  C6  UNL     1     -34.763  15.587  -4.283  1.00 20.00     0.009 A 
HETATM    7  C7  UNL     1     -34.500  16.628  -3.201  1.00 20.00    -0.027 A 
HETATM    8  S9  UNL     1     -33.671  19.169  -2.620  1.00 20.00    -0.168 SA
ENDROOT
BRANCH   6   9
HETATM    9  C8  UNL     1     -35.388  14.263  -4.005  1.00 20.00     0.120 C 
HETATM   10 CL10 UNL     1     -34.602  12.967  -4.948  1.00 20.00    -0.130 Cl
ENDBRANCH   6   9
TORSDOF 1
ENDMDL
MODEL 5
REMARK VINA RESULT:      -3.8     11.051     11.925
REMARK  1 active torsions:
REMARK  status: ('A' for Active; 'I' for Inactive)
REMARK    1  A    between atoms: C6_6  and  C8_8 
ROOT
HETATM    1  C1  UNL     1     -34.986   4.919   3.405  1.00 20.00     0.011 C 
HETATM    2  C2  UNL     1     -34.349   6.233   2.953  1.00 20.00     0.011 C 
HETATM    3  C3  UNL     1     -31.796   6.029   3.419  1.00 20.00     0.017 A 
HETATM    4  C4  UNL     1     -35.462   4.954   4.853  1.00 20.00     0.074 C 
HETATM    5  C5  UNL     1     -33.462   6.797   5.265  1.00 20.00     0.083 C 
HETATM    6  C6  UNL     1     -32.063   7.497   3.223  1.00 20.00     0.009 A 
HETATM    7  C7  UNL     1     -33.149   6.598   3.803  1.00 20.00    -0.027 A 
HETATM    8  S9  UNL     1     -34.086   5.263   5.998  1.00 20.00    -0.168 SA
ENDROOT
BRANCH   6   9
HETATM    9  C8  UNL     1     -32.129   8.071   1.849  1.00 20.00     0.120 C 
HETATM   10 CL10 UNL     1     -32.604   9.792   1.890  1.00 20.00    -0.130 Cl
ENDBRANCH   6   9
TORSDOF 1
ENDMDL
MODEL 6
REMARK VINA RESULT:      -3.8      1.595      2.218
REMARK  1 active torsions:
REMARK  status: ('A' for Active; 'I' for Inactive)
REMARK    1  A    between atoms: C6_6  and  C8_8 
ROOT
HETATM    1  C1  UNL     1     -35.068  16.365  -5.905  1.00 20.00     0.011 C 
HETATM    2  C2  UNL     1     -35.511  16.612  -4.463  1.00 20.00     0.011 C 
HETATM    3  C3  UNL     1     -33.559  15.825  -2.932  1.00 20.00     0.017 A 
HETATM    4  C4  UNL     1     -35.485  14.997  -6.432  1.00 20.00     0.074 C 
HETATM    5  C5  UNL     1     -35.354  14.161  -3.815  1.00 20.00     0.083 C 
HETATM    6  C6  UNL     1     -34.766  15.928  -2.040  1.00 20.00     0.009 A 
HETATM    7  C7  UNL     1     -34.939  15.579  -3.514  1.00 20.00    -0.027 A 
HETATM    8  S9  UNL     1     -34.758  13.654  -5.449  1.00 20.00    -0.168 SA
ENDROOT
BRANCH   6   9
HETATM    9  C8  UNL     1     -35.164  17.243  -1.463  1.00 20.00     0.120 C 
HETATM   10 CL10 UNL     1     -34.966  17.256   0.312  1.00 20.00    -0.130 Cl
ENDBRANCH   6   9
TORSDOF 1
ENDMDL
MODEL 7
REMARK VINA RESULT:      -3.7      2.389      3.098
REMARK  1 active torsions:
REMARK  status: ('A' for Active; 'I' for Inactive)
REMARK    1  A    between atoms: C6_6  and  C8_8 
ROOT
HETATM    1  C1  UNL     1     -34.490  15.227  -7.185  1.00 20.00     0.011 C 
HETATM    2  C2  UNL     1     -34.394  15.715  -5.739  1.00 20.00     0.011 C 
HETATM    3  C3  UNL     1     -35.613  13.947  -4.268  1.00 20.00     0.017 A 
HETATM    4  C4  UNL     1     -35.712  15.769  -7.918  1.00 20.00     0.074 C 
HETATM    5  C5  UNL     1     -36.912  15.870  -5.445  1.00 20.00     0.083 C 
HETATM    6  C6  UNL     1     -35.491  15.180  -3.414  1.00 20.00     0.009 A 
HETATM    7  C7  UNL     1     -35.609  15.313  -4.928  1.00 20.00    -0.027 A 
HETATM    8  S9  UNL     1     -37.255  15.250  -7.112  1.00 20.00    -0.168 SA
ENDROOT
BRANCH   6   9
HETATM    9  C8  UNL     1     -34.231  15.456  -2.668  1.00 20.00     0.120 C 
HETATM   10 CL10 UNL     1     -34.553  16.383  -1.177  1.00 20.00    -0.130 Cl
ENDBRANCH   6   9
TORSDOF 1
ENDMDL
MODEL 8
REMARK VINA RESULT:      -3.7      3.090      4.222
REMARK  1 active torsions:
REMARK  status: ('A' for Active; 'I' for Inactive)
REMARK    1  A    between atoms: C6_6  and  C8_8 
ROOT
HETATM    1  C1  UNL     1     -33.783  18.153  -4.596  1.00 20.00     0.011 C 
HETATM    2  C2  UNL     1     -33.348  16.716  -4.309  1.00 20.00     0.011 C 
HETATM    3  C3  UNL     1     -35.433  15.472  -3.372  1.00 20.00     0.017 A 
HETATM    4  C4  UNL     1     -33.554  19.093  -3.418  1.00 20.00     0.074 C 
HETATM    5  C5  UNL     1     -33.874  16.871  -1.828  1.00 20.00     0.083 C 
HETATM    6  C6  UNL     1     -34.248  14.618  -3.012  1.00 20.00     0.009 A 
HETATM    7  C7  UNL     1     -34.089  16.130  -3.124  1.00 20.00    -0.027 A 
HETATM    8  S9  UNL     1     -34.493  18.569  -1.954  1.00 20.00    -0.168 SA
ENDROOT
BRANCH   6   9
HETATM    9  C8  UNL     1     -33.681  13.663  -4.006  1.00 20.00     0.120 C 
HETATM   10 CL10 UNL     1     -34.875  13.262  -5.271  1.00 20.00    -0.130 Cl
ENDBRANCH   6   9
TORSDOF 1
ENDMDL
MODEL 9
REMARK VINA RESULT:      -3.7     13.726     15.166
REMARK  1 active torsions:
REMARK  status: ('A' for Active; 'I' for Inactive)
REMARK    1  A    between atoms: C6_6  and  C8_8 
ROOT
HETATM    1  C1  UNL     1     -40.867   5.682  -0.978  1.00 20.00     0.011 C 
HETATM    2  C2  UNL     1     -40.908   4.260  -1.535  1.00 20.00     0.011 C 
HETATM    3  C3  UNL     1     -42.921   4.154  -3.181  1.00 20.00     0.017 A 
HETATM    4  C4  UNL     1     -41.660   5.840   0.314  1.00 20.00     0.074 C 
HETATM    5  C5  UNL     1     -43.230   3.786  -0.623  1.00 20.00     0.083 C 
HETATM    6  C6  UNL     1     -42.567   2.725  -2.871  1.00 20.00     0.009 A 
HETATM    7  C7  UNL     1     -42.324   3.810  -1.829  1.00 20.00    -0.027 A 
HETATM    8  S9  UNL     1     -43.417   5.449   0.069  1.00 20.00    -0.168 SA
ENDROOT
BRANCH   6   9
HETATM    9  C8  UNL     1     -41.466   2.047  -3.612  1.00 20.00     0.120 C 
HETATM   10 CL10 UNL     1     -41.784   0.298  -3.783  1.00 20.00    -0.130 Cl
ENDBRANCH   6   9
TORSDOF 1
ENDMDL
