MODEL 1
REMARK VINA RESULT:      -4.1      0.000      0.000
REMARK  3 active torsions:
REMARK  status: ('A' for Active; 'I' for Inactive)
REMARK    1  A    between atoms: C4_4  and  C6_6 
REMARK    2  A    between atoms: C5_5  and  C8_8 
REMARK    3  A    between atoms: C6_6  and  C9_9 
ROOT
HETATM    1  C3  UNL     1     -35.393  16.902  -3.391  1.00 20.00     0.017 A 
HETATM    2  C5  UNL     1     -34.317  16.979  -2.345  1.00 20.00     0.009 A 
HETATM    3  C6  UNL     1     -34.201  15.962  -3.474  1.00 20.00    -0.032 A 
ENDROOT
BRANCH   3   4
HETATM    4  C4  UNL     1     -34.387  14.457  -3.235  1.00 20.00    -0.006 A 
HETATM    5  C1  UNL     1     -35.146  13.573  -4.186  1.00 20.00     0.006 A 
HETATM    6  C2  UNL     1     -33.658  13.414  -4.035  1.00 20.00     0.006 A 
ENDBRANCH   3   4
BRANCH   3   7
HETATM    7  C9  UNL     1     -33.173  16.272  -4.536  1.00 20.00     0.006 C 
HETATM    8  C7  UNL     1     -33.803  16.654  -5.843  1.00 20.00     0.006 C 
ENDBRANCH   3   7
BRANCH   2   9
HETATM    9  C8  UNL     1     -34.606  16.573  -0.941  1.00 20.00     0.120 C 
HETATM   10 CL10 UNL     1     -34.063  17.818   0.217  1.00 20.00    -0.130 Cl
ENDBRANCH   2   9
TORSDOF 3
ENDMDL
MODEL 2
REMARK VINA RESULT:      -4.0      1.434      2.515
REMARK  3 active torsions:
REMARK  status: ('A' for Active; 'I' for Inactive)
REMARK    1  A    between atoms: C4_4  and  C6_6 
REMARK    2  A    between atoms: C5_5  and  C8_8 
REMARK    3  A    between atoms: C6_6  and  C9_9 
ROOT
HETATM    1  C3  UNL     1     -33.641  16.008  -4.262  1.00 20.00     0.017 A 
HETATM    2  C5  UNL     1     -33.648  15.944  -2.761  1.00 20.00     0.009 A 
HETATM    3  C6  UNL     1     -34.743  15.241  -3.552  1.00 20.00    -0.032 A 
ENDROOT
BRANCH   3   4
HETATM    4  C4  UNL     1     -36.187  15.761  -3.581  1.00 20.00    -0.006 A 
HETATM    5  C1  UNL     1     -36.989  15.858  -4.849  1.00 20.00     0.006 A 
HETATM    6  C2  UNL     1     -37.370  14.857  -3.794  1.00 20.00     0.006 A 
ENDBRANCH   3   4
BRANCH   3   7
HETATM    7  C9  UNL     1     -34.654  13.734  -3.602  1.00 20.00     0.006 C 
HETATM    8  C7  UNL     1     -34.419  13.224  -4.994  1.00 20.00     0.006 C 
ENDBRANCH   3   7
BRANCH   2   9
HETATM    9  C8  UNL     1     -33.914  17.172  -1.960  1.00 20.00     0.120 C 
HETATM   10 CL10 UNL     1     -34.659  16.770  -0.389  1.00 20.00    -0.130 Cl
ENDBRANCH   2   9
TORSDOF 3
ENDMDL
MODEL 3
REMARK VINA RESULT:      -3.8     11.591     13.034
REMARK  3 active torsions:
REMARK  status: ('A' for Active; 'I' for Inactive)
REMARK    1  A    between atoms: C4_4  and  C6_6 
REMARK    2  A    between atoms: C5_5  and  C8_8 
REMARK    3  A    between atoms: C6_6  and  C9_9 
ROOT
HETATM    1  C3  UNL     1     -34.540   6.912   3.548  1.00 20.00     0.017 A 
HETATM    2  C5  UNL     1     -33.462   5.934   3.180  1.00 20.00     0.009 A 
HETATM    3  C6  UNL     1     -34.214   5.769   4.494  1.00 20.00    -0.032 A 
ENDROOT
BRANCH   3   4
HETATM    4  C4  UNL     1     -33.553   6.053   5.850  1.00 20.00    -0.006 A 
HETATM    5  C1  UNL     1     -33.141   7.435   6.277  1.00 20.00     0.006 A 
HETATM    6  C2  UNL     1     -34.276   6.740   6.976  1.00 20.00     0.006 A 
ENDBRANCH   3   4
BRANCH   3   7
HETATM    7  C9  UNL     1     -35.208   4.633   4.545  1.00 20.00     0.006 C 
HETATM    8  C7  UNL     1     -35.012   3.758   5.748  1.00 20.00     0.006 C 
ENDBRANCH   3   7
BRANCH   2   9
HETATM    9  C8  UNL     1     -32.038   6.370   3.132  1.00 20.00     0.120 C 
HETATM   10 CL10 UNL     1     -31.868   7.933   2.287  1.00 20.00    -0.130 Cl
ENDBRANCH   2   9
TORSDOF 3
ENDMDL
MODEL 4
REMARK VINA RESULT:      -3.8      1.210      2.752
REMARK  3 active torsions:
REMARK  status: ('A' for Active; 'I' for Inactive)
REMARK    1  A    between atoms: C4_4  and  C6_6 
REMARK    2  A    between atoms: C5_5  and  C8_8 
REMARK    3  A    between atoms: C6_6  and  C9_9 
ROOT
HETATM    1  C3  UNL     1     -33.221  15.290  -3.500  1.00 20.00     0.017 A 
HETATM    2  C5  UNL     1     -34.191  15.660  -2.415  1.00 20.00     0.009 A 
HETATM    3  C6  UNL     1     -34.699  15.418  -3.831  1.00 20.00    -0.032 A 
ENDROOT
BRANCH   3   4
HETATM    4  C4  UNL     1     -35.192  16.565  -4.725  1.00 20.00    -0.006 A 
HETATM    5  C1  UNL     1     -34.721  16.749  -6.141  1.00 20.00     0.006 A 
HETATM    6  C2  UNL     1     -36.145  16.348  -5.868  1.00 20.00     0.006 A 
ENDBRANCH   3   4
BRANCH   3   7
HETATM    7  C9  UNL     1     -35.455  14.129  -4.047  1.00 20.00     0.006 C 
HETATM    8  C7  UNL     1     -34.681  13.150  -4.881  1.00 20.00     0.006 C 
ENDBRANCH   3   7
BRANCH   2   9
HETATM    9  C8  UNL     1     -34.155  17.021  -1.809  1.00 20.00     0.120 C 
HETATM   10 CL10 UNL     1     -34.752  16.997  -0.127  1.00 20.00    -0.130 Cl
ENDBRANCH   2   9
TORSDOF 3
ENDMDL
MODEL 5
REMARK VINA RESULT:      -3.8      2.466      4.013
REMARK  3 active torsions:
REMARK  status: ('A' for Active; 'I' for Inactive)
REMARK    1  A    between atoms: C4_4  and  C6_6 
REMARK    2  A    between atoms: C5_5  and  C8_8 
REMARK    3  A    between atoms: C6_6  and  C9_9 
ROOT
HETATM    1  C3  UNL     1     -35.476  15.363  -3.254  1.00 20.00     0.017 A 
HETATM    2  C5  UNL     1     -34.259  14.490  -3.137  1.00 20.00     0.009 A 
HETATM    3  C6  UNL     1     -34.101  16.004  -3.156  1.00 20.00    -0.032 A 
ENDROOT
BRANCH   3   4
HETATM    4  C4  UNL     1     -33.508  16.745  -4.362  1.00 20.00    -0.006 A 
HETATM    5  C1  UNL     1     -34.358  17.294  -5.475  1.00 20.00     0.006 A 
HETATM    6  C2  UNL     1     -33.639  18.232  -4.545  1.00 20.00     0.006 A 
ENDBRANCH   3   4
BRANCH   3   7
HETATM    7  C9  UNL     1     -33.751  16.646  -1.834  1.00 20.00     0.006 C 
HETATM    8  C7  UNL     1     -34.970  17.039  -1.052  1.00 20.00     0.006 C 
ENDBRANCH   3   7
BRANCH   2   9
HETATM    9  C8  UNL     1     -33.837  13.635  -4.282  1.00 20.00     0.120 C 
HETATM   10 CL10 UNL     1     -35.087  13.594  -5.555  1.00 20.00    -0.130 Cl
ENDBRANCH   2   9
TORSDOF 3
ENDMDL
MODEL 6
REMARK VINA RESULT:      -3.7      2.376      4.027
REMARK  3 active torsions:
REMARK  status: ('A' for Active; 'I' for Inactive)
REMARK    1  A    between atoms: C4_4  and  C6_6 
REMARK    2  A    between atoms: C5_5  and  C8_8 
REMARK    3  A    between atoms: C6_6  and  C9_9 
ROOT
HETATM    1  C3  UNL     1     -33.834  17.736  -3.801  1.00 20.00     0.017 A 
HETATM    2  C5  UNL     1     -34.061  16.259  -3.956  1.00 20.00     0.009 A 
HETATM    3  C6  UNL     1     -34.629  16.987  -2.745  1.00 20.00    -0.032 A 
ENDROOT
BRANCH   3   4
HETATM    4  C4  UNL     1     -34.051  16.795  -1.336  1.00 20.00    -0.006 A 
HETATM    5  C1  UNL     1     -33.645  17.950  -0.462  1.00 20.00     0.006 A 
HETATM    6  C2  UNL     1     -34.833  17.107  -0.090  1.00 20.00     0.006 A 
ENDBRANCH   3   4
BRANCH   3   7
HETATM    7  C9  UNL     1     -36.124  17.203  -2.749  1.00 20.00     0.006 C 
HETATM    8  C7  UNL     1     -36.490  18.640  -2.981  1.00 20.00     0.006 C 
ENDBRANCH   3   7
BRANCH   2   9
HETATM    9  C8  UNL     1     -32.919  15.309  -3.845  1.00 20.00     0.120 C 
HETATM   10 CL10 UNL     1     -33.487  13.619  -3.776  1.00 20.00    -0.130 Cl
ENDBRANCH   2   9
TORSDOF 3
ENDMDL
MODEL 7
REMARK VINA RESULT:      -3.7      2.787      3.448
REMARK  3 active torsions:
REMARK  status: ('A' for Active; 'I' for Inactive)
REMARK    1  A    between atoms: C4_4  and  C6_6 
REMARK    2  A    between atoms: C5_5  and  C8_8 
REMARK    3  A    between atoms: C6_6  and  C9_9 
ROOT
HETATM    1  C3  UNL     1     -35.733  16.383  -4.271  1.00 20.00     0.017 A 
HETATM    2  C5  UNL     1     -36.829  15.765  -3.451  1.00 20.00     0.009 A 
HETATM    3  C6  UNL     1     -35.379  15.385  -3.181  1.00 20.00    -0.032 A 
ENDROOT
BRANCH   3   4
HETATM    4  C4  UNL     1     -34.818  14.005  -3.551  1.00 20.00    -0.006 A 
HETATM    5  C1  UNL     1     -34.323  13.675  -4.932  1.00 20.00     0.006 A 
HETATM    6  C2  UNL     1     -33.353  13.763  -3.787  1.00 20.00     0.006 A 
ENDBRANCH   3   4
BRANCH   3   7
HETATM    7  C9  UNL     1     -34.773  15.954  -1.920  1.00 20.00     0.006 C 
HETATM    8  C7  UNL     1     -33.754  17.017  -2.208  1.00 20.00     0.006 C 
ENDBRANCH   3   7
BRANCH   2   9
HETATM    9  C8  UNL     1     -37.792  14.818  -4.078  1.00 20.00     0.120 C 
HETATM   10 CL10 UNL     1     -38.061  15.211  -5.798  1.00 20.00    -0.130 Cl
ENDBRANCH   2   9
TORSDOF 3
ENDMDL
MODEL 8
REMARK VINA RESULT:      -3.7      2.904      3.775
REMARK  3 active torsions:
REMARK  status: ('A' for Active; 'I' for Inactive)
REMARK    1  A    between atoms: C4_4  and  C6_6 
REMARK    2  A    between atoms: C5_5  and  C8_8 
REMARK    3  A    between atoms: C6_6  and  C9_9 
ROOT
HETATM    1  C3  UNL     1     -35.165  15.811  -3.341  1.00 20.00     0.017 A 
HETATM    2  C5  UNL     1     -36.472  15.072  -3.382  1.00 20.00     0.009 A 
HETATM    3  C6  UNL     1     -35.406  14.776  -4.428  1.00 20.00    -0.032 A 
ENDROOT
BRANCH   3   4
HETATM    4  C4  UNL     1     -35.557  15.215  -5.891  1.00 20.00    -0.006 A 
HETATM    5  C1  UNL     1     -34.379  15.548  -6.764  1.00 20.00     0.006 A 
HETATM    6  C2  UNL     1     -35.201  14.321  -7.046  1.00 20.00     0.006 A 
ENDBRANCH   3   4
BRANCH   3   7
HETATM    7  C9  UNL     1     -34.682  13.459  -4.275  1.00 20.00     0.006 C 
HETATM    8  C7  UNL     1     -33.284  13.636  -3.759  1.00 20.00     0.006 C 
ENDBRANCH   3   7
BRANCH   2   9
HETATM    9  C8  UNL     1     -37.731  15.794  -3.718  1.00 20.00     0.120 C 
HETATM   10 CL10 UNL     1     -39.042  14.654  -4.128  1.00 20.00    -0.130 Cl
ENDBRANCH   2   9
TORSDOF 3
ENDMDL
MODEL 9
REMARK VINA RESULT:      -3.6      2.540      3.847
REMARK  3 active torsions:
REMARK  status: ('A' for Active; 'I' for Inactive)
REMARK    1  A    between atoms: C4_4  and  C6_6 
REMARK    2  A    between atoms: C5_5  and  C8_8 
REMARK    3  A    between atoms: C6_6  and  C9_9 
ROOT
HETATM    1  C3  UNL     1     -34.524  15.789  -5.397  1.00 20.00     0.017 A 
HETATM    2  C5  UNL     1     -33.346  16.720  -5.429  1.00 20.00     0.009 A 
HETATM    3  C6  UNL     1     -33.761  16.073  -4.114  1.00 20.00    -0.032 A 
ENDROOT
BRANCH   3   4
HETATM    4  C4  UNL     1     -34.423  16.876  -2.985  1.00 20.00    -0.006 A 
HETATM    5  C1  UNL     1     -35.692  16.434  -2.311  1.00 20.00     0.006 A 
HETATM    6  C2  UNL     1     -34.396  16.430  -1.550  1.00 20.00     0.006 A 
ENDBRANCH   3   4
BRANCH   3   7
HETATM    7  C9  UNL     1     -32.859  14.972  -3.609  1.00 20.00     0.006 C 
HETATM    8  C7  UNL     1     -33.464  13.611  -3.796  1.00 20.00     0.006 C 
ENDBRANCH   3   7
BRANCH   2   9
HETATM    9  C8  UNL     1     -33.546  18.172  -5.694  1.00 20.00     0.120 C 
HETATM   10 CL10 UNL     1     -34.576  18.433  -7.128  1.00 20.00    -0.130 Cl
ENDBRANCH   2   9
TORSDOF 3
ENDMDL
