MODEL 1
REMARK VINA RESULT:      -5.4      0.000      0.000
REMARK  1 active torsions:
REMARK  status: ('A' for Active; 'I' for Inactive)
REMARK    1  A    between atoms: C7_7  and  C11_11 
ROOT
HETATM    1  C1  UNL     1     -34.845   4.574   4.177  1.00 20.00     0.005 C 
HETATM    2  C2  UNL     1     -34.566   5.634   3.111  1.00 20.00     0.010 C 
HETATM    3  C3  UNL     1     -33.219   7.055   4.724  1.00 20.00     0.014 C 
HETATM    4  C4  UNL     1     -31.992   5.690   2.875  1.00 20.00     0.016 A 
HETATM    5  C5  UNL     1     -34.377   4.974   5.595  1.00 20.00    -0.015 C 
HETATM    6  C6  UNL     1     -34.259   6.510   5.728  1.00 20.00    -0.014 C 
HETATM    7  C7  UNL     1     -32.512   6.925   2.197  1.00 20.00     0.009 A 
HETATM    8  C8  UNL     1     -33.264   6.341   3.385  1.00 20.00    -0.035 A 
HETATM    9  C9  UNL     1     -35.296   4.336   6.638  1.00 20.00     0.010 C 
HETATM   10  C10 UNL     1     -33.890   6.971   7.140  1.00 20.00     0.010 C 
ENDROOT
BRANCH   7  11
HETATM   11  C11 UNL     1     -31.739   8.197   2.281  1.00 20.00     0.120 C 
HETATM   12 CL12 UNL     1     -32.415   9.437   1.191  1.00 20.00    -0.130 Cl
ENDBRANCH   7  11
TORSDOF 1
ENDMDL
MODEL 2
REMARK VINA RESULT:      -4.9     11.822     13.469
REMARK  1 active torsions:
REMARK  status: ('A' for Active; 'I' for Inactive)
REMARK    1  A    between atoms: C7_7  and  C11_11 
ROOT
HETATM    1  C1  UNL     1     -34.007  14.471  -4.762  1.00 20.00     0.005 C 
HETATM    2  C2  UNL     1     -33.293  15.003  -3.518  1.00 20.00     0.010 C 
HETATM    3  C3  UNL     1     -33.840  17.411  -4.104  1.00 20.00     0.014 C 
HETATM    4  C4  UNL     1     -35.124  16.233  -2.167  1.00 20.00     0.016 A 
HETATM    5  C5  UNL     1     -34.472  15.577  -5.737  1.00 20.00    -0.015 C 
HETATM    6  C6  UNL     1     -33.652  16.873  -5.540  1.00 20.00    -0.014 C 
HETATM    7  C7  UNL     1     -33.804  16.657  -1.588  1.00 20.00     0.009 A 
HETATM    8  C8  UNL     1     -33.902  16.305  -3.066  1.00 20.00    -0.035 A 
HETATM    9  C9  UNL     1     -34.443  15.043  -7.170  1.00 20.00     0.010 C 
HETATM   10  C10 UNL     1     -34.004  17.974  -6.543  1.00 20.00     0.010 C 
ENDROOT
BRANCH   7  11
HETATM   11  C11 UNL     1     -33.623  18.055  -1.104  1.00 20.00     0.120 C 
HETATM   12 CL12 UNL     1     -33.900  18.171   0.655  1.00 20.00    -0.130 Cl
ENDBRANCH   7  11
TORSDOF 1
ENDMDL
MODEL 3
REMARK VINA RESULT:      -4.6     11.429     12.548
REMARK  1 active torsions:
REMARK  status: ('A' for Active; 'I' for Inactive)
REMARK    1  A    between atoms: C7_7  and  C11_11 
ROOT
HETATM    1  C1  UNL     1     -33.532  15.087  -3.466  1.00 20.00     0.005 C 
HETATM    2  C2  UNL     1     -33.665  16.576  -3.145  1.00 20.00     0.010 C 
HETATM    3  C3  UNL     1     -36.161  16.376  -2.741  1.00 20.00     0.014 C 
HETATM    4  C4  UNL     1     -34.548  16.664  -0.716  1.00 20.00     0.016 A 
HETATM    5  C5  UNL     1     -34.885  14.345  -3.564  1.00 20.00    -0.015 C 
HETATM    6  C6  UNL     1     -36.038  15.329  -3.870  1.00 20.00    -0.014 C 
HETATM    7  C7  UNL     1     -34.735  18.038  -1.291  1.00 20.00     0.009 A 
HETATM    8  C8  UNL     1     -34.814  16.822  -2.202  1.00 20.00    -0.035 A 
HETATM    9  C9  UNL     1     -34.772  13.199  -4.570  1.00 20.00     0.010 C 
HETATM   10  C10 UNL     1     -37.389  14.640  -4.072  1.00 20.00     0.010 C 
ENDROOT
BRANCH   7  11
HETATM   11  C11 UNL     1     -35.933  18.841  -0.915  1.00 20.00     0.120 C 
HETATM   12 CL12 UNL     1     -36.605  18.307   0.649  1.00 20.00    -0.130 Cl
ENDBRANCH   7  11
TORSDOF 1
ENDMDL
MODEL 4
REMARK VINA RESULT:      -4.6     11.250     13.103
REMARK  1 active torsions:
REMARK  status: ('A' for Active; 'I' for Inactive)
REMARK    1  A    between atoms: C7_7  and  C11_11 
ROOT
HETATM    1  C1  UNL     1     -33.856  18.212  -3.731  1.00 20.00     0.005 C 
HETATM    2  C2  UNL     1     -34.734  18.586  -2.536  1.00 20.00     0.010 C 
HETATM    3  C3  UNL     1     -34.669  16.223  -1.614  1.00 20.00     0.014 C 
HETATM    4  C4  UNL     1     -33.279  18.097  -0.454  1.00 20.00     0.016 A 
HETATM    5  C5  UNL     1     -33.577  16.697  -3.852  1.00 20.00    -0.015 C 
HETATM    6  C6  UNL     1     -34.659  15.871  -3.118  1.00 20.00    -0.014 C 
HETATM    7  C7  UNL     1     -34.689  18.266   0.037  1.00 20.00     0.009 A 
HETATM    8  C8  UNL     1     -34.436  17.700  -1.353  1.00 20.00    -0.035 A 
HETATM    9  C9  UNL     1     -33.413  16.322  -5.326  1.00 20.00     0.010 C 
HETATM   10  C10 UNL     1     -34.487  14.360  -3.284  1.00 20.00     0.010 C 
ENDROOT
BRANCH   7  11
HETATM   11  C11 UNL     1     -35.184  17.431   1.168  1.00 20.00     0.120 C 
HETATM   12 CL12 UNL     1     -34.606  18.057   2.736  1.00 20.00    -0.130 Cl
ENDBRANCH   7  11
TORSDOF 1
ENDMDL
MODEL 5
REMARK VINA RESULT:      -4.6     11.629     12.634
REMARK  1 active torsions:
REMARK  status: ('A' for Active; 'I' for Inactive)
REMARK    1  A    between atoms: C7_7  and  C11_11 
ROOT
HETATM    1  C1  UNL     1     -35.672  18.115   0.694  1.00 20.00     0.005 C 
HETATM    2  C2  UNL     1     -35.750  18.239  -0.828  1.00 20.00     0.010 C 
HETATM    3  C3  UNL     1     -33.233  18.052  -1.080  1.00 20.00     0.014 C 
HETATM    4  C4  UNL     1     -34.746  16.035  -1.735  1.00 20.00     0.016 A 
HETATM    5  C5  UNL     1     -34.229  18.138   1.250  1.00 20.00    -0.015 C 
HETATM    6  C6  UNL     1     -33.262  18.824   0.258  1.00 20.00    -0.014 C 
HETATM    7  C7  UNL     1     -34.807  16.989  -2.894  1.00 20.00     0.009 A 
HETATM    8  C8  UNL     1     -34.597  17.525  -1.485  1.00 20.00    -0.035 A 
HETATM    9  C9  UNL     1     -34.226  18.766   2.645  1.00 20.00     0.010 C 
HETATM   10  C10 UNL     1     -31.836  18.961   0.796  1.00 20.00     0.010 C 
ENDROOT
BRANCH   7  11
HETATM   11  C11 UNL     1     -33.725  16.978  -3.920  1.00 20.00     0.120 C 
HETATM   12 CL12 UNL     1     -32.841  15.428  -3.910  1.00 20.00    -0.130 Cl
ENDBRANCH   7  11
TORSDOF 1
ENDMDL
MODEL 6
REMARK VINA RESULT:      -4.5     11.644     12.995
REMARK  1 active torsions:
REMARK  status: ('A' for Active; 'I' for Inactive)
REMARK    1  A    between atoms: C7_7  and  C11_11 
ROOT
HETATM    1  C1  UNL     1     -34.568  16.310  -1.360  1.00 20.00     0.005 C 
HETATM    2  C2  UNL     1     -35.284  15.548  -2.476  1.00 20.00     0.010 C 
HETATM    3  C3  UNL     1     -34.110  16.882  -4.287  1.00 20.00     0.014 C 
HETATM    4  C4  UNL     1     -33.397  14.417  -3.835  1.00 20.00     0.016 A 
HETATM    5  C5  UNL     1     -33.733  17.512  -1.860  1.00 20.00    -0.015 C 
HETATM    6  C6  UNL     1     -34.238  18.006  -3.235  1.00 20.00    -0.014 C 
HETATM    7  C7  UNL     1     -34.639  14.338  -4.676  1.00 20.00     0.009 A 
HETATM    8  C8  UNL     1     -34.443  15.511  -3.726  1.00 20.00    -0.035 A 
HETATM    9  C9  UNL     1     -33.709  18.602  -0.787  1.00 20.00     0.010 C 
HETATM   10  C10 UNL     1     -33.511  19.255  -3.738  1.00 20.00     0.010 C 
ENDROOT
BRANCH   7  11
HETATM   11  C11 UNL     1     -34.541  14.478  -6.157  1.00 20.00     0.120 C 
HETATM   12 CL12 UNL     1     -36.112  14.935  -6.869  1.00 20.00    -0.130 Cl
ENDBRANCH   7  11
TORSDOF 1
ENDMDL
MODEL 7
REMARK VINA RESULT:      -4.5     11.448     13.403
REMARK  1 active torsions:
REMARK  status: ('A' for Active; 'I' for Inactive)
REMARK    1  A    between atoms: C7_7  and  C11_11 
ROOT
HETATM    1  C1  UNL     1     -34.292  15.339  -6.592  1.00 20.00     0.005 C 
HETATM    2  C2  UNL     1     -33.836  16.186  -5.403  1.00 20.00     0.010 C 
HETATM    3  C3  UNL     1     -36.004  15.785  -4.148  1.00 20.00     0.014 C 
HETATM    4  C4  UNL     1     -33.830  14.567  -3.387  1.00 20.00     0.016 A 
HETATM    5  C5  UNL     1     -35.768  14.888  -6.508  1.00 20.00    -0.015 C 
HETATM    6  C6  UNL     1     -36.583  15.818  -5.580  1.00 20.00    -0.014 C 
HETATM    7  C7  UNL     1     -33.742  15.956  -2.823  1.00 20.00     0.009 A 
HETATM    8  C8  UNL     1     -34.487  15.717  -4.128  1.00 20.00    -0.035 A 
HETATM    9  C9  UNL     1     -36.349  14.764  -7.918  1.00 20.00     0.010 C 
HETATM   10  C10 UNL     1     -38.073  15.476  -5.532  1.00 20.00     0.010 C 
ENDROOT
BRANCH   7  11
HETATM   11  C11 UNL     1     -34.440  16.282  -1.547  1.00 20.00     0.120 C 
HETATM   12 CL12 UNL     1     -33.762  17.752  -0.796  1.00 20.00    -0.130 Cl
ENDBRANCH   7  11
TORSDOF 1
ENDMDL
MODEL 8
REMARK VINA RESULT:      -4.4     11.112     12.741
REMARK  1 active torsions:
REMARK  status: ('A' for Active; 'I' for Inactive)
REMARK    1  A    between atoms: C7_7  and  C11_11 
ROOT
HETATM    1  C1  UNL     1     -36.287  16.074  -4.812  1.00 20.00     0.005 C 
HETATM    2  C2  UNL     1     -36.612  16.400  -3.354  1.00 20.00     0.010 C 
HETATM    3  C3  UNL     1     -34.406  15.449  -2.538  1.00 20.00     0.014 C 
HETATM    4  C4  UNL     1     -34.753  18.031  -2.598  1.00 20.00     0.016 A 
HETATM    5  C5  UNL     1     -34.999  15.239  -4.994  1.00 20.00    -0.015 C 
HETATM    6  C6  UNL     1     -34.651  14.464  -3.701  1.00 20.00    -0.014 C 
HETATM    7  C7  UNL     1     -35.439  17.552  -1.350  1.00 20.00     0.009 A 
HETATM    8  C8  UNL     1     -35.352  16.636  -2.562  1.00 20.00    -0.035 A 
HETATM    9  C9  UNL     1     -35.136  14.345  -6.228  1.00 20.00     0.010 C 
HETATM   10  C10 UNL     1     -33.438  13.544  -3.851  1.00 20.00     0.010 C 
ENDROOT
BRANCH   7  11
HETATM   11  C11 UNL     1     -34.644  17.323  -0.110  1.00 20.00     0.120 C 
HETATM   12 CL12 UNL     1     -33.093  18.204  -0.164  1.00 20.00    -0.130 Cl
ENDBRANCH   7  11
TORSDOF 1
ENDMDL
MODEL 9
REMARK VINA RESULT:      -4.4     11.607     13.256
REMARK  1 active torsions:
REMARK  status: ('A' for Active; 'I' for Inactive)
REMARK    1  A    between atoms: C7_7  and  C11_11 
ROOT
HETATM    1  C1  UNL     1     -34.525  14.567  -3.185  1.00 20.00     0.005 C 
HETATM    2  C2  UNL     1     -35.308  14.025  -4.381  1.00 20.00     0.010 C 
HETATM    3  C3  UNL     1     -36.120  16.337  -5.034  1.00 20.00     0.014 C 
HETATM    4  C4  UNL     1     -34.264  15.177  -6.447  1.00 20.00     0.016 A 
HETATM    5  C5  UNL     1     -34.771  16.067  -2.905  1.00 20.00    -0.015 C 
HETATM    6  C6  UNL     1     -36.120  16.531  -3.502  1.00 20.00    -0.014 C 
HETATM    7  C7  UNL     1     -35.563  14.575  -6.901  1.00 20.00     0.009 A 
HETATM    8  C8  UNL     1     -35.418  15.063  -5.467  1.00 20.00    -0.035 A 
HETATM    9  C9  UNL     1     -34.638  16.339  -1.405  1.00 20.00     0.010 C 
HETATM   10  C10 UNL     1     -36.463  17.985  -3.174  1.00 20.00     0.010 C 
ENDROOT
BRANCH   7  11
HETATM   11  C11 UNL     1     -36.395  15.287  -7.913  1.00 20.00     0.120 C 
HETATM   12 CL12 UNL     1     -38.123  14.879  -7.732  1.00 20.00    -0.130 Cl
ENDBRANCH   7  11
TORSDOF 1
ENDMDL
