MODEL 1
REMARK VINA RESULT:      -4.8      0.000      0.000
REMARK  1 active torsions:
REMARK  status: ('A' for Active; 'I' for Inactive)
REMARK    1  A    between atoms: C5_5  and  C10_10 
ROOT
HETATM    1  C1  UNL     1     -35.286  14.551  -6.310  1.00 20.00     0.019 C 
HETATM    2  C2  UNL     1     -32.954  15.564  -3.935  1.00 20.00     0.018 A 
HETATM    3  C3  UNL     1     -35.695  15.824  -7.039  1.00 20.00     0.075 C 
HETATM    4  C4  UNL     1     -34.779  17.155  -4.829  1.00 20.00     0.084 C 
HETATM    5  C5  UNL     1     -33.926  15.749  -2.805  1.00 20.00     0.010 A 
HETATM    6  C6  UNL     1     -34.425  15.794  -4.253  1.00 20.00    -0.020 A 
HETATM    7  C7  UNL     1     -35.321  14.619  -4.758  1.00 20.00    -0.038 C 
HETATM    8  C8  UNL     1     -34.871  13.222  -4.260  1.00 20.00     0.015 C 
HETATM    9  C9  UNL     1     -36.768  14.817  -4.252  1.00 20.00     0.015 C 
HETATM   10  S11 UNL     1     -34.588  17.192  -6.623  1.00 20.00    -0.168 SA
ENDROOT
BRANCH   5  11
HETATM   11  C10 UNL     1     -33.843  16.956  -1.933  1.00 20.00     0.120 C 
HETATM   12 CL12 UNL     1     -34.739  16.714  -0.408  1.00 20.00    -0.130 Cl
ENDBRANCH   5  11
TORSDOF 1
ENDMDL
MODEL 2
REMARK VINA RESULT:      -4.4      1.489      2.082
REMARK  1 active torsions:
REMARK  status: ('A' for Active; 'I' for Inactive)
REMARK    1  A    between atoms: C5_5  and  C10_10 
ROOT
HETATM    1  C1  UNL     1     -34.460  15.422  -5.459  1.00 20.00     0.019 C 
HETATM    2  C2  UNL     1     -33.883  17.584  -2.796  1.00 20.00     0.018 A 
HETATM    3  C3  UNL     1     -35.959  15.499  -5.720  1.00 20.00     0.075 C 
HETATM    4  C4  UNL     1     -36.164  16.431  -3.155  1.00 20.00     0.084 C 
HETATM    5  C5  UNL     1     -33.997  16.554  -1.708  1.00 20.00     0.010 A 
HETATM    6  C6  UNL     1     -34.653  16.299  -3.070  1.00 20.00    -0.020 A 
HETATM    7  C7  UNL     1     -34.042  15.188  -3.981  1.00 20.00    -0.038 C 
HETATM    8  C8  UNL     1     -32.493  15.148  -3.979  1.00 20.00     0.015 C 
HETATM    9  C9  UNL     1     -34.515  13.799  -3.493  1.00 20.00     0.015 C 
HETATM   10  S11 UNL     1     -36.703  16.877  -4.818  1.00 20.00    -0.168 SA
ENDROOT
BRANCH   5  11
HETATM   11  C10 UNL     1     -34.776  16.851  -0.471  1.00 20.00     0.120 C 
HETATM   12 CL12 UNL     1     -33.944  18.065   0.539  1.00 20.00    -0.130 Cl
ENDBRANCH   5  11
TORSDOF 1
ENDMDL
MODEL 3
REMARK VINA RESULT:      -4.4      2.584      3.315
REMARK  1 active torsions:
REMARK  status: ('A' for Active; 'I' for Inactive)
REMARK    1  A    between atoms: C5_5  and  C10_10 
ROOT
HETATM    1  C1  UNL     1     -35.224  14.105  -3.859  1.00 20.00     0.019 C 
HETATM    2  C2  UNL     1     -33.712  16.357  -6.038  1.00 20.00     0.018 A 
HETATM    3  C3  UNL     1     -36.715  14.407  -3.942  1.00 20.00     0.075 C 
HETATM    4  C4  UNL     1     -35.970  16.863  -4.894  1.00 20.00     0.084 C 
HETATM    5  C5  UNL     1     -33.425  17.420  -5.016  1.00 20.00     0.010 A 
HETATM    6  C6  UNL     1     -34.531  16.393  -4.755  1.00 20.00    -0.020 A 
HETATM    7  C7  UNL     1     -34.297  15.332  -3.634  1.00 20.00    -0.038 C 
HETATM    8  C8  UNL     1     -32.853  14.770  -3.586  1.00 20.00     0.015 C 
HETATM    9  C9  UNL     1     -34.563  15.971  -2.251  1.00 20.00     0.015 C 
HETATM   10  S11 UNL     1     -37.077  15.506  -5.331  1.00 20.00    -0.168 SA
ENDROOT
BRANCH   5  11
HETATM   11  C10 UNL     1     -33.699  18.853  -5.327  1.00 20.00     0.120 C 
HETATM   12 CL12 UNL     1     -33.708  19.141  -7.089  1.00 20.00    -0.130 Cl
ENDBRANCH   5  11
TORSDOF 1
ENDMDL
MODEL 4
REMARK VINA RESULT:      -4.2      1.855      2.893
REMARK  1 active torsions:
REMARK  status: ('A' for Active; 'I' for Inactive)
REMARK    1  A    between atoms: C5_5  and  C10_10 
ROOT
HETATM    1  C1  UNL     1     -35.305  15.595  -6.085  1.00 20.00     0.019 C 
HETATM    2  C2  UNL     1     -36.395  16.164  -2.831  1.00 20.00     0.018 A 
HETATM    3  C3  UNL     1     -34.639  14.226  -6.052  1.00 20.00     0.075 C 
HETATM    4  C4  UNL     1     -34.390  14.625  -3.355  1.00 20.00     0.084 C 
HETATM    5  C5  UNL     1     -35.175  16.908  -2.367  1.00 20.00     0.010 A 
HETATM    6  C6  UNL     1     -35.078  15.963  -3.570  1.00 20.00    -0.020 A 
HETATM    7  C7  UNL     1     -34.857  16.592  -4.981  1.00 20.00    -0.038 C 
HETATM    8  C8  UNL     1     -35.665  17.892  -5.228  1.00 20.00     0.015 C 
HETATM    9  C9  UNL     1     -33.367  16.966  -5.154  1.00 20.00     0.015 C 
HETATM   10  S11 UNL     1     -34.998  13.370  -4.501  1.00 20.00    -0.168 SA
ENDROOT
BRANCH   5  11
HETATM   11  C10 UNL     1     -34.569  16.601  -1.039  1.00 20.00     0.120 C 
HETATM   12 CL12 UNL     1     -33.317  17.798  -0.609  1.00 20.00    -0.130 Cl
ENDBRANCH   5  11
TORSDOF 1
ENDMDL
MODEL 5
REMARK VINA RESULT:      -4.2      2.720      4.195
REMARK  1 active torsions:
REMARK  status: ('A' for Active; 'I' for Inactive)
REMARK    1  A    between atoms: C5_5  and  C10_10 
ROOT
HETATM    1  C1  UNL     1     -34.395  16.170  -2.225  1.00 20.00     0.019 C 
HETATM    2  C2  UNL     1     -35.368  13.676  -4.446  1.00 20.00     0.018 A 
HETATM    3  C3  UNL     1     -35.554  17.157  -2.197  1.00 20.00     0.075 C 
HETATM    4  C4  UNL     1     -36.272  16.088  -4.613  1.00 20.00     0.084 C 
HETATM    5  C5  UNL     1     -34.726  14.270  -5.667  1.00 20.00     0.010 A 
HETATM    6  C6  UNL     1     -35.069  15.169  -4.474  1.00 20.00    -0.020 A 
HETATM    7  C7  UNL     1     -33.891  15.758  -3.636  1.00 20.00    -0.038 C 
HETATM    8  C8  UNL     1     -32.726  14.764  -3.397  1.00 20.00     0.015 C 
HETATM    9  C9  UNL     1     -33.284  16.971  -4.376  1.00 20.00     0.015 C 
HETATM   10  S11 UNL     1     -37.013  16.465  -3.011  1.00 20.00    -0.168 SA
ENDROOT
BRANCH   5  11
HETATM   11  C10 UNL     1     -35.468  14.313  -6.960  1.00 20.00     0.120 C 
HETATM   12 CL12 UNL     1     -35.014  15.749  -7.918  1.00 20.00    -0.130 Cl
ENDBRANCH   5  11
TORSDOF 1
ENDMDL
MODEL 6
REMARK VINA RESULT:      -4.1      2.264      3.762
REMARK  1 active torsions:
REMARK  status: ('A' for Active; 'I' for Inactive)
REMARK    1  A    between atoms: C5_5  and  C10_10 
ROOT
HETATM    1  C1  UNL     1     -33.137  15.304  -3.749  1.00 20.00     0.019 C 
HETATM    2  C2  UNL     1     -35.727  16.652  -5.639  1.00 20.00     0.018 A 
HETATM    3  C3  UNL     1     -33.434  13.812  -3.668  1.00 20.00     0.075 C 
HETATM    4  C4  UNL     1     -36.019  14.490  -4.261  1.00 20.00     0.084 C 
HETATM    5  C5  UNL     1     -36.612  17.020  -4.483  1.00 20.00     0.010 A 
HETATM    6  C6  UNL     1     -35.546  15.934  -4.309  1.00 20.00    -0.020 A 
HETATM    7  C7  UNL     1     -34.318  16.249  -3.397  1.00 20.00    -0.038 C 
HETATM    8  C8  UNL     1     -33.770  17.691  -3.552  1.00 20.00     0.015 C 
HETATM    9  C9  UNL     1     -34.721  16.092  -1.913  1.00 20.00     0.015 C 
HETATM   10  S11 UNL     1     -34.741  13.349  -4.827  1.00 20.00    -0.168 SA
ENDROOT
BRANCH   5  11
HETATM   11  C10 UNL     1     -38.074  16.727  -4.534  1.00 20.00     0.120 C 
HETATM   12 CL12 UNL     1     -38.799  16.772  -2.903  1.00 20.00    -0.130 Cl
ENDBRANCH   5  11
TORSDOF 1
ENDMDL
MODEL 7
REMARK VINA RESULT:      -4.1      2.724      4.194
REMARK  1 active torsions:
REMARK  status: ('A' for Active; 'I' for Inactive)
REMARK    1  A    between atoms: C5_5  and  C10_10 
ROOT
HETATM    1  C1  UNL     1     -34.051  15.970  -2.304  1.00 20.00     0.019 C 
HETATM    2  C2  UNL     1     -36.515  14.389  -4.183  1.00 20.00     0.018 A 
HETATM    3  C3  UNL     1     -34.559  17.390  -2.091  1.00 20.00     0.075 C 
HETATM    4  C4  UNL     1     -36.152  16.943  -4.271  1.00 20.00     0.084 C 
HETATM    5  C5  UNL     1     -35.914  14.671  -5.530  1.00 20.00     0.010 A 
HETATM    6  C6  UNL     1     -35.543  15.552  -4.332  1.00 20.00    -0.020 A 
HETATM    7  C7  UNL     1     -34.091  15.450  -3.767  1.00 20.00    -0.038 C 
HETATM    8  C8  UNL     1     -33.531  14.005  -3.720  1.00 20.00     0.015 C 
HETATM    9  C9  UNL     1     -33.128  16.262  -4.663  1.00 20.00     0.015 C 
HETATM   10  S11 UNL     1     -36.295  17.536  -2.573  1.00 20.00    -0.168 SA
ENDROOT
BRANCH   5  11
HETATM   11  C10 UNL     1     -36.775  15.142  -6.653  1.00 20.00     0.120 C 
HETATM   12 CL12 UNL     1     -35.807  15.956  -7.912  1.00 20.00    -0.130 Cl
ENDBRANCH   5  11
TORSDOF 1
ENDMDL
MODEL 8
REMARK VINA RESULT:      -4.1      1.311      1.859
REMARK  1 active torsions:
REMARK  status: ('A' for Active; 'I' for Inactive)
REMARK    1  A    between atoms: C5_5  and  C10_10 
ROOT
HETATM    1  C1  UNL     1     -37.091  15.175  -6.461  1.00 20.00     0.019 C 
HETATM    2  C2  UNL     1     -35.085  14.191  -3.795  1.00 20.00     0.018 A 
HETATM    3  C3  UNL     1     -36.149  15.868  -7.437  1.00 20.00     0.075 C 
HETATM    4  C4  UNL     1     -34.483  16.206  -5.291  1.00 20.00     0.084 C 
HETATM    5  C5  UNL     1     -35.310  15.412  -2.948  1.00 20.00     0.010 A 
HETATM    6  C6  UNL     1     -35.533  15.484  -4.463  1.00 20.00    -0.020 A 
HETATM    7  C7  UNL     1     -36.997  15.643  -4.982  1.00 20.00    -0.038 C 
HETATM    8  C8  UNL     1     -38.039  14.802  -4.203  1.00 20.00     0.015 C 
HETATM    9  C9  UNL     1     -37.437  17.118  -4.846  1.00 20.00     0.015 C 
HETATM   10  S11 UNL     1     -34.423  15.582  -6.984  1.00 20.00    -0.168 SA
ENDROOT
BRANCH   5  11
HETATM   11  C10 UNL     1     -34.161  16.070  -2.261  1.00 20.00     0.120 C 
HETATM   12 CL12 UNL     1     -34.621  16.633  -0.631  1.00 20.00    -0.130 Cl
ENDBRANCH   5  11
TORSDOF 1
ENDMDL
MODEL 9
REMARK VINA RESULT:      -4.1      1.001      1.001
REMARK  1 active torsions:
REMARK  status: ('A' for Active; 'I' for Inactive)
REMARK    1  A    between atoms: C5_5  and  C10_10 
ROOT
HETATM    1  C1  UNL     1     -35.168  13.941  -6.154  1.00 20.00     0.019 C 
HETATM    2  C2  UNL     1     -32.998  16.069  -4.463  1.00 20.00     0.018 A 
HETATM    3  C3  UNL     1     -35.882  14.822  -7.171  1.00 20.00     0.075 C 
HETATM    4  C4  UNL     1     -35.170  16.922  -5.567  1.00 20.00     0.084 C 
HETATM    5  C5  UNL     1     -33.929  16.404  -3.332  1.00 20.00     0.010 A 
HETATM    6  C6  UNL     1     -34.498  15.901  -4.663  1.00 20.00    -0.020 A 
HETATM    7  C7  UNL     1     -35.140  14.478  -4.697  1.00 20.00    -0.038 C 
HETATM    8  C8  UNL     1     -34.370  13.418  -3.868  1.00 20.00     0.015 C 
HETATM    9  C9  UNL     1     -36.568  14.539  -4.108  1.00 20.00     0.015 C 
HETATM   10  S11 UNL     1     -35.082  16.437  -7.303  1.00 20.00    -0.168 SA
ENDROOT
BRANCH   5  11
HETATM   11  C10 UNL     1     -34.068  17.814  -2.866  1.00 20.00     0.120 C 
HETATM   12 CL12 UNL     1     -35.577  18.042  -1.941  1.00 20.00    -0.130 Cl
ENDBRANCH   5  11
TORSDOF 1
ENDMDL
