MODEL 1
REMARK VINA RESULT:      -4.0      0.000      0.000
REMARK  3 active torsions:
REMARK  status: ('A' for Active; 'I' for Inactive)
REMARK    1  A    between atoms: C2_2  and  C6_6 
REMARK    2  A    between atoms: C3_3  and  C7_7 
REMARK    3  A    between atoms: C6_6  and  O8_8 
ROOT
HETATM    1  C1  UNL     1     -33.209  14.709  -3.666  1.00 20.00     0.017 A 
HETATM    2  C2  UNL     1     -34.507  14.896  -4.399  1.00 20.00     0.018 A 
HETATM    3  C3  UNL     1     -34.093  15.898  -3.329  1.00 20.00    -0.038 A 
HETATM    4  C4  UNL     1     -33.651  17.261  -3.798  1.00 20.00     0.015 C 
ENDROOT
BRANCH   2   5
HETATM    5  C6  UNL     1     -35.624  13.930  -4.206  1.00 20.00     0.169 C 
BRANCH   5   6
HETATM    6  O8  UNL     1     -35.112  12.598  -4.160  1.00 20.00    -0.400 OA
HETATM    7  H22 UNL     1     -34.954  12.333  -5.079  1.00 20.00     0.209 HD
ENDBRANCH   5   6
ENDBRANCH   2   5
BRANCH   3   8
HETATM    8  C7  UNL     1     -34.788  15.907  -1.993  1.00 20.00     0.005 C 
HETATM    9  C5  UNL     1     -34.216  16.929  -1.055  1.00 20.00     0.006 C 
ENDBRANCH   3   8
TORSDOF 3
ENDMDL
MODEL 2
REMARK VINA RESULT:      -4.0     11.619     12.279
REMARK  3 active torsions:
REMARK  status: ('A' for Active; 'I' for Inactive)
REMARK    1  A    between atoms: C2_2  and  C6_6 
REMARK    2  A    between atoms: C3_3  and  C7_7 
REMARK    3  A    between atoms: C6_6  and  O8_8 
ROOT
HETATM    1  C1  UNL     1     -34.700   6.456   3.166  1.00 20.00     0.017 A 
HETATM    2  C2  UNL     1     -33.368   5.762   3.168  1.00 20.00     0.018 A 
HETATM    3  C3  UNL     1     -34.315   5.582   4.347  1.00 20.00    -0.038 A 
HETATM    4  C4  UNL     1     -34.994   4.244   4.486  1.00 20.00     0.015 C 
ENDROOT
BRANCH   2   5
HETATM    5  C6  UNL     1     -32.109   6.552   3.261  1.00 20.00     0.169 C 
BRANCH   5   6
HETATM    6  O8  UNL     1     -32.172   7.672   2.377  1.00 20.00    -0.400 OA
HETATM    7  H22 UNL     1     -32.642   7.369   1.585  1.00 20.00     0.209 HD
ENDBRANCH   5   6
ENDBRANCH   2   5
BRANCH   3   8
HETATM    8  C7  UNL     1     -34.021   6.257   5.661  1.00 20.00     0.005 C 
HETATM    9  C5  UNL     1     -34.675   5.565   6.821  1.00 20.00     0.006 C 
ENDBRANCH   3   8
TORSDOF 3
ENDMDL
MODEL 3
REMARK VINA RESULT:      -3.9     12.048     12.667
REMARK  3 active torsions:
REMARK  status: ('A' for Active; 'I' for Inactive)
REMARK    1  A    between atoms: C2_2  and  C6_6 
REMARK    2  A    between atoms: C3_3  and  C7_7 
REMARK    3  A    between atoms: C6_6  and  O8_8 
ROOT
HETATM    1  C1  UNL     1     -35.502   5.395   3.769  1.00 20.00     0.017 A 
HETATM    2  C2  UNL     1     -34.012   5.272   3.623  1.00 20.00     0.018 A 
HETATM    3  C3  UNL     1     -34.626   5.408   5.010  1.00 20.00    -0.038 A 
HETATM    4  C4  UNL     1     -34.625   4.182   5.885  1.00 20.00     0.015 C 
ENDROOT
BRANCH   2   5
HETATM    5  C6  UNL     1     -33.227   6.363   2.981  1.00 20.00     0.169 C 
BRANCH   5   6
HETATM    6  O8  UNL     1     -31.845   6.225   3.310  1.00 20.00    -0.400 OA
HETATM    7  H22 UNL     1     -31.716   6.689   4.152  1.00 20.00     0.209 HD
ENDBRANCH   5   6
ENDBRANCH   2   5
BRANCH   3   8
HETATM    8  C7  UNL     1     -34.495   6.702   5.770  1.00 20.00     0.005 C 
HETATM    9  C5  UNL     1     -33.353   6.681   6.745  1.00 20.00     0.006 C 
ENDBRANCH   3   8
TORSDOF 3
ENDMDL
MODEL 4
REMARK VINA RESULT:      -3.8      1.121      2.168
REMARK  3 active torsions:
REMARK  status: ('A' for Active; 'I' for Inactive)
REMARK    1  A    between atoms: C2_2  and  C6_6 
REMARK    2  A    between atoms: C3_3  and  C7_7 
REMARK    3  A    between atoms: C6_6  and  O8_8 
ROOT
HETATM    1  C1  UNL     1     -35.561  15.611  -3.403  1.00 20.00     0.017 A 
HETATM    2  C2  UNL     1     -34.504  14.590  -3.096  1.00 20.00     0.018 A 
HETATM    3  C3  UNL     1     -34.122  16.059  -3.217  1.00 20.00    -0.038 A 
HETATM    4  C4  UNL     1     -33.768  16.784  -1.944  1.00 20.00     0.015 C 
ENDROOT
BRANCH   2   5
HETATM    5  C6  UNL     1     -34.122  13.574  -4.117  1.00 20.00     0.169 C 
BRANCH   5   6
HETATM    6  O8  UNL     1     -35.144  12.582  -4.219  1.00 20.00    -0.400 OA
HETATM    7  H22 UNL     1     -35.729  12.864  -4.938  1.00 20.00     0.209 HD
ENDBRANCH   5   6
ENDBRANCH   2   5
BRANCH   3   8
HETATM    8  C7  UNL     1     -33.369  16.547  -4.427  1.00 20.00     0.005 C 
HETATM    9  C5  UNL     1     -33.638  17.994  -4.725  1.00 20.00     0.006 C 
ENDBRANCH   3   8
TORSDOF 3
ENDMDL
MODEL 5
REMARK VINA RESULT:      -3.7     12.176     12.904
REMARK  3 active torsions:
REMARK  status: ('A' for Active; 'I' for Inactive)
REMARK    1  A    between atoms: C2_2  and  C6_6 
REMARK    2  A    between atoms: C3_3  and  C7_7 
REMARK    3  A    between atoms: C6_6  and  O8_8 
ROOT
HETATM    1  C1  UNL     1     -34.379   4.620   5.758  1.00 20.00     0.017 A 
HETATM    2  C2  UNL     1     -34.467   6.107   5.951  1.00 20.00     0.018 A 
HETATM    3  C3  UNL     1     -34.321   5.536   4.547  1.00 20.00    -0.038 A 
HETATM    4  C4  UNL     1     -35.531   5.597   3.651  1.00 20.00     0.015 C 
ENDROOT
BRANCH   2   5
HETATM    5  C6  UNL     1     -33.369   6.842   6.639  1.00 20.00     0.169 C 
BRANCH   5   6
HETATM    6  O8  UNL     1     -33.913   7.900   7.428  1.00 20.00    -0.400 OA
HETATM    7  H22 UNL     1     -34.583   7.498   8.001  1.00 20.00     0.209 HD
ENDBRANCH   5   6
ENDBRANCH   2   5
BRANCH   3   8
HETATM    8  C7  UNL     1     -33.011   5.660   3.814  1.00 20.00     0.005 C 
HETATM    9  C5  UNL     1     -32.957   6.878   2.938  1.00 20.00     0.006 C 
ENDBRANCH   3   8
TORSDOF 3
ENDMDL
MODEL 6
REMARK VINA RESULT:      -3.6      2.059      3.663
REMARK  3 active torsions:
REMARK  status: ('A' for Active; 'I' for Inactive)
REMARK    1  A    between atoms: C2_2  and  C6_6 
REMARK    2  A    between atoms: C3_3  and  C7_7 
REMARK    3  A    between atoms: C6_6  and  O8_8 
ROOT
HETATM    1  C1  UNL     1     -34.597  13.395  -4.246  1.00 20.00     0.017 A 
HETATM    2  C2  UNL     1     -34.403  14.636  -3.422  1.00 20.00     0.018 A 
HETATM    3  C3  UNL     1     -35.489  14.601  -4.489  1.00 20.00    -0.038 A 
HETATM    4  C4  UNL     1     -36.917  14.529  -4.014  1.00 20.00     0.015 C 
ENDROOT
BRANCH   2   5
HETATM    5  C6  UNL     1     -33.161  15.446  -3.564  1.00 20.00     0.169 C 
BRANCH   5   6
HETATM    6  O8  UNL     1     -32.030  14.583  -3.686  1.00 20.00    -0.400 OA
HETATM    7  H22 UNL     1     -32.102  13.935  -2.970  1.00 20.00     0.209 HD
ENDBRANCH   5   6
ENDBRANCH   2   5
BRANCH   3   8
HETATM    8  C7  UNL     1     -35.310  15.367  -5.773  1.00 20.00     0.005 C 
HETATM    9  C5  UNL     1     -35.162  14.465  -6.964  1.00 20.00     0.006 C 
ENDBRANCH   3   8
TORSDOF 3
ENDMDL
MODEL 7
REMARK VINA RESULT:      -3.6      1.870      2.560
REMARK  3 active torsions:
REMARK  status: ('A' for Active; 'I' for Inactive)
REMARK    1  A    between atoms: C2_2  and  C6_6 
REMARK    2  A    between atoms: C3_3  and  C7_7 
REMARK    3  A    between atoms: C6_6  and  O8_8 
ROOT
HETATM    1  C1  UNL     1     -34.429  14.897  -6.963  1.00 20.00     0.017 A 
HETATM    2  C2  UNL     1     -35.081  14.397  -5.706  1.00 20.00     0.018 A 
HETATM    3  C3  UNL     1     -34.616  15.844  -5.790  1.00 20.00    -0.038 A 
HETATM    4  C4  UNL     1     -35.682  16.903  -5.901  1.00 20.00     0.015 C 
ENDROOT
BRANCH   2   5
HETATM    5  C6  UNL     1     -34.397  13.380  -4.859  1.00 20.00     0.169 C 
BRANCH   5   6
HETATM    6  O8  UNL     1     -35.367  12.596  -4.163  1.00 20.00    -0.400 OA
HETATM    7  H22 UNL     1     -35.276  11.690  -4.495  1.00 20.00     0.209 HD
ENDBRANCH   5   6
ENDBRANCH   2   5
BRANCH   3   8
HETATM    8  C7  UNL     1     -33.390  16.288  -5.036  1.00 20.00     0.005 C 
HETATM    9  C5  UNL     1     -33.700  17.326  -3.997  1.00 20.00     0.006 C 
ENDBRANCH   3   8
TORSDOF 3
ENDMDL
MODEL 8
REMARK VINA RESULT:      -3.5      2.111      3.345
REMARK  3 active torsions:
REMARK  status: ('A' for Active; 'I' for Inactive)
REMARK    1  A    between atoms: C2_2  and  C6_6 
REMARK    2  A    between atoms: C3_3  and  C7_7 
REMARK    3  A    between atoms: C6_6  and  O8_8 
ROOT
HETATM    1  C1  UNL     1     -35.594  15.628  -4.803  1.00 20.00     0.017 A 
HETATM    2  C2  UNL     1     -34.475  14.652  -4.576  1.00 20.00     0.018 A 
HETATM    3  C3  UNL     1     -34.288  15.798  -5.561  1.00 20.00    -0.038 A 
HETATM    4  C4  UNL     1     -33.372  16.920  -5.144  1.00 20.00     0.015 C 
ENDROOT
BRANCH   2   5
HETATM    5  C6  UNL     1     -34.615  13.234  -5.010  1.00 20.00     0.169 C 
BRANCH   5   6
HETATM    6  O8  UNL     1     -35.395  12.510  -4.058  1.00 20.00    -0.400 OA
HETATM    7  H22 UNL     1     -35.592  11.651  -4.462  1.00 20.00     0.209 HD
ENDBRANCH   5   6
ENDBRANCH   2   5
BRANCH   3   8
HETATM    8  C7  UNL     1     -34.289  15.528  -7.043  1.00 20.00     0.005 C 
HETATM    9  C5  UNL     1     -34.863  16.668  -7.833  1.00 20.00     0.006 C 
ENDBRANCH   3   8
TORSDOF 3
ENDMDL
MODEL 9
REMARK VINA RESULT:      -3.5      2.140      3.505
REMARK  3 active torsions:
REMARK  status: ('A' for Active; 'I' for Inactive)
REMARK    1  A    between atoms: C2_2  and  C6_6 
REMARK    2  A    between atoms: C3_3  and  C7_7 
REMARK    3  A    between atoms: C6_6  and  O8_8 
ROOT
HETATM    1  C1  UNL     1     -33.659  16.703  -3.819  1.00 20.00     0.017 A 
HETATM    2  C2  UNL     1     -33.843  16.330  -2.375  1.00 20.00     0.018 A 
HETATM    3  C3  UNL     1     -33.860  15.244  -3.443  1.00 20.00    -0.038 A 
HETATM    4  C4  UNL     1     -32.666  14.328  -3.510  1.00 20.00     0.015 C 
ENDROOT
BRANCH   2   5
HETATM    5  C6  UNL     1     -35.067  16.754  -1.640  1.00 20.00     0.169 C 
BRANCH   5   6
HETATM    6  O8  UNL     1     -34.866  16.602  -0.234  1.00 20.00    -0.400 OA
HETATM    7  H22 UNL     1     -35.249  15.744   0.006  1.00 20.00     0.209 HD
ENDBRANCH   5   6
ENDBRANCH   2   5
BRANCH   3   8
HETATM    8  C7  UNL     1     -35.158  14.586  -3.829  1.00 20.00     0.005 C 
HETATM    9  C5  UNL     1     -34.954  13.235  -4.453  1.00 20.00     0.006 C 
ENDBRANCH   3   8
TORSDOF 3
ENDMDL
