MODEL 1
REMARK VINA RESULT:      -4.5      0.000      0.000
REMARK  1 active torsions:
REMARK  status: ('A' for Active; 'I' for Inactive)
REMARK    1  A    between atoms: C4_4  and  C8_8 
ROOT
HETATM    1  C1  UNL     1     -34.783  13.737  -4.754  1.00 20.00     0.136 C 
HETATM    2  C2  UNL     1     -34.778  14.415  -6.136  1.00 20.00     0.084 C 
HETATM    3  C3  UNL     1     -34.766  15.780  -5.393  1.00 20.00     0.004 C 
HETATM    4  C4  UNL     1     -34.378  15.065  -4.037  1.00 20.00     0.020 C 
HETATM    5  C5  UNL     1     -33.834  16.833  -5.969  1.00 20.00     0.011 C 
HETATM    6  C6  UNL     1     -32.910  15.084  -3.619  1.00 20.00     0.024 C 
HETATM    7  O9  UNL     1     -35.009  12.607  -4.377  1.00 20.00    -0.297 OA
ENDROOT
BRANCH   4   8
HETATM    8  C8  UNL     1     -35.295  15.441  -2.876  1.00 20.00     0.013 C 
HETATM    9  C7  UNL     1     -34.556  16.166  -1.801  1.00 20.00     0.006 C 
ENDBRANCH   4   8
TORSDOF 1
ENDMDL
MODEL 2
REMARK VINA RESULT:      -4.2      1.270      1.432
REMARK  1 active torsions:
REMARK  status: ('A' for Active; 'I' for Inactive)
REMARK    1  A    between atoms: C4_4  and  C8_8 
ROOT
HETATM    1  C1  UNL     1     -33.845  13.759  -4.103  1.00 20.00     0.136 C 
HETATM    2  C2  UNL     1     -34.852  13.567  -5.252  1.00 20.00     0.084 C 
HETATM    3  C3  UNL     1     -35.528  14.889  -4.792  1.00 20.00     0.004 C 
HETATM    4  C4  UNL     1     -34.271  15.248  -3.902  1.00 20.00     0.020 C 
HETATM    5  C5  UNL     1     -35.943  15.836  -5.906  1.00 20.00     0.011 C 
HETATM    6  C6  UNL     1     -33.255  16.234  -4.472  1.00 20.00     0.024 C 
HETATM    7  O9  UNL     1     -33.034  13.031  -3.572  1.00 20.00    -0.297 OA
ENDROOT
BRANCH   4   8
HETATM    8  C8  UNL     1     -34.637  15.593  -2.460  1.00 20.00     0.013 C 
HETATM    9  C7  UNL     1     -33.851  16.757  -1.954  1.00 20.00     0.006 C 
ENDBRANCH   4   8
TORSDOF 1
ENDMDL
MODEL 3
REMARK VINA RESULT:      -4.2      2.438      3.262
REMARK  1 active torsions:
REMARK  status: ('A' for Active; 'I' for Inactive)
REMARK    1  A    between atoms: C4_4  and  C8_8 
ROOT
HETATM    1  C1  UNL     1     -33.875  17.290  -4.123  1.00 20.00     0.136 C 
HETATM    2  C2  UNL     1     -33.178  16.176  -4.926  1.00 20.00     0.084 C 
HETATM    3  C3  UNL     1     -33.102  15.361  -3.605  1.00 20.00     0.004 C 
HETATM    4  C4  UNL     1     -34.148  16.330  -2.921  1.00 20.00     0.020 C 
HETATM    5  C5  UNL     1     -33.428  13.883  -3.726  1.00 20.00     0.011 C 
HETATM    6  C6  UNL     1     -35.602  15.870  -2.853  1.00 20.00     0.024 C 
HETATM    7  O9  UNL     1     -34.120  18.455  -4.348  1.00 20.00    -0.297 OA
ENDROOT
BRANCH   4   8
HETATM    8  C8  UNL     1     -33.671  16.877  -1.578  1.00 20.00     0.013 C 
HETATM    9  C7  UNL     1     -34.735  16.784  -0.534  1.00 20.00     0.006 C 
ENDBRANCH   4   8
TORSDOF 1
ENDMDL
MODEL 4
REMARK VINA RESULT:      -4.1      1.443      3.132
REMARK  1 active torsions:
REMARK  status: ('A' for Active; 'I' for Inactive)
REMARK    1  A    between atoms: C4_4  and  C8_8 
ROOT
HETATM    1  C1  UNL     1     -34.443  13.675  -4.769  1.00 20.00     0.136 C 
HETATM    2  C2  UNL     1     -33.568  14.456  -3.771  1.00 20.00     0.084 C 
HETATM    3  C3  UNL     1     -33.530  15.611  -4.810  1.00 20.00     0.004 C 
HETATM    4  C4  UNL     1     -34.726  14.960  -5.613  1.00 20.00     0.020 C 
HETATM    5  C5  UNL     1     -33.694  17.011  -4.241  1.00 20.00     0.011 C 
HETATM    6  C6  UNL     1     -36.126  15.520  -5.381  1.00 20.00     0.024 C 
HETATM    7  O9  UNL     1     -34.783  12.515  -4.854  1.00 20.00    -0.297 OA
ENDROOT
BRANCH   4   8
HETATM    8  C8  UNL     1     -34.428  14.793  -7.101  1.00 20.00     0.013 C 
HETATM    9  C7  UNL     1     -35.680  14.761  -7.914  1.00 20.00     0.006 C 
ENDBRANCH   4   8
TORSDOF 1
ENDMDL
MODEL 5
REMARK VINA RESULT:      -4.0     12.346     13.409
REMARK  1 active torsions:
REMARK  status: ('A' for Active; 'I' for Inactive)
REMARK    1  A    between atoms: C4_4  and  C8_8 
ROOT
HETATM    1  C1  UNL     1     -34.782   4.550   5.037  1.00 20.00     0.136 C 
HETATM    2  C2  UNL     1     -34.704   4.957   6.520  1.00 20.00     0.084 C 
HETATM    3  C3  UNL     1     -33.653   6.023   6.104  1.00 20.00     0.004 C 
HETATM    4  C4  UNL     1     -34.048   5.852   4.583  1.00 20.00     0.020 C 
HETATM    5  C5  UNL     1     -33.804   7.385   6.761  1.00 20.00     0.011 C 
HETATM    6  C6  UNL     1     -34.996   6.882   3.975  1.00 20.00     0.024 C 
HETATM    7  O9  UNL     1     -35.244   3.592   4.456  1.00 20.00    -0.297 OA
ENDROOT
BRANCH   4   8
HETATM    8  C8  UNL     1     -32.846   5.595   3.677  1.00 20.00     0.013 C 
HETATM    9  C7  UNL     1     -32.399   6.840   2.985  1.00 20.00     0.006 C 
ENDBRANCH   4   8
TORSDOF 1
ENDMDL
MODEL 6
REMARK VINA RESULT:      -4.0      1.584      1.681
REMARK  1 active torsions:
REMARK  status: ('A' for Active; 'I' for Inactive)
REMARK    1  A    between atoms: C4_4  and  C8_8 
ROOT
HETATM    1  C1  UNL     1     -36.797  14.692  -4.275  1.00 20.00     0.136 C 
HETATM    2  C2  UNL     1     -36.469  15.046  -5.737  1.00 20.00     0.084 C 
HETATM    3  C3  UNL     1     -35.341  15.965  -5.192  1.00 20.00     0.004 C 
HETATM    4  C4  UNL     1     -35.444  15.286  -3.768  1.00 20.00     0.020 C 
HETATM    5  C5  UNL     1     -34.024  15.907  -5.948  1.00 20.00     0.011 C 
HETATM    6  C6  UNL     1     -34.421  14.209  -3.418  1.00 20.00     0.024 C 
HETATM    7  O9  UNL     1     -37.739  14.152  -3.736  1.00 20.00    -0.297 OA
ENDROOT
BRANCH   4   8
HETATM    8  C8  UNL     1     -35.604  16.295  -2.633  1.00 20.00     0.013 C 
HETATM    9  C7  UNL     1     -34.469  16.222  -1.665  1.00 20.00     0.006 C 
ENDBRANCH   4   8
TORSDOF 1
ENDMDL
MODEL 7
REMARK VINA RESULT:      -3.9      1.567      3.428
REMARK  1 active torsions:
REMARK  status: ('A' for Active; 'I' for Inactive)
REMARK    1  A    between atoms: C4_4  and  C8_8 
ROOT
HETATM    1  C1  UNL     1     -33.454  15.008  -3.670  1.00 20.00     0.136 C 
HETATM    2  C2  UNL     1     -34.534  15.449  -2.665  1.00 20.00     0.084 C 
HETATM    3  C3  UNL     1     -35.519  15.540  -3.864  1.00 20.00     0.004 C 
HETATM    4  C4  UNL     1     -34.520  14.722  -4.776  1.00 20.00     0.020 C 
HETATM    5  C5  UNL     1     -36.912  14.991  -3.612  1.00 20.00     0.011 C 
HETATM    6  C6  UNL     1     -34.788  13.232  -4.965  1.00 20.00     0.024 C 
HETATM    7  O9  UNL     1     -32.246  14.914  -3.613  1.00 20.00    -0.297 OA
ENDROOT
BRANCH   4   8
HETATM    8  C8  UNL     1     -34.222  15.410  -6.107  1.00 20.00     0.013 C 
HETATM    9  C7  UNL     1     -34.826  14.672  -7.256  1.00 20.00     0.006 C 
ENDBRANCH   4   8
TORSDOF 1
ENDMDL
MODEL 8
REMARK VINA RESULT:      -3.9      1.577      2.371
REMARK  1 active torsions:
REMARK  status: ('A' for Active; 'I' for Inactive)
REMARK    1  A    between atoms: C4_4  and  C8_8 
ROOT
HETATM    1  C1  UNL     1     -36.063  14.327  -3.862  1.00 20.00     0.136 C 
HETATM    2  C2  UNL     1     -34.865  13.400  -4.140  1.00 20.00     0.084 C 
HETATM    3  C3  UNL     1     -33.996  14.678  -4.299  1.00 20.00     0.004 C 
HETATM    4  C4  UNL     1     -35.129  15.558  -3.632  1.00 20.00     0.020 C 
HETATM    5  C5  UNL     1     -32.623  14.623  -3.652  1.00 20.00     0.011 C 
HETATM    6  C6  UNL     1     -34.975  15.914  -2.156  1.00 20.00     0.024 C 
HETATM    7  O9  UNL     1     -37.263  14.157  -3.828  1.00 20.00    -0.297 OA
ENDROOT
BRANCH   4   8
HETATM    8  C8  UNL     1     -35.508  16.780  -4.466  1.00 20.00     0.013 C 
HETATM    9  C7  UNL     1     -35.611  18.011  -3.626  1.00 20.00     0.006 C 
ENDBRANCH   4   8
TORSDOF 1
ENDMDL
MODEL 9
REMARK VINA RESULT:      -3.8      1.287      2.997
REMARK  1 active torsions:
REMARK  status: ('A' for Active; 'I' for Inactive)
REMARK    1  A    between atoms: C4_4  and  C8_8 
ROOT
HETATM    1  C1  UNL     1     -34.566  14.591  -4.916  1.00 20.00     0.136 C 
HETATM    2  C2  UNL     1     -34.520  14.106  -3.455  1.00 20.00     0.084 C 
HETATM    3  C3  UNL     1     -33.985  15.514  -3.073  1.00 20.00     0.004 C 
HETATM    4  C4  UNL     1     -34.414  16.085  -4.484  1.00 20.00     0.020 C 
HETATM    5  C5  UNL     1     -34.579  16.123  -1.815  1.00 20.00     0.011 C 
HETATM    6  C6  UNL     1     -35.727  16.859  -4.568  1.00 20.00     0.024 C 
HETATM    7  O9  UNL     1     -34.683  14.026  -5.982  1.00 20.00    -0.297 OA
ENDROOT
BRANCH   4   8
HETATM    8  C8  UNL     1     -33.285  16.820  -5.202  1.00 20.00     0.013 C 
HETATM    9  C7  UNL     1     -33.670  18.221  -5.548  1.00 20.00     0.006 C 
ENDBRANCH   4   8
TORSDOF 1
ENDMDL
