MODEL 1
REMARK VINA RESULT:      -4.7      0.000      0.000
REMARK  1 active torsions:
REMARK  status: ('A' for Active; 'I' for Inactive)
REMARK    1  A    between atoms: C4_4  and  C10_10 
ROOT
HETATM    1  C1  UNL     1     -33.474  16.144  -2.875  1.00 20.00     0.007 C 
HETATM    2  C2  UNL     1     -33.332  15.145  -4.029  1.00 20.00     0.009 C 
HETATM    3  C3  UNL     1     -35.746  15.836  -4.412  1.00 20.00     0.013 C 
HETATM    4  C4  UNL     1     -34.733  15.887  -2.043  1.00 20.00     0.003 C 
HETATM    5  C5  UNL     1     -36.018  16.037  -2.904  1.00 20.00    -0.013 C 
HETATM    6  C6  UNL     1     -34.665  14.785  -4.734  1.00 20.00    -0.047 C 
HETATM    7  C7  UNL     1     -36.768  17.361  -2.716  1.00 20.00     0.010 C 
HETATM    8  C8  UNL     1     -34.438  14.754  -6.258  1.00 20.00     0.015 C 
HETATM    9  C9  UNL     1     -35.139  13.380  -4.310  1.00 20.00     0.015 C 
ENDROOT
BRANCH   4  10
HETATM   10  C10 UNL     1     -34.714  16.727  -0.765  1.00 20.00     0.119 C 
HETATM   11 CL11 UNL     1     -33.322  17.818  -0.780  1.00 20.00    -0.130 Cl
ENDBRANCH   4  10
TORSDOF 1
ENDMDL
MODEL 2
REMARK VINA RESULT:      -4.5      2.597      4.395
REMARK  1 active torsions:
REMARK  status: ('A' for Active; 'I' for Inactive)
REMARK    1  A    between atoms: C4_4  and  C10_10 
ROOT
HETATM    1  C1  UNL     1     -33.426  16.479  -4.859  1.00 20.00     0.007 C 
HETATM    2  C2  UNL     1     -33.859  17.222  -3.590  1.00 20.00     0.009 C 
HETATM    3  C3  UNL     1     -34.763  14.919  -3.014  1.00 20.00     0.013 C 
HETATM    4  C4  UNL     1     -34.573  15.671  -5.472  1.00 20.00     0.003 C 
HETATM    5  C5  UNL     1     -35.086  14.583  -4.487  1.00 20.00    -0.013 C 
HETATM    6  C6  UNL     1     -34.819  16.422  -2.673  1.00 20.00    -0.047 C 
HETATM    7  C7  UNL     1     -34.590  13.162  -4.783  1.00 20.00     0.010 C 
HETATM    8  C8  UNL     1     -34.393  16.615  -1.204  1.00 20.00     0.015 C 
HETATM    9  C9  UNL     1     -36.262  16.950  -2.807  1.00 20.00     0.015 C 
ENDROOT
BRANCH   4  10
HETATM   10  C10 UNL     1     -34.186  15.153  -6.858  1.00 20.00     0.119 C 
HETATM   11 CL11 UNL     1     -35.642  14.752  -7.780  1.00 20.00    -0.130 Cl
ENDBRANCH   4  10
TORSDOF 1
ENDMDL
MODEL 3
REMARK VINA RESULT:      -4.4      2.899      4.591
REMARK  1 active torsions:
REMARK  status: ('A' for Active; 'I' for Inactive)
REMARK    1  A    between atoms: C4_4  and  C10_10 
ROOT
HETATM    1  C1  UNL     1     -35.760  14.511  -5.289  1.00 20.00     0.007 C 
HETATM    2  C2  UNL     1     -35.183  14.420  -3.871  1.00 20.00     0.009 C 
HETATM    3  C3  UNL     1     -34.073  16.585  -4.599  1.00 20.00     0.013 C 
HETATM    4  C4  UNL     1     -34.674  14.777  -6.335  1.00 20.00     0.003 C 
HETATM    5  C5  UNL     1     -33.958  16.131  -6.072  1.00 20.00    -0.013 C 
HETATM    6  C6  UNL     1     -34.052  15.436  -3.572  1.00 20.00    -0.047 C 
HETATM    7  C7  UNL     1     -34.410  17.285  -6.974  1.00 20.00     0.010 C 
HETATM    8  C8  UNL     1     -34.262  16.024  -2.162  1.00 20.00     0.015 C 
HETATM    9  C9  UNL     1     -32.679  14.734  -3.577  1.00 20.00     0.015 C 
ENDROOT
BRANCH   4  10
HETATM   10  C10 UNL     1     -35.236  14.612  -7.748  1.00 20.00     0.119 C 
HETATM   11 CL11 UNL     1     -36.988  14.859  -7.734  1.00 20.00    -0.130 Cl
ENDBRANCH   4  10
TORSDOF 1
ENDMDL
MODEL 4
REMARK VINA RESULT:      -4.3      2.348      4.289
REMARK  1 active torsions:
REMARK  status: ('A' for Active; 'I' for Inactive)
REMARK    1  A    between atoms: C4_4  and  C10_10 
ROOT
HETATM    1  C1  UNL     1     -36.097  16.818  -3.641  1.00 20.00     0.007 C 
HETATM    2  C2  UNL     1     -35.630  17.815  -2.573  1.00 20.00     0.009 C 
HETATM    3  C3  UNL     1     -33.605  16.281  -2.581  1.00 20.00     0.013 C 
HETATM    4  C4  UNL     1     -35.939  15.367  -3.181  1.00 20.00     0.003 C 
HETATM    5  C5  UNL     1     -34.450  15.026  -2.894  1.00 20.00    -0.013 C 
HETATM    6  C6  UNL     1     -34.356  17.381  -1.804  1.00 20.00    -0.047 C 
HETATM    7  C7  UNL     1     -33.747  14.229  -3.999  1.00 20.00     0.010 C 
HETATM    8  C8  UNL     1     -33.426  18.599  -1.641  1.00 20.00     0.015 C 
HETATM    9  C9  UNL     1     -34.720  16.887  -0.389  1.00 20.00     0.015 C 
ENDROOT
BRANCH   4  10
HETATM   10  C10 UNL     1     -36.640  14.415  -4.152  1.00 20.00     0.119 C 
HETATM   11 CL11 UNL     1     -36.852  15.203  -5.722  1.00 20.00    -0.130 Cl
ENDBRANCH   4  10
TORSDOF 1
ENDMDL
MODEL 5
REMARK VINA RESULT:      -4.3      2.262      4.540
REMARK  1 active torsions:
REMARK  status: ('A' for Active; 'I' for Inactive)
REMARK    1  A    between atoms: C4_4  and  C10_10 
ROOT
HETATM    1  C1  UNL     1     -34.728  15.908  -1.871  1.00 20.00     0.007 C 
HETATM    2  C2  UNL     1     -34.701  16.739  -0.582  1.00 20.00     0.009 C 
HETATM    3  C3  UNL     1     -34.528  18.633  -2.266  1.00 20.00     0.013 C 
HETATM    4  C4  UNL     1     -33.599  16.295  -2.829  1.00 20.00     0.003 C 
HETATM    5  C5  UNL     1     -33.720  17.781  -3.270  1.00 20.00    -0.013 C 
HETATM    6  C6  UNL     1     -34.339  18.232  -0.789  1.00 20.00    -0.047 C 
HETATM    7  C7  UNL     1     -34.308  17.991  -4.671  1.00 20.00     0.010 C 
HETATM    8  C8  UNL     1     -35.265  19.101   0.085  1.00 20.00     0.015 C 
HETATM    9  C9  UNL     1     -32.890  18.505  -0.339  1.00 20.00     0.015 C 
ENDROOT
BRANCH   4  10
HETATM   10  C10 UNL     1     -33.499  15.290  -3.978  1.00 20.00     0.119 C 
HETATM   11 CL11 UNL     1     -34.278  13.769  -3.518  1.00 20.00    -0.130 Cl
ENDBRANCH   4  10
TORSDOF 1
ENDMDL
MODEL 6
REMARK VINA RESULT:      -4.2      2.544      4.147
REMARK  1 active torsions:
REMARK  status: ('A' for Active; 'I' for Inactive)
REMARK    1  A    between atoms: C4_4  and  C10_10 
ROOT
HETATM    1  C1  UNL     1     -34.054  14.280  -4.066  1.00 20.00     0.007 C 
HETATM    2  C2  UNL     1     -33.535  15.232  -2.982  1.00 20.00     0.009 C 
HETATM    3  C3  UNL     1     -35.945  16.028  -3.070  1.00 20.00     0.013 C 
HETATM    4  C4  UNL     1     -34.823  15.023  -5.162  1.00 20.00     0.003 C 
HETATM    5  C5  UNL     1     -36.074  15.743  -4.584  1.00 20.00    -0.013 C 
HETATM    6  C6  UNL     1     -34.516  16.370  -2.603  1.00 20.00    -0.047 C 
HETATM    7  C7  UNL     1     -37.404  15.021  -4.832  1.00 20.00     0.010 C 
HETATM    8  C8  UNL     1     -34.522  16.543  -1.071  1.00 20.00     0.015 C 
HETATM    9  C9  UNL     1     -34.055  17.708  -3.215  1.00 20.00     0.015 C 
ENDROOT
BRANCH   4  10
HETATM   10  C10 UNL     1     -35.106  14.095  -6.345  1.00 20.00     0.119 C 
HETATM   11 CL11 UNL     1     -34.824  14.954  -7.866  1.00 20.00    -0.130 Cl
ENDBRANCH   4  10
TORSDOF 1
ENDMDL
MODEL 7
REMARK VINA RESULT:      -4.2      1.542      2.096
REMARK  1 active torsions:
REMARK  status: ('A' for Active; 'I' for Inactive)
REMARK    1  A    between atoms: C4_4  and  C10_10 
ROOT
HETATM    1  C1  UNL     1     -33.571  14.894  -3.890  1.00 20.00     0.007 C 
HETATM    2  C2  UNL     1     -34.355  14.153  -4.980  1.00 20.00     0.009 C 
HETATM    3  C3  UNL     1     -34.547  16.512  -5.903  1.00 20.00     0.013 C 
HETATM    4  C4  UNL     1     -34.330  16.116  -3.366  1.00 20.00     0.003 C 
HETATM    5  C5  UNL     1     -34.581  17.152  -4.497  1.00 20.00    -0.013 C 
HETATM    6  C6  UNL     1     -35.111  15.078  -5.968  1.00 20.00    -0.047 C 
HETATM    7  C7  UNL     1     -33.634  18.358  -4.488  1.00 20.00     0.010 C 
HETATM    8  C8  UNL     1     -34.933  14.538  -7.401  1.00 20.00     0.015 C 
HETATM    9  C9  UNL     1     -36.621  15.080  -5.660  1.00 20.00     0.015 C 
ENDROOT
BRANCH   4  10
HETATM   10  C10 UNL     1     -33.647  16.680  -2.118  1.00 20.00     0.119 C 
HETATM   11 CL11 UNL     1     -34.727  16.539  -0.724  1.00 20.00    -0.130 Cl
ENDBRANCH   4  10
TORSDOF 1
ENDMDL
MODEL 8
REMARK VINA RESULT:      -4.2      1.356      3.015
REMARK  1 active torsions:
REMARK  status: ('A' for Active; 'I' for Inactive)
REMARK    1  A    between atoms: C4_4  and  C10_10 
ROOT
HETATM    1  C1  UNL     1     -36.372  15.554  -4.236  1.00 20.00     0.007 C 
HETATM    2  C2  UNL     1     -36.570  15.825  -5.732  1.00 20.00     0.009 C 
HETATM    3  C3  UNL     1     -34.507  14.349  -5.878  1.00 20.00     0.013 C 
HETATM    4  C4  UNL     1     -34.928  15.804  -3.792  1.00 20.00     0.003 C 
HETATM    5  C5  UNL     1     -33.939  14.865  -4.536  1.00 20.00    -0.013 C 
HETATM    6  C6  UNL     1     -35.393  15.364  -6.629  1.00 20.00    -0.047 C 
HETATM    7  C7  UNL     1     -33.455  13.661  -3.718  1.00 20.00     0.010 C 
HETATM    8  C8  UNL     1     -35.957  14.689  -7.895  1.00 20.00     0.015 C 
HETATM    9  C9  UNL     1     -34.555  16.574  -7.087  1.00 20.00     0.015 C 
ENDROOT
BRANCH   4  10
HETATM   10  C10 UNL     1     -34.820  15.773  -2.266  1.00 20.00     0.119 C 
HETATM   11 CL11 UNL     1     -33.673  17.003  -1.717  1.00 20.00    -0.130 Cl
ENDBRANCH   4  10
TORSDOF 1
ENDMDL
MODEL 9
REMARK VINA RESULT:      -4.1      2.783      4.203
REMARK  1 active torsions:
REMARK  status: ('A' for Active; 'I' for Inactive)
REMARK    1  A    between atoms: C4_4  and  C10_10 
ROOT
HETATM    1  C1  UNL     1     -33.701  16.746  -5.842  1.00 20.00     0.007 C 
HETATM    2  C2  UNL     1     -33.362  16.105  -4.491  1.00 20.00     0.009 C 
HETATM    3  C3  UNL     1     -34.543  14.130  -5.568  1.00 20.00     0.013 C 
HETATM    4  C4  UNL     1     -35.171  16.544  -6.221  1.00 20.00     0.003 C 
HETATM    5  C5  UNL     1     -35.515  15.034  -6.360  1.00 20.00    -0.013 C 
HETATM    6  C6  UNL     1     -34.045  14.736  -4.241  1.00 20.00    -0.047 C 
HETATM    7  C7  UNL     1     -35.589  14.521  -7.804  1.00 20.00     0.010 C 
HETATM    8  C8  UNL     1     -33.024  13.771  -3.606  1.00 20.00     0.015 C 
HETATM    9  C9  UNL     1     -35.214  14.889  -3.246  1.00 20.00     0.015 C 
ENDROOT
BRANCH   4  10
HETATM   10  C10 UNL     1     -35.537  17.400  -7.434  1.00 20.00     0.119 C 
HETATM   11 CL11 UNL     1     -34.149  18.386  -7.918  1.00 20.00    -0.130 Cl
ENDBRANCH   4  10
TORSDOF 1
ENDMDL
