MODEL 1
REMARK VINA RESULT:      -4.7      0.000      0.000
REMARK  3 active torsions:
REMARK  status: ('A' for Active; 'I' for Inactive)
REMARK    1  A    between atoms: C2_2  and  C7_7 
REMARK    2  A    between atoms: C3_3  and  C9_9 
REMARK    3  A    between atoms: C8_8  and  C9_9 
ROOT
HETATM    1  C1  UNL     1     -33.922   4.862   2.690  1.00 20.00     0.016 A 
HETATM    2  C2  UNL     1     -33.666   6.318   2.947  1.00 20.00     0.009 A 
HETATM    3  C3  UNL     1     -34.588   5.534   3.879  1.00 20.00    -0.036 A 
HETATM    4  C4  UNL     1     -36.063   5.822   3.790  1.00 20.00     0.016 C 
ENDROOT
BRANCH   3   5
HETATM    5  C9  UNL     1     -34.120   5.158   5.260  1.00 20.00    -0.010 C 
HETATM    6  C6  UNL     1     -34.698   3.795   5.676  1.00 20.00     0.011 C 
BRANCH   5   7
HETATM    7  C8  UNL     1     -34.493   6.203   6.339  1.00 20.00     0.000 C 
HETATM    8  C5  UNL     1     -33.356   7.161   6.664  1.00 20.00     0.005 C 
ENDBRANCH   5   7
ENDBRANCH   3   5
BRANCH   2   9
HETATM    9  C7  UNL     1     -32.311   6.783   3.357  1.00 20.00     0.120 C 
HETATM   10 CL10 UNL     1     -31.785   8.185   2.385  1.00 20.00    -0.130 Cl
ENDBRANCH   2   9
TORSDOF 3
ENDMDL
MODEL 2
REMARK VINA RESULT:      -4.5      1.496      2.961
REMARK  3 active torsions:
REMARK  status: ('A' for Active; 'I' for Inactive)
REMARK    1  A    between atoms: C2_2  and  C7_7 
REMARK    2  A    between atoms: C3_3  and  C9_9 
REMARK    3  A    between atoms: C8_8  and  C9_9 
ROOT
HETATM    1  C1  UNL     1     -31.434   7.468   3.853  1.00 20.00     0.016 A 
HETATM    2  C2  UNL     1     -32.023   7.703   2.492  1.00 20.00     0.009 A 
HETATM    3  C3  UNL     1     -32.530   6.545   3.348  1.00 20.00    -0.036 A 
HETATM    4  C4  UNL     1     -32.140   5.153   2.924  1.00 20.00     0.016 C 
ENDROOT
BRANCH   3   5
HETATM    5  C9  UNL     1     -33.884   6.629   4.003  1.00 20.00    -0.010 C 
HETATM    6  C6  UNL     1     -33.747   6.637   5.535  1.00 20.00     0.011 C 
BRANCH   5   7
HETATM    7  C8  UNL     1     -34.833   5.474   3.599  1.00 20.00     0.000 C 
HETATM    8  C5  UNL     1     -35.239   4.594   4.773  1.00 20.00     0.005 C 
ENDBRANCH   5   7
ENDBRANCH   3   5
BRANCH   2   9
HETATM    9  C7  UNL     1     -32.835   8.924   2.225  1.00 20.00     0.120 C 
HETATM   10 CL10 UNL     1     -32.406   9.656   0.654  1.00 20.00    -0.130 Cl
ENDBRANCH   2   9
TORSDOF 3
ENDMDL
MODEL 3
REMARK VINA RESULT:      -4.4     11.672     12.783
REMARK  3 active torsions:
REMARK  status: ('A' for Active; 'I' for Inactive)
REMARK    1  A    between atoms: C2_2  and  C7_7 
REMARK    2  A    between atoms: C3_3  and  C9_9 
REMARK    3  A    between atoms: C8_8  and  C9_9 
ROOT
HETATM    1  C1  UNL     1     -34.870  14.035  -5.523  1.00 20.00     0.016 A 
HETATM    2  C2  UNL     1     -35.626  13.798  -4.247  1.00 20.00     0.009 A 
HETATM    3  C3  UNL     1     -34.270  14.499  -4.206  1.00 20.00    -0.036 A 
HETATM    4  C4  UNL     1     -33.109  13.720  -3.648  1.00 20.00     0.016 C 
ENDROOT
BRANCH   3   5
HETATM    5  C9  UNL     1     -34.196  15.980  -3.943  1.00 20.00    -0.010 C 
HETATM    6  C6  UNL     1     -33.311  16.674  -4.993  1.00 20.00     0.011 C 
BRANCH   5   7
HETATM    7  C8  UNL     1     -33.654  16.327  -2.535  1.00 20.00     0.000 C 
HETATM    8  C5  UNL     1     -34.737  16.351  -1.466  1.00 20.00     0.005 C 
ENDBRANCH   5   7
ENDBRANCH   3   5
BRANCH   2   9
HETATM    9  C7  UNL     1     -36.910  14.510  -3.990  1.00 20.00     0.120 C 
HETATM   10 CL10 UNL     1     -37.545  15.258  -5.482  1.00 20.00    -0.130 Cl
ENDBRANCH   2   9
TORSDOF 3
ENDMDL
MODEL 4
REMARK VINA RESULT:      -4.2     11.825     13.273
REMARK  3 active torsions:
REMARK  status: ('A' for Active; 'I' for Inactive)
REMARK    1  A    between atoms: C2_2  and  C7_7 
REMARK    2  A    between atoms: C3_3  and  C9_9 
REMARK    3  A    between atoms: C8_8  and  C9_9 
ROOT
HETATM    1  C1  UNL     1     -34.624  15.617  -2.301  1.00 20.00     0.016 A 
HETATM    2  C2  UNL     1     -33.709  16.359  -3.231  1.00 20.00     0.009 A 
HETATM    3  C3  UNL     1     -34.308  15.022  -3.664  1.00 20.00    -0.036 A 
HETATM    4  C4  UNL     1     -33.381  13.837  -3.718  1.00 20.00     0.016 C 
ENDROOT
BRANCH   3   5
HETATM    5  C9  UNL     1     -35.407  14.988  -4.694  1.00 20.00    -0.010 C 
HETATM    6  C6  UNL     1     -36.713  14.459  -4.077  1.00 20.00     0.011 C 
BRANCH   5   7
HETATM    7  C8  UNL     1     -35.060  14.124  -5.931  1.00 20.00     0.000 C 
HETATM    8  C5  UNL     1     -34.550  14.941  -7.109  1.00 20.00     0.005 C 
ENDBRANCH   5   7
ENDBRANCH   3   5
BRANCH   2   9
HETATM    9  C7  UNL     1     -34.131  17.661  -3.822  1.00 20.00     0.120 C 
HETATM   10 CL10 UNL     1     -33.353  17.935  -5.406  1.00 20.00    -0.130 Cl
ENDBRANCH   2   9
TORSDOF 3
ENDMDL
MODEL 5
REMARK VINA RESULT:      -4.1     11.942     13.355
REMARK  3 active torsions:
REMARK  status: ('A' for Active; 'I' for Inactive)
REMARK    1  A    between atoms: C2_2  and  C7_7 
REMARK    2  A    between atoms: C3_3  and  C9_9 
REMARK    3  A    between atoms: C8_8  and  C9_9 
ROOT
HETATM    1  C1  UNL     1     -32.898  15.050  -3.562  1.00 20.00     0.016 A 
HETATM    2  C2  UNL     1     -33.781  16.150  -3.048  1.00 20.00     0.009 A 
HETATM    3  C3  UNL     1     -33.882  15.716  -4.510  1.00 20.00    -0.036 A 
HETATM    4  C4  UNL     1     -33.332  16.660  -5.547  1.00 20.00     0.016 C 
ENDROOT
BRANCH   3   5
HETATM    5  C9  UNL     1     -35.069  14.916  -4.977  1.00 20.00    -0.010 C 
HETATM    6  C6  UNL     1     -34.700  13.429  -5.114  1.00 20.00     0.011 C 
BRANCH   5   7
HETATM    7  C8  UNL     1     -35.646  15.407  -6.327  1.00 20.00     0.000 C 
HETATM    8  C5  UNL     1     -35.460  14.406  -7.458  1.00 20.00     0.005 C 
ENDBRANCH   5   7
ENDBRANCH   3   5
BRANCH   2   9
HETATM    9  C7  UNL     1     -34.844  15.856  -2.045  1.00 20.00     0.120 C 
HETATM   10 CL10 UNL     1     -34.559  16.744  -0.522  1.00 20.00    -0.130 Cl
ENDBRANCH   2   9
TORSDOF 3
ENDMDL
MODEL 6
REMARK VINA RESULT:      -3.9     12.122     13.440
REMARK  3 active torsions:
REMARK  status: ('A' for Active; 'I' for Inactive)
REMARK    1  A    between atoms: C2_2  and  C7_7 
REMARK    2  A    between atoms: C3_3  and  C9_9 
REMARK    3  A    between atoms: C8_8  and  C9_9 
ROOT
HETATM    1  C1  UNL     1     -34.411  14.920  -6.828  1.00 20.00     0.016 A 
HETATM    2  C2  UNL     1     -35.857  14.727  -6.470  1.00 20.00     0.009 A 
HETATM    3  C3  UNL     1     -34.785  14.610  -5.388  1.00 20.00    -0.036 A 
HETATM    4  C4  UNL     1     -34.484  13.231  -4.863  1.00 20.00     0.016 C 
ENDROOT
BRANCH   3   5
HETATM    5  C9  UNL     1     -34.627  15.703  -4.364  1.00 20.00    -0.010 C 
HETATM    6  C6  UNL     1     -33.225  16.330  -4.451  1.00 20.00     0.011 C 
BRANCH   5   7
HETATM    7  C8  UNL     1     -34.863  15.221  -2.912  1.00 20.00     0.000 C 
HETATM    8  C5  UNL     1     -34.471  16.256  -1.866  1.00 20.00     0.005 C 
ENDBRANCH   5   7
ENDBRANCH   3   5
BRANCH   2   9
HETATM    9  C7  UNL     1     -36.809  15.871  -6.542  1.00 20.00     0.120 C 
HETATM   10 CL10 UNL     1     -38.250  15.578  -5.528  1.00 20.00    -0.130 Cl
ENDBRANCH   2   9
TORSDOF 3
ENDMDL
MODEL 7
REMARK VINA RESULT:      -3.9     11.840     13.439
REMARK  3 active torsions:
REMARK  status: ('A' for Active; 'I' for Inactive)
REMARK    1  A    between atoms: C2_2  and  C7_7 
REMARK    2  A    between atoms: C3_3  and  C9_9 
REMARK    3  A    between atoms: C8_8  and  C9_9 
ROOT
HETATM    1  C1  UNL     1     -36.005  15.217  -3.146  1.00 20.00     0.016 A 
HETATM    2  C2  UNL     1     -34.523  15.302  -2.922  1.00 20.00     0.009 A 
HETATM    3  C3  UNL     1     -35.061  14.760  -4.245  1.00 20.00    -0.036 A 
HETATM    4  C4  UNL     1     -34.926  13.280  -4.489  1.00 20.00     0.016 C 
ENDROOT
BRANCH   3   5
HETATM    5  C9  UNL     1     -34.969  15.597  -5.494  1.00 20.00    -0.010 C 
HETATM    6  C6  UNL     1     -36.350  16.159  -5.873  1.00 20.00     0.011 C 
BRANCH   5   7
HETATM    7  C8  UNL     1     -34.401  14.825  -6.709  1.00 20.00     0.000 C 
HETATM    8  C5  UNL     1     -35.345  14.807  -7.903  1.00 20.00     0.005 C 
ENDBRANCH   5   7
ENDBRANCH   3   5
BRANCH   2   9
HETATM    9  C7  UNL     1     -33.855  16.629  -2.806  1.00 20.00     0.120 C 
HETATM   10 CL10 UNL     1     -33.785  17.172  -1.107  1.00 20.00    -0.130 Cl
ENDBRANCH   2   9
TORSDOF 3
ENDMDL
MODEL 8
REMARK VINA RESULT:      -3.8     11.951     13.489
REMARK  3 active torsions:
REMARK  status: ('A' for Active; 'I' for Inactive)
REMARK    1  A    between atoms: C2_2  and  C7_7 
REMARK    2  A    between atoms: C3_3  and  C9_9 
REMARK    3  A    between atoms: C8_8  and  C9_9 
ROOT
HETATM    1  C1  UNL     1     -35.342  13.611  -4.304  1.00 20.00     0.016 A 
HETATM    2  C2  UNL     1     -35.575  14.737  -3.339  1.00 20.00     0.009 A 
HETATM    3  C3  UNL     1     -34.399  14.803  -4.312  1.00 20.00    -0.036 A 
HETATM    4  C4  UNL     1     -33.020  14.613  -3.738  1.00 20.00     0.016 C 
ENDROOT
BRANCH   3   5
HETATM    5  C9  UNL     1     -34.449  15.738  -5.491  1.00 20.00    -0.010 C 
HETATM    6  C6  UNL     1     -34.387  14.951  -6.811  1.00 20.00     0.011 C 
BRANCH   5   7
HETATM    7  C8  UNL     1     -33.311  16.788  -5.489  1.00 20.00     0.000 C 
HETATM    8  C5  UNL     1     -33.710  18.102  -4.833  1.00 20.00     0.005 C 
ENDBRANCH   5   7
ENDBRANCH   3   5
BRANCH   2   9
HETATM    9  C7  UNL     1     -36.780  15.604  -3.471  1.00 20.00     0.120 C 
HETATM   10 CL10 UNL     1     -38.201  14.661  -3.997  1.00 20.00    -0.130 Cl
ENDBRANCH   2   9
TORSDOF 3
ENDMDL
MODEL 9
REMARK VINA RESULT:      -3.8     12.354     13.520
REMARK  3 active torsions:
REMARK  status: ('A' for Active; 'I' for Inactive)
REMARK    1  A    between atoms: C2_2  and  C7_7 
REMARK    2  A    between atoms: C3_3  and  C9_9 
REMARK    3  A    between atoms: C8_8  and  C9_9 
ROOT
HETATM    1  C1  UNL     1     -34.225  15.380  -6.421  1.00 20.00     0.016 A 
HETATM    2  C2  UNL     1     -34.635  16.724  -5.891  1.00 20.00     0.009 A 
HETATM    3  C3  UNL     1     -34.856  15.473  -5.042  1.00 20.00    -0.036 A 
HETATM    4  C4  UNL     1     -36.274  14.991  -4.882  1.00 20.00     0.016 C 
ENDROOT
BRANCH   3   5
HETATM    5  C9  UNL     1     -33.982  15.212  -3.844  1.00 20.00    -0.010 C 
HETATM    6  C6  UNL     1     -33.529  13.742  -3.812  1.00 20.00     0.011 C 
BRANCH   5   7
HETATM    7  C8  UNL     1     -34.671  15.544  -2.498  1.00 20.00     0.000 C 
HETATM    8  C5  UNL     1     -34.018  16.705  -1.761  1.00 20.00     0.005 C 
ENDBRANCH   5   7
ENDBRANCH   3   5
BRANCH   2   9
HETATM    9  C7  UNL     1     -33.604  17.749  -5.562  1.00 20.00     0.120 C 
HETATM   10 CL10 UNL     1     -33.589  19.062  -6.771  1.00 20.00    -0.130 Cl
ENDBRANCH   2   9
TORSDOF 3
ENDMDL
