MODEL 1
REMARK VINA RESULT:      -4.6      0.000      0.000
REMARK  1 active torsions:
REMARK  status: ('A' for Active; 'I' for Inactive)
REMARK    1  A    between atoms: C5_5  and  C10_10 
ROOT
HETATM    1  C1  UNL     1     -36.671  14.765  -4.258  1.00 20.00     0.036 C 
HETATM    2  C2  UNL     1     -34.763  13.109  -4.814  1.00 20.00     0.016 A 
HETATM    3  C3  UNL     1     -34.558  14.859  -2.913  1.00 20.00     0.047 C 
HETATM    4  C4  UNL     1     -36.859  16.248  -3.966  1.00 20.00     0.169 C 
HETATM    5  C5  UNL     1     -34.346  14.396  -5.470  1.00 20.00     0.009 A 
HETATM    6  C6  UNL     1     -35.202  14.426  -4.213  1.00 20.00    -0.031 A 
HETATM    7  C7  UNL     1     -34.864  16.340  -2.606  1.00 20.00     0.054 C 
HETATM    8  C8  UNL     1     -34.497  16.631  -1.143  1.00 20.00     0.045 C 
HETATM    9  C9  UNL     1     -34.064  17.298  -3.501  1.00 20.00     0.045 C 
HETATM   10  O11 UNL     1     -36.275  16.598  -2.710  1.00 20.00    -0.381 OA
ENDROOT
BRANCH   5  11
HETATM   11  C10 UNL     1     -34.873  14.758  -6.817  1.00 20.00     0.120 C 
HETATM   12 CL12 UNL     1     -34.566  16.476  -7.191  1.00 20.00    -0.130 Cl
ENDBRANCH   5  11
TORSDOF 1
ENDMDL
MODEL 2
REMARK VINA RESULT:      -4.4      1.872      2.581
REMARK  1 active torsions:
REMARK  status: ('A' for Active; 'I' for Inactive)
REMARK    1  A    between atoms: C5_5  and  C10_10 
ROOT
HETATM    1  C1  UNL     1     -35.905  17.076  -3.114  1.00 20.00     0.036 C 
HETATM    2  C2  UNL     1     -34.542  14.879  -3.208  1.00 20.00     0.016 A 
HETATM    3  C3  UNL     1     -34.645  16.347  -1.074  1.00 20.00     0.047 C 
HETATM    4  C4  UNL     1     -35.742  18.512  -2.636  1.00 20.00     0.169 C 
HETATM    5  C5  UNL     1     -33.519  15.964  -3.394  1.00 20.00     0.009 A 
HETATM    6  C6  UNL     1     -34.774  16.234  -2.578  1.00 20.00    -0.031 A 
HETATM    7  C7  UNL     1     -34.589  17.822  -0.627  1.00 20.00     0.054 C 
HETATM    8  C8  UNL     1     -34.809  17.891   0.892  1.00 20.00     0.045 C 
HETATM    9  C9  UNL     1     -33.236  18.476  -0.946  1.00 20.00     0.045 C 
HETATM   10  O11 UNL     1     -35.671  18.570  -1.210  1.00 20.00    -0.381 OA
ENDROOT
BRANCH   5  11
HETATM   11  C10 UNL     1     -33.287  16.556  -4.742  1.00 20.00     0.120 C 
HETATM   12 CL12 UNL     1     -34.054  15.574  -6.020  1.00 20.00    -0.130 Cl
ENDBRANCH   5  11
TORSDOF 1
ENDMDL
MODEL 3
REMARK VINA RESULT:      -4.4      1.596      3.149
REMARK  1 active torsions:
REMARK  status: ('A' for Active; 'I' for Inactive)
REMARK    1  A    between atoms: C5_5  and  C10_10 
ROOT
HETATM    1  C1  UNL     1     -34.613  14.379  -3.341  1.00 20.00     0.036 C 
HETATM    2  C2  UNL     1     -33.993  16.817  -2.736  1.00 20.00     0.016 A 
HETATM    3  C3  UNL     1     -36.453  16.052  -3.031  1.00 20.00     0.047 C 
HETATM    4  C4  UNL     1     -35.529  13.628  -4.297  1.00 20.00     0.169 C 
HETATM    5  C5  UNL     1     -34.272  16.856  -4.213  1.00 20.00     0.009 A 
HETATM    6  C6  UNL     1     -34.984  15.841  -3.331  1.00 20.00    -0.031 A 
HETATM    7  C7  UNL     1     -37.340  15.191  -3.954  1.00 20.00     0.054 C 
HETATM    8  C8  UNL     1     -38.770  15.171  -3.392  1.00 20.00     0.045 C 
HETATM    9  C9  UNL     1     -37.396  15.741  -5.387  1.00 20.00     0.045 C 
HETATM   10  O11 UNL     1     -36.901  13.822  -3.945  1.00 20.00    -0.381 OA
ENDROOT
BRANCH   5  11
HETATM   11  C10 UNL     1     -33.210  16.477  -5.188  1.00 20.00     0.120 C 
HETATM   12 CL12 UNL     1     -33.916  15.852  -6.703  1.00 20.00    -0.130 Cl
ENDBRANCH   5  11
TORSDOF 1
ENDMDL
MODEL 4
REMARK VINA RESULT:      -4.4      2.638      4.306
REMARK  1 active torsions:
REMARK  status: ('A' for Active; 'I' for Inactive)
REMARK    1  A    between atoms: C5_5  and  C10_10 
ROOT
HETATM    1  C1  UNL     1     -33.294  16.376  -4.835  1.00 20.00     0.036 C 
HETATM    2  C2  UNL     1     -33.925  14.595  -3.067  1.00 20.00     0.016 A 
HETATM    3  C3  UNL     1     -34.738  14.447  -5.524  1.00 20.00     0.047 C 
HETATM    4  C4  UNL     1     -33.961  17.198  -5.930  1.00 20.00     0.169 C 
HETATM    5  C5  UNL     1     -35.139  15.476  -3.163  1.00 20.00     0.009 A 
HETATM    6  C6  UNL     1     -34.237  15.292  -4.373  1.00 20.00    -0.031 A 
HETATM    7  C7  UNL     1     -35.309  15.328  -6.656  1.00 20.00     0.054 C 
HETATM    8  C8  UNL     1     -35.477  14.469  -7.918  1.00 20.00     0.045 C 
HETATM    9  C9  UNL     1     -36.678  15.924  -6.295  1.00 20.00     0.045 C 
HETATM   10  O11 UNL     1     -34.376  16.362  -7.012  1.00 20.00    -0.381 OA
ENDROOT
BRANCH   5  11
HETATM   11  C10 UNL     1     -35.207  16.748  -2.389  1.00 20.00     0.120 C 
HETATM   12 CL12 UNL     1     -34.557  16.538  -0.740  1.00 20.00    -0.130 Cl
ENDBRANCH   5  11
TORSDOF 1
ENDMDL
MODEL 5
REMARK VINA RESULT:      -4.3      2.466      4.290
REMARK  1 active torsions:
REMARK  status: ('A' for Active; 'I' for Inactive)
REMARK    1  A    between atoms: C5_5  and  C10_10 
ROOT
HETATM    1  C1  UNL     1     -35.456  14.069  -3.758  1.00 20.00     0.036 C 
HETATM    2  C2  UNL     1     -36.524  16.345  -3.148  1.00 20.00     0.016 A 
HETATM    3  C3  UNL     1     -36.308  15.537  -5.601  1.00 20.00     0.047 C 
HETATM    4  C4  UNL     1     -34.451  13.498  -4.749  1.00 20.00     0.169 C 
HETATM    5  C5  UNL     1     -35.127  16.690  -3.584  1.00 20.00     0.009 A 
HETATM    6  C6  UNL     1     -35.827  15.472  -4.168  1.00 20.00    -0.031 A 
HETATM    7  C7  UNL     1     -35.309  14.853  -6.558  1.00 20.00     0.054 C 
HETATM    8  C8  UNL     1     -35.989  14.637  -7.917  1.00 20.00     0.045 C 
HETATM    9  C9  UNL     1     -34.046  15.698  -6.782  1.00 20.00     0.045 C 
HETATM   10  O11 UNL     1     -34.970  13.539  -6.080  1.00 20.00    -0.381 OA
ENDROOT
BRANCH   5  11
HETATM   11  C10 UNL     1     -33.993  16.589  -2.622  1.00 20.00     0.120 C 
HETATM   12 CL12 UNL     1     -34.580  16.474  -0.940  1.00 20.00    -0.130 Cl
ENDBRANCH   5  11
TORSDOF 1
ENDMDL
MODEL 6
REMARK VINA RESULT:      -4.3      2.854      4.415
REMARK  1 active torsions:
REMARK  status: ('A' for Active; 'I' for Inactive)
REMARK    1  A    between atoms: C5_5  and  C10_10 
ROOT
HETATM    1  C1  UNL     1     -33.357  15.799  -2.970  1.00 20.00     0.036 C 
HETATM    2  C2  UNL     1     -34.653  16.530  -0.853  1.00 20.00     0.016 A 
HETATM    3  C3  UNL     1     -35.862  15.822  -3.035  1.00 20.00     0.047 C 
HETATM    4  C4  UNL     1     -33.368  16.051  -4.472  1.00 20.00     0.169 C 
HETATM    5  C5  UNL     1     -34.666  17.744  -1.741  1.00 20.00     0.009 A 
HETATM    6  C6  UNL     1     -34.618  16.353  -2.356  1.00 20.00    -0.031 A 
HETATM    7  C7  UNL     1     -35.783  16.004  -4.566  1.00 20.00     0.054 C 
HETATM    8  C8  UNL     1     -36.880  15.154  -5.225  1.00 20.00     0.045 C 
HETATM    9  C9  UNL     1     -35.988  17.466  -4.989  1.00 20.00     0.045 C 
HETATM   10  O11 UNL     1     -34.538  15.493  -5.073  1.00 20.00    -0.381 OA
ENDROOT
BRANCH   5  11
HETATM   11  C10 UNL     1     -33.504  18.676  -1.755  1.00 20.00     0.120 C 
HETATM   12 CL12 UNL     1     -32.593  18.598  -0.222  1.00 20.00    -0.130 Cl
ENDBRANCH   5  11
TORSDOF 1
ENDMDL
MODEL 7
REMARK VINA RESULT:      -4.3      2.195      4.124
REMARK  1 active torsions:
REMARK  status: ('A' for Active; 'I' for Inactive)
REMARK    1  A    between atoms: C5_5  and  C10_10 
ROOT
HETATM    1  C1  UNL     1     -34.023  17.393  -3.925  1.00 20.00     0.036 C 
HETATM    2  C2  UNL     1     -33.667  17.012  -1.390  1.00 20.00     0.016 A 
HETATM    3  C3  UNL     1     -34.021  15.047  -3.044  1.00 20.00     0.047 C 
HETATM    4  C4  UNL     1     -34.939  16.916  -5.043  1.00 20.00     0.169 C 
HETATM    5  C5  UNL     1     -35.153  16.887  -1.584  1.00 20.00     0.009 A 
HETATM    6  C6  UNL     1     -34.205  16.513  -2.713  1.00 20.00    -0.031 A 
HETATM    7  C7  UNL     1     -34.890  14.634  -4.250  1.00 20.00     0.054 C 
HETATM    8  C8  UNL     1     -34.418  13.263  -4.757  1.00 20.00     0.045 C 
HETATM    9  C9  UNL     1     -36.378  14.524  -3.885  1.00 20.00     0.045 C 
HETATM   10  O11 UNL     1     -34.697  15.542  -5.348  1.00 20.00    -0.381 OA
ENDROOT
BRANCH   5  11
HETATM   11  C10 UNL     1     -36.011  18.106  -1.618  1.00 20.00     0.120 C 
HETATM   12 CL12 UNL     1     -37.567  17.778  -2.428  1.00 20.00    -0.130 Cl
ENDBRANCH   5  11
TORSDOF 1
ENDMDL
MODEL 8
REMARK VINA RESULT:      -4.3      2.653      4.063
REMARK  1 active torsions:
REMARK  status: ('A' for Active; 'I' for Inactive)
REMARK    1  A    between atoms: C5_5  and  C10_10 
ROOT
HETATM    1  C1  UNL     1     -33.443  16.236  -5.429  1.00 20.00     0.036 C 
HETATM    2  C2  UNL     1     -33.433  14.237  -3.786  1.00 20.00     0.016 A 
HETATM    3  C3  UNL     1     -35.353  14.616  -5.486  1.00 20.00     0.047 C 
HETATM    4  C4  UNL     1     -34.402  17.304  -5.937  1.00 20.00     0.169 C 
HETATM    5  C5  UNL     1     -34.363  15.237  -3.156  1.00 20.00     0.009 A 
HETATM    6  C6  UNL     1     -34.214  15.186  -4.669  1.00 20.00    -0.031 A 
HETATM    7  C7  UNL     1     -36.238  15.737  -6.069  1.00 20.00     0.054 C 
HETATM    8  C8  UNL     1     -37.149  15.140  -7.152  1.00 20.00     0.045 C 
HETATM    9  C9  UNL     1     -37.127  16.392  -5.001  1.00 20.00     0.045 C 
HETATM   10  O11 UNL     1     -35.432  16.722  -6.739  1.00 20.00    -0.381 OA
ENDROOT
BRANCH   5  11
HETATM   11  C10 UNL     1     -33.819  16.350  -2.326  1.00 20.00     0.120 C 
HETATM   12 CL12 UNL     1     -34.705  16.499  -0.784  1.00 20.00    -0.130 Cl
ENDBRANCH   5  11
TORSDOF 1
ENDMDL
MODEL 9
REMARK VINA RESULT:      -4.3      2.491      4.274
REMARK  1 active torsions:
REMARK  status: ('A' for Active; 'I' for Inactive)
REMARK    1  A    between atoms: C5_5  and  C10_10 
ROOT
HETATM    1  C1  UNL     1     -36.362  16.891  -3.367  1.00 20.00     0.036 C 
HETATM    2  C2  UNL     1     -34.042  17.947  -2.922  1.00 20.00     0.016 A 
HETATM    3  C3  UNL     1     -34.386  16.058  -4.664  1.00 20.00     0.047 C 
HETATM    4  C4  UNL     1     -36.986  15.513  -3.535  1.00 20.00     0.169 C 
HETATM    5  C5  UNL     1     -34.021  16.655  -2.153  1.00 20.00     0.009 A 
HETATM    6  C6  UNL     1     -34.859  16.774  -3.417  1.00 20.00    -0.031 A 
HETATM    7  C7  UNL     1     -35.122  14.715  -4.850  1.00 20.00     0.054 C 
HETATM    8  C8  UNL     1     -34.872  14.204  -6.277  1.00 20.00     0.045 C 
HETATM    9  C9  UNL     1     -34.634  13.643  -3.864  1.00 20.00     0.045 C 
HETATM   10  O11 UNL     1     -36.545  14.898  -4.748  1.00 20.00    -0.381 OA
ENDROOT
BRANCH   5  11
HETATM   11  C10 UNL     1     -34.619  16.583  -0.789  1.00 20.00     0.120 C 
HETATM   12 CL12 UNL     1     -34.020  17.905   0.250  1.00 20.00    -0.130 Cl
ENDBRANCH   5  11
TORSDOF 1
ENDMDL
