MODEL 1
REMARK VINA RESULT:      -4.7      0.000      0.000
REMARK  1 active torsions:
REMARK  status: ('A' for Active; 'I' for Inactive)
REMARK    1  A    between atoms: C1_1  and  C5_5 
ROOT
HETATM    1  C2  UNL     1     -33.606  15.308  -3.493  1.00 20.00     0.013 C 
HETATM    2  C3  UNL     1     -33.668  16.261  -2.301  1.00 20.00     0.009 C 
HETATM    3  C4  UNL     1     -36.161  16.493  -2.612  1.00 20.00     0.013 C 
HETATM    4  C5  UNL     1     -34.927  14.566  -3.705  1.00 20.00     0.059 C 
HETATM    5  C6  UNL     1     -36.124  15.528  -3.812  1.00 20.00    -0.007 C 
HETATM    6  C7  UNL     1     -34.840  17.261  -2.383  1.00 20.00    -0.047 C 
HETATM    7  C9  UNL     1     -37.452  14.766  -3.893  1.00 20.00     0.011 C 
HETATM    8  C10 UNL     1     -34.934  18.030  -1.051  1.00 20.00     0.015 C 
HETATM    9  C11 UNL     1     -34.605  18.289  -3.507  1.00 20.00     0.015 C 
ENDROOT
BRANCH   4  10
HETATM   10  C1  UNL     1     -34.792  13.742  -4.952  1.00 20.00     0.127 C 
HETATM   11  C8  UNL     1     -34.655  14.495  -6.249  1.00 20.00     0.091 C 
HETATM   12  O12 UNL     1     -34.793  12.513  -4.917  1.00 20.00    -0.298 OA
ENDBRANCH   4  10
TORSDOF 1
ENDMDL
MODEL 2
REMARK VINA RESULT:      -4.5      2.002      3.621
REMARK  1 active torsions:
REMARK  status: ('A' for Active; 'I' for Inactive)
REMARK    1  A    between atoms: C1_1  and  C5_5 
ROOT
HETATM    1  C2  UNL     1     -35.436  15.406  -6.621  1.00 20.00     0.013 C 
HETATM    2  C3  UNL     1     -34.868  16.612  -7.365  1.00 20.00     0.009 C 
HETATM    3  C4  UNL     1     -33.454  17.190  -5.356  1.00 20.00     0.013 C 
HETATM    4  C5  UNL     1     -34.467  14.873  -5.563  1.00 20.00     0.059 C 
HETATM    5  C6  UNL     1     -34.008  15.974  -4.589  1.00 20.00    -0.007 C 
HETATM    6  C7  UNL     1     -34.419  17.750  -6.425  1.00 20.00    -0.047 C 
HETATM    7  C9  UNL     1     -32.940  15.455  -3.619  1.00 20.00     0.011 C 
HETATM    8  C10 UNL     1     -33.681  18.820  -7.253  1.00 20.00     0.015 C 
HETATM    9  C11 UNL     1     -35.636  18.423  -5.761  1.00 20.00     0.015 C 
ENDROOT
BRANCH   4  10
HETATM   10  C1  UNL     1     -35.160  13.765  -4.826  1.00 20.00     0.127 C 
HETATM   11  C8  UNL     1     -36.404  14.134  -4.063  1.00 20.00     0.091 C 
HETATM   12  O12 UNL     1     -34.734  12.612  -4.846  1.00 20.00    -0.298 OA
ENDBRANCH   4  10
TORSDOF 1
ENDMDL
MODEL 3
REMARK VINA RESULT:      -4.5      1.602      2.727
REMARK  1 active torsions:
REMARK  status: ('A' for Active; 'I' for Inactive)
REMARK    1  A    between atoms: C1_1  and  C5_5 
ROOT
HETATM    1  C2  UNL     1     -35.302  15.836  -3.409  1.00 20.00     0.013 C 
HETATM    2  C3  UNL     1     -35.879  17.219  -3.703  1.00 20.00     0.009 C 
HETATM    3  C4  UNL     1     -35.018  17.078  -6.071  1.00 20.00     0.013 C 
HETATM    4  C5  UNL     1     -35.206  14.972  -4.669  1.00 20.00     0.059 C 
HETATM    5  C6  UNL     1     -34.435  15.678  -5.800  1.00 20.00    -0.007 C 
HETATM    6  C7  UNL     1     -35.117  17.971  -4.815  1.00 20.00    -0.047 C 
HETATM    7  C9  UNL     1     -34.460  14.857  -7.094  1.00 20.00     0.011 C 
HETATM    8  C10 UNL     1     -35.894  19.252  -5.173  1.00 20.00     0.015 C 
HETATM    9  C11 UNL     1     -33.715  18.389  -4.331  1.00 20.00     0.015 C 
ENDROOT
BRANCH   4  10
HETATM   10  C1  UNL     1     -34.535  13.685  -4.290  1.00 20.00     0.127 C 
HETATM   11  C8  UNL     1     -33.160  13.790  -3.687  1.00 20.00     0.091 C 
HETATM   12  O12 UNL     1     -35.082  12.597  -4.462  1.00 20.00    -0.298 OA
ENDBRANCH   4  10
TORSDOF 1
ENDMDL
MODEL 4
REMARK VINA RESULT:      -4.5      1.638      2.748
REMARK  1 active torsions:
REMARK  status: ('A' for Active; 'I' for Inactive)
REMARK    1  A    between atoms: C1_1  and  C5_5 
ROOT
HETATM    1  C2  UNL     1     -36.375  17.377  -2.908  1.00 20.00     0.013 C 
HETATM    2  C3  UNL     1     -35.323  18.307  -2.309  1.00 20.00     0.009 C 
HETATM    3  C4  UNL     1     -33.669  16.402  -2.249  1.00 20.00     0.013 C 
HETATM    4  C5  UNL     1     -35.745  16.226  -3.695  1.00 20.00     0.059 C 
HETATM    5  C6  UNL     1     -34.712  15.448  -2.859  1.00 20.00    -0.007 C 
HETATM    6  C7  UNL     1     -34.282  17.569  -1.442  1.00 20.00    -0.047 C 
HETATM    7  C9  UNL     1     -33.997  14.383  -3.700  1.00 20.00     0.011 C 
HETATM    8  C10 UNL     1     -33.161  18.555  -1.060  1.00 20.00     0.015 C 
HETATM    9  C11 UNL     1     -34.922  17.053  -0.139  1.00 20.00     0.015 C 
ENDROOT
BRANCH   4  10
HETATM   10  C1  UNL     1     -36.854  15.322  -4.147  1.00 20.00     0.127 C 
HETATM   11  C8  UNL     1     -37.135  15.282  -5.626  1.00 20.00     0.091 C 
HETATM   12  O12 UNL     1     -37.502  14.646  -3.350  1.00 20.00    -0.298 OA
ENDBRANCH   4  10
TORSDOF 1
ENDMDL
MODEL 5
REMARK VINA RESULT:      -4.4      1.588      2.156
REMARK  1 active torsions:
REMARK  status: ('A' for Active; 'I' for Inactive)
REMARK    1  A    between atoms: C1_1  and  C5_5 
ROOT
HETATM    1  C2  UNL     1     -34.347  17.087  -5.068  1.00 20.00     0.013 C 
HETATM    2  C3  UNL     1     -33.831  17.498  -3.691  1.00 20.00     0.009 C 
HETATM    3  C4  UNL     1     -34.563  15.274  -2.750  1.00 20.00     0.013 C 
HETATM    4  C5  UNL     1     -34.332  15.569  -5.259  1.00 20.00     0.059 C 
HETATM    5  C6  UNL     1     -35.082  14.835  -4.132  1.00 20.00    -0.007 C 
HETATM    6  C7  UNL     1     -34.576  16.803  -2.531  1.00 20.00    -0.047 C 
HETATM    7  C9  UNL     1     -34.948  13.314  -4.266  1.00 20.00     0.011 C 
HETATM    8  C10 UNL     1     -33.852  17.125  -1.210  1.00 20.00     0.015 C 
HETATM    9  C11 UNL     1     -36.021  17.326  -2.418  1.00 20.00     0.015 C 
ENDROOT
BRANCH   4  10
HETATM   10  C1  UNL     1     -34.951  15.271  -6.593  1.00 20.00     0.127 C 
HETATM   11  C8  UNL     1     -36.401  15.634  -6.763  1.00 20.00     0.091 C 
HETATM   12  O12 UNL     1     -34.304  14.756  -7.503  1.00 20.00    -0.298 OA
ENDBRANCH   4  10
TORSDOF 1
ENDMDL
MODEL 6
REMARK VINA RESULT:      -4.4      2.076      3.934
REMARK  1 active torsions:
REMARK  status: ('A' for Active; 'I' for Inactive)
REMARK    1  A    between atoms: C1_1  and  C5_5 
ROOT
HETATM    1  C2  UNL     1     -34.673  14.656  -6.764  1.00 20.00     0.013 C 
HETATM    2  C3  UNL     1     -35.226  15.839  -7.556  1.00 20.00     0.009 C 
HETATM    3  C4  UNL     1     -36.862  16.323  -5.697  1.00 20.00     0.013 C 
HETATM    4  C5  UNL     1     -34.853  14.839  -5.256  1.00 20.00     0.059 C 
HETATM    5  C6  UNL     1     -36.315  15.140  -4.877  1.00 20.00    -0.007 C 
HETATM    6  C7  UNL     1     -36.699  16.157  -7.225  1.00 20.00    -0.047 C 
HETATM    7  C9  UNL     1     -36.456  15.449  -3.382  1.00 20.00     0.011 C 
HETATM    8  C10 UNL     1     -37.092  17.477  -7.916  1.00 20.00     0.015 C 
HETATM    9  C11 UNL     1     -37.630  15.050  -7.756  1.00 20.00     0.015 C 
ENDROOT
BRANCH   4  10
HETATM   10  C1  UNL     1     -34.376  13.585  -4.584  1.00 20.00     0.127 C 
HETATM   11  C8  UNL     1     -33.177  13.714  -3.683  1.00 20.00     0.091 C 
HETATM   12  O12 UNL     1     -34.937  12.505  -4.759  1.00 20.00    -0.298 OA
ENDBRANCH   4  10
TORSDOF 1
ENDMDL
MODEL 7
REMARK VINA RESULT:      -4.4      2.028      4.184
REMARK  1 active torsions:
REMARK  status: ('A' for Active; 'I' for Inactive)
REMARK    1  A    between atoms: C1_1  and  C5_5 
ROOT
HETATM    1  C2  UNL     1     -33.314  15.689  -3.096  1.00 20.00     0.013 C 
HETATM    2  C3  UNL     1     -33.445  15.226  -4.545  1.00 20.00     0.009 C 
HETATM    3  C4  UNL     1     -35.886  15.864  -4.532  1.00 20.00     0.013 C 
HETATM    4  C5  UNL     1     -34.335  16.773  -2.744  1.00 20.00     0.059 C 
HETATM    5  C6  UNL     1     -35.776  16.344  -3.073  1.00 20.00    -0.007 C 
HETATM    6  C7  UNL     1     -34.871  14.763  -4.909  1.00 20.00    -0.047 C 
HETATM    7  C9  UNL     1     -36.770  17.487  -2.837  1.00 20.00     0.011 C 
HETATM    8  C10 UNL     1     -34.942  14.515  -6.428  1.00 20.00     0.015 C 
HETATM    9  C11 UNL     1     -35.213  13.439  -4.198  1.00 20.00     0.015 C 
ENDROOT
BRANCH   4  10
HETATM   10  C1  UNL     1     -34.190  17.078  -1.281  1.00 20.00     0.127 C 
HETATM   11  C8  UNL     1     -33.308  18.241  -0.916  1.00 20.00     0.091 C 
HETATM   12  O12 UNL     1     -34.766  16.411  -0.424  1.00 20.00    -0.298 OA
ENDBRANCH   4  10
TORSDOF 1
ENDMDL
MODEL 8
REMARK VINA RESULT:      -4.3      2.002      4.365
REMARK  1 active torsions:
REMARK  status: ('A' for Active; 'I' for Inactive)
REMARK    1  A    between atoms: C1_1  and  C5_5 
ROOT
HETATM    1  C2  UNL     1     -35.972  16.606  -4.428  1.00 20.00     0.013 C 
HETATM    2  C3  UNL     1     -36.490  15.961  -5.711  1.00 20.00     0.009 C 
HETATM    3  C4  UNL     1     -34.501  14.408  -5.737  1.00 20.00     0.013 C 
HETATM    4  C5  UNL     1     -35.110  15.644  -3.607  1.00 20.00     0.059 C 
HETATM    5  C6  UNL     1     -33.964  15.038  -4.439  1.00 20.00    -0.007 C 
HETATM    6  C7  UNL     1     -35.369  15.363  -6.586  1.00 20.00    -0.047 C 
HETATM    7  C9  UNL     1     -33.191  13.981  -3.642  1.00 20.00     0.011 C 
HETATM    8  C10 UNL     1     -36.007  14.566  -7.740  1.00 20.00     0.015 C 
HETATM    9  C11 UNL     1     -34.505  16.479  -7.205  1.00 20.00     0.015 C 
ENDROOT
BRANCH   4  10
HETATM   10  C1  UNL     1     -34.570  16.405  -2.431  1.00 20.00     0.127 C 
HETATM   11  C8  UNL     1     -33.778  17.648  -2.735  1.00 20.00     0.091 C 
HETATM   12  O12 UNL     1     -34.767  16.031  -1.277  1.00 20.00    -0.298 OA
ENDBRANCH   4  10
TORSDOF 1
ENDMDL
MODEL 9
REMARK VINA RESULT:      -4.3      1.890      3.713
REMARK  1 active torsions:
REMARK  status: ('A' for Active; 'I' for Inactive)
REMARK    1  A    between atoms: C1_1  and  C5_5 
ROOT
HETATM    1  C2  UNL     1     -36.382  14.664  -3.592  1.00 20.00     0.013 C 
HETATM    2  C3  UNL     1     -37.788  14.853  -4.157  1.00 20.00     0.009 C 
HETATM    3  C4  UNL     1     -36.809  15.417  -6.414  1.00 20.00     0.013 C 
HETATM    4  C5  UNL     1     -35.378  14.254  -4.672  1.00 20.00     0.059 C 
HETATM    5  C6  UNL     1     -35.382  15.224  -5.867  1.00 20.00    -0.007 C 
HETATM    6  C7  UNL     1     -37.839  15.839  -5.343  1.00 20.00    -0.047 C 
HETATM    7  C9  UNL     1     -34.468  14.729  -6.995  1.00 20.00     0.011 C 
HETATM    8  C10 UNL     1     -39.249  15.801  -5.963  1.00 20.00     0.015 C 
HETATM    9  C11 UNL     1     -37.572  17.280  -4.867  1.00 20.00     0.015 C 
ENDROOT
BRANCH   4  10
HETATM   10  C1  UNL     1     -34.021  14.199  -4.035  1.00 20.00     0.127 C 
HETATM   11  C8  UNL     1     -33.484  15.488  -3.472  1.00 20.00     0.091 C 
HETATM   12  O12 UNL     1     -33.378  13.152  -3.974  1.00 20.00    -0.298 OA
ENDBRANCH   4  10
TORSDOF 1
ENDMDL
