MODEL 1
REMARK VINA RESULT:      -4.4      0.000      0.000
REMARK  1 active torsions:
REMARK  status: ('A' for Active; 'I' for Inactive)
REMARK    1  A    between atoms: C6_6  and  C8_8 
ROOT
HETATM    1  C1  UNL     1     -35.161   4.460   4.528  1.00 20.00     0.036 C 
HETATM    2  C2  UNL     1     -34.483   6.831   4.976  1.00 20.00     0.036 C 
HETATM    3  C3  UNL     1     -34.472   5.967   2.527  1.00 20.00     0.016 A 
HETATM    4  C4  UNL     1     -34.666   4.126   5.932  1.00 20.00     0.168 C 
HETATM    5  C5  UNL     1     -34.025   6.367   6.355  1.00 20.00     0.168 C 
HETATM    6  C6  UNL     1     -33.199   5.436   3.132  1.00 20.00     0.009 A 
HETATM    7  C7  UNL     1     -34.419   5.671   4.009  1.00 20.00    -0.032 A 
HETATM    8  O9  UNL     1     -34.815   5.256   6.796  1.00 20.00    -0.391 OA
ENDROOT
BRANCH   6   9
HETATM    9  C8  UNL     1     -31.982   6.293   3.190  1.00 20.00     0.120 C 
HETATM   10 CL10 UNL     1     -32.205   7.796   2.254  1.00 20.00    -0.130 Cl
ENDBRANCH   6   9
TORSDOF 1
ENDMDL
MODEL 2
REMARK VINA RESULT:      -4.2     12.220     13.010
REMARK  1 active torsions:
REMARK  status: ('A' for Active; 'I' for Inactive)
REMARK    1  A    between atoms: C6_6  and  C8_8 
ROOT
HETATM    1  C1  UNL     1     -35.896  15.101  -3.016  1.00 20.00     0.036 C 
HETATM    2  C2  UNL     1     -33.685  14.227  -3.807  1.00 20.00     0.036 C 
HETATM    3  C3  UNL     1     -33.789  16.598  -2.753  1.00 20.00     0.016 A 
HETATM    4  C4  UNL     1     -36.546  14.218  -4.077  1.00 20.00     0.168 C 
HETATM    5  C5  UNL     1     -34.456  13.392  -4.825  1.00 20.00     0.168 C 
HETATM    6  C6  UNL     1     -34.279  16.780  -4.165  1.00 20.00     0.009 A 
HETATM    7  C7  UNL     1     -34.491  15.455  -3.450  1.00 20.00    -0.032 A 
HETATM    8  O9  UNL     1     -35.751  13.053  -4.314  1.00 20.00    -0.391 OA
ENDROOT
BRANCH   6   9
HETATM    9  C8  UNL     1     -33.306  16.951  -5.280  1.00 20.00     0.120 C 
HETATM   10 CL10 UNL     1     -34.023  16.474  -6.843  1.00 20.00    -0.130 Cl
ENDBRANCH   6   9
TORSDOF 1
ENDMDL
MODEL 3
REMARK VINA RESULT:      -4.1     11.990     13.121
REMARK  1 active torsions:
REMARK  status: ('A' for Active; 'I' for Inactive)
REMARK    1  A    between atoms: C6_6  and  C8_8 
ROOT
HETATM    1  C1  UNL     1     -34.440  14.110  -5.231  1.00 20.00     0.036 C 
HETATM    2  C2  UNL     1     -36.074  15.941  -4.725  1.00 20.00     0.036 C 
HETATM    3  C3  UNL     1     -33.739  16.572  -5.671  1.00 20.00     0.016 A 
HETATM    4  C4  UNL     1     -35.123  13.293  -4.138  1.00 20.00     0.168 C 
HETATM    5  C5  UNL     1     -36.668  15.024  -3.660  1.00 20.00     0.168 C 
HETATM    6  C6  UNL     1     -33.506  16.308  -4.206  1.00 20.00     0.009 A 
HETATM    7  C7  UNL     1     -34.622  15.583  -4.943  1.00 20.00    -0.032 A 
HETATM    8  O9  UNL     1     -36.504  13.652  -4.036  1.00 20.00    -0.391 OA
ENDROOT
BRANCH   6   9
HETATM    9  C8  UNL     1     -33.760  17.377  -3.202  1.00 20.00     0.120 C 
HETATM   10 CL10 UNL     1     -33.980  16.691  -1.569  1.00 20.00    -0.130 Cl
ENDBRANCH   6   9
TORSDOF 1
ENDMDL
MODEL 4
REMARK VINA RESULT:      -4.0     12.191     12.995
REMARK  1 active torsions:
REMARK  status: ('A' for Active; 'I' for Inactive)
REMARK    1  A    between atoms: C6_6  and  C8_8 
ROOT
HETATM    1  C1  UNL     1     -35.733  13.798  -4.170  1.00 20.00     0.036 C 
HETATM    2  C2  UNL     1     -34.227  15.305  -2.850  1.00 20.00     0.036 C 
HETATM    3  C3  UNL     1     -36.649  16.091  -3.361  1.00 20.00     0.016 A 
HETATM    4  C4  UNL     1     -34.478  13.237  -4.831  1.00 20.00     0.168 C 
HETATM    5  C5  UNL     1     -33.054  14.661  -3.583  1.00 20.00     0.168 C 
HETATM    6  C6  UNL     1     -35.881  16.351  -4.630  1.00 20.00     0.009 A 
HETATM    7  C7  UNL     1     -35.467  15.214  -3.710  1.00 20.00    -0.032 A 
HETATM    8  O9  UNL     1     -33.366  13.308  -3.933  1.00 20.00    -0.391 OA
ENDROOT
BRANCH   6   9
HETATM    9  C8  UNL     1     -35.084  17.601  -4.781  1.00 20.00     0.120 C 
HETATM   10 CL10 UNL     1     -33.760  17.386  -5.958  1.00 20.00    -0.130 Cl
ENDBRANCH   6   9
TORSDOF 1
ENDMDL
MODEL 5
REMARK VINA RESULT:      -4.0     12.463     13.762
REMARK  1 active torsions:
REMARK  status: ('A' for Active; 'I' for Inactive)
REMARK    1  A    between atoms: C6_6  and  C8_8 
ROOT
HETATM    1  C1  UNL     1     -34.795  14.014  -5.945  1.00 20.00     0.036 C 
HETATM    2  C2  UNL     1     -33.545  16.003  -5.073  1.00 20.00     0.036 C 
HETATM    3  C3  UNL     1     -34.215  14.120  -3.415  1.00 20.00     0.016 A 
HETATM    4  C4  UNL     1     -35.357  14.930  -7.028  1.00 20.00     0.168 C 
HETATM    5  C5  UNL     1     -34.176  16.810  -6.204  1.00 20.00     0.168 C 
HETATM    6  C6  UNL     1     -35.469  14.930  -3.608  1.00 20.00     0.009 A 
HETATM    7  C7  UNL     1     -34.443  14.837  -4.726  1.00 20.00    -0.032 A 
HETATM    8  O9  UNL     1     -34.425  15.970  -7.336  1.00 20.00    -0.391 OA
ENDROOT
BRANCH   6   9
HETATM    9  C8  UNL     1     -35.690  16.170  -2.813  1.00 20.00     0.120 C 
HETATM   10 CL10 UNL     1     -34.618  16.223  -1.386  1.00 20.00    -0.130 Cl
ENDBRANCH   6   9
TORSDOF 1
ENDMDL
MODEL 6
REMARK VINA RESULT:      -4.0     12.357     13.597
REMARK  1 active torsions:
REMARK  status: ('A' for Active; 'I' for Inactive)
REMARK    1  A    between atoms: C6_6  and  C8_8 
ROOT
HETATM    1  C1  UNL     1     -33.291  14.794  -3.873  1.00 20.00     0.036 C 
HETATM    2  C2  UNL     1     -34.332  14.813  -6.152  1.00 20.00     0.036 C 
HETATM    3  C3  UNL     1     -33.389  17.032  -5.187  1.00 20.00     0.016 A 
HETATM    4  C4  UNL     1     -34.211  13.623  -3.539  1.00 20.00     0.168 C 
HETATM    5  C5  UNL     1     -35.194  13.641  -5.694  1.00 20.00     0.168 C 
HETATM    6  C6  UNL     1     -34.729  16.859  -4.522  1.00 20.00     0.009 A 
HETATM    7  C7  UNL     1     -33.928  15.640  -4.952  1.00 20.00    -0.032 A 
HETATM    8  O9  UNL     1     -34.497  12.861  -4.716  1.00 20.00    -0.391 OA
ENDROOT
BRANCH   6   9
HETATM    9  C8  UNL     1     -35.972  17.297  -5.216  1.00 20.00     0.120 C 
HETATM   10 CL10 UNL     1     -37.400  16.421  -4.599  1.00 20.00    -0.130 Cl
ENDBRANCH   6   9
TORSDOF 1
ENDMDL
MODEL 7
REMARK VINA RESULT:      -3.9     12.049     13.148
REMARK  1 active torsions:
REMARK  status: ('A' for Active; 'I' for Inactive)
REMARK    1  A    between atoms: C6_6  and  C8_8 
ROOT
HETATM    1  C1  UNL     1     -33.929  13.915  -3.631  1.00 20.00     0.036 C 
HETATM    2  C2  UNL     1     -34.232  16.021  -4.955  1.00 20.00     0.036 C 
HETATM    3  C3  UNL     1     -33.730  16.201  -2.413  1.00 20.00     0.016 A 
HETATM    4  C4  UNL     1     -34.850  13.232  -4.637  1.00 20.00     0.168 C 
HETATM    5  C5  UNL     1     -35.137  15.223  -5.889  1.00 20.00     0.168 C 
HETATM    6  C6  UNL     1     -35.198  15.878  -2.496  1.00 20.00     0.009 A 
HETATM    7  C7  UNL     1     -34.249  15.392  -3.580  1.00 20.00    -0.032 A 
HETATM    8  O9  UNL     1     -34.731  13.849  -5.922  1.00 20.00    -0.391 OA
ENDROOT
BRANCH   6   9
HETATM    9  C8  UNL     1     -36.193  16.965  -2.718  1.00 20.00     0.120 C 
HETATM   10 CL10 UNL     1     -37.704  16.324  -3.421  1.00 20.00    -0.130 Cl
ENDBRANCH   6   9
TORSDOF 1
ENDMDL
MODEL 8
REMARK VINA RESULT:      -3.9     11.668     12.753
REMARK  1 active torsions:
REMARK  status: ('A' for Active; 'I' for Inactive)
REMARK    1  A    between atoms: C6_6  and  C8_8 
ROOT
HETATM    1  C1  UNL     1     -33.351  14.996  -3.998  1.00 20.00     0.036 C 
HETATM    2  C2  UNL     1     -35.678  15.925  -3.961  1.00 20.00     0.036 C 
HETATM    3  C3  UNL     1     -33.713  17.440  -3.194  1.00 20.00     0.016 A 
HETATM    4  C4  UNL     1     -33.972  13.619  -3.787  1.00 20.00     0.168 C 
HETATM    5  C5  UNL     1     -36.171  14.497  -3.751  1.00 20.00     0.168 C 
HETATM    6  C6  UNL     1     -33.997  16.546  -2.015  1.00 20.00     0.009 A 
HETATM    7  C7  UNL     1     -34.269  16.053  -3.428  1.00 20.00    -0.032 A 
HETATM    8  O9  UNL     1     -35.277  13.564  -4.369  1.00 20.00    -0.391 OA
ENDROOT
BRANCH   6   9
HETATM    9  C8  UNL     1     -35.082  16.894  -1.055  1.00 20.00     0.120 C 
HETATM   10 CL10 UNL     1     -34.420  17.632   0.429  1.00 20.00    -0.130 Cl
ENDBRANCH   6   9
TORSDOF 1
ENDMDL
MODEL 9
REMARK VINA RESULT:      -3.9     12.161     13.334
REMARK  1 active torsions:
REMARK  status: ('A' for Active; 'I' for Inactive)
REMARK    1  A    between atoms: C6_6  and  C8_8 
ROOT
HETATM    1  C1  UNL     1     -33.136  15.949  -4.357  1.00 20.00     0.036 C 
HETATM    2  C2  UNL     1     -34.574  15.932  -2.304  1.00 20.00     0.036 C 
HETATM    3  C3  UNL     1     -34.248  13.719  -3.624  1.00 20.00     0.016 A 
HETATM    4  C4  UNL     1     -33.520  17.416  -4.528  1.00 20.00     0.168 C 
HETATM    5  C5  UNL     1     -34.879  17.400  -2.588  1.00 20.00     0.168 C 
HETATM    6  C6  UNL     1     -35.283  14.486  -4.403  1.00 20.00     0.009 A 
HETATM    7  C7  UNL     1     -34.229  15.231  -3.598  1.00 20.00    -0.032 A 
HETATM    8  O9  UNL     1     -33.773  18.019  -3.256  1.00 20.00    -0.391 OA
ENDROOT
BRANCH   6   9
HETATM    9  C8  UNL     1     -36.717  14.430  -4.002  1.00 20.00     0.120 C 
HETATM   10 CL10 UNL     1     -37.636  15.795  -4.694  1.00 20.00    -0.130 Cl
ENDBRANCH   6   9
TORSDOF 1
ENDMDL
