MODEL 1
REMARK VINA RESULT:      -4.9      0.000      0.000
REMARK  3 active torsions:
REMARK  status: ('A' for Active; 'I' for Inactive)
REMARK    1  A    between atoms: C4_4  and  C5_5 
REMARK    2  A    between atoms: C6_6  and  C7_7 
REMARK    3  A    between atoms: C7_7  and  O8_8 
ROOT
HETATM    1  C3  UNL     1     -34.946   5.469   3.497  1.00 20.00     0.012 A 
HETATM    2  C5  UNL     1     -33.846   6.392   3.950  1.00 20.00    -0.004 A 
HETATM    3  C6  UNL     1     -34.144   5.136   4.728  1.00 20.00     0.014 A 
ENDROOT
BRANCH   2   4
HETATM    4  C4  UNL     1     -32.557   6.579   3.165  1.00 20.00    -0.010 A 
HETATM    5  C1  UNL     1     -32.264   7.821   2.369  1.00 20.00     0.005 A 
HETATM    6  C2  UNL     1     -31.466   7.515   3.606  1.00 20.00     0.005 A 
ENDBRANCH   2   4
BRANCH   3   7
HETATM    7  C7  UNL     1     -34.771   5.217   6.076  1.00 20.00     0.169 C 
BRANCH   7   8
HETATM    8  O8  UNL     1     -35.573   4.060   6.309  1.00 20.00    -0.400 OA
HETATM    9  H20 UNL     1     -34.976   3.298   6.263  1.00 20.00     0.209 HD
ENDBRANCH   7   8
ENDBRANCH   3   7
TORSDOF 3
ENDMDL
MODEL 2
REMARK VINA RESULT:      -4.7      2.628      4.237
REMARK  3 active torsions:
REMARK  status: ('A' for Active; 'I' for Inactive)
REMARK    1  A    between atoms: C4_4  and  C5_5 
REMARK    2  A    between atoms: C6_6  and  C7_7 
REMARK    3  A    between atoms: C7_7  and  O8_8 
ROOT
HETATM    1  C3  UNL     1     -33.828   5.499   2.561  1.00 20.00     0.012 A 
HETATM    2  C5  UNL     1     -33.626   5.517   4.054  1.00 20.00    -0.004 A 
HETATM    3  C6  UNL     1     -33.383   6.765   3.246  1.00 20.00     0.014 A 
ENDROOT
BRANCH   2   4
HETATM    4  C4  UNL     1     -34.779   5.393   5.038  1.00 20.00    -0.010 A 
HETATM    5  C1  UNL     1     -34.968   4.191   5.921  1.00 20.00     0.005 A 
HETATM    6  C2  UNL     1     -34.594   5.516   6.525  1.00 20.00     0.005 A 
ENDBRANCH   2   4
BRANCH   3   7
HETATM    7  C7  UNL     1     -31.999   7.277   3.051  1.00 20.00     0.169 C 
BRANCH   7   8
HETATM    8  O8  UNL     1     -31.990   8.283   2.038  1.00 20.00    -0.400 OA
HETATM    9  H20 UNL     1     -32.512   7.933   1.300  1.00 20.00     0.209 HD
ENDBRANCH   7   8
ENDBRANCH   3   7
TORSDOF 3
ENDMDL
MODEL 3
REMARK VINA RESULT:      -4.2     11.473     12.111
REMARK  3 active torsions:
REMARK  status: ('A' for Active; 'I' for Inactive)
REMARK    1  A    between atoms: C4_4  and  C5_5 
REMARK    2  A    between atoms: C6_6  and  C7_7 
REMARK    3  A    between atoms: C7_7  and  O8_8 
ROOT
HETATM    1  C3  UNL     1     -33.407  15.693  -3.684  1.00 20.00     0.012 A 
HETATM    2  C5  UNL     1     -34.632  15.931  -2.840  1.00 20.00    -0.004 A 
HETATM    3  C6  UNL     1     -34.311  14.542  -3.327  1.00 20.00     0.014 A 
ENDROOT
BRANCH   2   4
HETATM    4  C4  UNL     1     -34.552  16.319  -1.371  1.00 20.00    -0.010 A 
HETATM    5  C1  UNL     1     -33.761  17.502  -0.885  1.00 20.00     0.005 A 
HETATM    6  C2  UNL     1     -35.262  17.520  -0.809  1.00 20.00     0.005 A 
ENDBRANCH   2   4
BRANCH   3   7
HETATM    7  C7  UNL     1     -35.154  13.899  -4.373  1.00 20.00     0.169 C 
BRANCH   7   8
HETATM    8  O8  UNL     1     -35.347  12.520  -4.062  1.00 20.00    -0.400 OA
HETATM    9  H20 UNL     1     -36.255  12.438  -3.730  1.00 20.00     0.209 HD
ENDBRANCH   7   8
ENDBRANCH   3   7
TORSDOF 3
ENDMDL
MODEL 4
REMARK VINA RESULT:      -4.2      1.617      2.357
REMARK  3 active torsions:
REMARK  status: ('A' for Active; 'I' for Inactive)
REMARK    1  A    between atoms: C4_4  and  C5_5 
REMARK    2  A    between atoms: C6_6  and  C7_7 
REMARK    3  A    between atoms: C7_7  and  O8_8 
ROOT
HETATM    1  C3  UNL     1     -32.218   5.803   3.009  1.00 20.00     0.012 A 
HETATM    2  C5  UNL     1     -32.821   7.149   2.703  1.00 20.00    -0.004 A 
HETATM    3  C6  UNL     1     -32.785   6.644   4.123  1.00 20.00     0.014 A 
ENDROOT
BRANCH   2   4
HETATM    4  C4  UNL     1     -31.989   8.333   2.237  1.00 20.00    -0.010 A 
HETATM    5  C1  UNL     1     -31.837   8.698   0.786  1.00 20.00     0.005 A 
HETATM    6  C2  UNL     1     -32.603   9.601   1.712  1.00 20.00     0.005 A 
ENDBRANCH   2   4
BRANCH   3   7
HETATM    7  C7  UNL     1     -34.042   6.234   4.807  1.00 20.00     0.169 C 
BRANCH   7   8
HETATM    8  O8  UNL     1     -33.973   6.567   6.193  1.00 20.00    -0.400 OA
HETATM    9  H20 UNL     1     -33.432   7.369   6.256  1.00 20.00     0.209 HD
ENDBRANCH   7   8
ENDBRANCH   3   7
TORSDOF 3
ENDMDL
MODEL 5
REMARK VINA RESULT:      -4.1      3.025      4.677
REMARK  3 active torsions:
REMARK  status: ('A' for Active; 'I' for Inactive)
REMARK    1  A    between atoms: C4_4  and  C5_5 
REMARK    2  A    between atoms: C6_6  and  C7_7 
REMARK    3  A    between atoms: C7_7  and  O8_8 
ROOT
HETATM    1  C3  UNL     1     -31.666   7.232   3.866  1.00 20.00     0.012 A 
HETATM    2  C5  UNL     1     -33.142   7.013   3.664  1.00 20.00    -0.004 A 
HETATM    3  C6  UNL     1     -32.258   7.327   2.484  1.00 20.00     0.014 A 
ENDROOT
BRANCH   2   4
HETATM    4  C4  UNL     1     -33.803   5.656   3.850  1.00 20.00    -0.010 A 
HETATM    5  C1  UNL     1     -34.567   5.288   5.091  1.00 20.00     0.005 A 
HETATM    6  C2  UNL     1     -35.292   5.462   3.786  1.00 20.00     0.005 A 
ENDBRANCH   2   4
BRANCH   3   7
HETATM    7  C7  UNL     1     -32.357   8.646   1.800  1.00 20.00     0.169 C 
BRANCH   7   8
HETATM    8  O8  UNL     1     -31.470   8.682   0.683  1.00 20.00    -0.400 OA
HETATM    9  H20 UNL     1     -30.903   7.899   0.757  1.00 20.00     0.209 HD
ENDBRANCH   7   8
ENDBRANCH   3   7
TORSDOF 3
ENDMDL
MODEL 6
REMARK VINA RESULT:      -3.9     11.970     12.460
REMARK  3 active torsions:
REMARK  status: ('A' for Active; 'I' for Inactive)
REMARK    1  A    between atoms: C4_4  and  C5_5 
REMARK    2  A    between atoms: C6_6  and  C7_7 
REMARK    3  A    between atoms: C7_7  and  O8_8 
ROOT
HETATM    1  C3  UNL     1     -35.489  15.490  -3.080  1.00 20.00     0.012 A 
HETATM    2  C5  UNL     1     -34.575  15.888  -1.950  1.00 20.00    -0.004 A 
HETATM    3  C6  UNL     1     -34.027  15.735  -3.346  1.00 20.00     0.014 A 
ENDROOT
BRANCH   2   4
HETATM    4  C4  UNL     1     -34.671  17.237  -1.255  1.00 20.00    -0.010 A 
HETATM    5  C1  UNL     1     -34.905  17.374   0.224  1.00 20.00     0.005 A 
HETATM    6  C2  UNL     1     -33.582  17.772  -0.367  1.00 20.00     0.005 A 
ENDBRANCH   2   4
BRANCH   3   7
HETATM    7  C7  UNL     1     -33.125  14.598  -3.678  1.00 20.00     0.169 C 
BRANCH   7   8
HETATM    8  O8  UNL     1     -31.843  15.091  -4.065  1.00 20.00    -0.400 OA
HETATM    9  H20 UNL     1     -31.862  15.177  -5.030  1.00 20.00     0.209 HD
ENDBRANCH   7   8
ENDBRANCH   3   7
TORSDOF 3
ENDMDL
MODEL 7
REMARK VINA RESULT:      -3.6     11.896     12.357
REMARK  3 active torsions:
REMARK  status: ('A' for Active; 'I' for Inactive)
REMARK    1  A    between atoms: C4_4  and  C5_5 
REMARK    2  A    between atoms: C6_6  and  C7_7 
REMARK    3  A    between atoms: C7_7  and  O8_8 
ROOT
HETATM    1  C3  UNL     1     -34.156  15.893  -3.304  1.00 20.00     0.012 A 
HETATM    2  C5  UNL     1     -34.980  16.559  -2.233  1.00 20.00    -0.004 A 
HETATM    3  C6  UNL     1     -35.468  15.287  -2.879  1.00 20.00     0.014 A 
ENDROOT
BRANCH   2   4
HETATM    4  C4  UNL     1     -34.541  16.618  -0.779  1.00 20.00    -0.010 A 
HETATM    5  C1  UNL     1     -33.789  17.786  -0.205  1.00 20.00     0.005 A 
HETATM    6  C2  UNL     1     -35.201  17.514   0.233  1.00 20.00     0.005 A 
ENDBRANCH   2   4
BRANCH   3   7
HETATM    7  C7  UNL     1     -36.638  15.313  -3.800  1.00 20.00     0.169 C 
BRANCH   7   8
HETATM    8  O8  UNL     1     -37.384  14.102  -3.672  1.00 20.00    -0.400 OA
HETATM    9  H20 UNL     1     -37.265  13.618  -4.504  1.00 20.00     0.209 HD
ENDBRANCH   7   8
ENDBRANCH   3   7
TORSDOF 3
ENDMDL
MODEL 8
REMARK VINA RESULT:      -3.5     11.933     13.588
REMARK  3 active torsions:
REMARK  status: ('A' for Active; 'I' for Inactive)
REMARK    1  A    between atoms: C4_4  and  C5_5 
REMARK    2  A    between atoms: C6_6  and  C7_7 
REMARK    3  A    between atoms: C7_7  and  O8_8 
ROOT
HETATM    1  C3  UNL     1     -34.555  14.789  -6.513  1.00 20.00     0.012 A 
HETATM    2  C5  UNL     1     -34.632  15.965  -5.575  1.00 20.00    -0.004 A 
HETATM    3  C6  UNL     1     -34.458  14.573  -5.025  1.00 20.00     0.014 A 
ENDROOT
BRANCH   2   4
HETATM    4  C4  UNL     1     -33.538  17.018  -5.490  1.00 20.00    -0.010 A 
HETATM    5  C1  UNL     1     -33.673  18.381  -6.109  1.00 20.00     0.005 A 
HETATM    6  C2  UNL     1     -33.648  18.234  -4.614  1.00 20.00     0.005 A 
ENDBRANCH   2   4
BRANCH   3   7
HETATM    7  C7  UNL     1     -35.571  13.911  -4.290  1.00 20.00     0.169 C 
BRANCH   7   8
HETATM    8  O8  UNL     1     -35.313  12.512  -4.174  1.00 20.00    -0.400 OA
HETATM    9  H20 UNL     1     -34.905  12.238  -5.010  1.00 20.00     0.209 HD
ENDBRANCH   7   8
ENDBRANCH   3   7
TORSDOF 3
ENDMDL
MODEL 9
REMARK VINA RESULT:      -3.5     12.472     13.509
REMARK  3 active torsions:
REMARK  status: ('A' for Active; 'I' for Inactive)
REMARK    1  A    between atoms: C4_4  and  C5_5 
REMARK    2  A    between atoms: C6_6  and  C7_7 
REMARK    3  A    between atoms: C7_7  and  O8_8 
ROOT
HETATM    1  C3  UNL     1     -33.623  17.399  -4.510  1.00 20.00     0.012 A 
HETATM    2  C5  UNL     1     -34.307  16.593  -3.437  1.00 20.00    -0.004 A 
HETATM    3  C6  UNL     1     -33.629  15.894  -4.588  1.00 20.00     0.014 A 
ENDROOT
BRANCH   2   4
HETATM    4  C4  UNL     1     -33.782  16.514  -2.012  1.00 20.00    -0.010 A 
HETATM    5  C1  UNL     1     -33.659  17.721  -1.124  1.00 20.00     0.005 A 
HETATM    6  C2  UNL     1     -34.673  16.657  -0.810  1.00 20.00     0.005 A 
ENDBRANCH   2   4
BRANCH   3   7
HETATM    7  C7  UNL     1     -34.437  15.200  -5.627  1.00 20.00     0.169 C 
BRANCH   7   8
HETATM    8  O8  UNL     1     -33.728  15.186  -6.866  1.00 20.00    -0.400 OA
HETATM    9  H20 UNL     1     -34.215  15.771  -7.467  1.00 20.00     0.209 HD
ENDBRANCH   7   8
ENDBRANCH   3   7
TORSDOF 3
ENDMDL
