MODEL 1
REMARK VINA RESULT:      -4.5      0.000      0.000
REMARK  2 active torsions:
REMARK  status: ('A' for Active; 'I' for Inactive)
REMARK    1  A    between atoms: C3_3  and  C7_7 
REMARK    2  A    between atoms: C4_4  and  O8_8 
ROOT
HETATM    1  C1  UNL     1     -34.659   4.997   6.441  1.00 20.00     0.037 C 
HETATM    2  C2  UNL     1     -34.429   6.479   6.061  1.00 20.00    -0.010 C 
HETATM    3  C3  UNL     1     -34.428   6.026   4.566  1.00 20.00     0.018 C 
HETATM    4  C4  UNL     1     -35.242   4.780   5.026  1.00 20.00     0.122 C 
HETATM    5  C5  UNL     1     -33.200   7.142   6.650  1.00 20.00     0.010 C 
ENDROOT
BRANCH   3   6
HETATM    6  C7  UNL     1     -33.088   5.753   3.894  1.00 20.00     0.003 C 
HETATM    7  C6  UNL     1     -32.684   6.868   2.985  1.00 20.00     0.005 C 
ENDBRANCH   3   6
BRANCH   4   8
HETATM    8  O8  UNL     1     -34.926   3.529   4.393  1.00 20.00    -0.395 OA
HETATM    9  H22 UNL     1     -33.992   3.583   4.153  1.00 20.00     0.210 HD
ENDBRANCH   4   8
TORSDOF 2
ENDMDL
MODEL 2
REMARK VINA RESULT:      -4.1     12.334     13.390
REMARK  2 active torsions:
REMARK  status: ('A' for Active; 'I' for Inactive)
REMARK    1  A    between atoms: C3_3  and  C7_7 
REMARK    2  A    between atoms: C4_4  and  O8_8 
ROOT
HETATM    1  C1  UNL     1     -34.955  14.239  -5.973  1.00 20.00     0.037 C 
HETATM    2  C2  UNL     1     -34.066  15.412  -5.494  1.00 20.00    -0.010 C 
HETATM    3  C3  UNL     1     -34.099  14.769  -4.071  1.00 20.00     0.018 C 
HETATM    4  C4  UNL     1     -34.422  13.418  -4.776  1.00 20.00     0.122 C 
HETATM    5  C5  UNL     1     -34.621  16.807  -5.705  1.00 20.00     0.010 C 
ENDROOT
BRANCH   3   6
HETATM    6  C7  UNL     1     -35.130  15.278  -3.071  1.00 20.00     0.003 C 
HETATM    7  C6  UNL     1     -34.498  16.090  -1.986  1.00 20.00     0.005 C 
ENDBRANCH   3   6
BRANCH   4   8
HETATM    8  O8  UNL     1     -35.369  12.556  -4.124  1.00 20.00    -0.395 OA
HETATM    9  H22 UNL     1     -35.436  12.877  -3.215  1.00 20.00     0.210 HD
ENDBRANCH   4   8
TORSDOF 2
ENDMDL
MODEL 3
REMARK VINA RESULT:      -4.0      1.932      3.375
REMARK  2 active torsions:
REMARK  status: ('A' for Active; 'I' for Inactive)
REMARK    1  A    between atoms: C3_3  and  C7_7 
REMARK    2  A    between atoms: C4_4  and  O8_8 
ROOT
HETATM    1  C1  UNL     1     -33.616   5.250   2.963  1.00 20.00     0.037 C 
HETATM    2  C2  UNL     1     -34.892   5.426   3.822  1.00 20.00    -0.010 C 
HETATM    3  C3  UNL     1     -34.159   6.597   4.551  1.00 20.00     0.018 C 
HETATM    4  C4  UNL     1     -33.264   6.722   3.282  1.00 20.00     0.122 C 
HETATM    5  C5  UNL     1     -35.345   4.212   4.609  1.00 20.00     0.010 C 
ENDROOT
BRANCH   3   6
HETATM    6  C7  UNL     1     -33.443   6.297   5.862  1.00 20.00     0.003 C 
HETATM    7  C6  UNL     1     -33.695   7.355   6.888  1.00 20.00     0.005 C 
ENDBRANCH   3   6
BRANCH   4   8
HETATM    8  O8  UNL     1     -31.872   7.011   3.496  1.00 20.00    -0.395 OA
HETATM    9  H22 UNL     1     -31.847   7.710   4.163  1.00 20.00     0.210 HD
ENDBRANCH   4   8
TORSDOF 2
ENDMDL
MODEL 4
REMARK VINA RESULT:      -3.9      9.272     10.187
REMARK  2 active torsions:
REMARK  status: ('A' for Active; 'I' for Inactive)
REMARK    1  A    between atoms: C3_3  and  C7_7 
REMARK    2  A    between atoms: C4_4  and  O8_8 
ROOT
HETATM    1  C1  UNL     1     -42.113   6.115   0.073  1.00 20.00     0.037 C 
HETATM    2  C2  UNL     1     -41.991   4.581   0.240  1.00 20.00    -0.010 C 
HETATM    3  C3  UNL     1     -41.197   4.566  -1.106  1.00 20.00     0.018 C 
HETATM    4  C4  UNL     1     -40.861   6.062  -0.833  1.00 20.00     0.122 C 
HETATM    5  C5  UNL     1     -43.291   3.811   0.357  1.00 20.00     0.010 C 
ENDROOT
BRANCH   3   6
HETATM    6  C7  UNL     1     -41.957   4.262  -2.391  1.00 20.00     0.003 C 
HETATM    7  C6  UNL     1     -41.599   2.921  -2.946  1.00 20.00     0.005 C 
ENDBRANCH   3   6
BRANCH   4   8
HETATM    8  O8  UNL     1     -40.861   6.944  -1.968  1.00 20.00    -0.395 OA
HETATM    9  H22 UNL     1     -40.409   6.465  -2.675  1.00 20.00     0.210 HD
ENDBRANCH   4   8
TORSDOF 2
ENDMDL
MODEL 5
REMARK VINA RESULT:      -3.9     12.302     13.648
REMARK  2 active torsions:
REMARK  status: ('A' for Active; 'I' for Inactive)
REMARK    1  A    between atoms: C3_3  and  C7_7 
REMARK    2  A    between atoms: C4_4  and  O8_8 
ROOT
HETATM    1  C1  UNL     1     -33.946  14.726  -3.566  1.00 20.00     0.037 C 
HETATM    2  C2  UNL     1     -34.403  15.929  -4.425  1.00 20.00    -0.010 C 
HETATM    3  C3  UNL     1     -35.301  14.931  -5.224  1.00 20.00     0.018 C 
HETATM    4  C4  UNL     1     -35.255  14.009  -3.969  1.00 20.00     0.122 C 
HETATM    5  C5  UNL     1     -33.310  16.699  -5.140  1.00 20.00     0.010 C 
ENDROOT
BRANCH   3   6
HETATM    6  C7  UNL     1     -34.755  14.344  -6.520  1.00 20.00     0.003 C 
HETATM    7  C6  UNL     1     -35.683  14.575  -7.669  1.00 20.00     0.005 C 
ENDBRANCH   3   6
BRANCH   4   8
HETATM    8  O8  UNL     1     -35.158  12.595  -4.206  1.00 20.00    -0.395 OA
HETATM    9  H22 UNL     1     -34.495  12.268  -3.585  1.00 20.00     0.210 HD
ENDBRANCH   4   8
TORSDOF 2
ENDMDL
MODEL 6
REMARK VINA RESULT:      -3.8     12.654     13.560
REMARK  2 active torsions:
REMARK  status: ('A' for Active; 'I' for Inactive)
REMARK    1  A    between atoms: C3_3  and  C7_7 
REMARK    2  A    between atoms: C4_4  and  O8_8 
ROOT
HETATM    1  C1  UNL     1     -34.387  15.050  -3.088  1.00 20.00     0.037 C 
HETATM    2  C2  UNL     1     -35.376  14.132  -3.847  1.00 20.00    -0.010 C 
HETATM    3  C3  UNL     1     -34.405  14.209  -5.068  1.00 20.00     0.018 C 
HETATM    4  C4  UNL     1     -33.280  14.562  -4.051  1.00 20.00     0.122 C 
HETATM    5  C5  UNL     1     -36.798  14.641  -3.980  1.00 20.00     0.010 C 
ENDROOT
BRANCH   3   6
HETATM    6  C7  UNL     1     -34.688  15.240  -6.154  1.00 20.00     0.003 C 
HETATM    7  C6  UNL     1     -34.982  14.595  -7.470  1.00 20.00     0.005 C 
ENDBRANCH   3   6
BRANCH   4   8
HETATM    8  O8  UNL     1     -32.317  15.547  -4.463  1.00 20.00    -0.395 OA
HETATM    9  H22 UNL     1     -32.760  16.401  -4.376  1.00 20.00     0.210 HD
ENDBRANCH   4   8
TORSDOF 2
ENDMDL
MODEL 7
REMARK VINA RESULT:      -3.8      1.132      2.787
REMARK  2 active torsions:
REMARK  status: ('A' for Active; 'I' for Inactive)
REMARK    1  A    between atoms: C3_3  and  C7_7 
REMARK    2  A    between atoms: C4_4  and  O8_8 
ROOT
HETATM    1  C1  UNL     1     -34.291   5.533   2.808  1.00 20.00     0.037 C 
HETATM    2  C2  UNL     1     -32.926   5.921   3.426  1.00 20.00    -0.010 C 
HETATM    3  C3  UNL     1     -33.566   5.673   4.829  1.00 20.00     0.018 C 
HETATM    4  C4  UNL     1     -34.596   4.754   4.108  1.00 20.00     0.122 C 
HETATM    5  C5  UNL     1     -32.394   7.296   3.072  1.00 20.00     0.010 C 
ENDROOT
BRANCH   3   6
HETATM    6  C7  UNL     1     -34.133   6.866   5.587  1.00 20.00     0.003 C 
HETATM    7  C6  UNL     1     -33.368   7.142   6.842  1.00 20.00     0.005 C 
ENDBRANCH   3   6
BRANCH   4   8
HETATM    8  O8  UNL     1     -35.954   4.808   4.577  1.00 20.00    -0.395 OA
HETATM    9  H22 UNL     1     -36.503   4.542   3.828  1.00 20.00     0.210 HD
ENDBRANCH   4   8
TORSDOF 2
ENDMDL
MODEL 8
REMARK VINA RESULT:      -3.7     12.592     13.486
REMARK  2 active torsions:
REMARK  status: ('A' for Active; 'I' for Inactive)
REMARK    1  A    between atoms: C3_3  and  C7_7 
REMARK    2  A    between atoms: C4_4  and  O8_8 
ROOT
HETATM    1  C1  UNL     1     -33.797  17.405  -3.472  1.00 20.00     0.037 C 
HETATM    2  C2  UNL     1     -33.687  16.374  -2.324  1.00 20.00    -0.010 C 
HETATM    3  C3  UNL     1     -33.794  15.255  -3.409  1.00 20.00     0.018 C 
HETATM    4  C4  UNL     1     -33.280  16.309  -4.433  1.00 20.00     0.122 C 
HETATM    5  C5  UNL     1     -34.735  16.468  -1.233  1.00 20.00     0.010 C 
ENDROOT
BRANCH   3   6
HETATM    6  C7  UNL     1     -35.162  14.645  -3.688  1.00 20.00     0.003 C 
HETATM    7  C6  UNL     1     -35.051  13.267  -4.256  1.00 20.00     0.005 C 
ENDBRANCH   3   6
BRANCH   4   8
HETATM    8  O8  UNL     1     -33.871  16.283  -5.744  1.00 20.00    -0.395 OA
HETATM    9  H22 UNL     1     -33.931  17.206  -6.024  1.00 20.00     0.210 HD
ENDBRANCH   4   8
TORSDOF 2
ENDMDL
MODEL 9
REMARK VINA RESULT:      -3.6     12.433     13.272
REMARK  2 active torsions:
REMARK  status: ('A' for Active; 'I' for Inactive)
REMARK    1  A    between atoms: C3_3  and  C7_7 
REMARK    2  A    between atoms: C4_4  and  O8_8 
ROOT
HETATM    1  C1  UNL     1     -34.996  14.975  -5.038  1.00 20.00     0.037 C 
HETATM    2  C2  UNL     1     -34.654  14.099  -3.808  1.00 20.00    -0.010 C 
HETATM    3  C3  UNL     1     -35.224  15.249  -2.916  1.00 20.00     0.018 C 
HETATM    4  C4  UNL     1     -36.042  15.702  -4.161  1.00 20.00     0.122 C 
HETATM    5  C5  UNL     1     -33.204  13.680  -3.663  1.00 20.00     0.010 C 
ENDROOT
BRANCH   3   6
HETATM    6  C7  UNL     1     -34.249  16.265  -2.335  1.00 20.00     0.003 C 
HETATM    7  C6  UNL     1     -34.572  16.596  -0.913  1.00 20.00     0.005 C 
ENDBRANCH   3   6
BRANCH   4   8
HETATM    8  O8  UNL     1     -36.172  17.118  -4.371  1.00 20.00    -0.395 OA
HETATM    9  H22 UNL     1     -37.046  17.247  -4.763  1.00 20.00     0.210 HD
ENDBRANCH   4   8
TORSDOF 2
ENDMDL
