MODEL 1
REMARK VINA RESULT:      -5.2      0.000      0.000
REMARK  3 active torsions:
REMARK  status: ('A' for Active; 'I' for Inactive)
REMARK    1  A    between atoms: C1_1  and  C5_5 
REMARK    2  A    between atoms: C5_5  and  C7_7 
REMARK    3  A    between atoms: C6_6  and  C7_7 
ROOT
HETATM    1  C5  UNL     1     -32.777   6.047   3.435  1.00 20.00     0.274 C 
HETATM    2  F10 UNL     1     -33.114   5.568   2.202  1.00 20.00    -0.238 F 
ENDROOT
BRANCH   1   3
HETATM    3  C1  UNL     1     -32.031   7.349   3.140  1.00 20.00     0.208 C 
HETATM    4  O8  UNL     1     -31.234   7.721   4.048  1.00 20.00    -0.646 OA
HETATM    5  O9  UNL     1     -32.291   7.887   2.027  1.00 20.00    -0.646 OA
ENDBRANCH   1   3
BRANCH   1   6
HETATM    6  C7  UNL     1     -34.067   6.219   4.254  1.00 20.00     0.029 C 
HETATM    7  C4  UNL     1     -35.221   5.513   3.527  1.00 20.00     0.014 C 
BRANCH   6   8
HETATM    8  C6  UNL     1     -33.904   5.765   5.733  1.00 20.00    -0.016 C 
HETATM    9  C2  UNL     1     -33.853   6.961   6.693  1.00 20.00     0.010 C 
HETATM   10  C3  UNL     1     -34.972   4.775   6.203  1.00 20.00     0.010 C 
ENDBRANCH   6   8
ENDBRANCH   1   6
TORSDOF 3
ENDMDL
MODEL 2
REMARK VINA RESULT:      -5.0      0.505      1.225
REMARK  3 active torsions:
REMARK  status: ('A' for Active; 'I' for Inactive)
REMARK    1  A    between atoms: C1_1  and  C5_5 
REMARK    2  A    between atoms: C5_5  and  C7_7 
REMARK    3  A    between atoms: C6_6  and  C7_7 
ROOT
HETATM    1  C5  UNL     1     -32.587   6.182   3.766  1.00 20.00     0.274 C 
HETATM    2  F10 UNL     1     -32.405   5.328   2.716  1.00 20.00    -0.238 F 
ENDROOT
BRANCH   1   3
HETATM    3  C1  UNL     1     -31.915   7.480   3.315  1.00 20.00     0.208 C 
HETATM    4  O8  UNL     1     -31.070   7.950   4.128  1.00 20.00    -0.646 OA
HETATM    5  O9  UNL     1     -32.276   7.916   2.186  1.00 20.00    -0.646 OA
ENDBRANCH   1   3
BRANCH   1   6
HETATM    6  C7  UNL     1     -34.096   6.301   4.036  1.00 20.00     0.029 C 
HETATM    7  C4  UNL     1     -34.852   5.375   3.071  1.00 20.00     0.014 C 
BRANCH   6   8
HETATM    8  C6  UNL     1     -34.460   6.063   5.529  1.00 20.00    -0.016 C 
HETATM    9  C2  UNL     1     -34.474   4.570   5.881  1.00 20.00     0.010 C 
HETATM   10  C3  UNL     1     -33.563   6.814   6.517  1.00 20.00     0.010 C 
ENDBRANCH   6   8
ENDBRANCH   1   6
TORSDOF 3
ENDMDL
MODEL 3
REMARK VINA RESULT:      -4.6     11.025     12.078
REMARK  3 active torsions:
REMARK  status: ('A' for Active; 'I' for Inactive)
REMARK    1  A    between atoms: C1_1  and  C5_5 
REMARK    2  A    between atoms: C5_5  and  C7_7 
REMARK    3  A    between atoms: C6_6  and  C7_7 
ROOT
HETATM    1  C5  UNL     1     -34.617  14.792  -3.473  1.00 20.00     0.274 C 
HETATM    2  F10 UNL     1     -35.471  15.212  -4.452  1.00 20.00    -0.238 F 
ENDROOT
BRANCH   1   3
HETATM    3  C1  UNL     1     -34.200  13.389  -3.916  1.00 20.00     0.208 C 
HETATM    4  O8  UNL     1     -32.975  13.126  -3.758  1.00 20.00    -0.646 OA
HETATM    5  O9  UNL     1     -35.127  12.664  -4.373  1.00 20.00    -0.646 OA
ENDBRANCH   1   3
BRANCH   1   6
HETATM    6  C7  UNL     1     -33.463  15.802  -3.373  1.00 20.00     0.029 C 
HETATM    7  C4  UNL     1     -33.287  16.499  -4.730  1.00 20.00     0.014 C 
BRANCH   6   8
HETATM    8  C6  UNL     1     -33.635  16.796  -2.189  1.00 20.00    -0.016 C 
HETATM    9  C2  UNL     1     -33.879  18.229  -2.679  1.00 20.00     0.010 C 
HETATM   10  C3  UNL     1     -34.731  16.401  -1.197  1.00 20.00     0.010 C 
ENDBRANCH   6   8
ENDBRANCH   1   6
TORSDOF 3
ENDMDL
MODEL 4
REMARK VINA RESULT:      -4.5     11.496     12.126
REMARK  3 active torsions:
REMARK  status: ('A' for Active; 'I' for Inactive)
REMARK    1  A    between atoms: C1_1  and  C5_5 
REMARK    2  A    between atoms: C5_5  and  C7_7 
REMARK    3  A    between atoms: C6_6  and  C7_7 
ROOT
HETATM    1  C5  UNL     1     -34.912  15.091  -4.128  1.00 20.00     0.274 C 
HETATM    2  F10 UNL     1     -34.309  15.077  -5.353  1.00 20.00    -0.238 F 
ENDROOT
BRANCH   1   3
HETATM    3  C1  UNL     1     -35.758  13.817  -4.112  1.00 20.00     0.208 C 
HETATM    4  O8  UNL     1     -36.988  14.001  -3.890  1.00 20.00    -0.646 OA
HETATM    5  O9  UNL     1     -35.131  12.743  -4.332  1.00 20.00    -0.646 OA
ENDBRANCH   1   3
BRANCH   1   6
HETATM    6  C7  UNL     1     -33.817  15.147  -3.051  1.00 20.00     0.029 C 
HETATM    7  C4  UNL     1     -32.465  14.800  -3.693  1.00 20.00     0.014 C 
BRANCH   6   8
HETATM    8  C6  UNL     1     -33.802  16.497  -2.279  1.00 20.00    -0.016 C 
HETATM    9  C2  UNL     1     -34.138  17.681  -3.195  1.00 20.00     0.010 C 
HETATM   10  C3  UNL     1     -34.717  16.524  -1.052  1.00 20.00     0.010 C 
ENDBRANCH   6   8
ENDBRANCH   1   6
TORSDOF 3
ENDMDL
MODEL 5
REMARK VINA RESULT:      -4.4     10.973     11.950
REMARK  3 active torsions:
REMARK  status: ('A' for Active; 'I' for Inactive)
REMARK    1  A    between atoms: C1_1  and  C5_5 
REMARK    2  A    between atoms: C5_5  and  C7_7 
REMARK    3  A    between atoms: C6_6  and  C7_7 
ROOT
HETATM    1  C5  UNL     1     -34.141  14.938  -3.799  1.00 20.00     0.274 C 
HETATM    2  F10 UNL     1     -32.940  15.372  -3.316  1.00 20.00    -0.238 F 
ENDROOT
BRANCH   1   3
HETATM    3  C1  UNL     1     -33.955  13.428  -3.962  1.00 20.00     0.208 C 
HETATM    4  O8  UNL     1     -32.805  13.001  -3.661  1.00 20.00    -0.646 OA
HETATM    5  O9  UNL     1     -34.970  12.795  -4.365  1.00 20.00    -0.646 OA
ENDBRANCH   1   3
BRANCH   1   6
HETATM    6  C7  UNL     1     -35.238  15.345  -2.803  1.00 20.00     0.029 C 
HETATM    7  C4  UNL     1     -34.622  16.239  -1.716  1.00 20.00     0.014 C 
BRANCH   6   8
HETATM    8  C6  UNL     1     -36.473  15.985  -3.498  1.00 20.00    -0.016 C 
HETATM    9  C2  UNL     1     -36.103  16.628  -4.840  1.00 20.00     0.010 C 
HETATM   10  C3  UNL     1     -37.645  15.020  -3.698  1.00 20.00     0.010 C 
ENDBRANCH   6   8
ENDBRANCH   1   6
TORSDOF 3
ENDMDL
MODEL 6
REMARK VINA RESULT:      -4.2     11.173     12.765
REMARK  3 active torsions:
REMARK  status: ('A' for Active; 'I' for Inactive)
REMARK    1  A    between atoms: C1_1  and  C5_5 
REMARK    2  A    between atoms: C5_5  and  C7_7 
REMARK    3  A    between atoms: C6_6  and  C7_7 
ROOT
HETATM    1  C5  UNL     1     -34.227  14.915  -3.784  1.00 20.00     0.274 C 
HETATM    2  F10 UNL     1     -34.627  15.062  -2.487  1.00 20.00    -0.238 F 
ENDROOT
BRANCH   1   3
HETATM    3  C1  UNL     1     -34.017  13.408  -3.942  1.00 20.00     0.208 C 
HETATM    4  O8  UNL     1     -32.847  13.006  -3.687  1.00 20.00    -0.646 OA
HETATM    5  O9  UNL     1     -35.035  12.750  -4.294  1.00 20.00    -0.646 OA
ENDBRANCH   1   3
BRANCH   1   6
HETATM    6  C7  UNL     1     -35.313  15.510  -4.695  1.00 20.00     0.029 C 
HETATM    7  C4  UNL     1     -36.263  16.369  -3.847  1.00 20.00     0.014 C 
BRANCH   6   8
HETATM    8  C6  UNL     1     -34.722  16.269  -5.917  1.00 20.00    -0.016 C 
HETATM    9  C2  UNL     1     -33.517  17.133  -5.522  1.00 20.00     0.010 C 
HETATM   10  C3  UNL     1     -34.339  15.362  -7.089  1.00 20.00     0.010 C 
ENDBRANCH   6   8
ENDBRANCH   1   6
TORSDOF 3
ENDMDL
MODEL 7
REMARK VINA RESULT:      -4.1     11.293     12.583
REMARK  3 active torsions:
REMARK  status: ('A' for Active; 'I' for Inactive)
REMARK    1  A    between atoms: C1_1  and  C5_5 
REMARK    2  A    between atoms: C5_5  and  C7_7 
REMARK    3  A    between atoms: C6_6  and  C7_7 
ROOT
HETATM    1  C5  UNL     1     -34.464  14.778  -3.988  1.00 20.00     0.274 C 
HETATM    2  F10 UNL     1     -33.534  14.250  -3.139  1.00 20.00    -0.238 F 
ENDROOT
BRANCH   1   3
HETATM    3  C1  UNL     1     -35.502  13.665  -4.145  1.00 20.00     0.208 C 
HETATM    4  O8  UNL     1     -35.037  12.559  -4.541  1.00 20.00    -0.646 OA
HETATM    5  O9  UNL     1     -36.689  13.981  -3.851  1.00 20.00    -0.646 OA
ENDBRANCH   1   3
BRANCH   1   6
HETATM    6  C7  UNL     1     -35.005  16.075  -3.365  1.00 20.00     0.029 C 
HETATM    7  C4  UNL     1     -34.709  16.070  -1.858  1.00 20.00     0.014 C 
BRANCH   6   8
HETATM    8  C6  UNL     1     -34.486  17.350  -4.089  1.00 20.00    -0.016 C 
HETATM    9  C2  UNL     1     -33.875  18.356  -3.104  1.00 20.00     0.010 C 
HETATM   10  C3  UNL     1     -33.489  17.066  -5.215  1.00 20.00     0.010 C 
ENDBRANCH   6   8
ENDBRANCH   1   6
TORSDOF 3
ENDMDL
MODEL 8
REMARK VINA RESULT:      -4.1     11.356     13.045
REMARK  3 active torsions:
REMARK  status: ('A' for Active; 'I' for Inactive)
REMARK    1  A    between atoms: C1_1  and  C5_5 
REMARK    2  A    between atoms: C5_5  and  C7_7 
REMARK    3  A    between atoms: C6_6  and  C7_7 
ROOT
HETATM    1  C5  UNL     1     -34.130  14.822  -3.928  1.00 20.00     0.274 C 
HETATM    2  F10 UNL     1     -34.732  14.965  -2.711  1.00 20.00    -0.238 F 
ENDROOT
BRANCH   1   3
HETATM    3  C1  UNL     1     -33.927  13.313  -4.071  1.00 20.00     0.208 C 
HETATM    4  O8  UNL     1     -34.894  12.696  -4.600  1.00 20.00    -0.646 OA
HETATM    5  O9  UNL     1     -32.819  12.870  -3.656  1.00 20.00    -0.646 OA
ENDBRANCH   1   3
BRANCH   1   6
HETATM    6  C7  UNL     1     -35.041  15.450  -4.995  1.00 20.00     0.029 C 
HETATM    7  C4  UNL     1     -35.823  16.613  -4.365  1.00 20.00     0.014 C 
BRANCH   6   8
HETATM    8  C6  UNL     1     -34.269  15.854  -6.283  1.00 20.00    -0.016 C 
HETATM    9  C2  UNL     1     -34.604  14.931  -7.461  1.00 20.00     0.010 C 
HETATM   10  C3  UNL     1     -34.472  17.313  -6.700  1.00 20.00     0.010 C 
ENDBRANCH   6   8
ENDBRANCH   1   6
TORSDOF 3
ENDMDL
MODEL 9
REMARK VINA RESULT:      -4.1     11.238     12.133
REMARK  3 active torsions:
REMARK  status: ('A' for Active; 'I' for Inactive)
REMARK    1  A    between atoms: C1_1  and  C5_5 
REMARK    2  A    between atoms: C5_5  and  C7_7 
REMARK    3  A    between atoms: C6_6  and  C7_7 
ROOT
HETATM    1  C5  UNL     1     -33.017  15.134  -4.057  1.00 20.00     0.274 C 
HETATM    2  F10 UNL     1     -32.064  14.554  -3.269  1.00 20.00    -0.238 F 
ENDROOT
BRANCH   1   3
HETATM    3  C1  UNL     1     -34.042  14.022  -4.284  1.00 20.00     0.208 C 
HETATM    4  O8  UNL     1     -34.780  14.181  -5.298  1.00 20.00    -0.646 OA
HETATM    5  O9  UNL     1     -34.021  13.080  -3.444  1.00 20.00    -0.646 OA
ENDBRANCH   1   3
BRANCH   1   6
HETATM    6  C7  UNL     1     -33.563  16.370  -3.324  1.00 20.00     0.029 C 
HETATM    7  C4  UNL     1     -33.841  17.479  -4.350  1.00 20.00     0.014 C 
BRANCH   6   8
HETATM    8  C6  UNL     1     -34.789  16.042  -2.425  1.00 20.00    -0.016 C 
HETATM    9  C2  UNL     1     -34.580  16.518  -0.981  1.00 20.00     0.010 C 
HETATM   10  C3  UNL     1     -36.116  16.587  -2.957  1.00 20.00     0.010 C 
ENDBRANCH   6   8
ENDBRANCH   1   6
TORSDOF 3
ENDMDL
