MODEL 1
REMARK VINA RESULT:      -4.9      0.000      0.000
REMARK  2 active torsions:
REMARK  status: ('A' for Active; 'I' for Inactive)
REMARK    1  A    between atoms: C5_5  and  C8_8 
REMARK    2  A    between atoms: C9_9  and  C10_10 
ROOT
HETATM    1  C1  UNL     1     -35.019  17.386   0.292  1.00 20.00     0.009 A 
HETATM    2  C2  UNL     1     -32.905  18.435  -0.229  1.00 20.00     0.009 A 
HETATM    3  C3  UNL     1     -34.901  17.806   1.617  1.00 20.00     0.019 A 
HETATM    4  C4  UNL     1     -32.788  18.856   1.095  1.00 20.00     0.019 A 
HETATM    5  C5  UNL     1     -34.020  17.700  -0.631  1.00 20.00    -0.053 A 
HETATM    6  C6  UNL     1     -33.786  18.542   2.019  1.00 20.00     0.011 A 
HETATM    7 BR12 UNL     1     -33.626  19.111   3.813  1.00 20.00    -0.051 Br
ENDROOT
BRANCH   5   8
HETATM    8  C8  UNL     1     -34.148  17.244  -2.065  1.00 20.00     0.024 A 
HETATM    9  C7  UNL     1     -35.351  16.437  -2.505  1.00 20.00     0.016 A 
HETATM   10  C9  UNL     1     -34.009  15.775  -2.407  1.00 20.00     0.008 A 
BRANCH  10  11
HETATM   11  C10 UNL     1     -33.285  15.361  -3.642  1.00 20.00     0.119 C 
HETATM   12 CL11 UNL     1     -33.239  13.583  -3.799  1.00 20.00    -0.130 Cl
ENDBRANCH  10  11
ENDBRANCH   5   8
TORSDOF 2
ENDMDL
MODEL 2
REMARK VINA RESULT:      -4.8      4.367      6.191
REMARK  2 active torsions:
REMARK  status: ('A' for Active; 'I' for Inactive)
REMARK    1  A    between atoms: C5_5  and  C8_8 
REMARK    2  A    between atoms: C9_9  and  C10_10 
ROOT
HETATM    1  C1  UNL     1     -35.123  15.091  -3.416  1.00 20.00     0.009 A 
HETATM    2  C2  UNL     1     -33.426  16.505  -4.397  1.00 20.00     0.009 A 
HETATM    3  C3  UNL     1     -35.501  14.662  -4.688  1.00 20.00     0.019 A 
HETATM    4  C4  UNL     1     -33.804  16.076  -5.668  1.00 20.00     0.019 A 
HETATM    5  C5  UNL     1     -34.086  16.013  -3.270  1.00 20.00    -0.053 A 
HETATM    6  C6  UNL     1     -34.842  15.154  -5.815  1.00 20.00     0.011 A 
HETATM    7 BR12 UNL     1     -35.354  14.574  -7.538  1.00 20.00    -0.051 Br
ENDROOT
BRANCH   5   8
HETATM    8  C8  UNL     1     -33.677  16.477  -1.892  1.00 20.00     0.024 A 
HETATM    9  C7  UNL     1     -34.712  16.618  -0.797  1.00 20.00     0.016 A 
HETATM   10  C9  UNL     1     -34.098  17.847  -1.400  1.00 20.00     0.008 A 
BRANCH  10  11
HETATM   11  C10 UNL     1     -33.150  18.678  -0.606  1.00 20.00     0.119 C 
HETATM   12 CL11 UNL     1     -33.479  18.541   1.144  1.00 20.00    -0.130 Cl
ENDBRANCH  10  11
ENDBRANCH   5   8
TORSDOF 2
ENDMDL
MODEL 3
REMARK VINA RESULT:      -4.7      3.944      5.684
REMARK  2 active torsions:
REMARK  status: ('A' for Active; 'I' for Inactive)
REMARK    1  A    between atoms: C5_5  and  C8_8 
REMARK    2  A    between atoms: C9_9  and  C10_10 
ROOT
HETATM    1  C1  UNL     1     -35.968  16.313  -2.805  1.00 20.00     0.009 A 
HETATM    2  C2  UNL     1     -33.595  15.863  -2.703  1.00 20.00     0.009 A 
HETATM    3  C3  UNL     1     -35.998  15.855  -4.122  1.00 20.00     0.019 A 
HETATM    4  C4  UNL     1     -33.626  15.406  -4.020  1.00 20.00     0.019 A 
HETATM    5  C5  UNL     1     -34.766  16.317  -2.096  1.00 20.00    -0.053 A 
HETATM    6  C6  UNL     1     -34.827  15.402  -4.730  1.00 20.00     0.011 A 
HETATM    7 BR12 UNL     1     -34.868  14.782  -6.515  1.00 20.00    -0.051 Br
ENDROOT
BRANCH   5   8
HETATM    8  C8  UNL     1     -34.733  16.813  -0.669  1.00 20.00     0.024 A 
HETATM    9  C7  UNL     1     -35.738  17.841  -0.196  1.00 20.00     0.016 A 
HETATM   10  C9  UNL     1     -34.302  18.234  -0.372  1.00 20.00     0.008 A 
BRANCH  10  11
HETATM   11  C10 UNL     1     -33.452  18.523   0.817  1.00 20.00     0.119 C 
HETATM   12 CL11 UNL     1     -31.784  18.938   0.335  1.00 20.00    -0.130 Cl
ENDBRANCH  10  11
ENDBRANCH   5   8
TORSDOF 2
ENDMDL
MODEL 4
REMARK VINA RESULT:      -4.6      1.723      2.440
REMARK  2 active torsions:
REMARK  status: ('A' for Active; 'I' for Inactive)
REMARK    1  A    between atoms: C5_5  and  C8_8 
REMARK    2  A    between atoms: C9_9  and  C10_10 
ROOT
HETATM    1  C1  UNL     1     -34.440  16.255  -1.486  1.00 20.00     0.009 A 
HETATM    2  C2  UNL     1     -33.623  18.308  -2.465  1.00 20.00     0.009 A 
HETATM    3  C3  UNL     1     -34.799  16.949  -0.330  1.00 20.00     0.019 A 
HETATM    4  C4  UNL     1     -33.982  19.001  -1.310  1.00 20.00     0.019 A 
HETATM    5  C5  UNL     1     -33.851  16.934  -2.553  1.00 20.00    -0.053 A 
HETATM    6  C6  UNL     1     -34.570  18.322  -0.242  1.00 20.00     0.011 A 
HETATM    7 BR12 UNL     1     -35.057  19.263   1.323  1.00 20.00    -0.051 Br
ENDROOT
BRANCH   5   8
HETATM    8  C8  UNL     1     -33.462  16.182  -3.804  1.00 20.00     0.024 A 
HETATM    9  C7  UNL     1     -33.506  16.871  -5.151  1.00 20.00     0.016 A 
HETATM   10  C9  UNL     1     -34.520  15.815  -4.825  1.00 20.00     0.008 A 
BRANCH  10  11
HETATM   11  C10 UNL     1     -34.471  14.491  -5.507  1.00 20.00     0.119 C 
HETATM   12 CL11 UNL     1     -35.101  13.196  -4.452  1.00 20.00    -0.130 Cl
ENDBRANCH  10  11
ENDBRANCH   5   8
TORSDOF 2
ENDMDL
MODEL 5
REMARK VINA RESULT:      -4.5      2.529      3.648
REMARK  2 active torsions:
REMARK  status: ('A' for Active; 'I' for Inactive)
REMARK    1  A    between atoms: C5_5  and  C8_8 
REMARK    2  A    between atoms: C9_9  and  C10_10 
ROOT
HETATM    1  C1  UNL     1     -34.208  17.458  -3.668  1.00 20.00     0.009 A 
HETATM    2  C2  UNL     1     -34.774  15.979  -1.842  1.00 20.00     0.009 A 
HETATM    3  C3  UNL     1     -33.627  18.350  -2.766  1.00 20.00     0.019 A 
HETATM    4  C4  UNL     1     -34.193  16.870  -0.941  1.00 20.00     0.019 A 
HETATM    5  C5  UNL     1     -34.782  16.273  -3.206  1.00 20.00    -0.053 A 
HETATM    6  C6  UNL     1     -33.619  18.055  -1.402  1.00 20.00     0.011 A 
HETATM    7 BR12 UNL     1     -32.833  19.263  -0.179  1.00 20.00    -0.051 Br
ENDROOT
BRANCH   5   8
HETATM    8  C8  UNL     1     -35.411  15.308  -4.183  1.00 20.00     0.024 A 
HETATM    9  C7  UNL     1     -35.186  13.819  -4.035  1.00 20.00     0.016 A 
HETATM   10  C9  UNL     1     -34.541  14.557  -5.171  1.00 20.00     0.008 A 
BRANCH  10  11
HETATM   11  C10 UNL     1     -35.011  14.344  -6.568  1.00 20.00     0.119 C 
HETATM   12 CL11 UNL     1     -34.683  15.773  -7.586  1.00 20.00    -0.130 Cl
ENDBRANCH  10  11
ENDBRANCH   5   8
TORSDOF 2
ENDMDL
MODEL 6
REMARK VINA RESULT:      -4.5      2.301      3.364
REMARK  2 active torsions:
REMARK  status: ('A' for Active; 'I' for Inactive)
REMARK    1  A    between atoms: C5_5  and  C8_8 
REMARK    2  A    between atoms: C9_9  and  C10_10 
ROOT
HETATM    1  C1  UNL     1     -33.661  18.383  -2.710  1.00 20.00     0.009 A 
HETATM    2  C2  UNL     1     -34.288  16.059  -2.489  1.00 20.00     0.009 A 
HETATM    3  C3  UNL     1     -34.048  18.613  -1.390  1.00 20.00     0.019 A 
HETATM    4  C4  UNL     1     -34.674  16.289  -1.169  1.00 20.00     0.019 A 
HETATM    5  C5  UNL     1     -33.782  17.106  -3.260  1.00 20.00    -0.053 A 
HETATM    6  C6  UNL     1     -34.554  17.566  -0.619  1.00 20.00     0.011 A 
HETATM    7 BR12 UNL     1     -35.079  17.877   1.170  1.00 20.00    -0.051 Br
ENDROOT
BRANCH   5   8
HETATM    8  C8  UNL     1     -33.363  16.857  -4.690  1.00 20.00     0.024 A 
HETATM    9  C7  UNL     1     -33.630  17.899  -5.754  1.00 20.00     0.016 A 
HETATM   10  C9  UNL     1     -34.413  16.620  -5.755  1.00 20.00     0.008 A 
BRANCH  10  11
HETATM   11  C10 UNL     1     -34.183  15.600  -6.816  1.00 20.00     0.119 C 
HETATM   12 CL11 UNL     1     -35.315  14.229  -6.651  1.00 20.00    -0.130 Cl
ENDBRANCH  10  11
ENDBRANCH   5   8
TORSDOF 2
ENDMDL
MODEL 7
REMARK VINA RESULT:      -4.5      1.514      2.415
REMARK  2 active torsions:
REMARK  status: ('A' for Active; 'I' for Inactive)
REMARK    1  A    between atoms: C5_5  and  C8_8 
REMARK    2  A    between atoms: C9_9  and  C10_10 
ROOT
HETATM    1  C1  UNL     1     -31.843  18.844   0.729  1.00 20.00     0.009 A 
HETATM    2  C2  UNL     1     -34.019  18.360   1.662  1.00 20.00     0.009 A 
HETATM    3  C3  UNL     1     -31.345  19.076   2.011  1.00 20.00     0.019 A 
HETATM    4  C4  UNL     1     -33.520  18.591   2.944  1.00 20.00     0.019 A 
HETATM    5  C5  UNL     1     -33.180  18.487   0.554  1.00 20.00    -0.053 A 
HETATM    6  C6  UNL     1     -32.183  18.949   3.119  1.00 20.00     0.011 A 
HETATM    7 BR12 UNL     1     -31.508  19.263   4.855  1.00 20.00    -0.051 Br
ENDROOT
BRANCH   5   8
HETATM    8  C8  UNL     1     -33.720  18.236  -0.834  1.00 20.00     0.024 A 
HETATM    9  C7  UNL     1     -35.211  18.108  -1.061  1.00 20.00     0.016 A 
HETATM   10  C9  UNL     1     -34.336  16.895  -1.175  1.00 20.00     0.008 A 
BRANCH  10  11
HETATM   11  C10 UNL     1     -34.085  16.275  -2.506  1.00 20.00     0.119 C 
HETATM   12 CL11 UNL     1     -35.508  15.357  -3.071  1.00 20.00    -0.130 Cl
ENDBRANCH  10  11
ENDBRANCH   5   8
TORSDOF 2
ENDMDL
MODEL 8
REMARK VINA RESULT:      -4.4      4.085      5.917
REMARK  2 active torsions:
REMARK  status: ('A' for Active; 'I' for Inactive)
REMARK    1  A    between atoms: C5_5  and  C8_8 
REMARK    2  A    between atoms: C9_9  and  C10_10 
ROOT
HETATM    1  C1  UNL     1     -33.682  16.174  -2.444  1.00 20.00     0.009 A 
HETATM    2  C2  UNL     1     -36.096  16.094  -2.525  1.00 20.00     0.009 A 
HETATM    3  C3  UNL     1     -33.616  15.173  -3.413  1.00 20.00     0.019 A 
HETATM    4  C4  UNL     1     -36.030  15.094  -3.494  1.00 20.00     0.019 A 
HETATM    5  C5  UNL     1     -34.922  16.634  -1.999  1.00 20.00    -0.053 A 
HETATM    6  C6  UNL     1     -34.790  14.633  -3.939  1.00 20.00     0.011 A 
HETATM    7 BR12 UNL     1     -34.702  13.277  -5.252  1.00 20.00    -0.051 Br
ENDROOT
BRANCH   5   8
HETATM    8  C8  UNL     1     -34.993  17.718  -0.949  1.00 20.00     0.024 A 
HETATM    9  C7  UNL     1     -33.784  18.030  -0.093  1.00 20.00     0.016 A 
HETATM   10  C9  UNL     1     -34.971  17.349   0.520  1.00 20.00     0.008 A 
BRANCH  10  11
HETATM   11  C10 UNL     1     -35.839  18.080   1.486  1.00 20.00     0.119 C 
HETATM   12 CL11 UNL     1     -35.291  17.828   3.167  1.00 20.00    -0.130 Cl
ENDBRANCH  10  11
ENDBRANCH   5   8
TORSDOF 2
ENDMDL
MODEL 9
REMARK VINA RESULT:      -4.3      3.844      5.636
REMARK  2 active torsions:
REMARK  status: ('A' for Active; 'I' for Inactive)
REMARK    1  A    between atoms: C5_5  and  C8_8 
REMARK    2  A    between atoms: C9_9  and  C10_10 
ROOT
HETATM    1  C1  UNL     1     -35.001  17.353   0.626  1.00 20.00     0.009 A 
HETATM    2  C2  UNL     1     -33.008  18.637   0.156  1.00 20.00     0.009 A 
HETATM    3  C3  UNL     1     -34.903  16.743  -0.625  1.00 20.00     0.019 A 
HETATM    4  C4  UNL     1     -32.911  18.027  -1.094  1.00 20.00     0.019 A 
HETATM    5  C5  UNL     1     -34.054  18.301   1.016  1.00 20.00    -0.053 A 
HETATM    6  C6  UNL     1     -33.858  17.080  -1.485  1.00 20.00     0.011 A 
HETATM    7 BR12 UNL     1     -33.725  16.254  -3.179  1.00 20.00    -0.051 Br
ENDROOT
BRANCH   5   8
HETATM    8  C8  UNL     1     -34.160  18.961   2.370  1.00 20.00     0.024 A 
HETATM    9  C7  UNL     1     -33.047  18.805   3.384  1.00 20.00     0.016 A 
HETATM   10  C9  UNL     1     -34.360  18.115   3.611  1.00 20.00     0.008 A 
BRANCH  10  11
HETATM   11  C10 UNL     1     -35.274  18.579   4.692  1.00 20.00     0.119 C 
HETATM   12 CL11 UNL     1     -36.908  17.885   4.499  1.00 20.00    -0.130 Cl
ENDBRANCH  10  11
ENDBRANCH   5   8
TORSDOF 2
ENDMDL
