MODEL 1
REMARK VINA RESULT:      -5.8      0.000      0.000
REMARK  2 active torsions:
REMARK  status: ('A' for Active; 'I' for Inactive)
REMARK    1  A    between atoms: C5_5  and  C6_6 
REMARK    2  A    between atoms: C7_7  and  C8_8 
ROOT
HETATM    1  C4  UNL     1     -32.682   5.563   2.992  1.00 20.00     0.011 A 
HETATM    2  C6  UNL     1     -33.107   6.373   4.182  1.00 20.00    -0.005 A 
HETATM    3  C7  UNL     1     -32.953   7.038   2.844  1.00 20.00     0.004 A 
ENDROOT
BRANCH   2   4
HETATM    4  C5  UNL     1     -34.457   6.195   4.859  1.00 20.00    -0.010 C 
HETATM    5  C2  UNL     1     -34.420   5.761   6.346  1.00 20.00     0.005 C 
HETATM    6  C1  UNL     1     -34.591   4.305   5.870  1.00 20.00     0.001 C 
HETATM    7  C3  UNL     1     -35.194   4.863   4.566  1.00 20.00     0.005 C 
ENDBRANCH   2   4
BRANCH   3   8
HETATM    8  C8  UNL     1     -31.829   7.987   2.610  1.00 20.00     0.119 C 
HETATM    9 CL9  UNL     1     -32.007   8.827   1.044  1.00 20.00    -0.130 Cl
ENDBRANCH   3   8
TORSDOF 2
ENDMDL
MODEL 2
REMARK VINA RESULT:      -5.0      2.307      4.159
REMARK  2 active torsions:
REMARK  status: ('A' for Active; 'I' for Inactive)
REMARK    1  A    between atoms: C5_5  and  C6_6 
REMARK    2  A    between atoms: C7_7  and  C8_8 
ROOT
HETATM    1  C4  UNL     1     -35.503   5.387   3.881  1.00 20.00     0.011 A 
HETATM    2  C6  UNL     1     -34.304   6.287   3.924  1.00 20.00    -0.005 A 
HETATM    3  C7  UNL     1     -34.411   5.141   4.888  1.00 20.00     0.004 A 
ENDROOT
BRANCH   2   4
HETATM    4  C5  UNL     1     -33.266   6.329   2.812  1.00 20.00    -0.010 C 
HETATM    5  C2  UNL     1     -31.829   5.908   3.207  1.00 20.00     0.005 C 
HETATM    6  C1  UNL     1     -31.506   7.401   3.412  1.00 20.00     0.001 C 
HETATM    7  C3  UNL     1     -32.686   7.726   2.476  1.00 20.00     0.005 C 
ENDBRANCH   2   4
BRANCH   3   8
HETATM    8  C8  UNL     1     -34.651   5.406   6.334  1.00 20.00     0.119 C 
HETATM    9 CL9  UNL     1     -33.885   6.937   6.846  1.00 20.00    -0.130 Cl
ENDBRANCH   3   8
TORSDOF 2
ENDMDL
MODEL 3
REMARK VINA RESULT:      -4.7      2.490      4.863
REMARK  2 active torsions:
REMARK  status: ('A' for Active; 'I' for Inactive)
REMARK    1  A    between atoms: C5_5  and  C6_6 
REMARK    2  A    between atoms: C7_7  and  C8_8 
ROOT
HETATM    1  C4  UNL     1     -32.170   5.861   2.977  1.00 20.00     0.011 A 
HETATM    2  C6  UNL     1     -32.771   7.191   2.626  1.00 20.00    -0.005 A 
HETATM    3  C7  UNL     1     -32.847   6.688   4.039  1.00 20.00     0.004 A 
ENDROOT
BRANCH   2   4
HETATM    4  C5  UNL     1     -31.930   8.394   2.228  1.00 20.00    -0.010 C 
HETATM    5  C2  UNL     1     -32.709   9.697   1.920  1.00 20.00     0.005 C 
HETATM    6  C1  UNL     1     -32.661   9.310   0.428  1.00 20.00     0.001 C 
HETATM    7  C3  UNL     1     -31.442   8.426   0.757  1.00 20.00     0.005 C 
ENDBRANCH   2   4
BRANCH   3   8
HETATM    8  C8  UNL     1     -34.156   6.256   4.604  1.00 20.00     0.119 C 
HETATM    9 CL9  UNL     1     -34.131   6.287   6.389  1.00 20.00    -0.130 Cl
ENDBRANCH   3   8
TORSDOF 2
ENDMDL
MODEL 4
REMARK VINA RESULT:      -4.6      1.105      2.010
REMARK  2 active torsions:
REMARK  status: ('A' for Active; 'I' for Inactive)
REMARK    1  A    between atoms: C5_5  and  C6_6 
REMARK    2  A    between atoms: C7_7  and  C8_8 
ROOT
HETATM    1  C4  UNL     1     -31.365   7.623   3.673  1.00 20.00     0.011 A 
HETATM    2  C6  UNL     1     -32.800   7.196   3.572  1.00 20.00    -0.005 A 
HETATM    3  C7  UNL     1     -32.089   7.715   2.355  1.00 20.00     0.004 A 
ENDROOT
BRANCH   2   4
HETATM    4  C5  UNL     1     -33.239   5.746   3.709  1.00 20.00    -0.010 C 
HETATM    5  C2  UNL     1     -34.358   5.279   2.745  1.00 20.00     0.005 C 
HETATM    6  C1  UNL     1     -35.373   5.576   3.866  1.00 20.00     0.001 C 
HETATM    7  C3  UNL     1     -34.215   5.438   4.873  1.00 20.00     0.005 C 
ENDBRANCH   2   4
BRANCH   3   8
HETATM    8  C8  UNL     1     -32.455   9.044   1.792  1.00 20.00     0.119 C 
HETATM    9 CL9  UNL     1     -32.449   9.014   0.006  1.00 20.00    -0.130 Cl
ENDBRANCH   3   8
TORSDOF 2
ENDMDL
MODEL 5
REMARK VINA RESULT:      -4.0     11.329     12.207
REMARK  2 active torsions:
REMARK  status: ('A' for Active; 'I' for Inactive)
REMARK    1  A    between atoms: C5_5  and  C6_6 
REMARK    2  A    between atoms: C7_7  and  C8_8 
ROOT
HETATM    1  C4  UNL     1     -34.809  16.364  -1.317  1.00 20.00     0.011 A 
HETATM    2  C6  UNL     1     -34.927  15.838  -2.718  1.00 20.00    -0.005 A 
HETATM    3  C7  UNL     1     -33.787  16.746  -2.355  1.00 20.00     0.004 A 
ENDROOT
BRANCH   2   4
HETATM    4  C5  UNL     1     -34.729  14.371  -3.065  1.00 20.00    -0.010 C 
HETATM    5  C2  UNL     1     -33.476  14.036  -3.913  1.00 20.00     0.005 C 
HETATM    6  C1  UNL     1     -34.374  14.096  -5.165  1.00 20.00     0.001 C 
HETATM    7  C3  UNL     1     -35.579  13.830  -4.242  1.00 20.00     0.005 C 
ENDBRANCH   2   4
BRANCH   3   8
HETATM    8  C8  UNL     1     -33.744  18.135  -2.890  1.00 20.00     0.119 C 
HETATM    9 CL9  UNL     1     -33.578  18.139  -4.668  1.00 20.00    -0.130 Cl
ENDBRANCH   3   8
TORSDOF 2
ENDMDL
MODEL 6
REMARK VINA RESULT:      -4.0     11.136     11.940
REMARK  2 active torsions:
REMARK  status: ('A' for Active; 'I' for Inactive)
REMARK    1  A    between atoms: C5_5  and  C6_6 
REMARK    2  A    between atoms: C7_7  and  C8_8 
ROOT
HETATM    1  C4  UNL     1     -35.577  16.740  -2.610  1.00 20.00     0.011 A 
HETATM    2  C6  UNL     1     -34.419  15.808  -2.816  1.00 20.00    -0.005 A 
HETATM    3  C7  UNL     1     -34.668  16.400  -1.458  1.00 20.00     0.004 A 
ENDROOT
BRANCH   2   4
HETATM    4  C5  UNL     1     -34.598  14.326  -3.110  1.00 20.00    -0.010 C 
HETATM    5  C2  UNL     1     -33.530  13.682  -4.029  1.00 20.00     0.005 C 
HETATM    6  C1  UNL     1     -34.487  13.919  -5.215  1.00 20.00     0.001 C 
HETATM    7  C3  UNL     1     -35.643  13.970  -4.197  1.00 20.00     0.005 C 
ENDBRANCH   2   4
BRANCH   3   8
HETATM    8  C8  UNL     1     -33.735  17.425  -0.912  1.00 20.00     0.119 C 
HETATM    9 CL9  UNL     1     -34.242  17.958   0.716  1.00 20.00    -0.130 Cl
ENDBRANCH   3   8
TORSDOF 2
ENDMDL
MODEL 7
REMARK VINA RESULT:      -4.0     11.016     12.109
REMARK  2 active torsions:
REMARK  status: ('A' for Active; 'I' for Inactive)
REMARK    1  A    between atoms: C5_5  and  C6_6 
REMARK    2  A    between atoms: C7_7  and  C8_8 
ROOT
HETATM    1  C4  UNL     1     -32.770  13.770  -3.452  1.00 20.00     0.011 A 
HETATM    2  C6  UNL     1     -33.442  15.084  -3.726  1.00 20.00    -0.005 A 
HETATM    3  C7  UNL     1     -34.259  13.825  -3.673  1.00 20.00     0.004 A 
ENDROOT
BRANCH   2   4
HETATM    4  C5  UNL     1     -33.558  16.182  -2.680  1.00 20.00    -0.010 C 
HETATM    5  C2  UNL     1     -34.830  16.147  -1.795  1.00 20.00     0.005 C 
HETATM    6  C1  UNL     1     -35.469  17.158  -2.768  1.00 20.00     0.001 C 
HETATM    7  C3  UNL     1     -34.044  17.561  -3.194  1.00 20.00     0.005 C 
ENDBRANCH   2   4
BRANCH   3   8
HETATM    8  C8  UNL     1     -34.853  13.271  -4.921  1.00 20.00     0.119 C 
HETATM    9 CL9  UNL     1     -34.874  14.492  -6.224  1.00 20.00    -0.130 Cl
ENDBRANCH   3   8
TORSDOF 2
ENDMDL
MODEL 8
REMARK VINA RESULT:      -3.9     11.265     12.180
REMARK  2 active torsions:
REMARK  status: ('A' for Active; 'I' for Inactive)
REMARK    1  A    between atoms: C5_5  and  C6_6 
REMARK    2  A    between atoms: C7_7  and  C8_8 
ROOT
HETATM    1  C4  UNL     1     -32.960  15.074  -3.871  1.00 20.00     0.011 A 
HETATM    2  C6  UNL     1     -33.979  15.970  -3.230  1.00 20.00    -0.005 A 
HETATM    3  C7  UNL     1     -34.191  14.483  -3.235  1.00 20.00     0.004 A 
ENDROOT
BRANCH   2   4
HETATM    4  C5  UNL     1     -33.700  16.755  -1.957  1.00 20.00    -0.010 C 
HETATM    5  C2  UNL     1     -34.712  16.556  -0.800  1.00 20.00     0.005 C 
HETATM    6  C1  UNL     1     -35.439  17.825  -1.291  1.00 20.00     0.001 C 
HETATM    7  C3  UNL     1     -34.122  18.246  -1.971  1.00 20.00     0.005 C 
ENDBRANCH   2   4
BRANCH   3   8
HETATM    8  C8  UNL     1     -35.260  13.888  -4.083  1.00 20.00     0.119 C 
HETATM    9 CL9  UNL     1     -36.840  14.661  -3.769  1.00 20.00    -0.130 Cl
ENDBRANCH   3   8
TORSDOF 2
ENDMDL
MODEL 9
REMARK VINA RESULT:      -3.9     11.538     12.560
REMARK  2 active torsions:
REMARK  status: ('A' for Active; 'I' for Inactive)
REMARK    1  A    between atoms: C5_5  and  C6_6 
REMARK    2  A    between atoms: C7_7  and  C8_8 
ROOT
HETATM    1  C4  UNL     1     -34.787  16.643  -0.955  1.00 20.00     0.011 A 
HETATM    2  C6  UNL     1     -34.081  16.809  -2.268  1.00 20.00    -0.005 A 
HETATM    3  C7  UNL     1     -33.460  17.351  -1.013  1.00 20.00     0.004 A 
ENDROOT
BRANCH   2   4
HETATM    4  C5  UNL     1     -33.488  15.639  -3.038  1.00 20.00    -0.010 C 
HETATM    5  C2  UNL     1     -33.280  15.859  -4.557  1.00 20.00     0.005 C 
HETATM    6  C1  UNL     1     -34.643  15.176  -4.788  1.00 20.00     0.001 C 
HETATM    7  C3  UNL     1     -34.472  14.503  -3.412  1.00 20.00     0.005 C 
ENDBRANCH   2   4
BRANCH   3   8
HETATM    8  C8  UNL     1     -33.385  18.823  -0.796  1.00 20.00     0.119 C 
HETATM    9 CL9  UNL     1     -32.049  19.246   0.312  1.00 20.00    -0.130 Cl
ENDBRANCH   3   8
TORSDOF 2
ENDMDL
