MODEL 1
REMARK VINA RESULT:      -4.5      0.000      0.000
REMARK  2 active torsions:
REMARK  status: ('A' for Active; 'I' for Inactive)
REMARK    1  A    between atoms: C4_4  and  C8_8 
REMARK    2  A    between atoms: C8_8  and  O9_9 
ROOT
HETATM    1  C1  UNL     1     -36.309  15.047  -3.412  1.00 20.00     0.018 A 
HETATM    2  C2  UNL     1     -33.874  15.699  -2.759  1.00 20.00     0.025 C 
HETATM    3  C3  UNL     1     -35.273  17.356  -4.013  1.00 20.00     0.084 C 
HETATM    4  C4  UNL     1     -35.490  14.855  -4.655  1.00 20.00     0.019 A 
HETATM    5  C5  UNL     1     -33.763  16.899  -1.826  1.00 20.00     0.044 C 
HETATM    6  C6  UNL     1     -35.082  15.908  -3.639  1.00 20.00    -0.025 A 
HETATM    7  C7  UNL     1     -34.714  16.818  -0.638  1.00 20.00     0.021 C 
HETATM    8  S10 UNL     1     -34.204  18.304  -2.889  1.00 20.00    -0.164 SA
ENDROOT
BRANCH   4   9
HETATM    9  C8  UNL     1     -34.716  13.598  -4.856  1.00 20.00     0.169 C 
BRANCH   9  10
HETATM   10  O9  UNL     1     -35.359  12.518  -4.181  1.00 20.00    -0.400 OA
HETATM   11  H24 UNL     1     -35.462  12.793  -3.258  1.00 20.00     0.209 HD
ENDBRANCH   9  10
ENDBRANCH   4   9
TORSDOF 2
ENDMDL
MODEL 2
REMARK VINA RESULT:      -4.3      1.199      2.386
REMARK  2 active torsions:
REMARK  status: ('A' for Active; 'I' for Inactive)
REMARK    1  A    between atoms: C4_4  and  C8_8 
REMARK    2  A    between atoms: C8_8  and  O9_9 
ROOT
HETATM    1  C1  UNL     1     -32.722  15.146  -3.732  1.00 20.00     0.018 A 
HETATM    2  C2  UNL     1     -34.898  16.380  -4.458  1.00 20.00     0.025 C 
HETATM    3  C3  UNL     1     -34.357  16.220  -2.017  1.00 20.00     0.084 C 
HETATM    4  C4  UNL     1     -33.838  14.167  -3.510  1.00 20.00     0.019 A 
HETATM    5  C5  UNL     1     -34.951  17.855  -4.076  1.00 20.00     0.044 C 
HETATM    6  C6  UNL     1     -34.109  15.657  -3.394  1.00 20.00    -0.025 A 
HETATM    7  C7  UNL     1     -33.674  18.608  -4.431  1.00 20.00     0.021 C 
HETATM    8  S10 UNL     1     -35.181  17.820  -2.276  1.00 20.00    -0.164 SA
ENDROOT
BRANCH   4   9
HETATM    9  C8  UNL     1     -34.355  13.350  -4.644  1.00 20.00     0.169 C 
BRANCH   9  10
HETATM   10  O9  UNL     1     -35.441  12.537  -4.202  1.00 20.00    -0.400 OA
HETATM   11  H24 UNL     1     -36.213  13.119  -4.144  1.00 20.00     0.209 HD
ENDBRANCH   9  10
ENDBRANCH   4   9
TORSDOF 2
ENDMDL
MODEL 3
REMARK VINA RESULT:      -3.9      1.645      2.750
REMARK  2 active torsions:
REMARK  status: ('A' for Active; 'I' for Inactive)
REMARK    1  A    between atoms: C4_4  and  C8_8 
REMARK    2  A    between atoms: C8_8  and  O9_9 
ROOT
HETATM    1  C1  UNL     1     -33.658  15.945  -2.987  1.00 20.00     0.018 A 
HETATM    2  C2  UNL     1     -34.422  16.227  -5.461  1.00 20.00     0.025 C 
HETATM    3  C3  UNL     1     -35.975  16.938  -3.629  1.00 20.00     0.084 C 
HETATM    4  C4  UNL     1     -34.575  14.789  -3.263  1.00 20.00     0.019 A 
HETATM    5  C5  UNL     1     -34.691  17.666  -5.884  1.00 20.00     0.044 C 
HETATM    6  C6  UNL     1     -34.776  16.103  -3.999  1.00 20.00    -0.025 A 
HETATM    7  C7  UNL     1     -33.579  18.625  -5.474  1.00 20.00     0.021 C 
HETATM    8  S10 UNL     1     -36.231  18.083  -5.018  1.00 20.00    -0.164 SA
ENDROOT
BRANCH   4   9
HETATM    9  C8  UNL     1     -34.057  13.568  -3.941  1.00 20.00     0.169 C 
BRANCH   9  10
HETATM   10  O9  UNL     1     -35.119  12.635  -4.140  1.00 20.00    -0.400 OA
HETATM   11  H24 UNL     1     -35.895  13.153  -4.398  1.00 20.00     0.209 HD
ENDBRANCH   9  10
ENDBRANCH   4   9
TORSDOF 2
ENDMDL
MODEL 4
REMARK VINA RESULT:      -3.9      1.766      1.943
REMARK  2 active torsions:
REMARK  status: ('A' for Active; 'I' for Inactive)
REMARK    1  A    between atoms: C4_4  and  C8_8 
REMARK    2  A    between atoms: C8_8  and  O9_9 
ROOT
HETATM    1  C1  UNL     1     -35.999  15.243  -5.008  1.00 20.00     0.018 A 
HETATM    2  C2  UNL     1     -33.824  16.257  -3.995  1.00 20.00     0.025 C 
HETATM    3  C3  UNL     1     -34.447  16.842  -6.350  1.00 20.00     0.084 C 
HETATM    4  C4  UNL     1     -34.872  14.414  -5.553  1.00 20.00     0.019 A 
HETATM    5  C5  UNL     1     -33.814  17.778  -3.903  1.00 20.00     0.044 C 
HETATM    6  C6  UNL     1     -34.635  15.875  -5.209  1.00 20.00    -0.025 A 
HETATM    7  C7  UNL     1     -35.093  18.347  -3.299  1.00 20.00     0.021 C 
HETATM    8  S10 UNL     1     -33.646  18.308  -5.632  1.00 20.00    -0.164 SA
ENDROOT
BRANCH   4   9
HETATM    9  C8  UNL     1     -34.301  13.302  -4.741  1.00 20.00     0.169 C 
BRANCH   9  10
HETATM   10  O9  UNL     1     -35.352  12.557  -4.129  1.00 20.00    -0.400 OA
HETATM   11  H24 UNL     1     -35.691  13.104  -3.405  1.00 20.00     0.209 HD
ENDBRANCH   9  10
ENDBRANCH   4   9
TORSDOF 2
ENDMDL
MODEL 5
REMARK VINA RESULT:      -3.8     12.573     13.614
REMARK  2 active torsions:
REMARK  status: ('A' for Active; 'I' for Inactive)
REMARK    1  A    between atoms: C4_4  and  C8_8 
REMARK    2  A    between atoms: C8_8  and  O9_9 
ROOT
HETATM    1  C1  UNL     1     -43.412   3.280  -2.105  1.00 20.00     0.018 A 
HETATM    2  C2  UNL     1     -41.036   4.268  -1.702  1.00 20.00     0.025 C 
HETATM    3  C3  UNL     1     -42.735   5.662  -2.903  1.00 20.00     0.084 C 
HETATM    4  C4  UNL     1     -42.680   3.121  -3.406  1.00 20.00     0.019 A 
HETATM    5  C5  UNL     1     -41.006   5.524  -0.840  1.00 20.00     0.044 C 
HETATM    6  C6  UNL     1     -42.329   4.273  -2.480  1.00 20.00    -0.025 A 
HETATM    7  C7  UNL     1     -41.838   5.394   0.431  1.00 20.00     0.021 C 
HETATM    8  S10 UNL     1     -41.710   6.800  -1.924  1.00 20.00    -0.164 SA
ENDROOT
BRANCH   4   9
HETATM    9  C8  UNL     1     -41.768   1.961  -3.615  1.00 20.00     0.169 C 
BRANCH   9  10
HETATM   10  O9  UNL     1     -41.873   1.496  -4.960  1.00 20.00    -0.400 OA
HETATM   11  H24 UNL     1     -42.695   0.986  -5.011  1.00 20.00     0.209 HD
ENDBRANCH   9  10
ENDBRANCH   4   9
TORSDOF 2
ENDMDL
MODEL 6
REMARK VINA RESULT:      -3.8      2.080      2.295
REMARK  2 active torsions:
REMARK  status: ('A' for Active; 'I' for Inactive)
REMARK    1  A    between atoms: C4_4  and  C8_8 
REMARK    2  A    between atoms: C8_8  and  O9_9 
ROOT
HETATM    1  C1  UNL     1     -35.271  15.473  -2.432  1.00 20.00     0.018 A 
HETATM    2  C2  UNL     1     -33.621  17.180  -1.362  1.00 20.00     0.025 C 
HETATM    3  C3  UNL     1     -35.556  18.045  -2.696  1.00 20.00     0.084 C 
HETATM    4  C4  UNL     1     -34.361  15.909  -3.543  1.00 20.00     0.019 A 
HETATM    5  C5  UNL     1     -34.250  18.120  -0.340  1.00 20.00     0.044 C 
HETATM    6  C6  UNL     1     -34.668  16.864  -2.402  1.00 20.00    -0.025 A 
HETATM    7  C7  UNL     1     -35.123  17.394   0.677  1.00 20.00     0.021 C 
HETATM    8  S10 UNL     1     -35.261  19.236  -1.354  1.00 20.00    -0.164 SA
ENDROOT
BRANCH   4   9
HETATM    9  C8  UNL     1     -33.025  15.270  -3.710  1.00 20.00     0.169 C 
BRANCH   9  10
HETATM   10  O9  UNL     1     -32.368  15.810  -4.856  1.00 20.00    -0.400 OA
HETATM   11  H24 UNL     1     -33.065  16.131  -5.447  1.00 20.00     0.209 HD
ENDBRANCH   9  10
ENDBRANCH   4   9
TORSDOF 2
ENDMDL
MODEL 7
REMARK VINA RESULT:      -3.8      2.749      3.703
REMARK  2 active torsions:
REMARK  status: ('A' for Active; 'I' for Inactive)
REMARK    1  A    between atoms: C4_4  and  C8_8 
REMARK    2  A    between atoms: C8_8  and  O9_9 
ROOT
HETATM    1  C1  UNL     1     -35.139  13.444  -4.306  1.00 20.00     0.018 A 
HETATM    2  C2  UNL     1     -36.235  15.799  -4.103  1.00 20.00     0.025 C 
HETATM    3  C3  UNL     1     -36.019  14.759  -6.371  1.00 20.00     0.084 C 
HETATM    4  C4  UNL     1     -34.072  14.425  -4.696  1.00 20.00     0.019 A 
HETATM    5  C5  UNL     1     -37.685  15.869  -4.566  1.00 20.00     0.044 C 
HETATM    6  C6  UNL     1     -35.532  14.763  -4.945  1.00 20.00    -0.025 A 
HETATM    7  C7  UNL     1     -38.545  14.743  -4.002  1.00 20.00     0.021 C 
HETATM    8  S10 UNL     1     -37.562  15.721  -6.371  1.00 20.00    -0.164 SA
ENDROOT
BRANCH   4   9
HETATM    9  C8  UNL     1     -33.263  15.108  -3.647  1.00 20.00     0.169 C 
BRANCH   9  10
HETATM   10  O9  UNL     1     -31.919  14.629  -3.681  1.00 20.00    -0.400 OA
HETATM   11  H24 UNL     1     -31.733  14.272  -2.800  1.00 20.00     0.209 HD
ENDBRANCH   9  10
ENDBRANCH   4   9
TORSDOF 2
ENDMDL
MODEL 8
REMARK VINA RESULT:      -3.7      2.510      3.420
REMARK  2 active torsions:
REMARK  status: ('A' for Active; 'I' for Inactive)
REMARK    1  A    between atoms: C4_4  and  C8_8 
REMARK    2  A    between atoms: C8_8  and  O9_9 
ROOT
HETATM    1  C1  UNL     1     -36.726  15.359  -5.457  1.00 20.00     0.018 A 
HETATM    2  C2  UNL     1     -35.224  15.827  -3.380  1.00 20.00     0.025 C 
HETATM    3  C3  UNL     1     -35.255  13.519  -4.353  1.00 20.00     0.084 C 
HETATM    4  C4  UNL     1     -37.488  14.830  -4.277  1.00 20.00     0.019 A 
HETATM    5  C5  UNL     1     -33.733  15.616  -3.612  1.00 20.00     0.044 C 
HETATM    6  C6  UNL     1     -35.969  14.842  -4.248  1.00 20.00    -0.025 A 
HETATM    7  C7  UNL     1     -33.230  16.276  -4.891  1.00 20.00     0.021 C 
HETATM    8  S10 UNL     1     -33.572  13.812  -3.731  1.00 20.00    -0.164 SA
ENDROOT
BRANCH   4   9
HETATM    9  C8  UNL     1     -38.307  15.751  -3.440  1.00 20.00     0.169 C 
BRANCH   9  10
HETATM   10  O9  UNL     1     -39.060  15.003  -2.486  1.00 20.00    -0.400 OA
HETATM   11  H24 UNL     1     -39.768  14.563  -2.980  1.00 20.00     0.209 HD
ENDBRANCH   9  10
ENDBRANCH   4   9
TORSDOF 2
ENDMDL
MODEL 9
REMARK VINA RESULT:      -3.7      1.274      2.186
REMARK  2 active torsions:
REMARK  status: ('A' for Active; 'I' for Inactive)
REMARK    1  A    between atoms: C4_4  and  C8_8 
REMARK    2  A    between atoms: C8_8  and  O9_9 
ROOT
HETATM    1  C1  UNL     1     -33.874  16.025  -4.967  1.00 20.00     0.018 A 
HETATM    2  C2  UNL     1     -36.004  15.929  -3.473  1.00 20.00     0.025 C 
HETATM    3  C3  UNL     1     -33.771  16.213  -2.375  1.00 20.00     0.084 C 
HETATM    4  C4  UNL     1     -33.923  14.629  -4.419  1.00 20.00     0.019 A 
HETATM    5  C5  UNL     1     -36.268  17.190  -2.657  1.00 20.00     0.044 C 
HETATM    6  C6  UNL     1     -34.510  15.776  -3.614  1.00 20.00    -0.025 A 
HETATM    7  C7  UNL     1     -36.156  18.467  -3.482  1.00 20.00     0.021 C 
HETATM    8  S10 UNL     1     -34.974  17.149  -1.383  1.00 20.00    -0.164 SA
ENDROOT
BRANCH   4   9
HETATM    9  C8  UNL     1     -34.775  13.597  -5.073  1.00 20.00     0.169 C 
BRANCH   9  10
HETATM   10  O9  UNL     1     -35.130  12.588  -4.128  1.00 20.00    -0.400 OA
HETATM   11  H24 UNL     1     -34.880  12.929  -3.256  1.00 20.00     0.209 HD
ENDBRANCH   9  10
ENDBRANCH   4   9
TORSDOF 2
ENDMDL
