MODEL 1
REMARK VINA RESULT:      -5.4      0.000      0.000
REMARK  2 active torsions:
REMARK  status: ('A' for Active; 'I' for Inactive)
REMARK    1  A    between atoms: C5_5  and  C6_6 
REMARK    2  A    between atoms: C7_7  and  C8_8 
ROOT
HETATM    1  C4  UNL     1     -31.948   5.900   3.317  1.00 20.00     0.011 A 
HETATM    2  C6  UNL     1     -33.401   6.199   3.091  1.00 20.00    -0.005 A 
HETATM    3  C7  UNL     1     -32.394   7.311   3.032  1.00 20.00     0.000 A 
ENDROOT
BRANCH   2   4
HETATM    4  C5  UNL     1     -34.439   6.095   4.188  1.00 20.00    -0.010 C 
HETATM    5  C2  UNL     1     -33.921   6.180   5.647  1.00 20.00     0.005 C 
HETATM    6  C1  UNL     1     -34.990   5.130   6.012  1.00 20.00     0.001 C 
HETATM    7  C3  UNL     1     -34.936   4.669   4.540  1.00 20.00     0.005 C 
ENDBRANCH   2   4
BRANCH   3   8
HETATM    8  C8  UNL     1     -32.067   7.951   1.728  1.00 20.00     0.090 C 
HETATM    9 BR9  UNL     1     -32.594   9.831   1.740  1.00 20.00    -0.096 Br
ENDBRANCH   3   8
TORSDOF 2
ENDMDL
MODEL 2
REMARK VINA RESULT:      -4.4      2.381      4.604
REMARK  2 active torsions:
REMARK  status: ('A' for Active; 'I' for Inactive)
REMARK    1  A    between atoms: C5_5  and  C6_6 
REMARK    2  A    between atoms: C7_7  and  C8_8 
ROOT
HETATM    1  C4  UNL     1     -32.193   5.931   2.854  1.00 20.00     0.011 A 
HETATM    2  C6  UNL     1     -31.969   7.328   3.355  1.00 20.00    -0.005 A 
HETATM    3  C7  UNL     1     -33.326   6.698   3.485  1.00 20.00     0.000 A 
ENDROOT
BRANCH   2   4
HETATM    4  C5  UNL     1     -31.698   8.496   2.431  1.00 20.00    -0.010 C 
HETATM    5  C2  UNL     1     -32.862   9.498   2.214  1.00 20.00     0.005 C 
HETATM    6  C1  UNL     1     -32.392   9.616   0.750  1.00 20.00     0.001 C 
HETATM    7  C3  UNL     1     -31.777   8.210   0.908  1.00 20.00     0.005 C 
ENDBRANCH   2   4
BRANCH   3   8
HETATM    8  C8  UNL     1     -33.839   6.307   4.828  1.00 20.00     0.090 C 
HETATM    9 BR9  UNL     1     -35.167   4.885   4.663  1.00 20.00    -0.096 Br
ENDBRANCH   3   8
TORSDOF 2
ENDMDL
MODEL 3
REMARK VINA RESULT:      -4.4      0.880      1.531
REMARK  2 active torsions:
REMARK  status: ('A' for Active; 'I' for Inactive)
REMARK    1  A    between atoms: C5_5  and  C6_6 
REMARK    2  A    between atoms: C7_7  and  C8_8 
ROOT
HETATM    1  C4  UNL     1     -31.572   7.448   3.923  1.00 20.00     0.011 A 
HETATM    2  C6  UNL     1     -32.180   6.291   3.185  1.00 20.00    -0.005 A 
HETATM    3  C7  UNL     1     -32.428   7.693   2.708  1.00 20.00     0.000 A 
ENDROOT
BRANCH   2   4
HETATM    4  C5  UNL     1     -33.272   5.425   3.776  1.00 20.00    -0.010 C 
HETATM    5  C2  UNL     1     -34.619   5.384   3.008  1.00 20.00     0.005 C 
HETATM    6  C1  UNL     1     -35.318   5.333   4.382  1.00 20.00     0.001 C 
HETATM    7  C3  UNL     1     -34.068   6.026   4.964  1.00 20.00     0.005 C 
ENDBRANCH   2   4
BRANCH   3   8
HETATM    8  C8  UNL     1     -31.809   8.168   1.439  1.00 20.00     0.090 C 
HETATM    9 BR9  UNL     1     -32.455   9.956   0.993  1.00 20.00    -0.096 Br
ENDBRANCH   3   8
TORSDOF 2
ENDMDL
MODEL 4
REMARK VINA RESULT:      -4.0     10.891     11.558
REMARK  2 active torsions:
REMARK  status: ('A' for Active; 'I' for Inactive)
REMARK    1  A    between atoms: C5_5  and  C6_6 
REMARK    2  A    between atoms: C7_7  and  C8_8 
ROOT
HETATM    1  C4  UNL     1     -33.692  16.929  -2.397  1.00 20.00     0.011 A 
HETATM    2  C6  UNL     1     -34.903  16.076  -2.634  1.00 20.00    -0.005 A 
HETATM    3  C7  UNL     1     -34.599  16.568  -1.249  1.00 20.00     0.000 A 
ENDROOT
BRANCH   2   4
HETATM    4  C5  UNL     1     -34.814  14.615  -3.019  1.00 20.00    -0.010 C 
HETATM    5  C2  UNL     1     -33.568  14.186  -3.837  1.00 20.00     0.005 C 
HETATM    6  C1  UNL     1     -34.495  13.224  -4.608  1.00 20.00     0.001 C 
HETATM    7  C3  UNL     1     -35.660  14.165  -4.239  1.00 20.00     0.005 C 
ENDBRANCH   2   4
BRANCH   3   8
HETATM    8  C8  UNL     1     -35.463  17.607  -0.621  1.00 20.00     0.090 C 
HETATM    9 BR9  UNL     1     -35.186  17.647   1.311  1.00 20.00    -0.096 Br
ENDBRANCH   3   8
TORSDOF 2
ENDMDL
MODEL 5
REMARK VINA RESULT:      -4.0     11.305     12.085
REMARK  2 active torsions:
REMARK  status: ('A' for Active; 'I' for Inactive)
REMARK    1  A    between atoms: C5_5  and  C6_6 
REMARK    2  A    between atoms: C7_7  and  C8_8 
ROOT
HETATM    1  C4  UNL     1     -34.535  14.859  -3.043  1.00 20.00     0.011 A 
HETATM    2  C6  UNL     1     -34.564  16.268  -2.527  1.00 20.00    -0.005 A 
HETATM    3  C7  UNL     1     -33.423  15.814  -3.391  1.00 20.00     0.000 A 
ENDROOT
BRANCH   2   4
HETATM    4  C5  UNL     1     -34.393  16.607  -1.062  1.00 20.00    -0.010 C 
HETATM    5  C2  UNL     1     -35.460  17.542  -0.435  1.00 20.00     0.005 C 
HETATM    6  C1  UNL     1     -34.319  18.170   0.391  1.00 20.00     0.001 C 
HETATM    7  C3  UNL     1     -33.355  17.708  -0.721  1.00 20.00     0.005 C 
ENDBRANCH   2   4
BRANCH   3   8
HETATM    8  C8  UNL     1     -33.288  16.334  -4.780  1.00 20.00     0.090 C 
HETATM    9 BR9  UNL     1     -33.664  18.250  -4.830  1.00 20.00    -0.096 Br
ENDBRANCH   3   8
TORSDOF 2
ENDMDL
MODEL 6
REMARK VINA RESULT:      -4.0     10.828     12.040
REMARK  2 active torsions:
REMARK  status: ('A' for Active; 'I' for Inactive)
REMARK    1  A    between atoms: C5_5  and  C6_6 
REMARK    2  A    between atoms: C7_7  and  C8_8 
ROOT
HETATM    1  C4  UNL     1     -33.775  13.572  -3.697  1.00 20.00     0.011 A 
HETATM    2  C6  UNL     1     -34.483  14.841  -3.323  1.00 20.00    -0.005 A 
HETATM    3  C7  UNL     1     -34.149  14.570  -4.762  1.00 20.00     0.000 A 
ENDROOT
BRANCH   2   4
HETATM    4  C5  UNL     1     -33.822  15.945  -2.526  1.00 20.00    -0.010 C 
HETATM    5  C2  UNL     1     -34.575  16.438  -1.263  1.00 20.00     0.005 C 
HETATM    6  C1  UNL     1     -34.076  17.856  -1.608  1.00 20.00     0.001 C 
HETATM    7  C3  UNL     1     -33.977  17.387  -3.075  1.00 20.00     0.005 C 
ENDBRANCH   2   4
BRANCH   3   8
HETATM    8  C8  UNL     1     -35.235  14.259  -5.733  1.00 20.00     0.090 C 
HETATM    9 BR9  UNL     1     -34.815  15.004  -7.488  1.00 20.00    -0.096 Br
ENDBRANCH   3   8
TORSDOF 2
ENDMDL
MODEL 7
REMARK VINA RESULT:      -4.0     11.017     12.016
REMARK  2 active torsions:
REMARK  status: ('A' for Active; 'I' for Inactive)
REMARK    1  A    between atoms: C5_5  and  C6_6 
REMARK    2  A    between atoms: C7_7  and  C8_8 
ROOT
HETATM    1  C4  UNL     1     -34.404  16.601  -1.340  1.00 20.00     0.011 A 
HETATM    2  C6  UNL     1     -34.006  15.983  -2.648  1.00 20.00    -0.005 A 
HETATM    3  C7  UNL     1     -34.876  17.206  -2.636  1.00 20.00     0.000 A 
ENDROOT
BRANCH   2   4
HETATM    4  C5  UNL     1     -34.508  14.629  -3.101  1.00 20.00    -0.010 C 
HETATM    5  C2  UNL     1     -33.492  13.722  -3.843  1.00 20.00     0.005 C 
HETATM    6  C1  UNL     1     -34.664  13.259  -4.732  1.00 20.00     0.001 C 
HETATM    7  C3  UNL     1     -35.350  14.601  -4.404  1.00 20.00     0.005 C 
ENDBRANCH   2   4
BRANCH   3   8
HETATM    8  C8  UNL     1     -34.330  18.514  -3.096  1.00 20.00     0.090 C 
HETATM    9 BR9  UNL     1     -33.673  18.371  -4.929  1.00 20.00    -0.096 Br
ENDBRANCH   3   8
TORSDOF 2
ENDMDL
MODEL 8
REMARK VINA RESULT:      -4.0     11.600     12.705
REMARK  2 active torsions:
REMARK  status: ('A' for Active; 'I' for Inactive)
REMARK    1  A    between atoms: C5_5  and  C6_6 
REMARK    2  A    between atoms: C7_7  and  C8_8 
ROOT
HETATM    1  C4  UNL     1     -33.597  17.445  -5.088  1.00 20.00     0.011 A 
HETATM    2  C6  UNL     1     -33.244  16.155  -4.407  1.00 20.00    -0.005 A 
HETATM    3  C7  UNL     1     -34.317  16.174  -5.457  1.00 20.00     0.000 A 
ENDROOT
BRANCH   2   4
HETATM    4  C5  UNL     1     -33.538  15.893  -2.945  1.00 20.00    -0.010 C 
HETATM    5  C2  UNL     1     -35.018  15.614  -2.572  1.00 20.00     0.005 C 
HETATM    6  C1  UNL     1     -34.763  16.403  -1.272  1.00 20.00     0.001 C 
HETATM    7  C3  UNL     1     -33.631  17.136  -2.022  1.00 20.00     0.005 C 
ENDBRANCH   2   4
BRANCH   3   8
HETATM    8  C8  UNL     1     -34.075  15.532  -6.780  1.00 20.00     0.090 C 
HETATM    9 BR9  UNL     1     -35.695  14.648  -7.416  1.00 20.00    -0.096 Br
ENDBRANCH   3   8
TORSDOF 2
ENDMDL
MODEL 9
REMARK VINA RESULT:      -4.0     11.283     12.114
REMARK  2 active torsions:
REMARK  status: ('A' for Active; 'I' for Inactive)
REMARK    1  A    between atoms: C5_5  and  C6_6 
REMARK    2  A    between atoms: C7_7  and  C8_8 
ROOT
HETATM    1  C4  UNL     1     -35.808  16.898  -3.780  1.00 20.00     0.011 A 
HETATM    2  C6  UNL     1     -34.619  16.154  -3.247  1.00 20.00    -0.005 A 
HETATM    3  C7  UNL     1     -35.981  15.525  -3.185  1.00 20.00     0.000 A 
ENDROOT
BRANCH   2   4
HETATM    4  C5  UNL     1     -33.866  16.592  -2.009  1.00 20.00    -0.010 C 
HETATM    5  C2  UNL     1     -34.672  16.638  -0.684  1.00 20.00     0.005 C 
HETATM    6  C1  UNL     1     -33.857  17.895  -0.317  1.00 20.00     0.001 C 
HETATM    7  C3  UNL     1     -33.652  18.118  -1.830  1.00 20.00     0.005 C 
ENDBRANCH   2   4
BRANCH   3   8
HETATM    8  C8  UNL     1     -36.305  14.364  -4.061  1.00 20.00     0.090 C 
HETATM    9 BR9  UNL     1     -34.683  13.373  -4.507  1.00 20.00    -0.096 Br
ENDBRANCH   3   8
TORSDOF 2
ENDMDL
