MODEL 1
REMARK VINA RESULT:      -4.5      0.000      0.000
REMARK  3 active torsions:
REMARK  status: ('A' for Active; 'I' for Inactive)
REMARK    1  A    between atoms: C1_1  and  C6_6 
REMARK    2  A    between atoms: C6_6  and  C7_7 
REMARK    3  A    between atoms: C7_7  and  C8_8 
ROOT
HETATM    1  C2  UNL     1     -33.343  17.040  -5.137  1.00 20.00     0.014 C 
HETATM    2  C7  UNL     1     -33.880  16.037  -4.098  1.00 20.00     0.034 C 
ENDROOT
BRANCH   2   3
HETATM    3  C6  UNL     1     -34.508  14.837  -4.835  1.00 20.00     0.275 C 
HETATM    4  F11 UNL     1     -34.072  14.826  -6.127  1.00 20.00    -0.237 F 
BRANCH   3   5
HETATM    5  C1  UNL     1     -34.204  13.443  -4.270  1.00 20.00     0.208 C 
HETATM    6  O9  UNL     1     -35.118  12.584  -4.411  1.00 20.00    -0.646 OA
HETATM    7  O10 UNL     1     -33.078  13.328  -3.706  1.00 20.00    -0.646 OA
ENDBRANCH   3   5
ENDBRANCH   2   3
BRANCH   2   8
HETATM    8  C8  UNL     1     -34.840  16.697  -3.036  1.00 20.00    -0.045 C 
HETATM    9  C3  UNL     1     -34.708  18.236  -3.069  1.00 20.00     0.015 C 
HETATM   10  C4  UNL     1     -36.312  16.364  -3.370  1.00 20.00     0.015 C 
HETATM   11  C5  UNL     1     -34.558  16.225  -1.597  1.00 20.00     0.015 C 
ENDBRANCH   2   8
TORSDOF 3
ENDMDL
MODEL 2
REMARK VINA RESULT:      -4.5      0.047      1.300
REMARK  3 active torsions:
REMARK  status: ('A' for Active; 'I' for Inactive)
REMARK    1  A    between atoms: C1_1  and  C6_6 
REMARK    2  A    between atoms: C6_6  and  C7_7 
REMARK    3  A    between atoms: C7_7  and  C8_8 
ROOT
HETATM    1  C2  UNL     1     -33.358  17.028  -5.185  1.00 20.00     0.014 C 
HETATM    2  C7  UNL     1     -33.898  16.032  -4.141  1.00 20.00     0.034 C 
ENDROOT
BRANCH   2   3
HETATM    3  C6  UNL     1     -34.519  14.824  -4.871  1.00 20.00     0.275 C 
HETATM    4  F11 UNL     1     -34.081  14.808  -6.162  1.00 20.00    -0.237 F 
BRANCH   3   5
HETATM    5  C1  UNL     1     -34.207  13.436  -4.297  1.00 20.00     0.208 C 
HETATM    6  O9  UNL     1     -35.104  12.562  -4.461  1.00 20.00    -0.646 OA
HETATM    7  O10 UNL     1     -33.095  13.339  -3.704  1.00 20.00    -0.646 OA
ENDBRANCH   3   5
ENDBRANCH   2   3
BRANCH   2   8
HETATM    8  C8  UNL     1     -34.866  16.698  -3.089  1.00 20.00    -0.045 C 
HETATM    9  C3  UNL     1     -34.522  16.222  -1.660  1.00 20.00     0.015 C 
HETATM   10  C4  UNL     1     -34.695  18.234  -3.106  1.00 20.00     0.015 C 
HETATM   11  C5  UNL     1     -36.350  16.379  -3.354  1.00 20.00     0.015 C 
ENDBRANCH   2   8
TORSDOF 3
ENDMDL
MODEL 3
REMARK VINA RESULT:      -4.5      0.041      1.301
REMARK  3 active torsions:
REMARK  status: ('A' for Active; 'I' for Inactive)
REMARK    1  A    between atoms: C1_1  and  C6_6 
REMARK    2  A    between atoms: C6_6  and  C7_7 
REMARK    3  A    between atoms: C7_7  and  C8_8 
ROOT
HETATM    1  C2  UNL     1     -33.343  17.025  -5.187  1.00 20.00     0.014 C 
HETATM    2  C7  UNL     1     -33.891  16.044  -4.132  1.00 20.00     0.034 C 
ENDROOT
BRANCH   2   3
HETATM    3  C6  UNL     1     -34.526  14.836  -4.849  1.00 20.00     0.275 C 
HETATM    4  F11 UNL     1     -34.109  14.816  -6.147  1.00 20.00    -0.237 F 
BRANCH   3   5
HETATM    5  C1  UNL     1     -34.207  13.448  -4.277  1.00 20.00     0.208 C 
HETATM    6  O9  UNL     1     -35.103  12.573  -4.435  1.00 20.00    -0.646 OA
HETATM    7  O10 UNL     1     -33.091  13.354  -3.692  1.00 20.00    -0.646 OA
ENDBRANCH   3   5
ENDBRANCH   2   3
BRANCH   2   8
HETATM    8  C8  UNL     1     -34.850  16.730  -3.085  1.00 20.00    -0.045 C 
HETATM    9  C3  UNL     1     -36.323  16.375  -3.386  1.00 20.00     0.015 C 
HETATM   10  C4  UNL     1     -34.543  16.209  -1.662  1.00 20.00     0.015 C 
HETATM   11  C5  UNL     1     -34.722  18.265  -3.070  1.00 20.00     0.015 C 
ENDBRANCH   2   8
TORSDOF 3
ENDMDL
MODEL 4
REMARK VINA RESULT:      -4.5      1.617      2.205
REMARK  3 active torsions:
REMARK  status: ('A' for Active; 'I' for Inactive)
REMARK    1  A    between atoms: C1_1  and  C6_6 
REMARK    2  A    between atoms: C6_6  and  C7_7 
REMARK    3  A    between atoms: C7_7  and  C8_8 
ROOT
HETATM    1  C2  UNL     1     -34.586  16.274  -1.582  1.00 20.00     0.014 C 
HETATM    2  C7  UNL     1     -35.187  15.417  -2.713  1.00 20.00     0.034 C 
ENDROOT
BRANCH   2   3
HETATM    3  C6  UNL     1     -34.052  14.948  -3.646  1.00 20.00     0.275 C 
HETATM    4  F11 UNL     1     -32.857  15.372  -3.146  1.00 20.00    -0.237 F 
BRANCH   3   5
HETATM    5  C1  UNL     1     -33.914  13.434  -3.857  1.00 20.00     0.208 C 
HETATM    6  O9  UNL     1     -34.963  12.835  -4.224  1.00 20.00    -0.646 OA
HETATM    7  O10 UNL     1     -32.766  12.962  -3.613  1.00 20.00    -0.646 OA
ENDBRANCH   3   5
ENDBRANCH   2   3
BRANCH   2   8
HETATM    8  C8  UNL     1     -36.371  16.130  -3.471  1.00 20.00    -0.045 C 
HETATM    9  C3  UNL     1     -35.941  16.519  -4.903  1.00 20.00     0.015 C 
HETATM   10  C4  UNL     1     -37.572  15.166  -3.608  1.00 20.00     0.015 C 
HETATM   11  C5  UNL     1     -36.860  17.405  -2.758  1.00 20.00     0.015 C 
ENDBRANCH   2   8
TORSDOF 3
ENDMDL
MODEL 5
REMARK VINA RESULT:      -4.4      1.311      2.052
REMARK  3 active torsions:
REMARK  status: ('A' for Active; 'I' for Inactive)
REMARK    1  A    between atoms: C1_1  and  C6_6 
REMARK    2  A    between atoms: C6_6  and  C7_7 
REMARK    3  A    between atoms: C7_7  and  C8_8 
ROOT
HETATM    1  C2  UNL     1     -32.667  15.377  -3.561  1.00 20.00     0.014 C 
HETATM    2  C7  UNL     1     -34.146  15.446  -3.134  1.00 20.00     0.034 C 
ENDROOT
BRANCH   2   3
HETATM    3  C6  UNL     1     -35.035  15.047  -4.329  1.00 20.00     0.275 C 
HETATM    4  F11 UNL     1     -34.260  14.931  -5.444  1.00 20.00    -0.237 F 
BRANCH   3   5
HETATM    5  C1  UNL     1     -35.805  13.725  -4.204  1.00 20.00     0.208 C 
HETATM    6  O9  UNL     1     -35.132  12.678  -4.417  1.00 20.00    -0.646 OA
HETATM    7  O10 UNL     1     -37.032  13.845  -3.926  1.00 20.00    -0.646 OA
ENDBRANCH   3   5
ENDBRANCH   2   3
BRANCH   2   8
HETATM    8  C8  UNL     1     -34.542  16.830  -2.488  1.00 20.00    -0.045 C 
HETATM    9  C3  UNL     1     -36.044  17.119  -2.709  1.00 20.00     0.015 C 
HETATM   10  C4  UNL     1     -34.311  16.789  -0.960  1.00 20.00     0.015 C 
HETATM   11  C5  UNL     1     -33.739  18.012  -3.063  1.00 20.00     0.015 C 
ENDBRANCH   2   8
TORSDOF 3
ENDMDL
MODEL 6
REMARK VINA RESULT:      -4.3      1.514      2.169
REMARK  3 active torsions:
REMARK  status: ('A' for Active; 'I' for Inactive)
REMARK    1  A    between atoms: C1_1  and  C6_6 
REMARK    2  A    between atoms: C6_6  and  C7_7 
REMARK    3  A    between atoms: C7_7  and  C8_8 
ROOT
HETATM    1  C2  UNL     1     -32.974  15.467  -3.491  1.00 20.00     0.014 C 
HETATM    2  C7  UNL     1     -34.433  15.541  -3.001  1.00 20.00     0.034 C 
ENDROOT
BRANCH   2   3
HETATM    3  C6  UNL     1     -35.378  15.268  -4.188  1.00 20.00     0.275 C 
HETATM    4  F11 UNL     1     -34.646  15.194  -5.335  1.00 20.00    -0.237 F 
BRANCH   3   5
HETATM    5  C1  UNL     1     -36.208  13.977  -4.127  1.00 20.00     0.208 C 
HETATM    6  O9  UNL     1     -37.422  14.123  -3.813  1.00 20.00    -0.646 OA
HETATM    7  O10 UNL     1     -35.566  12.917  -4.375  1.00 20.00    -0.646 OA
ENDBRANCH   3   5
ENDBRANCH   2   3
BRANCH   2   8
HETATM    8  C8  UNL     1     -34.762  16.877  -2.229  1.00 20.00    -0.045 C 
HETATM    9  C3  UNL     1     -34.584  16.679  -0.707  1.00 20.00     0.015 C 
HETATM   10  C4  UNL     1     -33.781  17.993  -2.656  1.00 20.00     0.015 C 
HETATM   11  C5  UNL     1     -36.196  17.378  -2.480  1.00 20.00     0.015 C 
ENDBRANCH   2   8
TORSDOF 3
ENDMDL
MODEL 7
REMARK VINA RESULT:      -4.3      1.718      2.831
REMARK  3 active torsions:
REMARK  status: ('A' for Active; 'I' for Inactive)
REMARK    1  A    between atoms: C1_1  and  C6_6 
REMARK    2  A    between atoms: C6_6  and  C7_7 
REMARK    3  A    between atoms: C7_7  and  C8_8 
ROOT
HETATM    1  C2  UNL     1     -36.177  16.463  -3.655  1.00 20.00     0.014 C 
HETATM    2  C7  UNL     1     -35.280  15.616  -4.579  1.00 20.00     0.034 C 
ENDROOT
BRANCH   2   3
HETATM    3  C6  UNL     1     -34.174  14.951  -3.736  1.00 20.00     0.275 C 
HETATM    4  F11 UNL     1     -34.440  15.148  -2.414  1.00 20.00    -0.237 F 
BRANCH   3   5
HETATM    5  C1  UNL     1     -33.987  13.438  -3.913  1.00 20.00     0.208 C 
HETATM    6  O9  UNL     1     -35.017  12.797  -4.265  1.00 20.00    -0.646 OA
HETATM    7  O10 UNL     1     -32.825  13.008  -3.662  1.00 20.00    -0.646 OA
ENDBRANCH   3   5
ENDBRANCH   2   3
BRANCH   2   8
HETATM    8  C8  UNL     1     -34.729  16.421  -5.819  1.00 20.00    -0.045 C 
HETATM    9  C3  UNL     1     -33.466  17.220  -5.427  1.00 20.00     0.015 C 
HETATM   10  C4  UNL     1     -34.314  15.446  -6.944  1.00 20.00     0.015 C 
HETATM   11  C5  UNL     1     -35.759  17.409  -6.398  1.00 20.00     0.015 C 
ENDBRANCH   2   8
TORSDOF 3
ENDMDL
MODEL 8
REMARK VINA RESULT:      -4.2      1.763      3.118
REMARK  3 active torsions:
REMARK  status: ('A' for Active; 'I' for Inactive)
REMARK    1  A    between atoms: C1_1  and  C6_6 
REMARK    2  A    between atoms: C6_6  and  C7_7 
REMARK    3  A    between atoms: C7_7  and  C8_8 
ROOT
HETATM    1  C2  UNL     1     -36.382  16.514  -3.923  1.00 20.00     0.014 C 
HETATM    2  C7  UNL     1     -35.443  15.574  -4.703  1.00 20.00     0.034 C 
ENDROOT
BRANCH   2   3
HETATM    3  C6  UNL     1     -34.418  14.963  -3.726  1.00 20.00     0.275 C 
HETATM    4  F11 UNL     1     -34.858  15.138  -2.448  1.00 20.00    -0.237 F 
BRANCH   3   5
HETATM    5  C1  UNL     1     -34.130  13.463  -3.878  1.00 20.00     0.208 C 
HETATM    6  O9  UNL     1     -32.950  13.103  -3.606  1.00 20.00    -0.646 OA
HETATM    7  O10 UNL     1     -35.105  12.769  -4.282  1.00 20.00    -0.646 OA
ENDBRANCH   3   5
ENDBRANCH   2   3
BRANCH   2   8
HETATM    8  C8  UNL     1     -34.784  16.258  -5.962  1.00 20.00    -0.045 C 
HETATM    9  C3  UNL     1     -35.754  17.284  -6.590  1.00 20.00     0.015 C 
HETATM   10  C4  UNL     1     -33.516  17.036  -5.541  1.00 20.00     0.015 C 
HETATM   11  C5  UNL     1     -34.386  15.248  -7.054  1.00 20.00     0.015 C 
ENDBRANCH   2   8
TORSDOF 3
ENDMDL
MODEL 9
REMARK VINA RESULT:      -4.2      1.485      2.448
REMARK  3 active torsions:
REMARK  status: ('A' for Active; 'I' for Inactive)
REMARK    1  A    between atoms: C1_1  and  C6_6 
REMARK    2  A    between atoms: C6_6  and  C7_7 
REMARK    3  A    between atoms: C7_7  and  C8_8 
ROOT
HETATM    1  C2  UNL     1     -34.509  16.117  -1.865  1.00 20.00     0.014 C 
HETATM    2  C7  UNL     1     -34.951  16.038  -3.339  1.00 20.00     0.034 C 
ENDROOT
BRANCH   2   3
HETATM    3  C6  UNL     1     -34.429  14.723  -3.952  1.00 20.00     0.275 C 
HETATM    4  F11 UNL     1     -33.480  14.192  -3.131  1.00 20.00    -0.237 F 
BRANCH   3   5
HETATM    5  C1  UNL     1     -35.463  13.612  -4.184  1.00 20.00     0.208 C 
HETATM    6  O9  UNL     1     -36.657  13.910  -3.903  1.00 20.00    -0.646 OA
HETATM    7  O10 UNL     1     -34.989  12.520  -4.608  1.00 20.00    -0.646 OA
ENDBRANCH   3   5
ENDBRANCH   2   3
BRANCH   2   8
HETATM    8  C8  UNL     1     -34.562  17.319  -4.173  1.00 20.00    -0.045 C 
HETATM    9  C3  UNL     1     -33.975  18.409  -3.249  1.00 20.00     0.015 C 
HETATM   10  C4  UNL     1     -33.467  16.969  -5.207  1.00 20.00     0.015 C 
HETATM   11  C5  UNL     1     -35.758  17.928  -4.930  1.00 20.00     0.015 C 
ENDBRANCH   2   8
TORSDOF 3
ENDMDL
