MODEL 1
REMARK VINA RESULT:      -4.4      0.000      0.000
REMARK  1 active torsions:
REMARK  status: ('A' for Active; 'I' for Inactive)
REMARK    1  A    between atoms: C4_4  and  C10_10 
ROOT
HETATM    1  C1  UNL     1     -33.946  16.669  -5.213  1.00 20.00     0.006 C 
HETATM    2  C2  UNL     1     -34.909  16.478  -6.391  1.00 20.00     0.009 C 
HETATM    3  C3  UNL     1     -34.788  14.069  -5.597  1.00 20.00     0.013 C 
HETATM    4  C4  UNL     1     -34.465  16.009  -3.933  1.00 20.00    -0.001 C 
HETATM    5  C5  UNL     1     -34.626  14.475  -4.115  1.00 20.00    -0.013 C 
HETATM    6  C6  UNL     1     -35.574  15.079  -6.456  1.00 20.00    -0.047 C 
HETATM    7  C7  UNL     1     -33.501  13.632  -3.500  1.00 20.00     0.010 C 
HETATM    8  C8  UNL     1     -37.041  15.156  -5.989  1.00 20.00     0.015 C 
HETATM    9  C9  UNL     1     -35.582  14.590  -7.918  1.00 20.00     0.015 C 
ENDROOT
BRANCH   4  10
HETATM   10  C10 UNL     1     -33.619  16.429  -2.730  1.00 20.00     0.090 C 
HETATM   11 BR11 UNL     1     -34.767  16.632  -1.182  1.00 20.00    -0.096 Br
ENDBRANCH   4  10
TORSDOF 1
ENDMDL
MODEL 2
REMARK VINA RESULT:      -4.3      2.506      4.305
REMARK  1 active torsions:
REMARK  status: ('A' for Active; 'I' for Inactive)
REMARK    1  A    between atoms: C4_4  and  C10_10 
ROOT
HETATM    1  C1  UNL     1     -36.683  15.870  -4.003  1.00 20.00     0.006 C 
HETATM    2  C2  UNL     1     -36.183  16.795  -2.887  1.00 20.00     0.009 C 
HETATM    3  C3  UNL     1     -34.288  15.105  -2.863  1.00 20.00     0.013 C 
HETATM    4  C4  UNL     1     -35.592  15.574  -5.036  1.00 20.00    -0.001 C 
HETATM    5  C5  UNL     1     -34.380  14.851  -4.384  1.00 20.00    -0.013 C 
HETATM    6  C6  UNL     1     -34.732  16.514  -2.421  1.00 20.00    -0.047 C 
HETATM    7  C7  UNL     1     -34.326  13.338  -4.630  1.00 20.00     0.010 C 
HETATM    8  C8  UNL     1     -33.769  17.582  -2.978  1.00 20.00     0.015 C 
HETATM    9  C9  UNL     1     -34.670  16.596  -0.883  1.00 20.00     0.015 C 
ENDROOT
BRANCH   4  10
HETATM   10  C10 UNL     1     -36.183  14.865  -6.256  1.00 20.00     0.090 C 
HETATM   11 BR11 UNL     1     -35.090  15.250  -7.809  1.00 20.00    -0.096 Br
ENDBRANCH   4  10
TORSDOF 1
ENDMDL
MODEL 3
REMARK VINA RESULT:      -4.3      2.698      4.823
REMARK  1 active torsions:
REMARK  status: ('A' for Active; 'I' for Inactive)
REMARK    1  A    between atoms: C4_4  and  C10_10 
ROOT
HETATM    1  C1  UNL     1     -34.902  18.039  -3.591  1.00 20.00     0.006 C 
HETATM    2  C2  UNL     1     -34.992  18.676  -2.199  1.00 20.00     0.009 C 
HETATM    3  C3  UNL     1     -34.634  16.262  -1.496  1.00 20.00     0.013 C 
HETATM    4  C4  UNL     1     -33.680  17.127  -3.728  1.00 20.00    -0.001 C 
HETATM    5  C5  UNL     1     -33.739  15.949  -2.716  1.00 20.00    -0.013 C 
HETATM    6  C6  UNL     1     -34.596  17.733  -1.035  1.00 20.00    -0.047 C 
HETATM    7  C7  UNL     1     -34.184  14.609  -3.315  1.00 20.00     0.010 C 
HETATM    8  C8  UNL     1     -33.195  18.094  -0.500  1.00 20.00     0.015 C 
HETATM    9  C9  UNL     1     -35.593  17.917   0.126  1.00 20.00     0.015 C 
ENDROOT
BRANCH   4  10
HETATM   10  C10 UNL     1     -33.477  16.712  -5.186  1.00 20.00     0.090 C 
HETATM   11 BR11 UNL     1     -35.100  17.073  -6.183  1.00 20.00    -0.096 Br
ENDBRANCH   4  10
TORSDOF 1
ENDMDL
MODEL 4
REMARK VINA RESULT:      -4.2      2.279      4.844
REMARK  1 active torsions:
REMARK  status: ('A' for Active; 'I' for Inactive)
REMARK    1  A    between atoms: C4_4  and  C10_10 
ROOT
HETATM    1  C1  UNL     1     -34.672  15.463  -2.598  1.00 20.00     0.006 C 
HETATM    2  C2  UNL     1     -34.664  16.321  -1.327  1.00 20.00     0.009 C 
HETATM    3  C3  UNL     1     -33.673  18.013  -2.940  1.00 20.00     0.013 C 
HETATM    4  C4  UNL     1     -35.298  16.200  -3.786  1.00 20.00    -0.001 C 
HETATM    5  C5  UNL     1     -34.497  17.485  -4.136  1.00 20.00    -0.013 C 
HETATM    6  C6  UNL     1     -34.342  17.818  -1.566  1.00 20.00    -0.047 C 
HETATM    7  C7  UNL     1     -33.567  17.352  -5.349  1.00 20.00     0.010 C 
HETATM    8  C8  UNL     1     -35.624  18.669  -1.465  1.00 20.00     0.015 C 
HETATM    9  C9  UNL     1     -33.376  18.309  -0.468  1.00 20.00     0.015 C 
ENDROOT
BRANCH   4  10
HETATM   10  C10 UNL     1     -35.521  15.242  -4.957  1.00 20.00     0.090 C 
HETATM   11 BR11 UNL     1     -34.967  13.459  -4.437  1.00 20.00    -0.096 Br
ENDBRANCH   4  10
TORSDOF 1
ENDMDL
MODEL 5
REMARK VINA RESULT:      -4.2      1.551      2.949
REMARK  1 active torsions:
REMARK  status: ('A' for Active; 'I' for Inactive)
REMARK    1  A    between atoms: C4_4  and  C10_10 
ROOT
HETATM    1  C1  UNL     1     -35.914  15.894  -2.988  1.00 20.00     0.006 C 
HETATM    2  C2  UNL     1     -35.683  14.505  -3.594  1.00 20.00     0.009 C 
HETATM    3  C3  UNL     1     -33.986  15.808  -4.963  1.00 20.00     0.013 C 
HETATM    4  C4  UNL     1     -34.602  16.569  -2.579  1.00 20.00    -0.001 C 
HETATM    5  C5  UNL     1     -33.670  16.780  -3.804  1.00 20.00    -0.013 C 
HETATM    6  C6  UNL     1     -34.440  14.405  -4.515  1.00 20.00    -0.047 C 
HETATM    7  C7  UNL     1     -33.652  18.210  -4.359  1.00 20.00     0.010 C 
HETATM    8  C8  UNL     1     -33.291  13.671  -3.794  1.00 20.00     0.015 C 
HETATM    9  C9  UNL     1     -34.802  13.576  -5.764  1.00 20.00     0.015 C 
ENDROOT
BRANCH   4  10
HETATM   10  C10 UNL     1     -34.878  17.828  -1.755  1.00 20.00     0.090 C 
HETATM   11 BR11 UNL     1     -34.790  17.390   0.130  1.00 20.00    -0.096 Br
ENDBRANCH   4  10
TORSDOF 1
ENDMDL
MODEL 6
REMARK VINA RESULT:      -4.1      1.660      2.883
REMARK  1 active torsions:
REMARK  status: ('A' for Active; 'I' for Inactive)
REMARK    1  A    between atoms: C4_4  and  C10_10 
ROOT
HETATM    1  C1  UNL     1     -34.120  15.883  -2.432  1.00 20.00     0.006 C 
HETATM    2  C2  UNL     1     -33.659  14.925  -3.537  1.00 20.00     0.009 C 
HETATM    3  C3  UNL     1     -36.039  15.317  -4.334  1.00 20.00     0.013 C 
HETATM    4  C4  UNL     1     -34.792  17.136  -3.000  1.00 20.00    -0.001 C 
HETATM    5  C5  UNL     1     -36.064  16.772  -3.815  1.00 20.00    -0.013 C 
HETATM    6  C6  UNL     1     -34.641  14.804  -4.731  1.00 20.00    -0.047 C 
HETATM    7  C7  UNL     1     -37.389  17.003  -3.076  1.00 20.00     0.010 C 
HETATM    8  C8  UNL     1     -34.108  15.582  -5.951  1.00 20.00     0.015 C 
HETATM    9  C9  UNL     1     -34.754  13.322  -5.144  1.00 20.00     0.015 C 
ENDROOT
BRANCH   4  10
HETATM   10  C10 UNL     1     -35.008  18.177  -1.900  1.00 20.00     0.090 C 
HETATM   11 BR11 UNL     1     -34.761  17.338  -0.171  1.00 20.00    -0.096 Br
ENDBRANCH   4  10
TORSDOF 1
ENDMDL
MODEL 7
REMARK VINA RESULT:      -4.1      1.550      1.721
REMARK  1 active torsions:
REMARK  status: ('A' for Active; 'I' for Inactive)
REMARK    1  A    between atoms: C4_4  and  C10_10 
ROOT
HETATM    1  C1  UNL     1     -35.472  17.023  -3.945  1.00 20.00     0.006 C 
HETATM    2  C2  UNL     1     -36.794  16.813  -4.693  1.00 20.00     0.009 C 
HETATM    3  C3  UNL     1     -35.831  14.478  -4.952  1.00 20.00     0.013 C 
HETATM    4  C4  UNL     1     -35.216  15.924  -2.910  1.00 20.00    -0.001 C 
HETATM    5  C5  UNL     1     -35.116  14.528  -3.583  1.00 20.00    -0.013 C 
HETATM    6  C6  UNL     1     -37.109  15.335  -5.038  1.00 20.00    -0.047 C 
HETATM    7  C7  UNL     1     -33.686  14.000  -3.760  1.00 20.00     0.010 C 
HETATM    8  C8  UNL     1     -38.195  14.780  -4.095  1.00 20.00     0.015 C 
HETATM    9  C9  UNL     1     -37.664  15.258  -6.474  1.00 20.00     0.015 C 
ENDROOT
BRANCH   4  10
HETATM   10  C10 UNL     1     -34.032  16.294  -2.014  1.00 20.00     0.090 C 
HETATM   11 BR11 UNL     1     -34.694  17.108  -0.385  1.00 20.00    -0.096 Br
ENDBRANCH   4  10
TORSDOF 1
ENDMDL
MODEL 8
REMARK VINA RESULT:      -4.0      2.425      4.289
REMARK  1 active torsions:
REMARK  status: ('A' for Active; 'I' for Inactive)
REMARK    1  A    between atoms: C4_4  and  C10_10 
ROOT
HETATM    1  C1  UNL     1     -34.154  16.283  -4.666  1.00 20.00     0.006 C 
HETATM    2  C2  UNL     1     -33.912  17.295  -3.539  1.00 20.00     0.009 C 
HETATM    3  C3  UNL     1     -36.260  16.567  -2.904  1.00 20.00     0.013 C 
HETATM    4  C4  UNL     1     -34.679  14.946  -4.135  1.00 20.00    -0.001 C 
HETATM    5  C5  UNL     1     -36.043  15.123  -3.411  1.00 20.00    -0.013 C 
HETATM    6  C6  UNL     1     -34.980  17.273  -2.416  1.00 20.00    -0.047 C 
HETATM    7  C7  UNL     1     -37.267  14.707  -4.236  1.00 20.00     0.010 C 
HETATM    8  C8  UNL     1     -34.426  16.577  -1.157  1.00 20.00     0.015 C 
HETATM    9  C9  UNL     1     -35.331  18.723  -2.024  1.00 20.00     0.015 C 
ENDROOT
BRANCH   4  10
HETATM   10  C10 UNL     1     -34.669  13.888  -5.239  1.00 20.00     0.090 C 
HETATM   11 BR11 UNL     1     -34.651  14.766  -6.966  1.00 20.00    -0.096 Br
ENDBRANCH   4  10
TORSDOF 1
ENDMDL
MODEL 9
REMARK VINA RESULT:      -4.0     12.590     13.654
REMARK  1 active torsions:
REMARK  status: ('A' for Active; 'I' for Inactive)
REMARK    1  A    between atoms: C4_4  and  C10_10 
ROOT
HETATM    1  C1  UNL     1     -42.858   5.277  -3.042  1.00 20.00     0.006 C 
HETATM    2  C2  UNL     1     -42.658   6.757  -2.698  1.00 20.00     0.009 C 
HETATM    3  C3  UNL     1     -43.103   5.875  -0.358  1.00 20.00     0.013 C 
HETATM    4  C4  UNL     1     -42.025   4.359  -2.142  1.00 20.00    -0.001 C 
HETATM    5  C5  UNL     1     -42.429   4.515  -0.650  1.00 20.00    -0.013 C 
HETATM    6  C6  UNL     1     -42.546   7.054  -1.180  1.00 20.00    -0.047 C 
HETATM    7  C7  UNL     1     -43.330   3.399  -0.108  1.00 20.00     0.010 C 
HETATM    8  C8  UNL     1     -41.082   7.339  -0.792  1.00 20.00     0.015 C 
HETATM    9  C9  UNL     1     -43.364   8.320  -0.851  1.00 20.00     0.015 C 
ENDROOT
BRANCH   4  10
HETATM   10  C10 UNL     1     -42.048   2.923  -2.669  1.00 20.00     0.090 C 
HETATM   11 BR11 UNL     1     -43.417   2.765  -4.030  1.00 20.00    -0.096 Br
ENDBRANCH   4  10
TORSDOF 1
ENDMDL
