MODEL 1
REMARK VINA RESULT:      -4.5      0.000      0.000
REMARK  2 active torsions:
REMARK  status: ('A' for Active; 'I' for Inactive)
REMARK    1  A    between atoms: C5_5  and  C6_6 
REMARK    2  A    between atoms: C7_7  and  C8_8 
ROOT
HETATM    1  C1  UNL     1     -35.521   5.384   4.032  1.00 20.00     0.033 C 
HETATM    2  C3  UNL     1     -35.102   4.315   5.021  1.00 20.00     0.168 C 
HETATM    3  C4  UNL     1     -33.945   6.275   5.525  1.00 20.00     0.172 C 
HETATM    4  C5  UNL     1     -34.358   6.354   4.064  1.00 20.00     0.016 C 
HETATM    5  O9  UNL     1     -34.227   4.940   5.970  1.00 20.00    -0.391 OA
ENDROOT
BRANCH   4   6
HETATM    6  C6  UNL     1     -33.226   5.923   3.133  1.00 20.00    -0.003 A 
HETATM    7  C2  UNL     1     -31.792   6.110   3.547  1.00 20.00     0.011 A 
HETATM    8  C7  UNL     1     -32.354   6.920   2.408  1.00 20.00     0.000 A 
BRANCH   8   9
HETATM    9  C8  UNL     1     -32.532   8.393   2.548  1.00 20.00     0.090 C 
HETATM   10 BR10 UNL     1     -32.194   9.285   0.845  1.00 20.00    -0.096 Br
ENDBRANCH   8   9
ENDBRANCH   4   6
TORSDOF 2
ENDMDL
MODEL 2
REMARK VINA RESULT:      -4.2     11.173     12.064
REMARK  2 active torsions:
REMARK  status: ('A' for Active; 'I' for Inactive)
REMARK    1  A    between atoms: C5_5  and  C6_6 
REMARK    2  A    between atoms: C7_7  and  C8_8 
ROOT
HETATM    1  C1  UNL     1     -33.391  13.737  -3.727  1.00 20.00     0.033 C 
HETATM    2  C3  UNL     1     -34.363  13.415  -4.844  1.00 20.00     0.168 C 
HETATM    3  C4  UNL     1     -33.959  15.710  -4.862  1.00 20.00     0.172 C 
HETATM    4  C5  UNL     1     -33.650  15.205  -3.462  1.00 20.00     0.016 C 
HETATM    5  O9  UNL     1     -34.589  14.631  -5.568  1.00 20.00    -0.391 OA
ENDROOT
BRANCH   4   6
HETATM    6  C6  UNL     1     -34.826  15.418  -2.511  1.00 20.00    -0.003 A 
HETATM    7  C2  UNL     1     -35.676  16.654  -2.623  1.00 20.00     0.011 A 
HETATM    8  C7  UNL     1     -34.800  16.454  -1.413  1.00 20.00     0.000 A 
BRANCH   8   9
HETATM    9  C8  UNL     1     -33.628  17.344  -1.178  1.00 20.00     0.090 C 
HETATM   10 BR10 UNL     1     -33.860  18.353   0.477  1.00 20.00    -0.096 Br
ENDBRANCH   8   9
ENDBRANCH   4   6
TORSDOF 2
ENDMDL
MODEL 3
REMARK VINA RESULT:      -4.2     11.213     12.172
REMARK  2 active torsions:
REMARK  status: ('A' for Active; 'I' for Inactive)
REMARK    1  A    between atoms: C5_5  and  C6_6 
REMARK    2  A    between atoms: C7_7  and  C8_8 
ROOT
HETATM    1  C1  UNL     1     -34.723  16.709  -0.689  1.00 20.00     0.033 C 
HETATM    2  C3  UNL     1     -35.077  18.142  -1.034  1.00 20.00     0.168 C 
HETATM    3  C4  UNL     1     -35.913  16.755  -2.711  1.00 20.00     0.172 C 
HETATM    4  C5  UNL     1     -34.773  16.012  -2.033  1.00 20.00     0.016 C 
HETATM    5  O9  UNL     1     -35.892  18.101  -2.213  1.00 20.00    -0.391 OA
ENDROOT
BRANCH   4   6
HETATM    6  C6  UNL     1     -33.464  16.159  -2.805  1.00 20.00    -0.003 A 
HETATM    7  C2  UNL     1     -33.479  16.294  -4.303  1.00 20.00     0.011 A 
HETATM    8  C7  UNL     1     -32.907  15.053  -3.669  1.00 20.00     0.000 A 
BRANCH   8   9
HETATM    9  C8  UNL     1     -33.592  13.741  -3.832  1.00 20.00     0.090 C 
HETATM   10 BR10 UNL     1     -34.894  13.826  -5.284  1.00 20.00    -0.096 Br
ENDBRANCH   8   9
ENDBRANCH   4   6
TORSDOF 2
ENDMDL
MODEL 4
REMARK VINA RESULT:      -4.1     11.533     12.344
REMARK  2 active torsions:
REMARK  status: ('A' for Active; 'I' for Inactive)
REMARK    1  A    between atoms: C5_5  and  C6_6 
REMARK    2  A    between atoms: C7_7  and  C8_8 
ROOT
HETATM    1  C1  UNL     1     -32.930  14.991  -3.634  1.00 20.00     0.033 C 
HETATM    2  C3  UNL     1     -34.037  14.065  -4.097  1.00 20.00     0.168 C 
HETATM    3  C4  UNL     1     -34.779  16.264  -4.321  1.00 20.00     0.172 C 
HETATM    4  C5  UNL     1     -33.675  16.261  -3.275  1.00 20.00     0.016 C 
HETATM    5  O9  UNL     1     -35.093  14.892  -4.604  1.00 20.00    -0.391 OA
ENDROOT
BRANCH   4   6
HETATM    6  C6  UNL     1     -34.240  16.213  -1.857  1.00 20.00    -0.003 A 
HETATM    7  C2  UNL     1     -35.375  17.117  -1.463  1.00 20.00     0.011 A 
HETATM    8  C7  UNL     1     -34.011  17.322  -0.859  1.00 20.00     0.000 A 
BRANCH   8   9
HETATM    9  C8  UNL     1     -33.219  18.542  -1.183  1.00 20.00     0.090 C 
HETATM   10 BR10 UNL     1     -32.077  19.035   0.321  1.00 20.00    -0.096 Br
ENDBRANCH   8   9
ENDBRANCH   4   6
TORSDOF 2
ENDMDL
MODEL 5
REMARK VINA RESULT:      -4.1     11.401     12.139
REMARK  2 active torsions:
REMARK  status: ('A' for Active; 'I' for Inactive)
REMARK    1  A    between atoms: C5_5  and  C6_6 
REMARK    2  A    between atoms: C7_7  and  C8_8 
ROOT
HETATM    1  C1  UNL     1     -34.730  16.616  -0.906  1.00 20.00     0.033 C 
HETATM    2  C3  UNL     1     -33.608  17.635  -0.920  1.00 20.00     0.168 C 
HETATM    3  C4  UNL     1     -34.514  17.511  -3.064  1.00 20.00     0.172 C 
HETATM    4  C5  UNL     1     -34.834  16.203  -2.359  1.00 20.00     0.016 C 
HETATM    5  O9  UNL     1     -33.593  18.225  -2.227  1.00 20.00    -0.391 OA
ENDROOT
BRANCH   4   6
HETATM    6  C6  UNL     1     -33.831  15.107  -2.717  1.00 20.00    -0.003 A 
HETATM    7  C2  UNL     1     -33.172  15.097  -4.069  1.00 20.00     0.011 A 
HETATM    8  C7  UNL     1     -34.151  14.011  -3.705  1.00 20.00     0.000 A 
BRANCH   8   9
HETATM    9  C8  UNL     1     -35.464  13.918  -4.402  1.00 20.00     0.090 C 
HETATM   10 BR10 UNL     1     -35.280  14.433  -6.276  1.00 20.00    -0.096 Br
ENDBRANCH   8   9
ENDBRANCH   4   6
TORSDOF 2
ENDMDL
MODEL 6
REMARK VINA RESULT:      -4.0     11.518     12.993
REMARK  2 active torsions:
REMARK  status: ('A' for Active; 'I' for Inactive)
REMARK    1  A    between atoms: C5_5  and  C6_6 
REMARK    2  A    between atoms: C7_7  and  C8_8 
ROOT
HETATM    1  C1  UNL     1     -34.422  14.918  -7.518  1.00 20.00     0.033 C 
HETATM    2  C3  UNL     1     -35.784  14.387  -7.918  1.00 20.00     0.168 C 
HETATM    3  C4  UNL     1     -36.052  15.773  -6.063  1.00 20.00     0.172 C 
HETATM    4  C5  UNL     1     -34.613  15.285  -6.061  1.00 20.00     0.016 C 
HETATM    5  O9  UNL     1     -36.749  15.023  -7.069  1.00 20.00    -0.391 OA
ENDROOT
BRANCH   4   6
HETATM    6  C6  UNL     1     -34.424  14.082  -5.138  1.00 20.00    -0.003 A 
HETATM    7  C2  UNL     1     -35.274  13.934  -3.905  1.00 20.00     0.011 A 
HETATM    8  C7  UNL     1     -33.798  14.205  -3.769  1.00 20.00     0.000 A 
BRANCH   8   9
HETATM    9  C8  UNL     1     -33.320  15.505  -3.220  1.00 20.00     0.090 C 
HETATM   10 BR10 UNL     1     -34.583  16.194  -1.901  1.00 20.00    -0.096 Br
ENDBRANCH   8   9
ENDBRANCH   4   6
TORSDOF 2
ENDMDL
MODEL 7
REMARK VINA RESULT:      -4.0     11.493     12.101
REMARK  2 active torsions:
REMARK  status: ('A' for Active; 'I' for Inactive)
REMARK    1  A    between atoms: C5_5  and  C6_6 
REMARK    2  A    between atoms: C7_7  and  C8_8 
ROOT
HETATM    1  C1  UNL     1     -34.326  14.707  -5.210  1.00 20.00     0.033 C 
HETATM    2  C3  UNL     1     -34.497  13.225  -4.947  1.00 20.00     0.168 C 
HETATM    3  C4  UNL     1     -36.260  14.360  -3.928  1.00 20.00     0.172 C 
HETATM    4  C5  UNL     1     -35.115  15.347  -4.087  1.00 20.00     0.016 C 
HETATM    5  O9  UNL     1     -35.743  13.062  -4.257  1.00 20.00    -0.391 OA
ENDROOT
BRANCH   4   6
HETATM    6  C6  UNL     1     -34.293  15.472  -2.806  1.00 20.00    -0.003 A 
HETATM    7  C2  UNL     1     -34.858  16.188  -1.610  1.00 20.00     0.011 A 
HETATM    8  C7  UNL     1     -33.691  16.781  -2.357  1.00 20.00     0.000 A 
BRANCH   8   9
HETATM    9  C8  UNL     1     -33.855  18.046  -3.128  1.00 20.00     0.090 C 
HETATM   10 BR10 UNL     1     -35.338  19.094  -2.410  1.00 20.00    -0.096 Br
ENDBRANCH   8   9
ENDBRANCH   4   6
TORSDOF 2
ENDMDL
MODEL 8
REMARK VINA RESULT:      -3.9     11.334     12.900
REMARK  2 active torsions:
REMARK  status: ('A' for Active; 'I' for Inactive)
REMARK    1  A    between atoms: C5_5  and  C6_6 
REMARK    2  A    between atoms: C7_7  and  C8_8 
ROOT
HETATM    1  C1  UNL     1     -34.470  16.274  -6.696  1.00 20.00     0.033 C 
HETATM    2  C3  UNL     1     -34.442  14.987  -7.496  1.00 20.00     0.168 C 
HETATM    3  C4  UNL     1     -35.985  14.741  -5.766  1.00 20.00     0.172 C 
HETATM    4  C5  UNL     1     -35.006  15.828  -5.352  1.00 20.00     0.016 C 
HETATM    5  O9  UNL     1     -35.458  14.132  -6.954  1.00 20.00    -0.391 OA
ENDROOT
BRANCH   4   6
HETATM    6  C6  UNL     1     -33.903  15.280  -4.448  1.00 20.00    -0.003 A 
HETATM    7  C2  UNL     1     -34.139  14.039  -3.632  1.00 20.00     0.011 A 
HETATM    8  C7  UNL     1     -33.974  15.368  -2.942  1.00 20.00     0.000 A 
BRANCH   8   9
HETATM    9  C8  UNL     1     -35.122  15.994  -2.229  1.00 20.00     0.090 C 
HETATM   10 BR10 UNL     1     -34.491  17.045  -0.710  1.00 20.00    -0.096 Br
ENDBRANCH   8   9
ENDBRANCH   4   6
TORSDOF 2
ENDMDL
MODEL 9
REMARK VINA RESULT:      -3.8     11.382     12.259
REMARK  2 active torsions:
REMARK  status: ('A' for Active; 'I' for Inactive)
REMARK    1  A    between atoms: C5_5  and  C6_6 
REMARK    2  A    between atoms: C7_7  and  C8_8 
ROOT
HETATM    1  C1  UNL     1     -36.141  15.370  -5.676  1.00 20.00     0.033 C 
HETATM    2  C3  UNL     1     -35.345  14.360  -6.480  1.00 20.00     0.168 C 
HETATM    3  C4  UNL     1     -35.311  13.707  -4.243  1.00 20.00     0.172 C 
HETATM    4  C5  UNL     1     -35.589  15.201  -4.276  1.00 20.00     0.016 C 
HETATM    5  O9  UNL     1     -34.957  13.316  -5.578  1.00 20.00    -0.391 OA
ENDROOT
BRANCH   4   6
HETATM    6  C6  UNL     1     -34.316  16.018  -4.059  1.00 20.00    -0.003 A 
HETATM    7  C2  UNL     1     -33.136  15.408  -3.355  1.00 20.00     0.011 A 
HETATM    8  C7  UNL     1     -33.904  16.525  -2.698  1.00 20.00     0.000 A 
BRANCH   8   9
HETATM    9  C8  UNL     1     -34.706  16.265  -1.469  1.00 20.00     0.090 C 
HETATM   10 BR10 UNL     1     -34.339  17.623  -0.115  1.00 20.00    -0.096 Br
ENDBRANCH   8   9
ENDBRANCH   4   6
TORSDOF 2
ENDMDL
