MODEL 1
REMARK VINA RESULT:      -4.9      0.000      0.000
REMARK  2 active torsions:
REMARK  status: ('A' for Active; 'I' for Inactive)
REMARK    1  A    between atoms: C1_1  and  C11_11 
REMARK    2  A    between atoms: C5_5  and  C11_11 
ROOT
HETATM    1  C2  UNL     1     -34.024  16.278  -1.955  1.00 20.00     0.006 C 
HETATM    2  C3  UNL     1     -34.840  16.980  -0.872  1.00 20.00     0.009 C 
HETATM    3  C4  UNL     1     -36.695  17.384  -2.535  1.00 20.00     0.013 C 
HETATM    4  C5  UNL     1     -34.917  15.636  -3.028  1.00 20.00    -0.001 C 
HETATM    5  C6  UNL     1     -35.885  16.677  -3.639  1.00 20.00    -0.013 C 
HETATM    6  C7  UNL     1     -35.824  18.027  -1.432  1.00 20.00    -0.047 C 
HETATM    7  C8  UNL     1     -36.854  16.050  -4.649  1.00 20.00     0.010 C 
HETATM    8  C9  UNL     1     -36.740  18.512  -0.292  1.00 20.00     0.015 C 
HETATM    9  C10 UNL     1     -35.066  19.250  -1.981  1.00 20.00     0.015 C 
ENDROOT
BRANCH   4  10
HETATM   10  C11 UNL     1     -34.034  14.966  -4.086  1.00 20.00     0.118 C 
BRANCH  10  11
HETATM   11  C1  UNL     1     -33.996  13.443  -4.016  1.00 20.00     0.172 C 
HETATM   12  O12 UNL     1     -35.064  12.828  -4.281  1.00 20.00    -0.648 OA
HETATM   13  O13 UNL     1     -32.863  12.980  -3.693  1.00 20.00    -0.648 OA
ENDBRANCH  10  11
ENDBRANCH   4  10
TORSDOF 2
ENDMDL
MODEL 2
REMARK VINA RESULT:      -4.6      2.853      4.763
REMARK  2 active torsions:
REMARK  status: ('A' for Active; 'I' for Inactive)
REMARK    1  A    between atoms: C1_1  and  C11_11 
REMARK    2  A    between atoms: C5_5  and  C11_11 
ROOT
HETATM    1  C2  UNL     1     -33.391  15.515  -3.045  1.00 20.00     0.006 C 
HETATM    2  C3  UNL     1     -33.278  15.364  -4.560  1.00 20.00     0.009 C 
HETATM    3  C4  UNL     1     -35.753  15.794  -4.786  1.00 20.00     0.013 C 
HETATM    4  C5  UNL     1     -34.552  16.436  -2.640  1.00 20.00    -0.001 C 
HETATM    5  C6  UNL     1     -35.886  15.951  -3.259  1.00 20.00    -0.013 C 
HETATM    6  C7  UNL     1     -34.584  14.885  -5.225  1.00 20.00    -0.047 C 
HETATM    7  C8  UNL     1     -37.050  16.900  -2.950  1.00 20.00     0.010 C 
HETATM    8  C9  UNL     1     -34.427  14.976  -6.756  1.00 20.00     0.015 C 
HETATM    9  C10 UNL     1     -34.872  13.415  -4.867  1.00 20.00     0.015 C 
ENDROOT
BRANCH   4  10
HETATM   10  C11 UNL     1     -34.615  16.528  -1.113  1.00 20.00     0.118 C 
BRANCH  10  11
HETATM   11  C1  UNL     1     -33.987  17.786  -0.521  1.00 20.00     0.172 C 
HETATM   12  O12 UNL     1     -33.382  18.556  -1.315  1.00 20.00    -0.648 OA
HETATM   13  O13 UNL     1     -34.159  17.897   0.728  1.00 20.00    -0.648 OA
ENDBRANCH  10  11
ENDBRANCH   4  10
TORSDOF 2
ENDMDL
MODEL 3
REMARK VINA RESULT:      -4.6      2.343      3.350
REMARK  2 active torsions:
REMARK  status: ('A' for Active; 'I' for Inactive)
REMARK    1  A    between atoms: C1_1  and  C11_11 
REMARK    2  A    between atoms: C5_5  and  C11_11 
ROOT
HETATM    1  C2  UNL     1     -36.422  16.594  -2.969  1.00 20.00     0.006 C 
HETATM    2  C3  UNL     1     -35.586  17.806  -2.566  1.00 20.00     0.009 C 
HETATM    3  C4  UNL     1     -33.513  16.368  -2.553  1.00 20.00     0.013 C 
HETATM    4  C5  UNL     1     -35.602  15.559  -3.753  1.00 20.00    -0.001 C 
HETATM    5  C6  UNL     1     -34.342  15.135  -2.961  1.00 20.00    -0.013 C 
HETATM    6  C7  UNL     1     -34.315  17.435  -1.776  1.00 20.00    -0.047 C 
HETATM    7  C8  UNL     1     -33.452  14.171  -3.755  1.00 20.00     0.010 C 
HETATM    8  C9  UNL     1     -33.443  18.695  -1.612  1.00 20.00     0.015 C 
HETATM    9  C10 UNL     1     -34.677  16.925  -0.368  1.00 20.00     0.015 C 
ENDROOT
BRANCH   4  10
HETATM   10  C11 UNL     1     -36.497  14.369  -4.110  1.00 20.00     0.118 C 
BRANCH  10  11
HETATM   11  C1  UNL     1     -37.913  14.738  -4.539  1.00 20.00     0.172 C 
HETATM   12  O12 UNL     1     -38.037  15.399  -5.606  1.00 20.00    -0.648 OA
HETATM   13  O13 UNL     1     -38.807  14.322  -3.746  1.00 20.00    -0.648 OA
ENDBRANCH  10  11
ENDBRANCH   4  10
TORSDOF 2
ENDMDL
MODEL 4
REMARK VINA RESULT:      -4.4      2.359      3.645
REMARK  2 active torsions:
REMARK  status: ('A' for Active; 'I' for Inactive)
REMARK    1  A    between atoms: C1_1  and  C11_11 
REMARK    2  A    between atoms: C5_5  and  C11_11 
ROOT
HETATM    1  C2  UNL     1     -33.468  16.120  -4.826  1.00 20.00     0.006 C 
HETATM    2  C3  UNL     1     -33.618  17.326  -5.751  1.00 20.00     0.009 C 
HETATM    3  C4  UNL     1     -36.124  17.042  -5.712  1.00 20.00     0.013 C 
HETATM    4  C5  UNL     1     -34.700  15.921  -3.930  1.00 20.00    -0.001 C 
HETATM    5  C6  UNL     1     -35.992  15.824  -4.777  1.00 20.00    -0.013 C 
HETATM    6  C7  UNL     1     -34.893  17.277  -6.616  1.00 20.00    -0.047 C 
HETATM    7  C8  UNL     1     -37.251  15.717  -3.909  1.00 20.00     0.010 C 
HETATM    8  C9  UNL     1     -35.056  18.626  -7.341  1.00 20.00     0.015 C 
HETATM    9  C10 UNL     1     -34.785  16.175  -7.687  1.00 20.00     0.015 C 
ENDROOT
BRANCH   4  10
HETATM   10  C11 UNL     1     -34.487  14.690  -3.044  1.00 20.00     0.118 C 
BRANCH  10  11
HETATM   11  C1  UNL     1     -34.124  13.414  -3.795  1.00 20.00     0.172 C 
HETATM   12  O12 UNL     1     -35.063  12.796  -4.367  1.00 20.00    -0.648 OA
HETATM   13  O13 UNL     1     -32.891  13.132  -3.747  1.00 20.00    -0.648 OA
ENDBRANCH  10  11
ENDBRANCH   4  10
TORSDOF 2
ENDMDL
MODEL 5
REMARK VINA RESULT:      -4.3      2.156      2.603
REMARK  2 active torsions:
REMARK  status: ('A' for Active; 'I' for Inactive)
REMARK    1  A    between atoms: C1_1  and  C11_11 
REMARK    2  A    between atoms: C5_5  and  C11_11 
ROOT
HETATM    1  C2  UNL     1     -33.722  15.973  -2.682  1.00 20.00     0.006 C 
HETATM    2  C3  UNL     1     -34.524  16.260  -1.415  1.00 20.00     0.009 C 
HETATM    3  C4  UNL     1     -34.903  18.630  -2.195  1.00 20.00     0.013 C 
HETATM    4  C5  UNL     1     -34.162  16.857  -3.859  1.00 20.00    -0.001 C 
HETATM    5  C6  UNL     1     -34.097  18.356  -3.481  1.00 20.00    -0.013 C 
HETATM    6  C7  UNL     1     -34.493  17.745  -0.998  1.00 20.00    -0.047 C 
HETATM    7  C8  UNL     1     -34.618  19.263  -4.603  1.00 20.00     0.010 C 
HETATM    8  C9  UNL     1     -35.498  17.961   0.151  1.00 20.00     0.015 C 
HETATM    9  C10 UNL     1     -33.096  18.138  -0.482  1.00 20.00     0.015 C 
ENDROOT
BRANCH   4  10
HETATM   10  C11 UNL     1     -33.308  16.526  -5.087  1.00 20.00     0.118 C 
BRANCH  10  11
HETATM   11  C1  UNL     1     -34.042  15.776  -6.194  1.00 20.00     0.172 C 
HETATM   12  O12 UNL     1     -34.283  16.411  -7.257  1.00 20.00    -0.648 OA
HETATM   13  O13 UNL     1     -34.321  14.579  -5.895  1.00 20.00    -0.648 OA
ENDBRANCH  10  11
ENDBRANCH   4  10
TORSDOF 2
ENDMDL
MODEL 6
REMARK VINA RESULT:      -4.3      2.644      4.712
REMARK  2 active torsions:
REMARK  status: ('A' for Active; 'I' for Inactive)
REMARK    1  A    between atoms: C1_1  and  C11_11 
REMARK    2  A    between atoms: C5_5  and  C11_11 
ROOT
HETATM    1  C2  UNL     1     -35.172  17.020  -4.335  1.00 20.00     0.006 C 
HETATM    2  C3  UNL     1     -36.249  16.632  -5.345  1.00 20.00     0.009 C 
HETATM    3  C4  UNL     1     -35.180  14.362  -5.610  1.00 20.00     0.013 C 
HETATM    4  C5  UNL     1     -34.606  15.799  -3.593  1.00 20.00    -0.001 C 
HETATM    5  C6  UNL     1     -34.086  14.736  -4.591  1.00 20.00    -0.013 C 
HETATM    6  C7  UNL     1     -35.779  15.571  -6.361  1.00 20.00    -0.047 C 
HETATM    7  C8  UNL     1     -33.599  13.465  -3.886  1.00 20.00     0.010 C 
HETATM    8  C9  UNL     1     -36.992  15.097  -7.185  1.00 20.00     0.015 C 
HETATM    9  C10 UNL     1     -34.750  16.170  -7.338  1.00 20.00     0.015 C 
ENDROOT
BRANCH   4  10
HETATM   10  C11 UNL     1     -33.525  16.260  -2.612  1.00 20.00     0.118 C 
BRANCH  10  11
HETATM   11  C1  UNL     1     -34.043  17.036  -1.405  1.00 20.00     0.172 C 
HETATM   12  O12 UNL     1     -34.789  16.415  -0.599  1.00 20.00    -0.648 OA
HETATM   13  O13 UNL     1     -33.646  18.236  -1.368  1.00 20.00    -0.648 OA
ENDBRANCH  10  11
ENDBRANCH   4  10
TORSDOF 2
ENDMDL
MODEL 7
REMARK VINA RESULT:      -4.3      2.568      3.527
REMARK  2 active torsions:
REMARK  status: ('A' for Active; 'I' for Inactive)
REMARK    1  A    between atoms: C1_1  and  C11_11 
REMARK    2  A    between atoms: C5_5  and  C11_11 
ROOT
HETATM    1  C2  UNL     1     -33.922  17.073  -4.785  1.00 20.00     0.006 C 
HETATM    2  C3  UNL     1     -33.778  17.307  -3.284  1.00 20.00     0.009 C 
HETATM    3  C4  UNL     1     -34.798  15.044  -2.834  1.00 20.00     0.013 C 
HETATM    4  C5  UNL     1     -33.884  15.579  -5.145  1.00 20.00    -0.001 C 
HETATM    5  C6  UNL     1     -34.949  14.790  -4.347  1.00 20.00    -0.013 C 
HETATM    6  C7  UNL     1     -34.817  16.538  -2.444  1.00 20.00    -0.047 C 
HETATM    7  C8  UNL     1     -34.877  13.281  -4.614  1.00 20.00     0.010 C 
HETATM    8  C9  UNL     1     -34.450  16.669  -0.953  1.00 20.00     0.015 C 
HETATM    9  C10 UNL     1     -36.225  17.133  -2.637  1.00 20.00     0.015 C 
ENDROOT
BRANCH   4  10
HETATM   10  C11 UNL     1     -34.048  15.420  -6.659  1.00 20.00     0.118 C 
BRANCH  10  11
HETATM   11  C1  UNL     1     -34.997  16.420  -7.310  1.00 20.00     0.172 C 
HETATM   12  O12 UNL     1     -34.477  17.395  -7.918  1.00 20.00    -0.648 OA
HETATM   13  O13 UNL     1     -36.220  16.135  -7.151  1.00 20.00    -0.648 OA
ENDBRANCH  10  11
ENDBRANCH   4  10
TORSDOF 2
ENDMDL
MODEL 8
REMARK VINA RESULT:      -4.3      2.164      2.844
REMARK  2 active torsions:
REMARK  status: ('A' for Active; 'I' for Inactive)
REMARK    1  A    between atoms: C1_1  and  C11_11 
REMARK    2  A    between atoms: C5_5  and  C11_11 
ROOT
HETATM    1  C2  UNL     1     -33.513  14.868  -4.210  1.00 20.00     0.006 C 
HETATM    2  C3  UNL     1     -33.247  15.575  -2.883  1.00 20.00     0.009 C 
HETATM    3  C4  UNL     1     -35.718  16.006  -2.618  1.00 20.00     0.013 C 
HETATM    4  C5  UNL     1     -34.915  14.240  -4.260  1.00 20.00    -0.001 C 
HETATM    5  C6  UNL     1     -36.006  15.295  -3.955  1.00 20.00    -0.013 C 
HETATM    6  C7  UNL     1     -34.310  16.635  -2.532  1.00 20.00    -0.047 C 
HETATM    7  C8  UNL     1     -37.411  14.681  -3.906  1.00 20.00     0.010 C 
HETATM    8  C9  UNL     1     -34.069  17.125  -1.091  1.00 20.00     0.015 C 
HETATM    9  C10 UNL     1     -34.199  17.852  -3.469  1.00 20.00     0.015 C 
ENDROOT
BRANCH   4  10
HETATM   10  C11 UNL     1     -35.117  13.565  -5.620  1.00 20.00     0.118 C 
BRANCH  10  11
HETATM   11  C1  UNL     1     -35.208  14.521  -6.804  1.00 20.00     0.172 C 
HETATM   12  O12 UNL     1     -34.131  15.038  -7.210  1.00 20.00    -0.648 OA
HETATM   13  O13 UNL     1     -36.386  14.678  -7.239  1.00 20.00    -0.648 OA
ENDBRANCH  10  11
ENDBRANCH   4  10
TORSDOF 2
ENDMDL
MODEL 9
REMARK VINA RESULT:      -4.3      3.321      4.953
REMARK  2 active torsions:
REMARK  status: ('A' for Active; 'I' for Inactive)
REMARK    1  A    between atoms: C1_1  and  C11_11 
REMARK    2  A    between atoms: C5_5  and  C11_11 
ROOT
HETATM    1  C2  UNL     1     -34.586  16.264  -1.551  1.00 20.00     0.006 C 
HETATM    2  C3  UNL     1     -34.382  15.161  -2.587  1.00 20.00     0.009 C 
HETATM    3  C4  UNL     1     -34.010  16.907  -4.370  1.00 20.00     0.013 C 
HETATM    4  C5  UNL     1     -33.828  17.550  -1.918  1.00 20.00    -0.001 C 
HETATM    5  C6  UNL     1     -34.211  18.033  -3.337  1.00 20.00    -0.013 C 
HETATM    6  C7  UNL     1     -34.747  15.595  -4.020  1.00 20.00    -0.047 C 
HETATM    7  C8  UNL     1     -33.404  19.263  -3.771  1.00 20.00     0.010 C 
HETATM    8  C9  UNL     1     -34.303  14.495  -5.004  1.00 20.00     0.015 C 
HETATM    9  C10 UNL     1     -36.271  15.772  -4.166  1.00 20.00     0.015 C 
ENDROOT
BRANCH   4  10
HETATM   10  C11 UNL     1     -34.089  18.613  -0.847  1.00 20.00     0.118 C 
BRANCH  10  11
HETATM   11  C1  UNL     1     -32.932  18.849   0.118  1.00 20.00     0.172 C 
HETATM   12  O12 UNL     1     -33.146  18.623   1.340  1.00 20.00    -0.648 OA
HETATM   13  O13 UNL     1     -31.876  19.254  -0.449  1.00 20.00    -0.648 OA
ENDBRANCH  10  11
ENDBRANCH   4  10
TORSDOF 2
ENDMDL
