MODEL 1
REMARK VINA RESULT:      -4.6      0.000      0.000
REMARK  1 active torsions:
REMARK  status: ('A' for Active; 'I' for Inactive)
REMARK    1  A    between atoms: C5_5  and  C10_10 
ROOT
HETATM    1  C1  UNL     1     -34.872  13.174  -4.486  1.00 20.00     0.017 A 
HETATM    2  C2  UNL     1     -34.705  15.013  -2.686  1.00 20.00     0.020 C 
HETATM    3  C3  UNL     1     -36.765  14.877  -4.168  1.00 20.00     0.083 C 
HETATM    4  C4  UNL     1     -36.207  17.080  -2.625  1.00 20.00     0.082 C 
HETATM    5  C5  UNL     1     -34.376  14.396  -5.203  1.00 20.00     0.009 A 
HETATM    6  C6  UNL     1     -35.305  14.545  -4.002  1.00 20.00    -0.026 A 
HETATM    7  C7  UNL     1     -34.765  16.548  -2.479  1.00 20.00    -0.038 C 
HETATM    8  C8  UNL     1     -34.288  16.853  -1.043  1.00 20.00     0.015 C 
HETATM    9  C9  UNL     1     -33.808  17.273  -3.448  1.00 20.00     0.015 C 
HETATM   10  S11 UNL     1     -36.998  16.670  -4.213  1.00 20.00    -0.168 SA
ENDROOT
BRANCH   5  11
HETATM   11  C10 UNL     1     -34.805  14.671  -6.603  1.00 20.00     0.120 C 
HETATM   12 CL12 UNL     1     -34.382  16.333  -7.095  1.00 20.00    -0.130 Cl
ENDBRANCH   5  11
TORSDOF 1
ENDMDL
MODEL 2
REMARK VINA RESULT:      -4.5      1.723      2.283
REMARK  1 active torsions:
REMARK  status: ('A' for Active; 'I' for Inactive)
REMARK    1  A    between atoms: C5_5  and  C10_10 
ROOT
HETATM    1  C1  UNL     1     -34.472  14.776  -3.236  1.00 20.00     0.017 A 
HETATM    2  C2  UNL     1     -34.748  16.272  -1.154  1.00 20.00     0.020 C 
HETATM    3  C3  UNL     1     -36.008  16.831  -3.289  1.00 20.00     0.083 C 
HETATM    4  C4  UNL     1     -35.767  18.616  -1.216  1.00 20.00     0.082 C 
HETATM    5  C5  UNL     1     -33.525  15.924  -3.435  1.00 20.00     0.009 A 
HETATM    6  C6  UNL     1     -34.825  16.137  -2.666  1.00 20.00    -0.026 A 
HETATM    7  C7  UNL     1     -34.625  17.736  -0.660  1.00 20.00    -0.038 C 
HETATM    8  C8  UNL     1     -34.735  17.730   0.880  1.00 20.00     0.015 C 
HETATM    9  C9  UNL     1     -33.247  18.327  -1.023  1.00 20.00     0.015 C 
HETATM   10  S11 UNL     1     -35.894  18.617  -3.032  1.00 20.00    -0.168 SA
ENDROOT
BRANCH   5  11
HETATM   11  C10 UNL     1     -33.288  16.472  -4.800  1.00 20.00     0.120 C 
HETATM   12 CL12 UNL     1     -34.054  15.452  -6.049  1.00 20.00    -0.130 Cl
ENDBRANCH   5  11
TORSDOF 1
ENDMDL
MODEL 3
REMARK VINA RESULT:      -4.4      2.408      4.332
REMARK  1 active torsions:
REMARK  status: ('A' for Active; 'I' for Inactive)
REMARK    1  A    between atoms: C5_5  and  C10_10 
ROOT
HETATM    1  C1  UNL     1     -34.080  14.604  -3.064  1.00 20.00     0.017 A 
HETATM    2  C2  UNL     1     -34.691  14.557  -5.569  1.00 20.00     0.020 C 
HETATM    3  C3  UNL     1     -33.313  16.479  -4.640  1.00 20.00     0.083 C 
HETATM    4  C4  UNL     1     -34.497  16.582  -7.116  1.00 20.00     0.082 C 
HETATM    5  C5  UNL     1     -35.295  15.475  -3.200  1.00 20.00     0.009 A 
HETATM    6  C6  UNL     1     -34.299  15.377  -4.351  1.00 20.00    -0.026 A 
HETATM    7  C7  UNL     1     -35.371  15.382  -6.690  1.00 20.00    -0.038 C 
HETATM    8  C8  UNL     1     -35.549  14.463  -7.918  1.00 20.00     0.015 C 
HETATM    9  C9  UNL     1     -36.776  15.850  -6.256  1.00 20.00     0.015 C 
HETATM   10  S11 UNL     1     -34.047  17.701  -5.752  1.00 20.00    -0.168 SA
ENDROOT
BRANCH   5  11
HETATM   11  C10 UNL     1     -35.443  16.692  -2.353  1.00 20.00     0.120 C 
HETATM   12 CL12 UNL     1     -34.446  16.580  -0.878  1.00 20.00    -0.130 Cl
ENDBRANCH   5  11
TORSDOF 1
ENDMDL
MODEL 4
REMARK VINA RESULT:      -4.3      1.989      4.155
REMARK  1 active torsions:
REMARK  status: ('A' for Active; 'I' for Inactive)
REMARK    1  A    between atoms: C5_5  and  C10_10 
ROOT
HETATM    1  C1  UNL     1     -33.756  17.011  -1.310  1.00 20.00     0.017 A 
HETATM    2  C2  UNL     1     -33.969  15.165  -3.098  1.00 20.00     0.020 C 
HETATM    3  C3  UNL     1     -33.899  17.607  -3.803  1.00 20.00     0.083 C 
HETATM    4  C4  UNL     1     -34.678  15.605  -5.514  1.00 20.00     0.082 C 
HETATM    5  C5  UNL     1     -35.222  16.913  -1.617  1.00 20.00     0.009 A 
HETATM    6  C6  UNL     1     -34.198  16.616  -2.707  1.00 20.00    -0.026 A 
HETATM    7  C7  UNL     1     -34.847  14.688  -4.283  1.00 20.00    -0.038 C 
HETATM    8  C8  UNL     1     -34.384  13.269  -4.678  1.00 20.00     0.015 C 
HETATM    9  C9  UNL     1     -36.329  14.592  -3.866  1.00 20.00     0.015 C 
HETATM   10  S11 UNL     1     -35.029  17.362  -5.193  1.00 20.00    -0.168 SA
ENDROOT
BRANCH   5  11
HETATM   11  C10 UNL     1     -36.073  18.136  -1.611  1.00 20.00     0.120 C 
HETATM   12 CL12 UNL     1     -37.616  17.854  -2.461  1.00 20.00    -0.130 Cl
ENDBRANCH   5  11
TORSDOF 1
ENDMDL
MODEL 5
REMARK VINA RESULT:      -4.2      1.954      2.575
REMARK  1 active torsions:
REMARK  status: ('A' for Active; 'I' for Inactive)
REMARK    1  A    between atoms: C5_5  and  C10_10 
ROOT
HETATM    1  C1  UNL     1     -37.086  14.845  -4.626  1.00 20.00     0.017 A 
HETATM    2  C2  UNL     1     -36.453  16.765  -3.025  1.00 20.00     0.020 C 
HETATM    3  C3  UNL     1     -35.267  16.540  -5.262  1.00 20.00     0.083 C 
HETATM    4  C4  UNL     1     -34.324  18.160  -3.255  1.00 20.00     0.082 C 
HETATM    5  C5  UNL     1     -35.876  14.365  -3.880  1.00 20.00     0.009 A 
HETATM    6  C6  UNL     1     -36.047  15.853  -4.171  1.00 20.00    -0.026 A 
HETATM    7  C7  UNL     1     -35.256  17.408  -2.280  1.00 20.00    -0.038 C 
HETATM    8  C8  UNL     1     -35.818  18.433  -1.271  1.00 20.00     0.015 C 
HETATM    9  C9  UNL     1     -34.474  16.348  -1.476  1.00 20.00     0.015 C 
HETATM   10  S11 UNL     1     -33.686  17.138  -4.619  1.00 20.00    -0.168 SA
ENDROOT
BRANCH   5  11
HETATM   11  C10 UNL     1     -34.862  13.514  -4.563  1.00 20.00     0.120 C 
HETATM   12 CL12 UNL     1     -33.286  13.589  -3.730  1.00 20.00    -0.130 Cl
ENDBRANCH   5  11
TORSDOF 1
ENDMDL
MODEL 6
REMARK VINA RESULT:      -4.2      2.660      4.129
REMARK  1 active torsions:
REMARK  status: ('A' for Active; 'I' for Inactive)
REMARK    1  A    between atoms: C5_5  and  C10_10 
ROOT
HETATM    1  C1  UNL     1     -33.526  14.397  -3.639  1.00 20.00     0.017 A 
HETATM    2  C2  UNL     1     -35.333  14.847  -5.423  1.00 20.00     0.020 C 
HETATM    3  C3  UNL     1     -33.306  16.372  -5.263  1.00 20.00     0.083 C 
HETATM    4  C4  UNL     1     -35.542  17.047  -6.707  1.00 20.00     0.082 C 
HETATM    5  C5  UNL     1     -34.424  15.446  -3.049  1.00 20.00     0.009 A 
HETATM    6  C6  UNL     1     -34.209  15.393  -4.558  1.00 20.00    -0.026 A 
HETATM    7  C7  UNL     1     -36.302  15.934  -5.952  1.00 20.00    -0.038 C 
HETATM    8  C8  UNL     1     -37.274  15.263  -6.947  1.00 20.00     0.015 C 
HETATM    9  C9  UNL     1     -37.148  16.524  -4.805  1.00 20.00     0.015 C 
HETATM   10  S11 UNL     1     -34.232  17.852  -5.732  1.00 20.00    -0.168 SA
ENDROOT
BRANCH   5  11
HETATM   11  C10 UNL     1     -33.857  16.517  -2.183  1.00 20.00     0.120 C 
HETATM   12 CL12 UNL     1     -34.687  16.581  -0.604  1.00 20.00    -0.130 Cl
ENDBRANCH   5  11
TORSDOF 1
ENDMDL
MODEL 7
REMARK VINA RESULT:      -4.2      2.303      4.269
REMARK  1 active torsions:
REMARK  status: ('A' for Active; 'I' for Inactive)
REMARK    1  A    between atoms: C5_5  and  C10_10 
ROOT
HETATM    1  C1  UNL     1     -33.903  17.930  -3.211  1.00 20.00     0.017 A 
HETATM    2  C2  UNL     1     -34.284  16.445  -5.284  1.00 20.00     0.020 C 
HETATM    3  C3  UNL     1     -36.265  17.169  -3.866  1.00 20.00     0.083 C 
HETATM    4  C4  UNL     1     -36.450  15.164  -5.734  1.00 20.00     0.082 C 
HETATM    5  C5  UNL     1     -33.982  16.524  -2.691  1.00 20.00     0.009 A 
HETATM    6  C6  UNL     1     -34.780  16.921  -3.929  1.00 20.00    -0.026 A 
HETATM    7  C7  UNL     1     -34.907  15.102  -5.744  1.00 20.00    -0.038 C 
HETATM    8  C8  UNL     1     -34.451  14.838  -7.196  1.00 20.00     0.015 C 
HETATM    9  C9  UNL     1     -34.396  13.932  -4.879  1.00 20.00     0.015 C 
HETATM   10  S11 UNL     1     -37.170  15.625  -4.126  1.00 20.00    -0.168 SA
ENDROOT
BRANCH   5  11
HETATM   11  C10 UNL     1     -34.613  16.247  -1.370  1.00 20.00     0.120 C 
HETATM   12 CL12 UNL     1     -34.177  17.495  -0.171  1.00 20.00    -0.130 Cl
ENDBRANCH   5  11
TORSDOF 1
ENDMDL
MODEL 8
REMARK VINA RESULT:      -4.2      2.683      4.304
REMARK  1 active torsions:
REMARK  status: ('A' for Active; 'I' for Inactive)
REMARK    1  A    between atoms: C5_5  and  C10_10 
ROOT
HETATM    1  C1  UNL     1     -36.623  17.231  -2.744  1.00 20.00     0.017 A 
HETATM    2  C2  UNL     1     -35.710  16.770  -5.112  1.00 20.00     0.020 C 
HETATM    3  C3  UNL     1     -36.298  14.827  -3.582  1.00 20.00     0.083 C 
HETATM    4  C4  UNL     1     -34.813  14.499  -5.869  1.00 20.00     0.082 C 
HETATM    5  C5  UNL     1     -35.152  16.989  -2.570  1.00 20.00     0.009 A 
HETATM    6  C6  UNL     1     -35.910  16.279  -3.687  1.00 20.00    -0.026 A 
HETATM    7  C7  UNL     1     -34.587  16.027  -5.880  1.00 20.00    -0.038 C 
HETATM    8  C8  UNL     1     -34.619  16.503  -7.348  1.00 20.00     0.015 C 
HETATM    9  C9  UNL     1     -33.200  16.383  -5.308  1.00 20.00     0.015 C 
HETATM   10  S11 UNL     1     -34.964  13.776  -4.205  1.00 20.00    -0.168 SA
ENDROOT
BRANCH   5  11
HETATM   11  C10 UNL     1     -34.646  16.287  -1.357  1.00 20.00     0.120 C 
HETATM   12 CL12 UNL     1     -34.963  17.238   0.120  1.00 20.00    -0.130 Cl
ENDBRANCH   5  11
TORSDOF 1
ENDMDL
MODEL 9
REMARK VINA RESULT:      -4.1      2.725      4.378
REMARK  1 active torsions:
REMARK  status: ('A' for Active; 'I' for Inactive)
REMARK    1  A    between atoms: C5_5  and  C10_10 
ROOT
HETATM    1  C1  UNL     1     -34.631  16.472  -0.923  1.00 20.00     0.017 A 
HETATM    2  C2  UNL     1     -35.936  15.728  -3.020  1.00 20.00     0.020 C 
HETATM    3  C3  UNL     1     -33.396  15.804  -3.072  1.00 20.00     0.083 C 
HETATM    4  C4  UNL     1     -34.907  15.583  -5.355  1.00 20.00     0.082 C 
HETATM    5  C5  UNL     1     -34.735  17.694  -1.789  1.00 20.00     0.009 A 
HETATM    6  C6  UNL     1     -34.662  16.312  -2.432  1.00 20.00    -0.026 A 
HETATM    7  C7  UNL     1     -36.131  16.033  -4.526  1.00 20.00    -0.038 C 
HETATM    8  C8  UNL     1     -37.358  15.237  -5.019  1.00 20.00     0.015 C 
HETATM    9  C9  UNL     1     -36.429  17.530  -4.752  1.00 20.00     0.015 C 
HETATM   10  S11 UNL     1     -33.327  16.304  -4.808  1.00 20.00    -0.168 SA
ENDROOT
BRANCH   5  11
HETATM   11  C10 UNL     1     -33.616  18.675  -1.839  1.00 20.00     0.120 C 
HETATM   12 CL12 UNL     1     -32.647  18.628  -0.341  1.00 20.00    -0.130 Cl
ENDBRANCH   5  11
TORSDOF 1
ENDMDL
