MODEL 1
REMARK VINA RESULT:      -4.0      0.000      0.000
REMARK  1 active torsions:
REMARK  status: ('A' for Active; 'I' for Inactive)
REMARK    1  A    between atoms: C5_5  and  C7_7 
ROOT
HETATM    1  C1  UNL     1     -33.034  15.234  -3.836  1.00 20.00     0.020 C 
HETATM    2  C2  UNL     1     -33.884  17.529  -2.982  1.00 20.00     0.017 A 
HETATM    3  C3  UNL     1     -33.471  13.784  -3.773  1.00 20.00     0.075 C 
HETATM    4  C4  UNL     1     -35.484  15.545  -3.472  1.00 20.00     0.083 C 
HETATM    5  C5  UNL     1     -33.780  16.642  -1.775  1.00 20.00     0.005 A 
HETATM    6  C6  UNL     1     -34.100  16.039  -3.136  1.00 20.00    -0.026 A 
HETATM    7  S8  UNL     1     -35.248  13.851  -4.103  1.00 20.00    -0.168 SA
ENDROOT
BRANCH   5   8
HETATM    8  C7  UNL     1     -34.783  16.760  -0.680  1.00 20.00     0.090 C 
HETATM    9 BR9  UNL     1     -34.245  18.138   0.592  1.00 20.00    -0.096 Br
ENDBRANCH   5   8
TORSDOF 1
ENDMDL
MODEL 2
REMARK VINA RESULT:      -3.8      1.505      2.202
REMARK  1 active torsions:
REMARK  status: ('A' for Active; 'I' for Inactive)
REMARK    1  A    between atoms: C5_5  and  C7_7 
ROOT
HETATM    1  C1  UNL     1     -35.375  14.031  -4.043  1.00 20.00     0.020 C 
HETATM    2  C2  UNL     1     -33.096  15.232  -3.749  1.00 20.00     0.017 A 
HETATM    3  C3  UNL     1     -36.840  14.411  -4.115  1.00 20.00     0.075 C 
HETATM    4  C4  UNL     1     -35.161  16.399  -4.804  1.00 20.00     0.083 C 
HETATM    5  C5  UNL     1     -33.945  15.646  -2.581  1.00 20.00     0.005 A 
HETATM    6  C6  UNL     1     -34.598  15.317  -3.917  1.00 20.00    -0.026 A 
HETATM    7  S8  UNL     1     -36.859  15.862  -5.194  1.00 20.00    -0.168 SA
ENDROOT
BRANCH   5   8
HETATM    8  C7  UNL     1     -33.841  17.031  -2.044  1.00 20.00     0.090 C 
HETATM    9 BR9  UNL     1     -34.734  17.160  -0.314  1.00 20.00    -0.096 Br
ENDBRANCH   5   8
TORSDOF 1
ENDMDL
MODEL 3
REMARK VINA RESULT:      -3.8      2.264      2.868
REMARK  1 active torsions:
REMARK  status: ('A' for Active; 'I' for Inactive)
REMARK    1  A    between atoms: C5_5  and  C7_7 
ROOT
HETATM    1  C1  UNL     1     -34.843  13.766  -5.618  1.00 20.00     0.020 C 
HETATM    2  C2  UNL     1     -33.933  14.489  -3.301  1.00 20.00     0.017 A 
HETATM    3  C3  UNL     1     -35.474  14.423  -6.829  1.00 20.00     0.075 C 
HETATM    4  C4  UNL     1     -33.959  16.084  -5.348  1.00 20.00     0.083 C 
HETATM    5  C5  UNL     1     -35.345  14.996  -3.377  1.00 20.00     0.005 A 
HETATM    6  C6  UNL     1     -34.513  14.870  -4.647  1.00 20.00    -0.026 A 
HETATM    7  S8  UNL     1     -34.472  15.906  -7.089  1.00 20.00    -0.168 SA
ENDROOT
BRANCH   5   8
HETATM    8  C7  UNL     1     -35.695  16.306  -2.760  1.00 20.00     0.090 C 
HETATM    9 BR9  UNL     1     -34.581  16.641  -1.193  1.00 20.00    -0.096 Br
ENDBRANCH   5   8
TORSDOF 1
ENDMDL
MODEL 4
REMARK VINA RESULT:      -3.7      3.186      4.210
REMARK  1 active torsions:
REMARK  status: ('A' for Active; 'I' for Inactive)
REMARK    1  A    between atoms: C5_5  and  C7_7 
ROOT
HETATM    1  C1  UNL     1     -34.681  16.711  -1.000  1.00 20.00     0.020 C 
HETATM    2  C2  UNL     1     -35.751  15.465  -3.005  1.00 20.00     0.017 A 
HETATM    3  C3  UNL     1     -33.529  17.667  -0.760  1.00 20.00     0.075 C 
HETATM    4  C4  UNL     1     -34.480  17.711  -3.278  1.00 20.00     0.083 C 
HETATM    5  C5  UNL     1     -34.297  15.089  -3.001  1.00 20.00     0.005 A 
HETATM    6  C6  UNL     1     -34.731  16.454  -2.484  1.00 20.00    -0.026 A 
HETATM    7  S8  UNL     1     -33.661  18.854  -2.117  1.00 20.00    -0.168 SA
ENDROOT
BRANCH   5   8
HETATM    8  C7  UNL     1     -33.579  14.897  -4.292  1.00 20.00     0.090 C 
HETATM    9 BR9  UNL     1     -34.819  14.323  -5.684  1.00 20.00    -0.096 Br
ENDBRANCH   5   8
TORSDOF 1
ENDMDL
MODEL 5
REMARK VINA RESULT:      -3.7      3.331      4.360
REMARK  1 active torsions:
REMARK  status: ('A' for Active; 'I' for Inactive)
REMARK    1  A    between atoms: C5_5  and  C7_7 
ROOT
HETATM    1  C1  UNL     1     -33.677  16.043  -2.841  1.00 20.00     0.020 C 
HETATM    2  C2  UNL     1     -34.198  13.603  -3.545  1.00 20.00     0.017 A 
HETATM    3  C3  UNL     1     -34.296  17.416  -3.015  1.00 20.00     0.075 C 
HETATM    4  C4  UNL     1     -36.054  15.388  -3.229  1.00 20.00     0.083 C 
HETATM    5  C5  UNL     1     -34.174  14.412  -4.811  1.00 20.00     0.005 A 
HETATM    6  C6  UNL     1     -34.609  15.059  -3.502  1.00 20.00    -0.026 A 
HETATM    7  S8  UNL     1     -36.058  17.138  -2.716  1.00 20.00    -0.168 SA
ENDROOT
BRANCH   5   8
HETATM    8  C7  UNL     1     -35.122  14.089  -5.913  1.00 20.00     0.090 C 
HETATM    9 BR9  UNL     1     -34.709  15.147  -7.500  1.00 20.00    -0.096 Br
ENDBRANCH   5   8
TORSDOF 1
ENDMDL
MODEL 6
REMARK VINA RESULT:      -3.6      1.672      1.913
REMARK  1 active torsions:
REMARK  status: ('A' for Active; 'I' for Inactive)
REMARK    1  A    between atoms: C5_5  and  C7_7 
ROOT
HETATM    1  C1  UNL     1     -33.973  13.852  -3.641  1.00 20.00     0.020 C 
HETATM    2  C2  UNL     1     -33.643  16.196  -2.584  1.00 20.00     0.017 A 
HETATM    3  C3  UNL     1     -34.836  13.218  -4.714  1.00 20.00     0.075 C 
HETATM    4  C4  UNL     1     -34.487  15.870  -5.017  1.00 20.00     0.083 C 
HETATM    5  C5  UNL     1     -35.103  15.872  -2.446  1.00 20.00     0.005 A 
HETATM    6  C6  UNL     1     -34.310  15.321  -3.624  1.00 20.00    -0.026 A 
HETATM    7  S8  UNL     1     -34.788  14.412  -6.071  1.00 20.00    -0.168 SA
ENDROOT
BRANCH   5   8
HETATM    8  C7  UNL     1     -36.117  16.954  -2.583  1.00 20.00     0.090 C 
HETATM    9 BR9  UNL     1     -35.385  18.656  -1.970  1.00 20.00    -0.096 Br
ENDBRANCH   5   8
TORSDOF 1
ENDMDL
MODEL 7
REMARK VINA RESULT:      -3.6      3.132      4.095
REMARK  1 active torsions:
REMARK  status: ('A' for Active; 'I' for Inactive)
REMARK    1  A    between atoms: C5_5  and  C7_7 
ROOT
HETATM    1  C1  UNL     1     -34.598  16.485  -1.003  1.00 20.00     0.020 C 
HETATM    2  C2  UNL     1     -34.492  14.946  -3.086  1.00 20.00     0.017 A 
HETATM    3  C3  UNL     1     -34.922  17.934  -0.696  1.00 20.00     0.075 C 
HETATM    4  C4  UNL     1     -36.048  17.019  -2.963  1.00 20.00     0.083 C 
HETATM    5  C5  UNL     1     -33.598  16.117  -3.380  1.00 20.00     0.005 A 
HETATM    6  C6  UNL     1     -34.816  16.296  -2.482  1.00 20.00    -0.026 A 
HETATM    7  S8  UNL     1     -36.402  18.266  -1.681  1.00 20.00    -0.168 SA
ENDROOT
BRANCH   5   8
HETATM    8  C7  UNL     1     -33.521  16.659  -4.765  1.00 20.00     0.090 C 
HETATM    9 BR9  UNL     1     -34.302  15.400  -6.035  1.00 20.00    -0.096 Br
ENDBRANCH   5   8
TORSDOF 1
ENDMDL
MODEL 8
REMARK VINA RESULT:      -3.6      2.757      3.152
REMARK  1 active torsions:
REMARK  status: ('A' for Active; 'I' for Inactive)
REMARK    1  A    between atoms: C5_5  and  C7_7 
ROOT
HETATM    1  C1  UNL     1     -34.245  15.145  -7.055  1.00 20.00     0.020 C 
HETATM    2  C2  UNL     1     -33.376  16.469  -5.004  1.00 20.00     0.017 A 
HETATM    3  C3  UNL     1     -35.512  14.420  -7.466  1.00 20.00     0.075 C 
HETATM    4  C4  UNL     1     -35.897  16.321  -5.600  1.00 20.00     0.083 C 
HETATM    5  C5  UNL     1     -33.817  15.130  -4.486  1.00 20.00     0.005 A 
HETATM    6  C6  UNL     1     -34.508  15.742  -5.697  1.00 20.00    -0.026 A 
HETATM    7  S8  UNL     1     -36.837  15.536  -6.951  1.00 20.00    -0.168 SA
ENDROOT
BRANCH   5   8
HETATM    8  C7  UNL     1     -34.458  15.030  -3.146  1.00 20.00     0.090 C 
HETATM    9 BR9  UNL     1     -34.022  16.593  -2.062  1.00 20.00    -0.096 Br
ENDBRANCH   5   8
TORSDOF 1
ENDMDL
MODEL 9
REMARK VINA RESULT:      -3.5      1.383      2.275
REMARK  1 active torsions:
REMARK  status: ('A' for Active; 'I' for Inactive)
REMARK    1  A    between atoms: C5_5  and  C7_7 
ROOT
HETATM    1  C1  UNL     1     -35.943  15.855  -2.973  1.00 20.00     0.020 C 
HETATM    2  C2  UNL     1     -34.612  16.558  -0.862  1.00 20.00     0.017 A 
HETATM    3  C3  UNL     1     -35.734  15.835  -4.474  1.00 20.00     0.075 C 
HETATM    4  C4  UNL     1     -33.449  15.789  -3.051  1.00 20.00     0.083 C 
HETATM    5  C5  UNL     1     -34.645  17.761  -1.760  1.00 20.00     0.005 A 
HETATM    6  C6  UNL     1     -34.661  16.362  -2.363  1.00 20.00    -0.026 A 
HETATM    7  S8  UNL     1     -34.051  15.201  -4.669  1.00 20.00    -0.168 SA
ENDROOT
BRANCH   5   8
HETATM    8  C7  UNL     1     -33.464  18.665  -1.831  1.00 20.00     0.090 C 
HETATM    9 BR9  UNL     1     -32.637  18.845  -0.072  1.00 20.00    -0.096 Br
ENDBRANCH   5   8
TORSDOF 1
ENDMDL
