MODEL 1
REMARK VINA RESULT:      -4.6      0.000      0.000
REMARK  3 active torsions:
REMARK  status: ('A' for Active; 'I' for Inactive)
REMARK    1  A    between atoms: C2_2  and  C6_6 
REMARK    2  A    between atoms: C3_3  and  C7_7 
REMARK    3  A    between atoms: C3_3  and  C8_8 
ROOT
HETATM    1  C1  UNL     1     -32.419   5.506   3.351  1.00 20.00     0.016 A 
HETATM    2  C2  UNL     1     -32.903   6.794   2.740  1.00 20.00     0.009 A 
HETATM    3  C3  UNL     1     -33.538   6.276   4.020  1.00 20.00    -0.036 A 
ENDROOT
BRANCH   3   4
HETATM    4  C7  UNL     1     -33.245   6.951   5.334  1.00 20.00     0.005 C 
HETATM    5  C4  UNL     1     -34.116   6.442   6.447  1.00 20.00     0.006 C 
ENDBRANCH   3   4
BRANCH   3   6
HETATM    6  C8  UNL     1     -34.935   5.720   3.917  1.00 20.00     0.005 C 
HETATM    7  C5  UNL     1     -35.034   4.320   4.449  1.00 20.00     0.006 C 
ENDBRANCH   3   6
BRANCH   2   8
HETATM    8  C6  UNL     1     -32.016   7.991   2.707  1.00 20.00     0.120 C 
HETATM    9 CL9  UNL     1     -32.062   8.786   1.110  1.00 20.00    -0.130 Cl
ENDBRANCH   2   8
TORSDOF 3
ENDMDL
MODEL 2
REMARK VINA RESULT:      -4.4     10.699     11.936
REMARK  3 active torsions:
REMARK  status: ('A' for Active; 'I' for Inactive)
REMARK    1  A    between atoms: C2_2  and  C6_6 
REMARK    2  A    between atoms: C3_3  and  C7_7 
REMARK    3  A    between atoms: C3_3  and  C8_8 
ROOT
HETATM    1  C1  UNL     1     -35.519  15.986  -3.402  1.00 20.00     0.016 A 
HETATM    2  C2  UNL     1     -34.789  15.747  -2.107  1.00 20.00     0.009 A 
HETATM    3  C3  UNL     1     -34.245  15.168  -3.403  1.00 20.00    -0.036 A 
ENDROOT
BRANCH   3   4
HETATM    4  C7  UNL     1     -33.021  15.766  -4.042  1.00 20.00     0.005 C 
HETATM    5  C4  UNL     1     -33.358  16.672  -5.191  1.00 20.00     0.006 C 
ENDBRANCH   3   4
BRANCH   3   6
HETATM    6  C8  UNL     1     -34.367  13.677  -3.592  1.00 20.00     0.005 C 
HETATM    7  C5  UNL     1     -34.778  13.309  -4.988  1.00 20.00     0.006 C 
ENDBRANCH   3   6
BRANCH   2   8
HETATM    8  C6  UNL     1     -34.133  16.879  -1.393  1.00 20.00     0.120 C 
HETATM    9 CL9  UNL     1     -34.878  17.155   0.205  1.00 20.00    -0.130 Cl
ENDBRANCH   2   8
TORSDOF 3
ENDMDL
MODEL 3
REMARK VINA RESULT:      -4.2     10.813     11.999
REMARK  3 active torsions:
REMARK  status: ('A' for Active; 'I' for Inactive)
REMARK    1  A    between atoms: C2_2  and  C6_6 
REMARK    2  A    between atoms: C3_3  and  C7_7 
REMARK    3  A    between atoms: C3_3  and  C8_8 
ROOT
HETATM    1  C1  UNL     1     -36.455  15.240  -3.465  1.00 20.00     0.016 A 
HETATM    2  C2  UNL     1     -35.724  15.644  -4.717  1.00 20.00     0.009 A 
HETATM    3  C3  UNL     1     -34.946  15.130  -3.516  1.00 20.00    -0.036 A 
ENDROOT
BRANCH   3   4
HETATM    4  C7  UNL     1     -34.338  13.753  -3.544  1.00 20.00     0.005 C 
HETATM    5  C4  UNL     1     -32.837  13.788  -3.519  1.00 20.00     0.006 C 
ENDBRANCH   3   4
BRANCH   3   6
HETATM    6  C8  UNL     1     -34.140  16.138  -2.738  1.00 20.00     0.005 C 
HETATM    7  C5  UNL     1     -34.669  16.344  -1.349  1.00 20.00     0.006 C 
ENDBRANCH   3   6
BRANCH   2   8
HETATM    8  C6  UNL     1     -35.885  14.854  -5.970  1.00 20.00     0.120 C 
HETATM    9 CL9  UNL     1     -34.418  14.942  -6.983  1.00 20.00    -0.130 Cl
ENDBRANCH   2   8
TORSDOF 3
ENDMDL
MODEL 4
REMARK VINA RESULT:      -4.2     11.010     11.997
REMARK  3 active torsions:
REMARK  status: ('A' for Active; 'I' for Inactive)
REMARK    1  A    between atoms: C2_2  and  C6_6 
REMARK    2  A    between atoms: C3_3  and  C7_7 
REMARK    3  A    between atoms: C3_3  and  C8_8 
ROOT
HETATM    1  C1  UNL     1     -33.587  16.455  -4.143  1.00 20.00     0.016 A 
HETATM    2  C2  UNL     1     -33.246  15.170  -3.438  1.00 20.00     0.009 A 
HETATM    3  C3  UNL     1     -34.214  16.153  -2.798  1.00 20.00    -0.036 A 
ENDROOT
BRANCH   3   4
HETATM    4  C7  UNL     1     -35.686  15.843  -2.757  1.00 20.00     0.005 C 
HETATM    5  C4  UNL     1     -36.477  16.689  -3.714  1.00 20.00     0.006 C 
ENDBRANCH   3   4
BRANCH   3   6
HETATM    6  C8  UNL     1     -33.718  16.924  -1.602  1.00 20.00     0.005 C 
HETATM    7  C5  UNL     1     -34.689  16.892  -0.458  1.00 20.00     0.006 C 
ENDBRANCH   3   6
BRANCH   2   8
HETATM    8  C6  UNL     1     -33.682  13.862  -4.003  1.00 20.00     0.120 C 
HETATM    9 CL9  UNL     1     -34.445  14.072  -5.603  1.00 20.00    -0.130 Cl
ENDBRANCH   2   8
TORSDOF 3
ENDMDL
MODEL 5
REMARK VINA RESULT:      -4.1     11.152     12.509
REMARK  3 active torsions:
REMARK  status: ('A' for Active; 'I' for Inactive)
REMARK    1  A    between atoms: C2_2  and  C6_6 
REMARK    2  A    between atoms: C3_3  and  C7_7 
REMARK    3  A    between atoms: C3_3  and  C8_8 
ROOT
HETATM    1  C1  UNL     1     -32.923  15.067  -3.617  1.00 20.00     0.016 A 
HETATM    2  C2  UNL     1     -33.869  16.145  -3.162  1.00 20.00     0.009 A 
HETATM    3  C3  UNL     1     -34.003  15.558  -4.558  1.00 20.00    -0.036 A 
ENDROOT
BRANCH   3   4
HETATM    4  C7  UNL     1     -35.140  14.625  -4.878  1.00 20.00     0.005 C 
HETATM    5  C4  UNL     1     -34.729  13.181  -4.825  1.00 20.00     0.006 C 
ENDBRANCH   3   4
BRANCH   3   6
HETATM    6  C8  UNL     1     -33.587  16.433  -5.712  1.00 20.00     0.005 C 
HETATM    7  C5  UNL     1     -34.350  16.125  -6.967  1.00 20.00     0.006 C 
ENDBRANCH   3   6
BRANCH   2   8
HETATM    8  C6  UNL     1     -34.853  15.873  -2.076  1.00 20.00     0.120 C 
HETATM    9 CL9  UNL     1     -34.455  16.790  -0.598  1.00 20.00    -0.130 Cl
ENDBRANCH   2   8
TORSDOF 3
ENDMDL
MODEL 6
REMARK VINA RESULT:      -4.1      1.159      2.282
REMARK  3 active torsions:
REMARK  status: ('A' for Active; 'I' for Inactive)
REMARK    1  A    between atoms: C2_2  and  C6_6 
REMARK    2  A    between atoms: C3_3  and  C7_7 
REMARK    3  A    between atoms: C3_3  and  C8_8 
ROOT
HETATM    1  C1  UNL     1     -33.961   7.417   4.471  1.00 20.00     0.016 A 
HETATM    2  C2  UNL     1     -32.791   6.489   4.282  1.00 20.00     0.009 A 
HETATM    3  C3  UNL     1     -34.160   5.925   4.626  1.00 20.00    -0.036 A 
ENDROOT
BRANCH   3   4
HETATM    4  C7  UNL     1     -34.965   5.205   3.578  1.00 20.00     0.005 C 
HETATM    5  C4  UNL     1     -36.235   5.929   3.233  1.00 20.00     0.006 C 
ENDBRANCH   3   4
BRANCH   3   6
HETATM    6  C8  UNL     1     -34.346   5.381   6.020  1.00 20.00     0.005 C 
HETATM    7  C5  UNL     1     -34.952   4.007   6.021  1.00 20.00     0.006 C 
ENDBRANCH   3   6
BRANCH   2   8
HETATM    8  C6  UNL     1     -32.169   6.328   2.937  1.00 20.00     0.120 C 
HETATM    9 CL9  UNL     1     -32.054   7.892   2.086  1.00 20.00    -0.130 Cl
ENDBRANCH   2   8
TORSDOF 3
ENDMDL
MODEL 7
REMARK VINA RESULT:      -4.1      8.990     10.123
REMARK  3 active torsions:
REMARK  status: ('A' for Active; 'I' for Inactive)
REMARK    1  A    between atoms: C2_2  and  C6_6 
REMARK    2  A    between atoms: C3_3  and  C7_7 
REMARK    3  A    between atoms: C3_3  and  C8_8 
ROOT
HETATM    1  C1  UNL     1     -40.761   6.018   0.022  1.00 20.00     0.016 A 
HETATM    2  C2  UNL     1     -41.126   6.638  -1.300  1.00 20.00     0.009 A 
HETATM    3  C3  UNL     1     -41.559   5.216  -0.985  1.00 20.00    -0.036 A 
ENDROOT
BRANCH   3   4
HETATM    4  C7  UNL     1     -43.000   4.917  -0.669  1.00 20.00     0.005 C 
HETATM    5  C4  UNL     1     -43.205   4.535   0.769  1.00 20.00     0.006 C 
ENDBRANCH   3   4
BRANCH   3   6
HETATM    6  C8  UNL     1     -40.852   4.105  -1.719  1.00 20.00     0.005 C 
HETATM    7  C5  UNL     1     -41.781   3.315  -2.594  1.00 20.00     0.006 C 
ENDBRANCH   3   6
BRANCH   2   8
HETATM    8  C6  UNL     1     -42.086   7.778  -1.357  1.00 20.00     0.120 C 
HETATM    9 CL9  UNL     1     -42.642   8.072  -3.027  1.00 20.00    -0.130 Cl
ENDBRANCH   2   8
TORSDOF 3
ENDMDL
MODEL 8
REMARK VINA RESULT:      -4.0     10.861     12.445
REMARK  3 active torsions:
REMARK  status: ('A' for Active; 'I' for Inactive)
REMARK    1  A    between atoms: C2_2  and  C6_6 
REMARK    2  A    between atoms: C3_3  and  C7_7 
REMARK    3  A    between atoms: C3_3  and  C8_8 
ROOT
HETATM    1  C1  UNL     1     -35.324  15.665  -4.183  1.00 20.00     0.016 A 
HETATM    2  C2  UNL     1     -34.504  16.666  -4.953  1.00 20.00     0.009 A 
HETATM    3  C3  UNL     1     -33.967  16.081  -3.657  1.00 20.00    -0.036 A 
ENDROOT
BRANCH   3   4
HETATM    4  C7  UNL     1     -32.855  15.067  -3.689  1.00 20.00     0.005 C 
HETATM    5  C4  UNL     1     -33.366  13.655  -3.683  1.00 20.00     0.006 C 
ENDBRANCH   3   4
BRANCH   3   6
HETATM    6  C8  UNL     1     -33.927  16.994  -2.458  1.00 20.00     0.005 C 
HETATM    7  C5  UNL     1     -34.613  16.399  -1.262  1.00 20.00     0.006 C 
ENDBRANCH   3   6
BRANCH   2   8
HETATM    8  C6  UNL     1     -33.945  16.311  -6.288  1.00 20.00     0.120 C 
HETATM    9 CL9  UNL     1     -34.655  14.795  -6.905  1.00 20.00    -0.130 Cl
ENDBRANCH   2   8
TORSDOF 3
ENDMDL
MODEL 9
REMARK VINA RESULT:      -4.0     10.759     12.707
REMARK  3 active torsions:
REMARK  status: ('A' for Active; 'I' for Inactive)
REMARK    1  A    between atoms: C2_2  and  C6_6 
REMARK    2  A    between atoms: C3_3  and  C7_7 
REMARK    3  A    between atoms: C3_3  and  C8_8 
ROOT
HETATM    1  C1  UNL     1     -33.319  16.324  -4.153  1.00 20.00     0.016 A 
HETATM    2  C2  UNL     1     -34.776  16.699  -4.195  1.00 20.00     0.009 A 
HETATM    3  C3  UNL     1     -34.256  15.571  -5.072  1.00 20.00    -0.036 A 
ENDROOT
BRANCH   3   4
HETATM    4  C7  UNL     1     -34.581  14.141  -4.734  1.00 20.00     0.005 C 
HETATM    5  C4  UNL     1     -33.519  13.495  -3.891  1.00 20.00     0.006 C 
ENDBRANCH   3   4
BRANCH   3   6
HETATM    6  C8  UNL     1     -34.159  15.842  -6.552  1.00 20.00     0.005 C 
HETATM    7  C5  UNL     1     -34.780  14.751  -7.375  1.00 20.00     0.006 C 
ENDBRANCH   3   6
BRANCH   2   8
HETATM    8  C6  UNL     1     -35.649  16.461  -3.011  1.00 20.00     0.120 C 
HETATM    9 CL9  UNL     1     -34.679  16.215  -1.533  1.00 20.00    -0.130 Cl
ENDBRANCH   2   8
TORSDOF 3
ENDMDL
