MODEL 1
REMARK VINA RESULT:      -4.0      0.000      0.000
REMARK  2 active torsions:
REMARK  status: ('A' for Active; 'I' for Inactive)
REMARK    1  A    between atoms: C4_4  and  C6_6 
REMARK    2  A    between atoms: C7_7  and  C8_8 
ROOT
HETATM    1  C1  UNL     1     -34.430  16.140  -1.806  1.00 20.00     0.034 A 
HETATM    2  C2  UNL     1     -34.120  17.479  -1.877  1.00 20.00     0.142 A 
HETATM    3  C3  UNL     1     -33.598  16.634  -3.817  1.00 20.00     0.148 A 
HETATM    4  C4  UNL     1     -34.091  15.591  -3.066  1.00 20.00    -0.029 A 
HETATM    5  O9  UNL     1     -33.613  17.788  -3.099  1.00 20.00    -0.334 OA
ENDROOT
BRANCH   4   6
HETATM    6  C6  UNL     1     -34.239  14.125  -3.508  1.00 20.00     0.026 A 
HETATM    7  C5  UNL     1     -34.367  13.827  -4.986  1.00 20.00     0.016 A 
HETATM    8  C7  UNL     1     -35.549  13.623  -4.085  1.00 20.00     0.005 A 
BRANCH   8   9
HETATM    9  C8  UNL     1     -36.751  14.493  -4.221  1.00 20.00     0.090 C 
HETATM   10 BR10 UNL     1     -36.783  15.345  -5.977  1.00 20.00    -0.096 Br
ENDBRANCH   8   9
ENDBRANCH   4   6
TORSDOF 2
ENDMDL
MODEL 2
REMARK VINA RESULT:      -4.0      2.071      3.738
REMARK  2 active torsions:
REMARK  status: ('A' for Active; 'I' for Inactive)
REMARK    1  A    between atoms: C4_4  and  C6_6 
REMARK    2  A    between atoms: C7_7  and  C8_8 
ROOT
HETATM    1  C1  UNL     1     -35.519  14.388  -3.805  1.00 20.00     0.034 A 
HETATM    2  C2  UNL     1     -35.201  13.287  -4.566  1.00 20.00     0.142 A 
HETATM    3  C3  UNL     1     -33.336  13.955  -3.657  1.00 20.00     0.148 A 
HETATM    4  C4  UNL     1     -34.309  14.822  -3.215  1.00 20.00    -0.029 A 
HETATM    5  O9  UNL     1     -33.872  13.016  -4.481  1.00 20.00    -0.334 OA
ENDROOT
BRANCH   4   6
HETATM    6  C6  UNL     1     -34.115  16.021  -2.271  1.00 20.00     0.026 A 
HETATM    7  C5  UNL     1     -35.196  17.078  -2.217  1.00 20.00     0.016 A 
HETATM    8  C7  UNL     1     -33.868  17.410  -2.831  1.00 20.00     0.005 A 
BRANCH   8   9
HETATM    9  C8  UNL     1     -33.767  17.679  -4.293  1.00 20.00     0.090 C 
HETATM   10 BR10 UNL     1     -35.496  18.233  -5.007  1.00 20.00    -0.096 Br
ENDBRANCH   8   9
ENDBRANCH   4   6
TORSDOF 2
ENDMDL
MODEL 3
REMARK VINA RESULT:      -3.9      2.739      4.005
REMARK  2 active torsions:
REMARK  status: ('A' for Active; 'I' for Inactive)
REMARK    1  A    between atoms: C4_4  and  C6_6 
REMARK    2  A    between atoms: C7_7  and  C8_8 
ROOT
HETATM    1  C1  UNL     1     -34.341  15.094  -7.355  1.00 20.00     0.034 A 
HETATM    2  C2  UNL     1     -35.086  16.136  -7.857  1.00 20.00     0.142 A 
HETATM    3  C3  UNL     1     -36.064  15.530  -6.007  1.00 20.00     0.148 A 
HETATM    4  C4  UNL     1     -34.976  14.701  -6.153  1.00 20.00    -0.029 A 
HETATM    5  O9  UNL     1     -36.138  16.407  -7.042  1.00 20.00    -0.334 OA
ENDROOT
BRANCH   4   6
HETATM    6  C6  UNL     1     -34.542  13.572  -5.201  1.00 20.00     0.026 A 
HETATM    7  C5  UNL     1     -35.098  13.561  -3.795  1.00 20.00     0.016 A 
HETATM    8  C7  UNL     1     -33.646  13.868  -4.013  1.00 20.00     0.005 A 
BRANCH   8   9
HETATM    9  C8  UNL     1     -33.119  15.232  -3.727  1.00 20.00     0.090 C 
HETATM   10 BR10 UNL     1     -34.224  16.123  -2.387  1.00 20.00    -0.096 Br
ENDBRANCH   8   9
ENDBRANCH   4   6
TORSDOF 2
ENDMDL
MODEL 4
REMARK VINA RESULT:      -3.8      3.606      4.769
REMARK  2 active torsions:
REMARK  status: ('A' for Active; 'I' for Inactive)
REMARK    1  A    between atoms: C4_4  and  C6_6 
REMARK    2  A    between atoms: C7_7  and  C8_8 
ROOT
HETATM    1  C1  UNL     1     -34.186  17.552  -3.771  1.00 20.00     0.034 A 
HETATM    2  C2  UNL     1     -33.507  17.149  -4.898  1.00 20.00     0.142 A 
HETATM    3  C3  UNL     1     -33.141  15.618  -3.390  1.00 20.00     0.148 A 
HETATM    4  C4  UNL     1     -33.949  16.558  -2.792  1.00 20.00    -0.029 A 
HETATM    5  O9  UNL     1     -32.867  15.971  -4.674  1.00 20.00    -0.334 OA
ENDROOT
BRANCH   4   6
HETATM    6  C6  UNL     1     -34.482  16.532  -1.349  1.00 20.00     0.026 A 
HETATM    7  C5  UNL     1     -35.396  17.650  -0.898  1.00 20.00     0.016 A 
HETATM    8  C7  UNL     1     -34.009  17.555  -0.334  1.00 20.00     0.005 A 
BRANCH   8   9
HETATM    9  C8  UNL     1     -32.997  18.599  -0.660  1.00 20.00     0.090 C 
HETATM   10 BR10 UNL     1     -31.943  19.044   0.921  1.00 20.00    -0.096 Br
ENDBRANCH   8   9
ENDBRANCH   4   6
TORSDOF 2
ENDMDL
MODEL 5
REMARK VINA RESULT:      -3.8      2.764      3.894
REMARK  2 active torsions:
REMARK  status: ('A' for Active; 'I' for Inactive)
REMARK    1  A    between atoms: C4_4  and  C6_6 
REMARK    2  A    between atoms: C7_7  and  C8_8 
ROOT
HETATM    1  C1  UNL     1     -36.190  15.406  -6.153  1.00 20.00     0.034 A 
HETATM    2  C2  UNL     1     -36.170  16.281  -7.215  1.00 20.00     0.142 A 
HETATM    3  C3  UNL     1     -34.288  15.186  -7.297  1.00 20.00     0.148 A 
HETATM    4  C4  UNL     1     -34.968  14.695  -6.207  1.00 20.00    -0.029 A 
HETATM    5  O9  UNL     1     -35.014  16.153  -7.917  1.00 20.00    -0.334 OA
ENDROOT
BRANCH   4   6
HETATM    6  C6  UNL     1     -34.492  13.596  -5.240  1.00 20.00     0.026 A 
HETATM    7  C5  UNL     1     -35.137  13.508  -3.875  1.00 20.00     0.016 A 
HETATM    8  C7  UNL     1     -33.710  13.955  -3.991  1.00 20.00     0.005 A 
BRANCH   8   9
HETATM    9  C8  UNL     1     -33.336  15.357  -3.654  1.00 20.00     0.090 C 
HETATM   10 BR10 UNL     1     -34.507  16.059  -2.260  1.00 20.00    -0.096 Br
ENDBRANCH   8   9
ENDBRANCH   4   6
TORSDOF 2
ENDMDL
MODEL 6
REMARK VINA RESULT:      -3.8      2.653      3.932
REMARK  2 active torsions:
REMARK  status: ('A' for Active; 'I' for Inactive)
REMARK    1  A    between atoms: C4_4  and  C6_6 
REMARK    2  A    between atoms: C7_7  and  C8_8 
ROOT
HETATM    1  C1  UNL     1     -35.061  14.335  -5.143  1.00 20.00     0.034 A 
HETATM    2  C2  UNL     1     -34.561  13.111  -4.764  1.00 20.00     0.142 A 
HETATM    3  C3  UNL     1     -33.286  14.605  -3.819  1.00 20.00     0.148 A 
HETATM    4  C4  UNL     1     -34.233  15.305  -4.529  1.00 20.00    -0.029 A 
HETATM    5  O9  UNL     1     -33.479  13.267  -3.957  1.00 20.00    -0.334 OA
ENDROOT
BRANCH   4   6
HETATM    6  C6  UNL     1     -34.362  16.835  -4.635  1.00 20.00     0.026 A 
HETATM    7  C5  UNL     1     -33.643  17.691  -3.616  1.00 20.00     0.016 A 
HETATM    8  C7  UNL     1     -35.141  17.617  -3.594  1.00 20.00     0.005 A 
BRANCH   8   9
HETATM    9  C8  UNL     1     -35.840  16.958  -2.454  1.00 20.00     0.090 C 
HETATM   10 BR10 UNL     1     -34.641  16.792  -0.923  1.00 20.00    -0.096 Br
ENDBRANCH   8   9
ENDBRANCH   4   6
TORSDOF 2
ENDMDL
MODEL 7
REMARK VINA RESULT:      -3.8      1.375      1.757
REMARK  2 active torsions:
REMARK  status: ('A' for Active; 'I' for Inactive)
REMARK    1  A    between atoms: C4_4  and  C6_6 
REMARK    2  A    between atoms: C7_7  and  C8_8 
ROOT
HETATM    1  C1  UNL     1     -33.728  15.967  -2.665  1.00 20.00     0.034 A 
HETATM    2  C2  UNL     1     -34.061  17.217  -2.199  1.00 20.00     0.142 A 
HETATM    3  C3  UNL     1     -35.907  16.342  -2.959  1.00 20.00     0.148 A 
HETATM    4  C4  UNL     1     -34.926  15.398  -3.158  1.00 20.00    -0.029 A 
HETATM    5  O9  UNL     1     -35.388  17.454  -2.375  1.00 20.00    -0.334 OA
ENDROOT
BRANCH   4   6
HETATM    6  C6  UNL     1     -35.100  14.007  -3.793  1.00 20.00     0.026 A 
HETATM    7  C5  UNL     1     -33.867  13.278  -4.281  1.00 20.00     0.016 A 
HETATM    8  C7  UNL     1     -34.859  13.801  -5.277  1.00 20.00     0.005 A 
BRANCH   8   9
HETATM    9  C8  UNL     1     -34.484  14.917  -6.190  1.00 20.00     0.090 C 
HETATM   10 BR10 UNL     1     -35.446  14.768  -7.881  1.00 20.00    -0.096 Br
ENDBRANCH   8   9
ENDBRANCH   4   6
TORSDOF 2
ENDMDL
MODEL 8
REMARK VINA RESULT:      -3.8     10.949     11.817
REMARK  2 active torsions:
REMARK  status: ('A' for Active; 'I' for Inactive)
REMARK    1  A    between atoms: C4_4  and  C6_6 
REMARK    2  A    between atoms: C7_7  and  C8_8 
ROOT
HETATM    1  C1  UNL     1     -34.451   5.373   3.109  1.00 20.00     0.034 A 
HETATM    2  C2  UNL     1     -35.498   5.233   3.990  1.00 20.00     0.142 A 
HETATM    3  C3  UNL     1     -33.873   6.143   5.120  1.00 20.00     0.148 A 
HETATM    4  C4  UNL     1     -33.395   5.963   3.843  1.00 20.00    -0.029 A 
HETATM    5  O9  UNL     1     -35.154   5.701   5.218  1.00 20.00    -0.334 OA
ENDROOT
BRANCH   4   6
HETATM    6  C6  UNL     1     -31.995   6.330   3.321  1.00 20.00     0.026 A 
HETATM    7  C5  UNL     1     -31.289   7.523   3.927  1.00 20.00     0.016 A 
HETATM    8  C7  UNL     1     -31.780   7.595   2.511  1.00 20.00     0.005 A 
BRANCH   8   9
HETATM    9  C8  UNL     1     -32.895   8.516   2.153  1.00 20.00     0.090 C 
HETATM   10 BR10 UNL     1     -32.451   9.532   0.547  1.00 20.00    -0.096 Br
ENDBRANCH   8   9
ENDBRANCH   4   6
TORSDOF 2
ENDMDL
MODEL 9
REMARK VINA RESULT:      -3.8      1.623      2.034
REMARK  2 active torsions:
REMARK  status: ('A' for Active; 'I' for Inactive)
REMARK    1  A    between atoms: C4_4  and  C6_6 
REMARK    2  A    between atoms: C7_7  and  C8_8 
ROOT
HETATM    1  C1  UNL     1     -34.665  16.538  -0.837  1.00 20.00     0.034 A 
HETATM    2  C2  UNL     1     -34.787  17.761  -0.218  1.00 20.00     0.142 A 
HETATM    3  C3  UNL     1     -33.684  18.123  -2.062  1.00 20.00     0.148 A 
HETATM    4  C4  UNL     1     -33.949  16.774  -2.035  1.00 20.00    -0.029 A 
HETATM    5  O9  UNL     1     -34.191  18.732  -0.959  1.00 20.00    -0.334 OA
ENDROOT
BRANCH   4   6
HETATM    6  C6  UNL     1     -33.544  15.732  -3.093  1.00 20.00     0.026 A 
HETATM    7  C5  UNL     1     -33.198  16.215  -4.484  1.00 20.00     0.016 A 
HETATM    8  C7  UNL     1     -34.457  15.430  -4.266  1.00 20.00     0.005 A 
BRANCH   8   9
HETATM    9  C8  UNL     1     -35.786  16.084  -4.437  1.00 20.00     0.090 C 
HETATM   10 BR10 UNL     1     -37.216  14.877  -3.883  1.00 20.00    -0.096 Br
ENDBRANCH   8   9
ENDBRANCH   4   6
TORSDOF 2
ENDMDL
