MODEL 1
REMARK VINA RESULT:      -4.2      0.000      0.000
REMARK  3 active torsions:
REMARK  status: ('A' for Active; 'I' for Inactive)
REMARK    1  A    between atoms: C3_3  and  O10_10 
REMARK    2  A    between atoms: C4_4  and  C8_8 
REMARK    3  A    between atoms: C4_4  and  C9_9 
ROOT
HETATM    1  C1  UNL     1     -33.216  13.948  -3.633  1.00 20.00     0.037 C 
HETATM    2  C2  UNL     1     -33.507  15.453  -3.846  1.00 20.00    -0.005 C 
HETATM    3  C3  UNL     1     -34.682  13.642  -4.002  1.00 20.00     0.127 C 
HETATM    4  C4  UNL     1     -34.746  15.032  -4.716  1.00 20.00    -0.012 C 
HETATM    5  C5  UNL     1     -33.727  16.239  -2.559  1.00 20.00     0.011 C 
ENDROOT
BRANCH   4   6
HETATM    6  C8  UNL     1     -36.055  15.778  -4.470  1.00 20.00     0.008 C 
HETATM    7  C6  UNL     1     -37.180  15.194  -5.260  1.00 20.00     0.006 C 
ENDBRANCH   4   6
BRANCH   4   8
HETATM    8  C9  UNL     1     -34.421  15.006  -6.215  1.00 20.00     0.008 C 
HETATM    9  C7  UNL     1     -34.326  16.385  -6.776  1.00 20.00     0.006 C 
ENDBRANCH   4   8
BRANCH   3  10
HETATM   10  O10 UNL     1     -34.898  12.479  -4.822  1.00 20.00    -0.395 OA
HETATM   11  H28 UNL     1     -35.843  12.289  -4.766  1.00 20.00     0.210 HD
ENDBRANCH   3  10
TORSDOF 3
ENDMDL
MODEL 2
REMARK VINA RESULT:      -4.2      1.941      3.394
REMARK  3 active torsions:
REMARK  status: ('A' for Active; 'I' for Inactive)
REMARK    1  A    between atoms: C3_3  and  O10_10 
REMARK    2  A    between atoms: C4_4  and  C8_8 
REMARK    3  A    between atoms: C4_4  and  C9_9 
ROOT
HETATM    1  C1  UNL     1     -34.102  13.969  -3.973  1.00 20.00     0.037 C 
HETATM    2  C2  UNL     1     -35.307  14.668  -3.299  1.00 20.00    -0.005 C 
HETATM    3  C3  UNL     1     -33.697  15.323  -4.591  1.00 20.00     0.127 C 
HETATM    4  C4  UNL     1     -34.545  16.031  -3.484  1.00 20.00    -0.012 C 
HETATM    5  C5  UNL     1     -36.637  14.452  -4.009  1.00 20.00     0.011 C 
ENDROOT
BRANCH   4   6
HETATM    6  C8  UNL     1     -35.354  17.215  -4.007  1.00 20.00     0.008 C 
HETATM    7  C6  UNL     1     -34.517  18.448  -4.120  1.00 20.00     0.006 C 
ENDBRANCH   4   6
BRANCH   4   8
HETATM    8  C9  UNL     1     -33.762  16.434  -2.227  1.00 20.00     0.008 C 
HETATM    9  C7  UNL     1     -34.667  16.614  -1.056  1.00 20.00     0.006 C 
ENDBRANCH   4   8
BRANCH   3  10
HETATM   10  O10 UNL     1     -32.288  15.611  -4.616  1.00 20.00    -0.395 OA
HETATM   11  H28 UNL     1     -32.147  16.173  -5.388  1.00 20.00     0.210 HD
ENDBRANCH   3  10
TORSDOF 3
ENDMDL
MODEL 3
REMARK VINA RESULT:      -4.1      1.045      3.274
REMARK  3 active torsions:
REMARK  status: ('A' for Active; 'I' for Inactive)
REMARK    1  A    between atoms: C3_3  and  O10_10 
REMARK    2  A    between atoms: C4_4  and  C8_8 
REMARK    3  A    between atoms: C4_4  and  C9_9 
ROOT
HETATM    1  C1  UNL     1     -35.770  14.457  -5.881  1.00 20.00     0.037 C 
HETATM    2  C2  UNL     1     -35.193  15.839  -5.492  1.00 20.00    -0.005 C 
HETATM    3  C3  UNL     1     -34.703  13.791  -4.988  1.00 20.00     0.127 C 
HETATM    4  C4  UNL     1     -34.551  15.152  -4.232  1.00 20.00    -0.012 C 
HETATM    5  C5  UNL     1     -34.288  16.462  -6.548  1.00 20.00     0.011 C 
ENDROOT
BRANCH   4   6
HETATM    6  C8  UNL     1     -33.101  15.505  -3.910  1.00 20.00     0.008 C 
HETATM    7  C6  UNL     1     -32.337  14.314  -3.429  1.00 20.00     0.006 C 
ENDBRANCH   4   6
BRANCH   4   8
HETATM    8  C9  UNL     1     -35.427  15.300  -2.981  1.00 20.00     0.008 C 
HETATM    9  C7  UNL     1     -34.781  16.181  -1.965  1.00 20.00     0.006 C 
ENDBRANCH   4   8
BRANCH   3  10
HETATM   10  O10 UNL     1     -35.143  12.662  -4.212  1.00 20.00    -0.395 OA
HETATM   11  H28 UNL     1     -34.426  12.470  -3.595  1.00 20.00     0.210 HD
ENDBRANCH   3  10
TORSDOF 3
ENDMDL
MODEL 4
REMARK VINA RESULT:      -4.1      1.164      2.778
REMARK  3 active torsions:
REMARK  status: ('A' for Active; 'I' for Inactive)
REMARK    1  A    between atoms: C3_3  and  O10_10 
REMARK    2  A    between atoms: C4_4  and  C8_8 
REMARK    3  A    between atoms: C4_4  and  C9_9 
ROOT
HETATM    1  C1  UNL     1     -34.744  14.414  -5.853  1.00 20.00     0.037 C 
HETATM    2  C2  UNL     1     -34.686  15.835  -5.242  1.00 20.00    -0.005 C 
HETATM    3  C3  UNL     1     -34.383  13.835  -4.470  1.00 20.00     0.127 C 
HETATM    4  C4  UNL     1     -34.880  15.173  -3.829  1.00 20.00    -0.012 C 
HETATM    5  C5  UNL     1     -33.401  16.596  -5.542  1.00 20.00     0.011 C 
ENDROOT
BRANCH   4   6
HETATM    6  C8  UNL     1     -33.983  15.670  -2.698  1.00 20.00     0.008 C 
HETATM    7  C6  UNL     1     -34.781  16.253  -1.578  1.00 20.00     0.006 C 
ENDBRANCH   4   6
BRANCH   4   8
HETATM    8  C9  UNL     1     -36.348  15.172  -3.385  1.00 20.00     0.008 C 
HETATM    9  C7  UNL     1     -37.086  16.344  -3.940  1.00 20.00     0.006 C 
ENDBRANCH   4   8
BRANCH   3  10
HETATM   10  O10 UNL     1     -35.077  12.634  -4.087  1.00 20.00    -0.395 OA
HETATM   11  H28 UNL     1     -35.493  12.302  -4.893  1.00 20.00     0.210 HD
ENDBRANCH   3  10
TORSDOF 3
ENDMDL
MODEL 5
REMARK VINA RESULT:      -3.9      1.848      2.850
REMARK  3 active torsions:
REMARK  status: ('A' for Active; 'I' for Inactive)
REMARK    1  A    between atoms: C3_3  and  O10_10 
REMARK    2  A    between atoms: C4_4  and  C8_8 
REMARK    3  A    between atoms: C4_4  and  C9_9 
ROOT
HETATM    1  C1  UNL     1     -33.743  17.459  -3.454  1.00 20.00     0.037 C 
HETATM    2  C2  UNL     1     -34.917  16.664  -2.832  1.00 20.00    -0.005 C 
HETATM    3  C3  UNL     1     -33.250  16.157  -4.117  1.00 20.00     0.127 C 
HETATM    4  C4  UNL     1     -34.691  15.574  -3.942  1.00 20.00    -0.012 C 
HETATM    5  C5  UNL     1     -34.719  16.294  -1.367  1.00 20.00     0.011 C 
ENDROOT
BRANCH   4   6
HETATM    6  C8  UNL     1     -34.702  14.114  -3.496  1.00 20.00     0.008 C 
HETATM    7  C6  UNL     1     -34.395  13.189  -4.628  1.00 20.00     0.006 C 
ENDBRANCH   4   6
BRANCH   4   8
HETATM    8  C9  UNL     1     -35.620  15.770  -5.146  1.00 20.00     0.008 C 
HETATM    9  C7  UNL     1     -37.018  15.359  -4.828  1.00 20.00     0.006 C 
ENDBRANCH   4   8
BRANCH   3  10
HETATM   10  O10 UNL     1     -32.758  16.281  -5.464  1.00 20.00    -0.395 OA
HETATM   11  H28 UNL     1     -33.305  16.957  -5.883  1.00 20.00     0.210 HD
ENDBRANCH   3  10
TORSDOF 3
ENDMDL
MODEL 6
REMARK VINA RESULT:      -3.9      1.678      3.677
REMARK  3 active torsions:
REMARK  status: ('A' for Active; 'I' for Inactive)
REMARK    1  A    between atoms: C3_3  and  O10_10 
REMARK    2  A    between atoms: C4_4  and  C8_8 
REMARK    3  A    between atoms: C4_4  and  C9_9 
ROOT
HETATM    1  C1  UNL     1     -36.989  15.379  -5.313  1.00 20.00     0.037 C 
HETATM    2  C2  UNL     1     -35.451  15.413  -5.492  1.00 20.00    -0.005 C 
HETATM    3  C3  UNL     1     -36.790  14.594  -4.000  1.00 20.00     0.127 C 
HETATM    4  C4  UNL     1     -35.323  15.137  -3.950  1.00 20.00    -0.012 C 
HETATM    5  C5  UNL     1     -34.912  14.391  -6.484  1.00 20.00     0.011 C 
ENDROOT
BRANCH   4   6
HETATM    6  C8  UNL     1     -34.305  14.086  -3.514  1.00 20.00     0.008 C 
HETATM    7  C6  UNL     1     -32.903  14.575  -3.677  1.00 20.00     0.006 C 
ENDBRANCH   4   6
BRANCH   4   8
HETATM    8  C9  UNL     1     -35.137  16.427  -3.142  1.00 20.00     0.008 C 
HETATM    9  C7  UNL     1     -34.756  16.136  -1.730  1.00 20.00     0.006 C 
ENDBRANCH   4   8
BRANCH   3  10
HETATM   10  O10 UNL     1     -37.655  14.957  -2.909  1.00 20.00    -0.395 OA
HETATM   11  H28 UNL     1     -37.156  15.589  -2.376  1.00 20.00     0.210 HD
ENDBRANCH   3  10
TORSDOF 3
ENDMDL
MODEL 7
REMARK VINA RESULT:      -3.9      1.842      2.788
REMARK  3 active torsions:
REMARK  status: ('A' for Active; 'I' for Inactive)
REMARK    1  A    between atoms: C3_3  and  O10_10 
REMARK    2  A    between atoms: C4_4  and  C8_8 
REMARK    3  A    between atoms: C4_4  and  C9_9 
ROOT
HETATM    1  C1  UNL     1     -33.771  17.578  -5.037  1.00 20.00     0.037 C 
HETATM    2  C2  UNL     1     -35.184  17.156  -5.508  1.00 20.00    -0.005 C 
HETATM    3  C3  UNL     1     -33.582  16.171  -4.433  1.00 20.00     0.127 C 
HETATM    4  C4  UNL     1     -34.715  15.660  -5.383  1.00 20.00    -0.012 C 
HETATM    5  C5  UNL     1     -36.318  17.661  -4.625  1.00 20.00     0.011 C 
ENDROOT
BRANCH   4   6
HETATM    6  C8  UNL     1     -35.675  14.684  -4.708  1.00 20.00     0.008 C 
HETATM    7  C6  UNL     1     -34.991  13.411  -4.329  1.00 20.00     0.006 C 
ENDBRANCH   4   6
BRANCH   4   8
HETATM    8  C9  UNL     1     -34.229  15.091  -6.723  1.00 20.00     0.008 C 
HETATM    9  C7  UNL     1     -35.358  14.515  -7.511  1.00 20.00     0.006 C 
ENDBRANCH   4   8
BRANCH   3  10
HETATM   10  O10 UNL     1     -32.280  15.582  -4.598  1.00 20.00    -0.395 OA
HETATM   11  H28 UNL     1     -31.852  15.644  -3.735  1.00 20.00     0.210 HD
ENDBRANCH   3  10
TORSDOF 3
ENDMDL
MODEL 8
REMARK VINA RESULT:      -3.8      1.672      2.438
REMARK  3 active torsions:
REMARK  status: ('A' for Active; 'I' for Inactive)
REMARK    1  A    between atoms: C3_3  and  O10_10 
REMARK    2  A    between atoms: C4_4  and  C8_8 
REMARK    3  A    between atoms: C4_4  and  C9_9 
ROOT
HETATM    1  C1  UNL     1     -34.032  15.597  -2.647  1.00 20.00     0.037 C 
HETATM    2  C2  UNL     1     -35.160  15.912  -3.660  1.00 20.00    -0.005 C 
HETATM    3  C3  UNL     1     -33.384  14.673  -3.699  1.00 20.00     0.127 C 
HETATM    4  C4  UNL     1     -34.188  15.438  -4.801  1.00 20.00    -0.012 C 
HETATM    5  C5  UNL     1     -36.455  15.149  -3.415  1.00 20.00     0.011 C 
ENDROOT
BRANCH   4   6
HETATM    6  C8  UNL     1     -34.768  14.519  -5.873  1.00 20.00     0.008 C 
HETATM    7  C6  UNL     1     -34.393  14.968  -7.247  1.00 20.00     0.006 C 
ENDBRANCH   4   6
BRANCH   4   8
HETATM    8  C9  UNL     1     -33.441  16.610  -5.452  1.00 20.00     0.008 C 
HETATM    9  C7  UNL     1     -34.310  17.817  -5.560  1.00 20.00     0.006 C 
ENDBRANCH   4   8
BRANCH   3  10
HETATM   10  O10 UNL     1     -31.949  14.725  -3.786  1.00 20.00    -0.395 OA
HETATM   11  H28 UNL     1     -31.639  13.837  -3.564  1.00 20.00     0.210 HD
ENDBRANCH   3  10
TORSDOF 3
ENDMDL
MODEL 9
REMARK VINA RESULT:      -3.8      1.631      2.717
REMARK  3 active torsions:
REMARK  status: ('A' for Active; 'I' for Inactive)
REMARK    1  A    between atoms: C3_3  and  O10_10 
REMARK    2  A    between atoms: C4_4  and  C8_8 
REMARK    3  A    between atoms: C4_4  and  C9_9 
ROOT
HETATM    1  C1  UNL     1     -35.358  16.274  -2.168  1.00 20.00     0.037 C 
HETATM    2  C2  UNL     1     -34.110  16.231  -3.083  1.00 20.00    -0.005 C 
HETATM    3  C3  UNL     1     -36.214  15.800  -3.360  1.00 20.00     0.127 C 
HETATM    4  C4  UNL     1     -34.907  15.257  -4.025  1.00 20.00    -0.012 C 
HETATM    5  C5  UNL     1     -33.671  17.591  -3.611  1.00 20.00     0.011 C 
ENDROOT
BRANCH   4   6
HETATM    6  C8  UNL     1     -34.836  15.527  -5.526  1.00 20.00     0.008 C 
HETATM    7  C6  UNL     1     -35.252  14.334  -6.322  1.00 20.00     0.006 C 
ENDBRANCH   4   6
BRANCH   4   8
HETATM    8  C9  UNL     1     -34.595  13.783  -3.734  1.00 20.00     0.008 C 
HETATM    9  C7  UNL     1     -33.125  13.538  -3.679  1.00 20.00     0.006 C 
ENDBRANCH   4   8
BRANCH   3  10
HETATM   10  O10 UNL     1     -37.239  14.836  -3.058  1.00 20.00    -0.395 OA
HETATM   11  H28 UNL     1     -37.992  15.345  -2.734  1.00 20.00     0.210 HD
ENDBRANCH   3  10
TORSDOF 3
ENDMDL
