MODEL 1
REMARK VINA RESULT:      -4.1      0.000      0.000
REMARK  2 active torsions:
REMARK  status: ('A' for Active; 'I' for Inactive)
REMARK    1  A    between atoms: C3_3  and  C6_6 
REMARK    2  A    between atoms: C7_7  and  C9_9 
ROOT
HETATM    1  C1  UNL     1     -34.397  15.610  -2.305  1.00 20.00     0.016 A 
HETATM    2  C2  UNL     1     -34.219  16.870  -1.662  1.00 20.00     0.015 A 
HETATM    3  C3  UNL     1     -34.099  15.669  -3.648  1.00 20.00    -0.013 A 
HETATM    4  C4  UNL     1     -33.790  17.842  -2.540  1.00 20.00    -0.021 A 
HETATM    5  C8  UNL     1     -33.488  19.263  -2.262  1.00 20.00     0.056 C 
HETATM    6  S10 UNL     1     -33.605  17.236  -4.130  1.00 20.00    -0.099 SA
ENDROOT
BRANCH   3   7
HETATM    7  C6  UNL     1     -34.193  14.470  -4.608  1.00 20.00     0.031 A 
HETATM    8  C5  UNL     1     -35.197  13.380  -4.304  1.00 20.00     0.016 A 
HETATM    9  C7  UNL     1     -35.416  14.278  -5.485  1.00 20.00     0.005 A 
BRANCH   9  10
HETATM   10  C9  UNL     1     -36.555  15.238  -5.491  1.00 20.00     0.090 C 
HETATM   11 BR11 UNL     1     -37.793  14.839  -4.036  1.00 20.00    -0.096 Br
ENDBRANCH   9  10
ENDBRANCH   3   7
TORSDOF 2
ENDMDL
MODEL 2
REMARK VINA RESULT:      -4.0      2.406      4.516
REMARK  2 active torsions:
REMARK  status: ('A' for Active; 'I' for Inactive)
REMARK    1  A    between atoms: C3_3  and  C6_6 
REMARK    2  A    between atoms: C7_7  and  C9_9 
ROOT
HETATM    1  C1  UNL     1     -34.836  14.444  -6.586  1.00 20.00     0.016 A 
HETATM    2  C2  UNL     1     -35.537  15.144  -7.611  1.00 20.00     0.015 A 
HETATM    3  C3  UNL     1     -35.528  14.442  -5.396  1.00 20.00    -0.013 A 
HETATM    4  C4  UNL     1     -36.739  15.648  -7.164  1.00 20.00    -0.021 A 
HETATM    5  C8  UNL     1     -37.749  16.422  -7.917  1.00 20.00     0.056 C 
HETATM    6  S10 UNL     1     -37.017  15.279  -5.516  1.00 20.00    -0.099 SA
ENDROOT
BRANCH   3   7
HETATM    7  C6  UNL     1     -35.030  13.765  -4.106  1.00 20.00     0.031 A 
HETATM    8  C5  UNL     1     -33.538  13.639  -3.889  1.00 20.00     0.016 A 
HETATM    9  C7  UNL     1     -34.333  14.577  -3.029  1.00 20.00     0.005 A 
BRANCH   9  10
HETATM   10  C9  UNL     1     -34.130  16.048  -3.142  1.00 20.00     0.090 C 
HETATM   11 BR11 UNL     1     -34.300  16.896  -1.393  1.00 20.00    -0.096 Br
ENDBRANCH   9  10
ENDBRANCH   3   7
TORSDOF 2
ENDMDL
MODEL 3
REMARK VINA RESULT:      -4.0      2.421      3.148
REMARK  2 active torsions:
REMARK  status: ('A' for Active; 'I' for Inactive)
REMARK    1  A    between atoms: C3_3  and  C6_6 
REMARK    2  A    between atoms: C7_7  and  C9_9 
ROOT
HETATM    1  C1  UNL     1     -35.063  16.714  -1.559  1.00 20.00     0.016 A 
HETATM    2  C2  UNL     1     -34.694  17.017  -0.216  1.00 20.00     0.015 A 
HETATM    3  C3  UNL     1     -34.473  17.571  -2.463  1.00 20.00    -0.013 A 
HETATM    4  C4  UNL     1     -33.836  18.094  -0.146  1.00 20.00    -0.021 A 
HETATM    5  C8  UNL     1     -33.229  18.709   1.054  1.00 20.00     0.056 C 
HETATM    6  S10 UNL     1     -33.480  18.733  -1.693  1.00 20.00    -0.099 SA
ENDROOT
BRANCH   3   7
HETATM    7  C6  UNL     1     -34.677  17.495  -3.986  1.00 20.00     0.031 A 
HETATM    8  C5  UNL     1     -33.558  17.970  -4.887  1.00 20.00     0.016 A 
HETATM    9  C7  UNL     1     -33.884  16.507  -4.822  1.00 20.00     0.005 A 
BRANCH   9  10
HETATM   10  C9  UNL     1     -32.911  15.551  -4.222  1.00 20.00     0.090 C 
HETATM   11 BR11 UNL     1     -33.762  13.826  -3.896  1.00 20.00    -0.096 Br
ENDBRANCH   9  10
ENDBRANCH   3   7
TORSDOF 2
ENDMDL
MODEL 4
REMARK VINA RESULT:      -3.9      2.076      2.646
REMARK  2 active torsions:
REMARK  status: ('A' for Active; 'I' for Inactive)
REMARK    1  A    between atoms: C3_3  and  C6_6 
REMARK    2  A    between atoms: C7_7  and  C9_9 
ROOT
HETATM    1  C1  UNL     1     -34.006  16.642  -1.624  1.00 20.00     0.016 A 
HETATM    2  C2  UNL     1     -34.713  16.957  -0.427  1.00 20.00     0.015 A 
HETATM    3  C3  UNL     1     -34.463  17.369  -2.701  1.00 20.00    -0.013 A 
HETATM    4  C4  UNL     1     -35.682  17.914  -0.637  1.00 20.00    -0.021 A 
HETATM    5  C8  UNL     1     -36.616  18.507   0.345  1.00 20.00     0.056 C 
HETATM    6  S10 UNL     1     -35.738  18.427  -2.269  1.00 20.00    -0.099 SA
ENDROOT
BRANCH   3   7
HETATM    7  C6  UNL     1     -33.896  17.252  -4.127  1.00 20.00     0.031 A 
HETATM    8  C5  UNL     1     -33.099  16.018  -4.487  1.00 20.00     0.016 A 
HETATM    9  C7  UNL     1     -34.454  16.226  -5.096  1.00 20.00     0.005 A 
BRANCH   9  10
HETATM   10  C9  UNL     1     -35.580  15.318  -4.741  1.00 20.00     0.090 C 
HETATM   11 BR11 UNL     1     -34.906  13.556  -4.244  1.00 20.00    -0.096 Br
ENDBRANCH   9  10
ENDBRANCH   3   7
TORSDOF 2
ENDMDL
MODEL 5
REMARK VINA RESULT:      -3.9      1.856      4.131
REMARK  2 active torsions:
REMARK  status: ('A' for Active; 'I' for Inactive)
REMARK    1  A    between atoms: C3_3  and  C6_6 
REMARK    2  A    between atoms: C7_7  and  C9_9 
ROOT
HETATM    1  C1  UNL     1     -34.782  13.968  -3.808  1.00 20.00     0.016 A 
HETATM    2  C2  UNL     1     -34.900  13.678  -5.199  1.00 20.00     0.015 A 
HETATM    3  C3  UNL     1     -34.339  15.253  -3.585  1.00 20.00    -0.013 A 
HETATM    4  C4  UNL     1     -34.543  14.753  -5.984  1.00 20.00    -0.021 A 
HETATM    5  C8  UNL     1     -34.534  14.852  -7.459  1.00 20.00     0.056 C 
HETATM    6  S10 UNL     1     -34.068  16.104  -5.046  1.00 20.00    -0.099 SA
ENDROOT
BRANCH   3   7
HETATM    7  C6  UNL     1     -34.115  15.860  -2.188  1.00 20.00     0.031 A 
HETATM    8  C5  UNL     1     -33.751  17.325  -2.089  1.00 20.00     0.016 A 
HETATM    9  C7  UNL     1     -35.099  16.865  -1.617  1.00 20.00     0.005 A 
BRANCH   9  10
HETATM   10  C9  UNL     1     -36.329  17.284  -2.347  1.00 20.00     0.090 C 
HETATM   11 BR11 UNL     1     -36.055  19.013  -3.208  1.00 20.00    -0.096 Br
ENDBRANCH   9  10
ENDBRANCH   3   7
TORSDOF 2
ENDMDL
MODEL 6
REMARK VINA RESULT:      -3.9      1.843      2.525
REMARK  2 active torsions:
REMARK  status: ('A' for Active; 'I' for Inactive)
REMARK    1  A    between atoms: C3_3  and  C6_6 
REMARK    2  A    between atoms: C7_7  and  C9_9 
ROOT
HETATM    1  C1  UNL     1     -34.686  14.533  -4.458  1.00 20.00     0.016 A 
HETATM    2  C2  UNL     1     -34.803  14.719  -3.050  1.00 20.00     0.015 A 
HETATM    3  C3  UNL     1     -34.243  15.672  -5.094  1.00 20.00    -0.013 A 
HETATM    4  C4  UNL     1     -34.442  15.992  -2.664  1.00 20.00    -0.021 A 
HETATM    5  C8  UNL     1     -34.422  16.569  -1.303  1.00 20.00     0.056 C 
HETATM    6  S10 UNL     1     -33.967  16.956  -3.997  1.00 20.00    -0.099 SA
ENDROOT
BRANCH   3   7
HETATM    7  C6  UNL     1     -34.016  15.781  -6.612  1.00 20.00     0.031 A 
HETATM    8  C5  UNL     1     -34.755  14.826  -7.523  1.00 20.00     0.016 A 
HETATM    9  C7  UNL     1     -35.122  16.280  -7.524  1.00 20.00     0.005 A 
BRANCH   9  10
HETATM   10  C9  UNL     1     -36.450  16.716  -7.006  1.00 20.00     0.090 C 
HETATM   11 BR11 UNL     1     -37.788  15.329  -7.310  1.00 20.00    -0.096 Br
ENDBRANCH   9  10
ENDBRANCH   3   7
TORSDOF 2
ENDMDL
MODEL 7
REMARK VINA RESULT:      -3.9      2.004      2.129
REMARK  2 active torsions:
REMARK  status: ('A' for Active; 'I' for Inactive)
REMARK    1  A    between atoms: C3_3  and  C6_6 
REMARK    2  A    between atoms: C7_7  and  C9_9 
ROOT
HETATM    1  C1  UNL     1     -33.679  16.263  -2.372  1.00 20.00     0.016 A 
HETATM    2  C2  UNL     1     -34.186  17.508  -1.897  1.00 20.00     0.015 A 
HETATM    3  C3  UNL     1     -34.661  15.496  -2.959  1.00 20.00    -0.013 A 
HETATM    4  C4  UNL     1     -35.535  17.643  -2.141  1.00 20.00    -0.021 A 
HETATM    5  C8  UNL     1     -36.420  18.781  -1.809  1.00 20.00     0.056 C 
HETATM    6  S10 UNL     1     -36.185  16.275  -2.938  1.00 20.00    -0.099 SA
ENDROOT
BRANCH   3   7
HETATM    7  C6  UNL     1     -34.422  14.102  -3.568  1.00 20.00     0.031 A 
HETATM    8  C5  UNL     1     -35.541  13.458  -4.354  1.00 20.00     0.016 A 
HETATM    9  C7  UNL     1     -34.310  13.926  -5.071  1.00 20.00     0.005 A 
BRANCH   9  10
HETATM   10  C9  UNL     1     -34.388  15.073  -6.019  1.00 20.00     0.090 C 
HETATM   11 BR11 UNL     1     -35.414  14.579  -7.603  1.00 20.00    -0.096 Br
ENDBRANCH   9  10
ENDBRANCH   3   7
TORSDOF 2
ENDMDL
MODEL 8
REMARK VINA RESULT:      -3.8      2.483      3.061
REMARK  2 active torsions:
REMARK  status: ('A' for Active; 'I' for Inactive)
REMARK    1  A    between atoms: C3_3  and  C6_6 
REMARK    2  A    between atoms: C7_7  and  C9_9 
ROOT
HETATM    1  C1  UNL     1     -35.912  14.820  -4.477  1.00 20.00     0.016 A 
HETATM    2  C2  UNL     1     -35.989  15.213  -3.109  1.00 20.00     0.015 A 
HETATM    3  C3  UNL     1     -34.722  15.198  -5.058  1.00 20.00    -0.013 A 
HETATM    4  C4  UNL     1     -34.853  15.876  -2.698  1.00 20.00    -0.021 A 
HETATM    5  C8  UNL     1     -34.546  16.434  -1.363  1.00 20.00     0.056 C 
HETATM    6  S10 UNL     1     -33.703  16.023  -3.957  1.00 20.00    -0.099 SA
ENDROOT
BRANCH   3   7
HETATM    7  C6  UNL     1     -34.345  14.914  -6.523  1.00 20.00     0.031 A 
HETATM    8  C5  UNL     1     -35.449  14.564  -7.496  1.00 20.00     0.016 A 
HETATM    9  C7  UNL     1     -34.742  15.880  -7.623  1.00 20.00     0.005 A 
BRANCH   9  10
HETATM   10  C9  UNL     1     -35.472  17.150  -7.348  1.00 20.00     0.090 C 
HETATM   11 BR11 UNL     1     -34.216  18.632  -7.164  1.00 20.00    -0.096 Br
ENDBRANCH   9  10
ENDBRANCH   3   7
TORSDOF 2
ENDMDL
MODEL 9
REMARK VINA RESULT:      -3.8      2.415      4.864
REMARK  2 active torsions:
REMARK  status: ('A' for Active; 'I' for Inactive)
REMARK    1  A    between atoms: C3_3  and  C6_6 
REMARK    2  A    between atoms: C7_7  and  C9_9 
ROOT
HETATM    1  C1  UNL     1     -34.476  14.822  -7.146  1.00 20.00     0.016 A 
HETATM    2  C2  UNL     1     -35.724  14.437  -7.717  1.00 20.00     0.015 A 
HETATM    3  C3  UNL     1     -34.598  15.930  -6.337  1.00 20.00    -0.013 A 
HETATM    4  C4  UNL     1     -36.751  15.266  -7.321  1.00 20.00    -0.021 A 
HETATM    5  C8  UNL     1     -38.182  15.196  -7.688  1.00 20.00     0.056 C 
HETATM    6  S10 UNL     1     -36.210  16.501  -6.267  1.00 20.00    -0.099 SA
ENDROOT
BRANCH   3   7
HETATM    7  C6  UNL     1     -33.427  16.581  -5.580  1.00 20.00     0.031 A 
HETATM    8  C5  UNL     1     -33.734  17.669  -4.575  1.00 20.00     0.016 A 
HETATM    9  C7  UNL     1     -33.238  16.338  -4.094  1.00 20.00     0.005 A 
BRANCH   9  10
HETATM   10  C9  UNL     1     -34.137  15.445  -3.309  1.00 20.00     0.090 C 
HETATM   11 BR11 UNL     1     -34.692  16.319  -1.656  1.00 20.00    -0.096 Br
ENDBRANCH   9  10
ENDBRANCH   3   7
TORSDOF 2
ENDMDL
