MODEL 1
REMARK VINA RESULT:      -4.4      0.000      0.000
REMARK  2 active torsions:
REMARK  status: ('A' for Active; 'I' for Inactive)
REMARK    1  A    between atoms: C3_3  and  O9_9 
REMARK    2  A    between atoms: C4_4  and  C8_8 
ROOT
HETATM    1  C1  UNL     1     -34.832  14.232  -5.945  1.00 20.00     0.037 C 
HETATM    2  C2  UNL     1     -34.556  15.642  -5.368  1.00 20.00    -0.006 C 
HETATM    3  C3  UNL     1     -34.523  13.652  -4.546  1.00 20.00     0.127 C 
HETATM    4  C4  UNL     1     -34.892  15.055  -3.949  1.00 20.00    -0.015 C 
HETATM    5  C5  UNL     1     -35.391  16.775  -5.935  1.00 20.00     0.011 C 
HETATM    6  C6  UNL     1     -36.343  15.188  -3.482  1.00 20.00     0.018 C 
ENDROOT
BRANCH   4   7
HETATM    7  C8  UNL     1     -33.928  15.524  -2.859  1.00 20.00     0.007 C 
HETATM    8  C7  UNL     1     -34.651  16.171  -1.725  1.00 20.00     0.006 C 
ENDBRANCH   4   7
BRANCH   3   9
HETATM    9  O9  UNL     1     -35.330  12.539  -4.125  1.00 20.00    -0.395 OA
HETATM   10  H25 UNL     1     -35.761  12.822  -3.308  1.00 20.00     0.210 HD
ENDBRANCH   3   9
TORSDOF 2
ENDMDL
MODEL 2
REMARK VINA RESULT:      -4.0      1.739      3.317
REMARK  2 active torsions:
REMARK  status: ('A' for Active; 'I' for Inactive)
REMARK    1  A    between atoms: C3_3  and  O9_9 
REMARK    2  A    between atoms: C4_4  and  C8_8 
ROOT
HETATM    1  C1  UNL     1     -34.174  15.450  -2.705  1.00 20.00     0.037 C 
HETATM    2  C2  UNL     1     -35.274  15.644  -3.776  1.00 20.00    -0.006 C 
HETATM    3  C3  UNL     1     -33.408  14.571  -3.721  1.00 20.00     0.127 C 
HETATM    4  C4  UNL     1     -34.184  15.318  -4.861  1.00 20.00    -0.015 C 
HETATM    5  C5  UNL     1     -35.972  16.991  -3.786  1.00 20.00     0.011 C 
HETATM    6  C6  UNL     1     -33.441  16.513  -5.461  1.00 20.00     0.018 C 
ENDROOT
BRANCH   4   7
HETATM    7  C8  UNL     1     -34.689  14.386  -5.963  1.00 20.00     0.007 C 
HETATM    8  C7  UNL     1     -34.519  14.991  -7.317  1.00 20.00     0.006 C 
ENDBRANCH   4   7
BRANCH   3   9
HETATM    9  O9  UNL     1     -31.975  14.700  -3.723  1.00 20.00    -0.395 OA
HETATM   10  H25 UNL     1     -31.793  15.606  -3.442  1.00 20.00     0.210 HD
ENDBRANCH   3   9
TORSDOF 2
ENDMDL
MODEL 3
REMARK VINA RESULT:      -4.0      1.417      2.849
REMARK  2 active torsions:
REMARK  status: ('A' for Active; 'I' for Inactive)
REMARK    1  A    between atoms: C3_3  and  O9_9 
REMARK    2  A    between atoms: C4_4  and  C8_8 
ROOT
HETATM    1  C1  UNL     1     -33.854  14.675  -3.615  1.00 20.00     0.037 C 
HETATM    2  C2  UNL     1     -34.363  15.912  -4.394  1.00 20.00    -0.006 C 
HETATM    3  C3  UNL     1     -35.209  13.991  -3.910  1.00 20.00     0.127 C 
HETATM    4  C4  UNL     1     -35.355  14.949  -5.143  1.00 20.00    -0.015 C 
HETATM    5  C5  UNL     1     -33.322  16.686  -5.180  1.00 20.00     0.011 C 
HETATM    6  C6  UNL     1     -34.865  14.362  -6.469  1.00 20.00     0.018 C 
ENDROOT
BRANCH   4   7
HETATM    7  C8  UNL     1     -36.760  15.531  -5.296  1.00 20.00     0.007 C 
HETATM    8  C7  UNL     1     -37.262  15.400  -6.697  1.00 20.00     0.006 C 
ENDBRANCH   4   7
BRANCH   3   9
HETATM    9  O9  UNL     1     -35.164  12.581  -4.189  1.00 20.00    -0.395 OA
HETATM   10  H25 UNL     1     -34.501  12.216  -3.589  1.00 20.00     0.210 HD
ENDBRANCH   3   9
TORSDOF 2
ENDMDL
MODEL 4
REMARK VINA RESULT:      -4.0      1.413      3.339
REMARK  2 active torsions:
REMARK  status: ('A' for Active; 'I' for Inactive)
REMARK    1  A    between atoms: C3_3  and  O9_9 
REMARK    2  A    between atoms: C4_4  and  C8_8 
ROOT
HETATM    1  C1  UNL     1     -34.750  15.653  -2.503  1.00 20.00     0.037 C 
HETATM    2  C2  UNL     1     -33.831  15.529  -3.742  1.00 20.00    -0.006 C 
HETATM    3  C3  UNL     1     -35.963  15.637  -3.460  1.00 20.00     0.127 C 
HETATM    4  C4  UNL     1     -35.054  14.899  -4.504  1.00 20.00    -0.015 C 
HETATM    5  C5  UNL     1     -32.558  14.724  -3.557  1.00 20.00     0.011 C 
HETATM    6  C6  UNL     1     -35.160  13.373  -4.477  1.00 20.00     0.018 C 
ENDROOT
BRANCH   4   7
HETATM    7  C8  UNL     1     -35.213  15.427  -5.929  1.00 20.00     0.007 C 
HETATM    8  C7  UNL     1     -35.286  14.315  -6.924  1.00 20.00     0.006 C 
ENDBRANCH   4   7
BRANCH   3   9
HETATM    9  O9  UNL     1     -37.127  14.927  -3.003  1.00 20.00    -0.395 OA
HETATM   10  H25 UNL     1     -36.805  14.078  -2.675  1.00 20.00     0.210 HD
ENDBRANCH   3   9
TORSDOF 2
ENDMDL
MODEL 5
REMARK VINA RESULT:      -3.9      1.782      1.972
REMARK  2 active torsions:
REMARK  status: ('A' for Active; 'I' for Inactive)
REMARK    1  A    between atoms: C3_3  and  O9_9 
REMARK    2  A    between atoms: C4_4  and  C8_8 
ROOT
HETATM    1  C1  UNL     1     -33.377  16.116  -5.202  1.00 20.00     0.037 C 
HETATM    2  C2  UNL     1     -34.059  17.227  -4.368  1.00 20.00    -0.006 C 
HETATM    3  C3  UNL     1     -32.880  15.492  -3.878  1.00 20.00     0.127 C 
HETATM    4  C4  UNL     1     -34.068  16.221  -3.159  1.00 20.00    -0.015 C 
HETATM    5  C5  UNL     1     -35.367  17.769  -4.912  1.00 20.00     0.011 C 
HETATM    6  C6  UNL     1     -35.330  15.372  -2.990  1.00 20.00     0.018 C 
ENDROOT
BRANCH   4   7
HETATM    7  C8  UNL     1     -33.670  16.869  -1.833  1.00 20.00     0.007 C 
HETATM    8  C7  UNL     1     -34.693  16.626  -0.772  1.00 20.00     0.006 C 
ENDBRANCH   4   7
BRANCH   3   9
HETATM    9  O9  UNL     1     -32.872  14.055  -3.814  1.00 20.00    -0.395 OA
HETATM   10  H25 UNL     1     -33.538  13.760  -4.448  1.00 20.00     0.210 HD
ENDBRANCH   3   9
TORSDOF 2
ENDMDL
MODEL 6
REMARK VINA RESULT:      -3.9      2.030      3.470
REMARK  2 active torsions:
REMARK  status: ('A' for Active; 'I' for Inactive)
REMARK    1  A    between atoms: C3_3  and  O9_9 
REMARK    2  A    between atoms: C4_4  and  C8_8 
ROOT
HETATM    1  C1  UNL     1     -33.853  17.642  -3.111  1.00 20.00     0.037 C 
HETATM    2  C2  UNL     1     -33.893  16.411  -2.172  1.00 20.00    -0.006 C 
HETATM    3  C3  UNL     1     -33.916  16.669  -4.310  1.00 20.00     0.127 C 
HETATM    4  C4  UNL     1     -34.574  15.620  -3.348  1.00 20.00    -0.015 C 
HETATM    5  C5  UNL     1     -34.626  16.593  -0.857  1.00 20.00     0.011 C 
HETATM    6  C6  UNL     1     -36.104  15.609  -3.365  1.00 20.00     0.018 C 
ENDROOT
BRANCH   4   7
HETATM    7  C8  UNL     1     -34.021  14.205  -3.522  1.00 20.00     0.007 C 
HETATM    8  C7  UNL     1     -34.995  13.315  -4.221  1.00 20.00     0.006 C 
ENDBRANCH   4   7
BRANCH   3   9
HETATM    9  O9  UNL     1     -34.704  17.095  -5.436  1.00 20.00    -0.395 OA
HETATM   10  H25 UNL     1     -34.885  18.032  -5.290  1.00 20.00     0.210 HD
ENDBRANCH   3   9
TORSDOF 2
ENDMDL
MODEL 7
REMARK VINA RESULT:      -3.9      2.086      2.847
REMARK  2 active torsions:
REMARK  status: ('A' for Active; 'I' for Inactive)
REMARK    1  A    between atoms: C3_3  and  O9_9 
REMARK    2  A    between atoms: C4_4  and  C8_8 
ROOT
HETATM    1  C1  UNL     1     -35.696  14.474  -4.262  1.00 20.00     0.037 C 
HETATM    2  C2  UNL     1     -34.554  14.343  -3.225  1.00 20.00    -0.006 C 
HETATM    3  C3  UNL     1     -36.169  15.738  -3.509  1.00 20.00     0.127 C 
HETATM    4  C4  UNL     1     -34.708  15.885  -2.959  1.00 20.00    -0.015 C 
HETATM    5  C5  UNL     1     -33.239  13.791  -3.742  1.00 20.00     0.011 C 
HETATM    6  C6  UNL     1     -33.807  16.810  -3.779  1.00 20.00     0.018 C 
ENDROOT
BRANCH   4   7
HETATM    7  C8  UNL     1     -34.651  16.249  -1.476  1.00 20.00     0.007 C 
HETATM    8  C7  UNL     1     -33.698  17.370  -1.220  1.00 20.00     0.006 C 
ENDBRANCH   4   7
BRANCH   3   9
HETATM    9  O9  UNL     1     -36.664  16.817  -4.323  1.00 20.00    -0.395 OA
HETATM   10  H25 UNL     1     -37.148  16.400  -5.046  1.00 20.00     0.210 HD
ENDBRANCH   3   9
TORSDOF 2
ENDMDL
MODEL 8
REMARK VINA RESULT:      -3.8      1.353      2.366
REMARK  2 active torsions:
REMARK  status: ('A' for Active; 'I' for Inactive)
REMARK    1  A    between atoms: C3_3  and  O9_9 
REMARK    2  A    between atoms: C4_4  and  C8_8 
ROOT
HETATM    1  C1  UNL     1     -35.366  13.294  -4.196  1.00 20.00     0.037 C 
HETATM    2  C2  UNL     1     -35.843  14.722  -4.557  1.00 20.00    -0.006 C 
HETATM    3  C3  UNL     1     -33.943  13.712  -4.630  1.00 20.00     0.127 C 
HETATM    4  C4  UNL     1     -34.358  15.198  -4.352  1.00 20.00    -0.015 C 
HETATM    5  C5  UNL     1     -36.949  15.299  -3.694  1.00 20.00     0.011 C 
HETATM    6  C6  UNL     1     -33.995  15.712  -2.957  1.00 20.00     0.018 C 
ENDROOT
BRANCH   4   7
HETATM    7  C8  UNL     1     -33.884  16.173  -5.429  1.00 20.00     0.007 C 
HETATM    8  C7  UNL     1     -33.482  17.487  -4.844  1.00 20.00     0.006 C 
ENDBRANCH   4   7
BRANCH   3   9
HETATM    9  O9  UNL     1     -32.857  13.187  -3.845  1.00 20.00    -0.395 OA
HETATM   10  H25 UNL     1     -33.152  12.321  -3.536  1.00 20.00     0.210 HD
ENDBRANCH   3   9
TORSDOF 2
ENDMDL
MODEL 9
REMARK VINA RESULT:      -3.8     11.859     13.085
REMARK  2 active torsions:
REMARK  status: ('A' for Active; 'I' for Inactive)
REMARK    1  A    between atoms: C3_3  and  O9_9 
REMARK    2  A    between atoms: C4_4  and  C8_8 
ROOT
HETATM    1  C1  UNL     1     -41.620   6.012   0.155  1.00 20.00     0.037 C 
HETATM    2  C2  UNL     1     -42.053   4.537  -0.026  1.00 20.00    -0.006 C 
HETATM    3  C3  UNL     1     -40.890   5.915  -1.204  1.00 20.00     0.127 C 
HETATM    4  C4  UNL     1     -41.862   4.741  -1.574  1.00 20.00    -0.015 C 
HETATM    5  C5  UNL     1     -43.416   4.164   0.525  1.00 20.00     0.011 C 
HETATM    6  C6  UNL     1     -43.103   5.163  -2.363  1.00 20.00     0.018 C 
ENDROOT
BRANCH   4   7
HETATM    7  C8  UNL     1     -41.162   3.565  -2.255  1.00 20.00     0.007 C 
HETATM    8  C7  UNL     1     -42.094   2.806  -3.141  1.00 20.00     0.006 C 
ENDBRANCH   4   7
BRANCH   3   9
HETATM    9  O9  UNL     1     -40.943   7.084  -2.041  1.00 20.00    -0.395 OA
HETATM   10  H25 UNL     1     -40.981   6.756  -2.948  1.00 20.00     0.210 HD
ENDBRANCH   3   9
TORSDOF 2
ENDMDL
