MODEL 1
REMARK VINA RESULT:      -4.4      0.000      0.000
REMARK  2 active torsions:
REMARK  status: ('A' for Active; 'I' for Inactive)
REMARK    1  A    between atoms: C3_3  and  C9_9 
REMARK    2  A    between atoms: C4_4  and  C10_10 
ROOT
HETATM    1  C1  UNL     1     -33.895  13.646  -4.037  1.00 20.00     0.131 C 
HETATM    2  C2  UNL     1     -34.681  13.851  -5.345  1.00 20.00     0.084 C 
HETATM    3  C3  UNL     1     -34.849  14.575  -3.250  1.00 20.00     0.060 C 
HETATM    4  C4  UNL     1     -35.816  14.467  -4.481  1.00 20.00     0.011 C 
HETATM    5  O11 UNL     1     -32.907  13.007  -3.743  1.00 20.00    -0.298 OA
ENDROOT
BRANCH   4   6
HETATM    6  C10 UNL     1     -36.450  15.730  -5.035  1.00 20.00    -0.047 C 
HETATM    7  C6  UNL     1     -35.357  16.712  -5.499  1.00 20.00     0.015 C 
HETATM    8  C7  UNL     1     -37.306  16.413  -3.950  1.00 20.00     0.015 C 
HETATM    9  C8  UNL     1     -37.354  15.385  -6.236  1.00 20.00     0.015 C 
ENDBRANCH   4   6
BRANCH   3  10
HETATM   10  C9  UNL     1     -34.248  15.919  -2.878  1.00 20.00     0.008 C 
HETATM   11  C5  UNL     1     -34.591  16.319  -1.478  1.00 20.00     0.006 C 
ENDBRANCH   3  10
TORSDOF 2
ENDMDL
MODEL 2
REMARK VINA RESULT:      -4.4      1.368      1.835
REMARK  2 active torsions:
REMARK  status: ('A' for Active; 'I' for Inactive)
REMARK    1  A    between atoms: C3_3  and  C9_9 
REMARK    2  A    between atoms: C4_4  and  C10_10 
ROOT
HETATM    1  C1  UNL     1     -35.054  13.732  -4.604  1.00 20.00     0.131 C 
HETATM    2  C2  UNL     1     -34.866  14.453  -5.952  1.00 20.00     0.084 C 
HETATM    3  C3  UNL     1     -35.337  15.062  -3.866  1.00 20.00     0.060 C 
HETATM    4  C4  UNL     1     -35.502  15.705  -5.288  1.00 20.00     0.011 C 
HETATM    5  O11 UNL     1     -34.996  12.571  -4.259  1.00 20.00    -0.298 OA
ENDROOT
BRANCH   4   6
HETATM    6  C10 UNL     1     -34.816  17.025  -5.585  1.00 20.00    -0.047 C 
HETATM    7  C6  UNL     1     -33.314  16.929  -5.252  1.00 20.00     0.015 C 
HETATM    8  C7  UNL     1     -35.443  18.150  -4.737  1.00 20.00     0.015 C 
HETATM    9  C8  UNL     1     -34.975  17.380  -7.077  1.00 20.00     0.015 C 
ENDBRANCH   4   6
BRANCH   3  10
HETATM   10  C9  UNL     1     -34.213  15.522  -2.955  1.00 20.00     0.008 C 
HETATM   11  C5  UNL     1     -34.730  16.156  -1.702  1.00 20.00     0.006 C 
ENDBRANCH   3  10
TORSDOF 2
ENDMDL
MODEL 3
REMARK VINA RESULT:      -4.3      1.725      3.510
REMARK  2 active torsions:
REMARK  status: ('A' for Active; 'I' for Inactive)
REMARK    1  A    between atoms: C3_3  and  C9_9 
REMARK    2  A    between atoms: C4_4  and  C10_10 
ROOT
HETATM    1  C1  UNL     1     -34.751  13.701  -4.416  1.00 20.00     0.131 C 
HETATM    2  C2  UNL     1     -34.661  14.759  -3.302  1.00 20.00     0.084 C 
HETATM    3  C3  UNL     1     -34.293  14.712  -5.493  1.00 20.00     0.060 C 
HETATM    4  C4  UNL     1     -33.865  15.641  -4.303  1.00 20.00     0.011 C 
HETATM    5  O11 UNL     1     -35.065  12.530  -4.438  1.00 20.00    -0.298 OA
ENDROOT
BRANCH   4   6
HETATM    6  C10 UNL     1     -34.252  17.108  -4.337  1.00 20.00    -0.047 C 
HETATM    7  C6  UNL     1     -35.784  17.251  -4.425  1.00 20.00     0.015 C 
HETATM    8  C7  UNL     1     -33.616  17.796  -5.561  1.00 20.00     0.015 C 
HETATM    9  C8  UNL     1     -33.759  17.814  -3.058  1.00 20.00     0.015 C 
ENDBRANCH   4   6
BRANCH   3  10
HETATM   10  C9  UNL     1     -35.392  15.157  -6.442  1.00 20.00     0.008 C 
HETATM   11  C5  UNL     1     -35.061  14.849  -7.868  1.00 20.00     0.006 C 
ENDBRANCH   3  10
TORSDOF 2
ENDMDL
MODEL 4
REMARK VINA RESULT:      -4.2      1.568      3.188
REMARK  2 active torsions:
REMARK  status: ('A' for Active; 'I' for Inactive)
REMARK    1  A    between atoms: C3_3  and  C9_9 
REMARK    2  A    between atoms: C4_4  and  C10_10 
ROOT
HETATM    1  C1  UNL     1     -34.543  13.632  -4.586  1.00 20.00     0.131 C 
HETATM    2  C2  UNL     1     -34.521  14.335  -3.216  1.00 20.00     0.084 C 
HETATM    3  C3  UNL     1     -34.137  14.930  -5.323  1.00 20.00     0.060 C 
HETATM    4  C4  UNL     1     -33.771  15.505  -3.911  1.00 20.00     0.011 C 
HETATM    5  O11 UNL     1     -34.789  12.500  -4.945  1.00 20.00    -0.298 OA
ENDROOT
BRANCH   4   6
HETATM    6  C10 UNL     1     -34.241  16.899  -3.537  1.00 20.00    -0.047 C 
HETATM    7  C6  UNL     1     -33.652  17.936  -4.513  1.00 20.00     0.015 C 
HETATM    8  C7  UNL     1     -33.784  17.246  -2.106  1.00 20.00     0.015 C 
HETATM    9  C8  UNL     1     -35.779  16.973  -3.599  1.00 20.00     0.015 C 
ENDBRANCH   4   6
BRANCH   3  10
HETATM   10  C9  UNL     1     -35.255  15.566  -6.132  1.00 20.00     0.008 C 
HETATM   11  C5  UNL     1     -34.803  15.959  -7.502  1.00 20.00     0.006 C 
ENDBRANCH   3  10
TORSDOF 2
ENDMDL
MODEL 5
REMARK VINA RESULT:      -4.2      2.128      3.214
REMARK  2 active torsions:
REMARK  status: ('A' for Active; 'I' for Inactive)
REMARK    1  A    between atoms: C3_3  and  C9_9 
REMARK    2  A    between atoms: C4_4  and  C10_10 
ROOT
HETATM    1  C1  UNL     1     -37.173  14.753  -4.290  1.00 20.00     0.131 C 
HETATM    2  C2  UNL     1     -37.129  15.715  -5.492  1.00 20.00     0.084 C 
HETATM    3  C3  UNL     1     -35.654  14.903  -4.041  1.00 20.00     0.060 C 
HETATM    4  C4  UNL     1     -35.713  16.134  -5.010  1.00 20.00     0.011 C 
HETATM    5  O11 UNL     1     -38.058  14.120  -3.754  1.00 20.00    -0.298 OA
ENDROOT
BRANCH   4   6
HETATM    6  C10 UNL     1     -34.663  16.268  -6.099  1.00 20.00    -0.047 C 
HETATM    7  C6  UNL     1     -34.585  14.967  -6.922  1.00 20.00     0.015 C 
HETATM    8  C7  UNL     1     -33.283  16.545  -5.472  1.00 20.00     0.015 C 
HETATM    9  C8  UNL     1     -35.024  17.433  -7.041  1.00 20.00     0.015 C 
ENDBRANCH   4   6
BRANCH   3  10
HETATM   10  C9  UNL     1     -34.834  13.682  -4.418  1.00 20.00     0.008 C 
HETATM   11  C5  UNL     1     -33.595  13.558  -3.588  1.00 20.00     0.006 C 
ENDBRANCH   3  10
TORSDOF 2
ENDMDL
MODEL 6
REMARK VINA RESULT:      -4.2      2.021      3.030
REMARK  2 active torsions:
REMARK  status: ('A' for Active; 'I' for Inactive)
REMARK    1  A    between atoms: C3_3  and  C9_9 
REMARK    2  A    between atoms: C4_4  and  C10_10 
ROOT
HETATM    1  C1  UNL     1     -36.596  15.066  -3.995  1.00 20.00     0.131 C 
HETATM    2  C2  UNL     1     -35.999  15.490  -5.350  1.00 20.00     0.084 C 
HETATM    3  C3  UNL     1     -35.872  16.212  -3.251  1.00 20.00     0.060 C 
HETATM    4  C4  UNL     1     -35.588  16.824  -4.667  1.00 20.00     0.011 C 
HETATM    5  O11 UNL     1     -37.341  14.174  -3.649  1.00 20.00    -0.298 OA
ENDROOT
BRANCH   4   6
HETATM    6  C10 UNL     1     -34.191  17.322  -4.990  1.00 20.00    -0.047 C 
HETATM    7  C6  UNL     1     -34.132  17.832  -6.443  1.00 20.00     0.015 C 
HETATM    8  C7  UNL     1     -33.169  16.179  -4.821  1.00 20.00     0.015 C 
HETATM    9  C8  UNL     1     -33.808  18.475  -4.041  1.00 20.00     0.015 C 
ENDBRANCH   4   6
BRANCH   3  10
HETATM   10  C9  UNL     1     -34.715  15.759  -2.378  1.00 20.00     0.008 C 
HETATM   11  C5  UNL     1     -34.674  16.493  -1.075  1.00 20.00     0.006 C 
ENDBRANCH   3  10
TORSDOF 2
ENDMDL
MODEL 7
REMARK VINA RESULT:      -4.1      1.483      3.148
REMARK  2 active torsions:
REMARK  status: ('A' for Active; 'I' for Inactive)
REMARK    1  A    between atoms: C3_3  and  C9_9 
REMARK    2  A    between atoms: C4_4  and  C10_10 
ROOT
HETATM    1  C1  UNL     1     -34.817  13.751  -4.388  1.00 20.00     0.131 C 
HETATM    2  C2  UNL     1     -33.773  14.629  -3.673  1.00 20.00     0.084 C 
HETATM    3  C3  UNL     1     -35.821  14.924  -4.485  1.00 20.00     0.060 C 
HETATM    4  C4  UNL     1     -34.621  15.858  -4.100  1.00 20.00     0.011 C 
HETATM    5  O11 UNL     1     -34.841  12.590  -4.735  1.00 20.00    -0.298 OA
ENDROOT
BRANCH   4   6
HETATM    6  C10 UNL     1     -34.824  16.918  -3.032  1.00 20.00    -0.047 C 
HETATM    7  C6  UNL     1     -36.183  17.617  -3.230  1.00 20.00     0.015 C 
HETATM    8  C7  UNL     1     -33.703  17.974  -3.114  1.00 20.00     0.015 C 
HETATM    9  C8  UNL     1     -34.795  16.271  -1.633  1.00 20.00     0.015 C 
ENDBRANCH   4   6
BRANCH   3  10
HETATM   10  C9  UNL     1     -37.014  14.804  -3.553  1.00 20.00     0.008 C 
HETATM   11  C5  UNL     1     -38.311  14.797  -4.300  1.00 20.00     0.006 C 
ENDBRANCH   3  10
TORSDOF 2
ENDMDL
MODEL 8
REMARK VINA RESULT:      -4.1      2.532      4.309
REMARK  2 active torsions:
REMARK  status: ('A' for Active; 'I' for Inactive)
REMARK    1  A    between atoms: C3_3  and  C9_9 
REMARK    2  A    between atoms: C4_4  and  C10_10 
ROOT
HETATM    1  C1  UNL     1     -33.947  17.987  -5.916  1.00 20.00     0.131 C 
HETATM    2  C2  UNL     1     -33.663  17.937  -4.404  1.00 20.00     0.084 C 
HETATM    3  C3  UNL     1     -34.782  16.686  -5.861  1.00 20.00     0.060 C 
HETATM    4  C4  UNL     1     -34.784  16.865  -4.302  1.00 20.00     0.011 C 
HETATM    5  O11 UNL     1     -33.632  18.750  -6.804  1.00 20.00    -0.298 OA
ENDROOT
BRANCH   4   6
HETATM    6  C10 UNL     1     -34.471  15.670  -3.421  1.00 20.00    -0.047 C 
HETATM    7  C6  UNL     1     -34.613  16.055  -1.936  1.00 20.00     0.015 C 
HETATM    8  C7  UNL     1     -33.029  15.187  -3.675  1.00 20.00     0.015 C 
HETATM    9  C8  UNL     1     -35.444  14.515  -3.731  1.00 20.00     0.015 C 
ENDBRANCH   4   6
BRANCH   3  10
HETATM   10  C9  UNL     1     -34.102  15.479  -6.482  1.00 20.00     0.008 C 
HETATM   11  C5  UNL     1     -34.992  14.770  -7.453  1.00 20.00     0.006 C 
ENDBRANCH   3  10
TORSDOF 2
ENDMDL
MODEL 9
REMARK VINA RESULT:      -4.1      2.238      3.161
REMARK  2 active torsions:
REMARK  status: ('A' for Active; 'I' for Inactive)
REMARK    1  A    between atoms: C3_3  and  C9_9 
REMARK    2  A    between atoms: C4_4  and  C10_10 
ROOT
HETATM    1  C1  UNL     1     -33.678  17.912  -4.272  1.00 20.00     0.131 C 
HETATM    2  C2  UNL     1     -34.039  17.421  -5.686  1.00 20.00     0.084 C 
HETATM    3  C3  UNL     1     -33.727  16.476  -3.698  1.00 20.00     0.060 C 
HETATM    4  C4  UNL     1     -33.726  15.983  -5.187  1.00 20.00     0.011 C 
HETATM    5  O11 UNL     1     -33.449  19.003  -3.796  1.00 20.00    -0.298 OA
ENDROOT
BRANCH   4   6
HETATM    6  C10 UNL     1     -34.715  14.912  -5.611  1.00 20.00    -0.047 C 
HETATM    7  C6  UNL     1     -34.613  14.667  -7.129  1.00 20.00     0.015 C 
HETATM    8  C7  UNL     1     -36.152  15.355  -5.273  1.00 20.00     0.015 C 
HETATM    9  C8  UNL     1     -34.415  13.593  -4.872  1.00 20.00     0.015 C 
ENDBRANCH   4   6
BRANCH   3  10
HETATM   10  C9  UNL     1     -34.928  16.198  -2.811  1.00 20.00     0.008 C 
HETATM   11  C5  UNL     1     -34.603  16.364  -1.359  1.00 20.00     0.006 C 
ENDBRANCH   3  10
TORSDOF 2
ENDMDL
