MODEL 1
REMARK VINA RESULT:      -4.4      0.000      0.000
REMARK  2 active torsions:
REMARK  status: ('A' for Active; 'I' for Inactive)
REMARK    1  A    between atoms: C4_4  and  C7_7 
REMARK    2  A    between atoms: C6_6  and  C9_9 
ROOT
HETATM    1  C5  UNL     1     -33.560  17.553  -1.209  1.00 20.00     0.021 A 
HETATM    2  C6  UNL     1     -34.639  16.885  -0.411  1.00 20.00     0.009 A 
HETATM    3  C7  UNL     1     -34.831  17.102  -1.913  1.00 20.00    -0.012 A 
HETATM    4  C8  UNL     1     -35.779  18.154  -2.416  1.00 20.00     0.021 C 
ENDROOT
BRANCH   3   5
HETATM    5  C4  UNL     1     -34.723  15.826  -2.796  1.00 20.00    -0.043 A 
HETATM    6  C1  UNL     1     -33.489  15.254  -3.217  1.00 20.00     0.015 A 
HETATM    7  C2  UNL     1     -33.677  14.129  -3.991  1.00 20.00     0.050 A 
HETATM    8  S10 UNL     1     -35.337  13.769  -4.206  1.00 20.00    -0.113 SA
HETATM    9  C3  UNL     1     -35.808  15.119  -3.263  1.00 20.00     0.057 A 
ENDBRANCH   3   5
BRANCH   2  10
HETATM   10  C9  UNL     1     -35.402  17.653   0.614  1.00 20.00     0.090 C 
HETATM   11 BR11 UNL     1     -34.180  18.522   1.863  1.00 20.00    -0.096 Br
ENDBRANCH   2  10
TORSDOF 2
ENDMDL
MODEL 2
REMARK VINA RESULT:      -4.3      3.825      5.252
REMARK  2 active torsions:
REMARK  status: ('A' for Active; 'I' for Inactive)
REMARK    1  A    between atoms: C4_4  and  C7_7 
REMARK    2  A    between atoms: C6_6  and  C9_9 
ROOT
HETATM    1  C5  UNL     1     -33.335  16.584  -5.195  1.00 20.00     0.021 A 
HETATM    2  C6  UNL     1     -34.539  15.719  -4.977  1.00 20.00     0.009 A 
HETATM    3  C7  UNL     1     -33.496  15.858  -3.868  1.00 20.00    -0.012 A 
HETATM    4  C8  UNL     1     -32.559  14.726  -3.555  1.00 20.00     0.021 C 
ENDROOT
BRANCH   3   5
HETATM    5  C4  UNL     1     -33.923  16.724  -2.648  1.00 20.00    -0.043 A 
HETATM    6  C1  UNL     1     -34.569  16.203  -1.490  1.00 20.00     0.015 A 
HETATM    7  C2  UNL     1     -34.837  17.184  -0.561  1.00 20.00     0.050 A 
HETATM    8  S10 UNL     1     -34.310  18.727  -1.087  1.00 20.00    -0.113 SA
HETATM    9  C3  UNL     1     -33.722  18.084  -2.561  1.00 20.00     0.057 A 
ENDBRANCH   3   5
BRANCH   2  10
HETATM   10  C9  UNL     1     -34.714  14.462  -5.759  1.00 20.00     0.090 C 
HETATM   11 BR11 UNL     1     -34.997  14.868  -7.647  1.00 20.00    -0.096 Br
ENDBRANCH   2  10
TORSDOF 2
ENDMDL
MODEL 3
REMARK VINA RESULT:      -4.2      3.584      5.072
REMARK  2 active torsions:
REMARK  status: ('A' for Active; 'I' for Inactive)
REMARK    1  A    between atoms: C4_4  and  C7_7 
REMARK    2  A    between atoms: C6_6  and  C9_9 
ROOT
HETATM    1  C5  UNL     1     -34.367  13.760  -3.489  1.00 20.00     0.021 A 
HETATM    2  C6  UNL     1     -34.338  14.578  -4.745  1.00 20.00     0.009 A 
HETATM    3  C7  UNL     1     -35.196  15.035  -3.564  1.00 20.00    -0.012 A 
HETATM    4  C8  UNL     1     -36.692  14.911  -3.615  1.00 20.00     0.021 C 
ENDROOT
BRANCH   3   5
HETATM    5  C4  UNL     1     -34.656  16.262  -2.776  1.00 20.00    -0.043 A 
HETATM    6  C1  UNL     1     -34.548  16.311  -1.356  1.00 20.00     0.015 A 
HETATM    7  C2  UNL     1     -34.041  17.514  -0.916  1.00 20.00     0.050 A 
HETATM    8  S10 UNL     1     -33.698  18.578  -2.213  1.00 20.00    -0.113 SA
HETATM    9  C3  UNL     1     -34.228  17.430  -3.367  1.00 20.00     0.057 A 
ENDBRANCH   3   5
BRANCH   2  10
HETATM   10  C9  UNL     1     -34.929  14.044  -6.005  1.00 20.00     0.090 C 
HETATM   11 BR11 UNL     1     -34.770  15.354  -7.442  1.00 20.00    -0.096 Br
ENDBRANCH   2  10
TORSDOF 2
ENDMDL
MODEL 4
REMARK VINA RESULT:      -4.2      3.487      4.939
REMARK  2 active torsions:
REMARK  status: ('A' for Active; 'I' for Inactive)
REMARK    1  A    between atoms: C4_4  and  C7_7 
REMARK    2  A    between atoms: C6_6  and  C9_9 
ROOT
HETATM    1  C5  UNL     1     -35.338  15.948  -2.586  1.00 20.00     0.021 A 
HETATM    2  C6  UNL     1     -33.908  15.503  -2.543  1.00 20.00     0.009 A 
HETATM    3  C7  UNL     1     -34.245  16.985  -2.380  1.00 20.00    -0.012 A 
HETATM    4  C8  UNL     1     -33.965  17.957  -3.491  1.00 20.00     0.021 C 
ENDROOT
BRANCH   3   5
HETATM    5  C4  UNL     1     -34.089  17.557  -0.942  1.00 20.00    -0.043 A 
HETATM    6  C1  UNL     1     -35.012  17.310   0.115  1.00 20.00     0.015 A 
HETATM    7  C2  UNL     1     -34.638  17.935   1.285  1.00 20.00     0.050 A 
HETATM    8  S10 UNL     1     -33.179  18.815   1.105  1.00 20.00    -0.113 SA
HETATM    9  C3  UNL     1     -33.045  18.361  -0.541  1.00 20.00     0.057 A 
ENDBRANCH   3   5
BRANCH   2  10
HETATM   10  C9  UNL     1     -33.251  14.959  -3.765  1.00 20.00     0.090 C 
HETATM   11 BR11 UNL     1     -34.333  13.534  -4.544  1.00 20.00    -0.096 Br
ENDBRANCH   2  10
TORSDOF 2
ENDMDL
MODEL 5
REMARK VINA RESULT:      -4.1      2.502      3.628
REMARK  2 active torsions:
REMARK  status: ('A' for Active; 'I' for Inactive)
REMARK    1  A    between atoms: C4_4  and  C7_7 
REMARK    2  A    between atoms: C6_6  and  C9_9 
ROOT
HETATM    1  C5  UNL     1     -35.893  15.168  -3.060  1.00 20.00     0.021 A 
HETATM    2  C6  UNL     1     -34.808  16.156  -3.364  1.00 20.00     0.009 A 
HETATM    3  C7  UNL     1     -34.848  14.823  -4.111  1.00 20.00    -0.012 A 
HETATM    4  C8  UNL     1     -33.852  13.743  -3.800  1.00 20.00     0.021 C 
ENDROOT
BRANCH   3   5
HETATM    5  C4  UNL     1     -35.305  14.899  -5.596  1.00 20.00    -0.043 A 
HETATM    6  C1  UNL     1     -34.415  14.819  -6.707  1.00 20.00     0.015 A 
HETATM    7  C2  UNL     1     -35.079  14.914  -7.910  1.00 20.00     0.050 A 
HETATM    8  S10 UNL     1     -36.769  15.099  -7.698  1.00 20.00    -0.113 SA
HETATM    9  C3  UNL     1     -36.615  15.053  -5.993  1.00 20.00     0.057 A 
ENDBRANCH   3   5
BRANCH   2  10
HETATM   10  C9  UNL     1     -33.769  16.471  -2.342  1.00 20.00     0.090 C 
HETATM   11 BR11 UNL     1     -34.601  17.131  -0.705  1.00 20.00    -0.096 Br
ENDBRANCH   2  10
TORSDOF 2
ENDMDL
MODEL 6
REMARK VINA RESULT:      -4.1      3.454      4.958
REMARK  2 active torsions:
REMARK  status: ('A' for Active; 'I' for Inactive)
REMARK    1  A    between atoms: C4_4  and  C7_7 
REMARK    2  A    between atoms: C6_6  and  C9_9 
ROOT
HETATM    1  C5  UNL     1     -34.246  14.093  -3.531  1.00 20.00     0.021 A 
HETATM    2  C6  UNL     1     -34.308  15.098  -4.641  1.00 20.00     0.009 A 
HETATM    3  C7  UNL     1     -35.422  15.057  -3.595  1.00 20.00    -0.012 A 
HETATM    4  C8  UNL     1     -36.776  14.509  -3.944  1.00 20.00     0.021 C 
ENDROOT
BRANCH   3   5
HETATM    5  C4  UNL     1     -35.421  16.224  -2.566  1.00 20.00    -0.043 A 
HETATM    6  C1  UNL     1     -34.572  16.277  -1.424  1.00 20.00     0.015 A 
HETATM    7  C2  UNL     1     -34.775  17.418  -0.679  1.00 20.00     0.050 A 
HETATM    8  S10 UNL     1     -35.987  18.419  -1.358  1.00 20.00    -0.113 SA
HETATM    9  C3  UNL     1     -36.243  17.326  -2.651  1.00 20.00     0.057 A 
ENDBRANCH   3   5
BRANCH   2  10
HETATM   10  C9  UNL     1     -34.513  14.653  -6.049  1.00 20.00     0.090 C 
HETATM   11 BR11 UNL     1     -34.652  16.193  -7.239  1.00 20.00    -0.096 Br
ENDBRANCH   2  10
TORSDOF 2
ENDMDL
MODEL 7
REMARK VINA RESULT:      -3.8      2.910      3.523
REMARK  2 active torsions:
REMARK  status: ('A' for Active; 'I' for Inactive)
REMARK    1  A    between atoms: C4_4  and  C7_7 
REMARK    2  A    between atoms: C6_6  and  C9_9 
ROOT
HETATM    1  C5  UNL     1     -33.040  15.854  -4.200  1.00 20.00     0.021 A 
HETATM    2  C6  UNL     1     -34.252  16.464  -3.564  1.00 20.00     0.009 A 
HETATM    3  C7  UNL     1     -33.970  16.713  -5.046  1.00 20.00    -0.012 A 
HETATM    4  C8  UNL     1     -33.475  18.052  -5.513  1.00 20.00     0.021 C 
ENDROOT
BRANCH   3   5
HETATM    5  C4  UNL     1     -34.897  15.961  -6.043  1.00 20.00    -0.043 A 
HETATM    6  C1  UNL     1     -34.453  14.928  -6.917  1.00 20.00     0.015 A 
HETATM    7  C2  UNL     1     -35.477  14.432  -7.695  1.00 20.00     0.050 A 
HETATM    8  S10 UNL     1     -36.966  15.212  -7.368  1.00 20.00    -0.113 SA
HETATM    9  C3  UNL     1     -36.243  16.217  -6.185  1.00 20.00     0.057 A 
ENDBRANCH   3   5
BRANCH   2  10
HETATM   10  C9  UNL     1     -34.104  17.528  -2.530  1.00 20.00     0.090 C 
HETATM   11 BR11 UNL     1     -34.573  16.835  -0.767  1.00 20.00    -0.096 Br
ENDBRANCH   2  10
TORSDOF 2
ENDMDL
MODEL 8
REMARK VINA RESULT:      -3.8      1.840      2.366
REMARK  2 active torsions:
REMARK  status: ('A' for Active; 'I' for Inactive)
REMARK    1  A    between atoms: C4_4  and  C7_7 
REMARK    2  A    between atoms: C6_6  and  C9_9 
ROOT
HETATM    1  C5  UNL     1     -34.787  16.877  -0.204  1.00 20.00     0.021 A 
HETATM    2  C6  UNL     1     -35.497  18.078  -0.751  1.00 20.00     0.009 A 
HETATM    3  C7  UNL     1     -34.042  17.816  -1.142  1.00 20.00    -0.012 A 
HETATM    4  C8  UNL     1     -32.937  18.660  -0.575  1.00 20.00     0.021 C 
ENDROOT
BRANCH   3   5
HETATM    5  C4  UNL     1     -33.817  17.313  -2.596  1.00 20.00    -0.043 A 
HETATM    6  C1  UNL     1     -33.584  15.950  -2.939  1.00 20.00     0.015 A 
HETATM    7  C2  UNL     1     -33.416  15.779  -4.296  1.00 20.00     0.050 A 
HETATM    8  S10 UNL     1     -33.538  17.259  -5.150  1.00 20.00    -0.113 SA
HETATM    9  C3  UNL     1     -33.817  18.132  -3.704  1.00 20.00     0.057 A 
ENDBRANCH   3   5
BRANCH   2  10
HETATM   10  C9  UNL     1     -35.896  19.193   0.154  1.00 20.00     0.090 C 
HETATM   11 BR11 UNL     1     -36.172  18.532   1.970  1.00 20.00    -0.096 Br
ENDBRANCH   2  10
TORSDOF 2
ENDMDL
MODEL 9
REMARK VINA RESULT:      -3.8      3.832      5.157
REMARK  2 active torsions:
REMARK  status: ('A' for Active; 'I' for Inactive)
REMARK    1  A    between atoms: C4_4  and  C7_7 
REMARK    2  A    between atoms: C6_6  and  C9_9 
ROOT
HETATM    1  C5  UNL     1     -35.821  16.523  -5.379  1.00 20.00     0.021 A 
HETATM    2  C6  UNL     1     -35.502  15.147  -4.876  1.00 20.00     0.009 A 
HETATM    3  C7  UNL     1     -34.657  16.336  -4.417  1.00 20.00    -0.012 A 
HETATM    4  C8  UNL     1     -33.262  16.527  -4.940  1.00 20.00     0.021 C 
ENDROOT
BRANCH   3   5
HETATM    5  C4  UNL     1     -34.886  16.796  -2.949  1.00 20.00    -0.043 A 
HETATM    6  C1  UNL     1     -34.252  16.201  -1.820  1.00 20.00     0.015 A 
HETATM    7  C2  UNL     1     -34.631  16.798  -0.638  1.00 20.00     0.050 A 
HETATM    8  S10 UNL     1     -35.746  18.073  -0.892  1.00 20.00    -0.113 SA
HETATM    9  C3  UNL     1     -35.725  17.827  -2.587  1.00 20.00     0.057 A 
ENDBRANCH   3   5
BRANCH   2  10
HETATM   10  C9  UNL     1     -34.983  14.107  -5.809  1.00 20.00     0.090 C 
HETATM   11 BR11 UNL     1     -35.429  14.561  -7.653  1.00 20.00    -0.096 Br
ENDBRANCH   2  10
TORSDOF 2
ENDMDL
