MODEL 1
REMARK VINA RESULT:      -4.4      0.000      0.000
REMARK  2 active torsions:
REMARK  status: ('A' for Active; 'I' for Inactive)
REMARK    1  A    between atoms: C4_4  and  C7_7 
REMARK    2  A    between atoms: C6_6  and  C10_10 
ROOT
HETATM    1  C1  UNL     1     -35.293  14.335  -7.170  1.00 20.00     0.015 A 
HETATM    2  C2  UNL     1     -35.118  15.541  -7.811  1.00 20.00     0.051 A 
HETATM    3  C3  UNL     1     -34.833  14.374  -5.822  1.00 20.00    -0.048 A 
HETATM    4  C4  UNL     1     -34.325  15.609  -5.483  1.00 20.00    -0.003 A 
HETATM    5  C8  UNL     1     -34.901  13.211  -4.904  1.00 20.00     0.049 C 
HETATM    6  S11 UNL     1     -34.403  16.714  -6.789  1.00 20.00    -0.105 SA
ENDROOT
BRANCH   4   7
HETATM    7  C7  UNL     1     -33.743  15.979  -4.090  1.00 20.00    -0.005 A 
HETATM    8  C5  UNL     1     -33.764  17.452  -3.712  1.00 20.00     0.021 A 
HETATM    9  C6  UNL     1     -34.751  16.520  -3.075  1.00 20.00     0.010 A 
HETATM   10  C9  UNL     1     -32.579  15.143  -3.637  1.00 20.00     0.021 C 
BRANCH   9  11
HETATM   11  C10 UNL     1     -34.663  16.213  -1.619  1.00 20.00     0.091 C 
HETATM   12 BR12 UNL     1     -33.872  17.713  -0.653  1.00 20.00    -0.096 Br
ENDBRANCH   9  11
ENDBRANCH   4   7
TORSDOF 2
ENDMDL
MODEL 2
REMARK VINA RESULT:      -4.4      2.146      2.813
REMARK  2 active torsions:
REMARK  status: ('A' for Active; 'I' for Inactive)
REMARK    1  A    between atoms: C4_4  and  C7_7 
REMARK    2  A    between atoms: C6_6  and  C10_10 
ROOT
HETATM    1  C1  UNL     1     -34.145  13.371  -4.357  1.00 20.00     0.015 A 
HETATM    2  C2  UNL     1     -35.520  13.343  -4.448  1.00 20.00     0.051 A 
HETATM    3  C3  UNL     1     -33.672  14.587  -3.783  1.00 20.00    -0.048 A 
HETATM    4  C4  UNL     1     -34.703  15.442  -3.457  1.00 20.00    -0.003 A 
HETATM    5  C8  UNL     1     -32.234  14.882  -3.570  1.00 20.00     0.049 C 
HETATM    6  S11 UNL     1     -36.234  14.777  -3.843  1.00 20.00    -0.105 SA
ENDROOT
BRANCH   4   7
HETATM    7  C7  UNL     1     -34.523  16.846  -2.816  1.00 20.00    -0.005 A 
HETATM    8  C5  UNL     1     -35.620  17.308  -1.868  1.00 20.00     0.021 A 
HETATM    9  C6  UNL     1     -34.306  16.860  -1.302  1.00 20.00     0.010 A 
HETATM   10  C9  UNL     1     -33.858  17.871  -3.690  1.00 20.00     0.021 C 
BRANCH   9  11
HETATM   11  C10 UNL     1     -33.403  17.838  -0.631  1.00 20.00     0.091 C 
HETATM   12 BR12 UNL     1     -34.132  18.360   1.103  1.00 20.00    -0.096 Br
ENDBRANCH   9  11
ENDBRANCH   4   7
TORSDOF 2
ENDMDL
MODEL 3
REMARK VINA RESULT:      -4.3      2.371      3.101
REMARK  2 active torsions:
REMARK  status: ('A' for Active; 'I' for Inactive)
REMARK    1  A    between atoms: C4_4  and  C7_7 
REMARK    2  A    between atoms: C6_6  and  C10_10 
ROOT
HETATM    1  C1  UNL     1     -35.081  13.618  -4.166  1.00 20.00     0.015 A 
HETATM    2  C2  UNL     1     -33.705  13.588  -4.225  1.00 20.00     0.051 A 
HETATM    3  C3  UNL     1     -35.564  14.808  -3.550  1.00 20.00    -0.048 A 
HETATM    4  C4  UNL     1     -34.539  15.643  -3.161  1.00 20.00    -0.003 A 
HETATM    5  C8  UNL     1     -37.006  15.097  -3.356  1.00 20.00     0.049 C 
HETATM    6  S11 UNL     1     -33.002  14.991  -3.540  1.00 20.00    -0.105 SA
ENDROOT
BRANCH   4   7
HETATM    7  C7  UNL     1     -34.731  17.017  -2.459  1.00 20.00    -0.005 A 
HETATM    8  C5  UNL     1     -35.041  16.984  -0.971  1.00 20.00     0.021 A 
HETATM    9  C6  UNL     1     -33.668  17.384  -1.422  1.00 20.00     0.010 A 
HETATM   10  C9  UNL     1     -35.375  18.083  -3.299  1.00 20.00     0.021 C 
BRANCH   9  11
HETATM   11  C10 UNL     1     -33.189  18.781  -1.226  1.00 20.00     0.091 C 
HETATM   12 BR12 UNL     1     -32.072  18.901   0.371  1.00 20.00    -0.096 Br
ENDBRANCH   9  11
ENDBRANCH   4   7
TORSDOF 2
ENDMDL
MODEL 4
REMARK VINA RESULT:      -4.3      1.680      2.759
REMARK  2 active torsions:
REMARK  status: ('A' for Active; 'I' for Inactive)
REMARK    1  A    between atoms: C4_4  and  C7_7 
REMARK    2  A    between atoms: C6_6  and  C10_10 
ROOT
HETATM    1  C1  UNL     1     -34.324  15.095  -6.251  1.00 20.00     0.015 A 
HETATM    2  C2  UNL     1     -34.931  13.972  -5.731  1.00 20.00     0.051 A 
HETATM    3  C3  UNL     1     -34.311  16.175  -5.322  1.00 20.00    -0.048 A 
HETATM    4  C4  UNL     1     -34.909  15.838  -4.127  1.00 20.00    -0.003 A 
HETATM    5  C8  UNL     1     -33.721  17.502  -5.624  1.00 20.00     0.049 C 
HETATM    6  S11 UNL     1     -35.482  14.224  -4.129  1.00 20.00    -0.105 SA
ENDROOT
BRANCH   4   7
HETATM    7  C7  UNL     1     -35.059  16.792  -2.909  1.00 20.00    -0.005 A 
HETATM    8  C5  UNL     1     -34.807  16.188  -1.536  1.00 20.00     0.021 A 
HETATM    9  C6  UNL     1     -33.771  17.089  -2.139  1.00 20.00     0.010 A 
HETATM   10  C9  UNL     1     -36.126  17.841  -3.041  1.00 20.00     0.021 C 
BRANCH   9  11
HETATM   11  C10 UNL     1     -33.489  18.422  -1.534  1.00 20.00     0.091 C 
HETATM   12 BR12 UNL     1     -33.815  18.379   0.390  1.00 20.00    -0.096 Br
ENDBRANCH   9  11
ENDBRANCH   4   7
TORSDOF 2
ENDMDL
MODEL 5
REMARK VINA RESULT:      -4.2      1.440      1.585
REMARK  2 active torsions:
REMARK  status: ('A' for Active; 'I' for Inactive)
REMARK    1  A    between atoms: C4_4  and  C7_7 
REMARK    2  A    between atoms: C6_6  and  C10_10 
ROOT
HETATM    1  C1  UNL     1     -37.054  15.205  -6.914  1.00 20.00     0.015 A 
HETATM    2  C2  UNL     1     -36.009  15.354  -7.800  1.00 20.00     0.051 A 
HETATM    3  C3  UNL     1     -36.602  15.095  -5.567  1.00 20.00    -0.048 A 
HETATM    4  C4  UNL     1     -35.229  15.164  -5.474  1.00 20.00    -0.003 A 
HETATM    5  C8  UNL     1     -37.518  14.925  -4.412  1.00 20.00     0.049 C 
HETATM    6  S11 UNL     1     -34.491  15.361  -7.007  1.00 20.00    -0.105 SA
ENDROOT
BRANCH   4   7
HETATM    7  C7  UNL     1     -34.423  15.075  -4.147  1.00 20.00    -0.005 A 
HETATM    8  C5  UNL     1     -33.273  16.056  -3.981  1.00 20.00     0.021 A 
HETATM    9  C6  UNL     1     -34.544  16.284  -3.218  1.00 20.00     0.010 A 
HETATM   10  C9  UNL     1     -34.268  13.692  -3.582  1.00 20.00     0.021 C 
BRANCH   9  11
HETATM   11  C10 UNL     1     -34.562  16.154  -1.733  1.00 20.00     0.091 C 
HETATM   12 BR12 UNL     1     -33.697  17.694  -0.903  1.00 20.00    -0.096 Br
ENDBRANCH   9  11
ENDBRANCH   4   7
TORSDOF 2
ENDMDL
MODEL 6
REMARK VINA RESULT:      -4.1      3.061      4.788
REMARK  2 active torsions:
REMARK  status: ('A' for Active; 'I' for Inactive)
REMARK    1  A    between atoms: C4_4  and  C7_7 
REMARK    2  A    between atoms: C6_6  and  C10_10 
ROOT
HETATM    1  C1  UNL     1     -34.469  16.541  -1.009  1.00 20.00     0.015 A 
HETATM    2  C2  UNL     1     -33.798  17.707  -0.709  1.00 20.00     0.051 A 
HETATM    3  C3  UNL     1     -34.845  16.478  -2.382  1.00 20.00    -0.048 A 
HETATM    4  C4  UNL     1     -34.446  17.598  -3.081  1.00 20.00    -0.003 A 
HETATM    5  C8  UNL     1     -35.580  15.334  -2.974  1.00 20.00     0.049 C 
HETATM    6  S11 UNL     1     -33.622  18.718  -2.080  1.00 20.00    -0.105 SA
ENDROOT
BRANCH   4   7
HETATM    7  C7  UNL     1     -34.703  17.838  -4.594  1.00 20.00    -0.005 A 
HETATM    8  C5  UNL     1     -33.599  18.540  -5.370  1.00 20.00     0.021 A 
HETATM    9  C6  UNL     1     -33.794  17.065  -5.551  1.00 20.00     0.010 A 
HETATM   10  C9  UNL     1     -36.130  18.127  -4.966  1.00 20.00     0.021 C 
BRANCH   9  11
HETATM   11  C10 UNL     1     -34.277  16.524  -6.853  1.00 20.00     0.091 C 
HETATM   12 BR12 UNL     1     -34.793  14.651  -6.665  1.00 20.00    -0.096 Br
ENDBRANCH   9  11
ENDBRANCH   4   7
TORSDOF 2
ENDMDL
MODEL 7
REMARK VINA RESULT:      -4.1      1.182      1.748
REMARK  2 active torsions:
REMARK  status: ('A' for Active; 'I' for Inactive)
REMARK    1  A    between atoms: C4_4  and  C7_7 
REMARK    2  A    between atoms: C6_6  and  C10_10 
ROOT
HETATM    1  C1  UNL     1     -34.497  14.780  -7.094  1.00 20.00     0.015 A 
HETATM    2  C2  UNL     1     -34.677  16.083  -7.504  1.00 20.00     0.051 A 
HETATM    3  C3  UNL     1     -34.774  14.611  -5.707  1.00 20.00    -0.048 A 
HETATM    4  C4  UNL     1     -35.157  15.792  -5.108  1.00 20.00    -0.003 A 
HETATM    5  C8  UNL     1     -34.659  13.309  -5.005  1.00 20.00     0.049 C 
HETATM    6  S11 UNL     1     -35.179  17.096  -6.218  1.00 20.00    -0.105 SA
ENDROOT
BRANCH   4   7
HETATM    7  C7  UNL     1     -35.527  15.947  -3.606  1.00 20.00    -0.005 A 
HETATM    8  C5  UNL     1     -34.437  15.613  -2.598  1.00 20.00     0.021 A 
HETATM    9  C6  UNL     1     -34.782  17.050  -2.852  1.00 20.00     0.010 A 
HETATM   10  C9  UNL     1     -36.949  15.612  -3.257  1.00 20.00     0.021 C 
BRANCH   9  11
HETATM   11  C10 UNL     1     -35.428  17.868  -1.786  1.00 20.00     0.091 C 
HETATM   12 BR12 UNL     1     -34.836  17.279  -0.022  1.00 20.00    -0.096 Br
ENDBRANCH   9  11
ENDBRANCH   4   7
TORSDOF 2
ENDMDL
MODEL 8
REMARK VINA RESULT:      -4.0      2.563      3.102
REMARK  2 active torsions:
REMARK  status: ('A' for Active; 'I' for Inactive)
REMARK    1  A    between atoms: C4_4  and  C7_7 
REMARK    2  A    between atoms: C6_6  and  C10_10 
ROOT
HETATM    1  C1  UNL     1     -35.399  13.516  -4.382  1.00 20.00     0.015 A 
HETATM    2  C2  UNL     1     -34.039  13.337  -4.505  1.00 20.00     0.051 A 
HETATM    3  C3  UNL     1     -35.720  14.692  -3.644  1.00 20.00    -0.048 A 
HETATM    4  C4  UNL     1     -34.592  15.368  -3.231  1.00 20.00    -0.003 A 
HETATM    5  C8  UNL     1     -37.111  15.123  -3.361  1.00 20.00     0.049 C 
HETATM    6  S11 UNL     1     -33.154  14.584  -3.734  1.00 20.00    -0.105 SA
ENDROOT
BRANCH   4   7
HETATM    7  C7  UNL     1     -34.598  16.685  -2.406  1.00 20.00    -0.005 A 
HETATM    8  C5  UNL     1     -33.703  17.808  -2.908  1.00 20.00     0.021 A 
HETATM    9  C6  UNL     1     -35.184  17.907  -3.114  1.00 20.00     0.010 A 
HETATM   10  C9  UNL     1     -34.762  16.513  -0.922  1.00 20.00     0.021 C 
BRANCH   9  11
HETATM   11  C10 UNL     1     -35.976  18.946  -2.396  1.00 20.00     0.091 C 
HETATM   12 BR12 UNL     1     -37.863  18.818  -2.877  1.00 20.00    -0.096 Br
ENDBRANCH   9  11
ENDBRANCH   4   7
TORSDOF 2
ENDMDL
MODEL 9
REMARK VINA RESULT:      -4.0      1.860      2.159
REMARK  2 active torsions:
REMARK  status: ('A' for Active; 'I' for Inactive)
REMARK    1  A    between atoms: C4_4  and  C7_7 
REMARK    2  A    between atoms: C6_6  and  C10_10 
ROOT
HETATM    1  C1  UNL     1     -37.171  15.131  -7.069  1.00 20.00     0.015 A 
HETATM    2  C2  UNL     1     -38.063  15.369  -6.047  1.00 20.00     0.051 A 
HETATM    3  C3  UNL     1     -35.825  15.089  -6.606  1.00 20.00    -0.048 A 
HETATM    4  C4  UNL     1     -35.738  15.297  -5.246  1.00 20.00    -0.003 A 
HETATM    5  C8  UNL     1     -34.663  14.850  -7.497  1.00 20.00     0.049 C 
HETATM    6  S11 UNL     1     -37.277  15.541  -4.535  1.00 20.00    -0.105 SA
ENDROOT
BRANCH   4   7
HETATM    7  C7  UNL     1     -34.414  15.313  -4.432  1.00 20.00    -0.005 A 
HETATM    8  C5  UNL     1     -33.355  16.312  -4.875  1.00 20.00     0.021 A 
HETATM    9  C6  UNL     1     -34.146  16.588  -3.631  1.00 20.00     0.010 A 
HETATM   10  C9  UNL     1     -33.962  13.978  -3.913  1.00 20.00     0.021 C 
BRANCH   9  11
HETATM   11  C10 UNL     1     -33.480  16.570  -2.297  1.00 20.00     0.091 C 
HETATM   12 BR12 UNL     1     -34.790  16.850  -0.878  1.00 20.00    -0.096 Br
ENDBRANCH   9  11
ENDBRANCH   4   7
TORSDOF 2
ENDMDL
