MODEL 1
REMARK VINA RESULT:      -4.6      0.000      0.000
REMARK  3 active torsions:
REMARK  status: ('A' for Active; 'I' for Inactive)
REMARK    1  A    between atoms: C4_4  and  C9_9 
REMARK    2  A    between atoms: C5_5  and  C6_6 
REMARK    3  A    between atoms: C9_9  and  O10_10 
ROOT
HETATM    1  C3  UNL     1     -32.499  14.861  -3.693  1.00 20.00     0.018 A 
HETATM    2  C4  UNL     1     -33.787  14.108  -3.518  1.00 20.00     0.019 A 
HETATM    3  C6  UNL     1     -33.796  15.635  -3.518  1.00 20.00    -0.031 A 
HETATM    4  C8  UNL     1     -34.011  16.292  -2.175  1.00 20.00     0.016 C 
ENDROOT
BRANCH   3   5
HETATM    5  C5  UNL     1     -34.375  16.445  -4.687  1.00 20.00    -0.036 A 
HETATM    6  C1  UNL     1     -33.582  17.577  -5.295  1.00 20.00     0.011 A 
HETATM    7  C2  UNL     1     -33.788  16.308  -6.072  1.00 20.00     0.011 A 
HETATM    8  C7  UNL     1     -35.869  16.638  -4.606  1.00 20.00     0.016 C 
ENDBRANCH   3   5
BRANCH   2   9
HETATM    9  C9  UNL     1     -34.350  13.314  -4.647  1.00 20.00     0.169 C 
BRANCH   9  10
HETATM   10  O10 UNL     1     -35.455  12.535  -4.189  1.00 20.00    -0.400 OA
HETATM   11  H26 UNL     1     -35.082  11.825  -3.645  1.00 20.00     0.209 HD
ENDBRANCH   9  10
ENDBRANCH   2   9
TORSDOF 3
ENDMDL
MODEL 2
REMARK VINA RESULT:      -4.3     11.767     13.406
REMARK  3 active torsions:
REMARK  status: ('A' for Active; 'I' for Inactive)
REMARK    1  A    between atoms: C4_4  and  C9_9 
REMARK    2  A    between atoms: C5_5  and  C6_6 
REMARK    3  A    between atoms: C9_9  and  O10_10 
ROOT
HETATM    1  C3  UNL     1     -33.863   4.904   2.849  1.00 20.00     0.018 A 
HETATM    2  C4  UNL     1     -33.578   6.361   3.078  1.00 20.00     0.019 A 
HETATM    3  C6  UNL     1     -34.646   5.657   3.912  1.00 20.00    -0.031 A 
HETATM    4  C8  UNL     1     -36.077   6.004   3.576  1.00 20.00     0.016 C 
ENDROOT
BRANCH   3   5
HETATM    5  C5  UNL     1     -34.436   5.335   5.399  1.00 20.00    -0.036 A 
HETATM    6  C1  UNL     1     -35.274   4.274   6.073  1.00 20.00     0.011 A 
HETATM    7  C2  UNL     1     -33.816   4.021   5.812  1.00 20.00     0.011 A 
HETATM    8  C7  UNL     1     -34.076   6.540   6.233  1.00 20.00     0.016 C 
ENDBRANCH   3   5
BRANCH   2   9
HETATM    9  C9  UNL     1     -32.273   6.786   3.661  1.00 20.00     0.169 C 
BRANCH   9  10
HETATM   10  O10 UNL     1     -31.713   7.842   2.880  1.00 20.00    -0.400 OA
HETATM   11  H26 UNL     1     -30.765   7.653   2.805  1.00 20.00     0.209 HD
ENDBRANCH   9  10
ENDBRANCH   2   9
TORSDOF 3
ENDMDL
MODEL 3
REMARK VINA RESULT:      -4.3      1.229      1.407
REMARK  3 active torsions:
REMARK  status: ('A' for Active; 'I' for Inactive)
REMARK    1  A    between atoms: C4_4  and  C9_9 
REMARK    2  A    between atoms: C5_5  and  C6_6 
REMARK    3  A    between atoms: C9_9  and  O10_10 
ROOT
HETATM    1  C3  UNL     1     -33.194  15.742  -3.948  1.00 20.00     0.018 A 
HETATM    2  C4  UNL     1     -33.812  14.416  -3.605  1.00 20.00     0.019 A 
HETATM    3  C6  UNL     1     -34.551  15.708  -3.264  1.00 20.00    -0.031 A 
HETATM    4  C8  UNL     1     -34.577  16.085  -1.801  1.00 20.00     0.016 C 
ENDROOT
BRANCH   3   5
HETATM    5  C5  UNL     1     -35.810  16.149  -4.024  1.00 20.00    -0.036 A 
HETATM    6  C1  UNL     1     -35.975  17.589  -4.452  1.00 20.00     0.011 A 
HETATM    7  C2  UNL     1     -35.725  16.526  -5.484  1.00 20.00     0.011 A 
HETATM    8  C7  UNL     1     -37.063  15.429  -3.588  1.00 20.00     0.016 C 
ENDBRANCH   3   5
BRANCH   2   9
HETATM    9  C9  UNL     1     -34.275  13.503  -4.688  1.00 20.00     0.169 C 
BRANCH   9  10
HETATM   10  O10 UNL     1     -35.175  12.532  -4.153  1.00 20.00    -0.400 OA
HETATM   11  H26 UNL     1     -35.137  12.626  -3.189  1.00 20.00     0.209 HD
ENDBRANCH   9  10
ENDBRANCH   2   9
TORSDOF 3
ENDMDL
MODEL 4
REMARK VINA RESULT:      -4.2      1.554      2.493
REMARK  3 active torsions:
REMARK  status: ('A' for Active; 'I' for Inactive)
REMARK    1  A    between atoms: C4_4  and  C9_9 
REMARK    2  A    between atoms: C5_5  and  C6_6 
REMARK    3  A    between atoms: C9_9  and  O10_10 
ROOT
HETATM    1  C3  UNL     1     -35.208  14.117  -5.472  1.00 20.00     0.018 A 
HETATM    2  C4  UNL     1     -35.859  14.002  -4.123  1.00 20.00     0.019 A 
HETATM    3  C6  UNL     1     -34.428  14.523  -4.232  1.00 20.00    -0.031 A 
HETATM    4  C8  UNL     1     -33.345  13.572  -3.777  1.00 20.00     0.016 C 
ENDROOT
BRANCH   3   5
HETATM    5  C5  UNL     1     -34.079  15.998  -3.988  1.00 20.00    -0.036 A 
HETATM    6  C1  UNL     1     -33.263  16.764  -5.003  1.00 20.00     0.011 A 
HETATM    7  C2  UNL     1     -34.721  17.080  -4.824  1.00 20.00     0.011 A 
HETATM    8  C7  UNL     1     -33.829  16.328  -2.537  1.00 20.00     0.016 C 
ENDBRANCH   3   5
BRANCH   2   9
HETATM    9  C9  UNL     1     -36.999  14.892  -3.763  1.00 20.00     0.169 C 
BRANCH   9  10
HETATM   10  O10 UNL     1     -38.217  14.148  -3.766  1.00 20.00    -0.400 OA
HETATM   11  H26 UNL     1     -38.797  14.569  -3.114  1.00 20.00     0.209 HD
ENDBRANCH   9  10
ENDBRANCH   2   9
TORSDOF 3
ENDMDL
MODEL 5
REMARK VINA RESULT:      -4.1      1.821      2.505
REMARK  3 active torsions:
REMARK  status: ('A' for Active; 'I' for Inactive)
REMARK    1  A    between atoms: C4_4  and  C9_9 
REMARK    2  A    between atoms: C5_5  and  C6_6 
REMARK    3  A    between atoms: C9_9  and  O10_10 
ROOT
HETATM    1  C3  UNL     1     -35.102  13.582  -4.174  1.00 20.00     0.018 A 
HETATM    2  C4  UNL     1     -35.614  14.788  -3.440  1.00 20.00     0.019 A 
HETATM    3  C6  UNL     1     -34.531  14.952  -4.503  1.00 20.00    -0.031 A 
HETATM    4  C8  UNL     1     -33.142  15.243  -3.988  1.00 20.00     0.016 C 
ENDROOT
BRANCH   3   5
HETATM    5  C5  UNL     1     -34.820  15.602  -5.864  1.00 20.00    -0.036 A 
HETATM    6  C1  UNL     1     -34.352  14.939  -7.138  1.00 20.00     0.011 A 
HETATM    7  C2  UNL     1     -35.818  14.976  -6.810  1.00 20.00     0.011 A 
HETATM    8  C7  UNL     1     -34.776  17.110  -5.835  1.00 20.00     0.016 C 
ENDBRANCH   3   5
BRANCH   2   9
HETATM    9  C9  UNL     1     -37.012  15.259  -3.655  1.00 20.00     0.169 C 
BRANCH   9  10
HETATM   10  O10 UNL     1     -37.893  14.139  -3.754  1.00 20.00    -0.400 OA
HETATM   11  H26 UNL     1     -37.702  13.716  -4.604  1.00 20.00     0.209 HD
ENDBRANCH   9  10
ENDBRANCH   2   9
TORSDOF 3
ENDMDL
MODEL 6
REMARK VINA RESULT:      -4.0      1.305      1.693
REMARK  3 active torsions:
REMARK  status: ('A' for Active; 'I' for Inactive)
REMARK    1  A    between atoms: C4_4  and  C9_9 
REMARK    2  A    between atoms: C5_5  and  C6_6 
REMARK    3  A    between atoms: C9_9  and  O10_10 
ROOT
HETATM    1  C3  UNL     1     -33.316  15.745  -4.365  1.00 20.00     0.018 A 
HETATM    2  C4  UNL     1     -34.255  14.673  -3.889  1.00 20.00     0.019 A 
HETATM    3  C6  UNL     1     -34.796  15.852  -4.694  1.00 20.00    -0.031 A 
HETATM    4  C8  UNL     1     -35.587  16.875  -3.912  1.00 20.00     0.016 C 
ENDROOT
BRANCH   3   5
HETATM    5  C5  UNL     1     -35.279  15.695  -6.143  1.00 20.00    -0.036 A 
HETATM    6  C1  UNL     1     -34.773  16.626  -7.219  1.00 20.00     0.011 A 
HETATM    7  C2  UNL     1     -34.335  15.189  -7.208  1.00 20.00     0.011 A 
HETATM    8  C7  UNL     1     -36.718  15.255  -6.256  1.00 20.00     0.016 C 
ENDBRANCH   3   5
BRANCH   2   9
HETATM    9  C9  UNL     1     -34.173  13.298  -4.459  1.00 20.00     0.169 C 
BRANCH   9  10
HETATM   10  O10 UNL     1     -35.350  12.563  -4.125  1.00 20.00    -0.400 OA
HETATM   11  H26 UNL     1     -35.892  13.149  -3.575  1.00 20.00     0.209 HD
ENDBRANCH   9  10
ENDBRANCH   2   9
TORSDOF 3
ENDMDL
MODEL 7
REMARK VINA RESULT:      -4.0      1.143      2.618
REMARK  3 active torsions:
REMARK  status: ('A' for Active; 'I' for Inactive)
REMARK    1  A    between atoms: C4_4  and  C9_9 
REMARK    2  A    between atoms: C5_5  and  C6_6 
REMARK    3  A    between atoms: C9_9  and  O10_10 
ROOT
HETATM    1  C3  UNL     1     -36.470  15.028  -3.656  1.00 20.00     0.018 A 
HETATM    2  C4  UNL     1     -35.969  14.622  -5.012  1.00 20.00     0.019 A 
HETATM    3  C6  UNL     1     -35.664  16.020  -4.479  1.00 20.00    -0.031 A 
HETATM    4  C8  UNL     1     -36.437  17.150  -5.117  1.00 20.00     0.016 C 
ENDROOT
BRANCH   3   5
HETATM    5  C5  UNL     1     -34.254  16.429  -4.032  1.00 20.00    -0.036 A 
HETATM    6  C1  UNL     1     -34.059  17.218  -2.759  1.00 20.00     0.011 A 
HETATM    7  C2  UNL     1     -33.621  15.782  -2.822  1.00 20.00     0.011 A 
HETATM    8  C7  UNL     1     -33.329  16.761  -5.177  1.00 20.00     0.016 C 
ENDBRANCH   3   5
BRANCH   2   9
HETATM    9  C9  UNL     1     -34.914  13.576  -5.140  1.00 20.00     0.169 C 
BRANCH   9  10
HETATM   10  O10 UNL     1     -35.099  12.574  -4.139  1.00 20.00    -0.400 OA
HETATM   11  H26 UNL     1     -34.304  12.020  -4.157  1.00 20.00     0.209 HD
ENDBRANCH   9  10
ENDBRANCH   2   9
TORSDOF 3
ENDMDL
MODEL 8
REMARK VINA RESULT:      -4.0      1.601      3.393
REMARK  3 active torsions:
REMARK  status: ('A' for Active; 'I' for Inactive)
REMARK    1  A    between atoms: C4_4  and  C9_9 
REMARK    2  A    between atoms: C5_5  and  C6_6 
REMARK    3  A    between atoms: C9_9  and  O10_10 
ROOT
HETATM    1  C3  UNL     1     -35.733  16.739  -5.187  1.00 20.00     0.018 A 
HETATM    2  C4  UNL     1     -36.682  15.587  -5.021  1.00 20.00     0.019 A 
HETATM    3  C6  UNL     1     -35.190  15.319  -5.205  1.00 20.00    -0.031 A 
HETATM    4  C8  UNL     1     -34.780  14.772  -6.552  1.00 20.00     0.016 C 
ENDROOT
BRANCH   3   5
HETATM    5  C5  UNL     1     -34.306  14.816  -4.054  1.00 20.00    -0.036 A 
HETATM    6  C1  UNL     1     -32.957  15.446  -3.800  1.00 20.00     0.011 A 
HETATM    7  C2  UNL     1     -34.083  15.678  -2.834  1.00 20.00     0.011 A 
HETATM    8  C7  UNL     1     -34.411  13.330  -3.817  1.00 20.00     0.016 C 
ENDBRANCH   3   5
BRANCH   2   9
HETATM    9  C9  UNL     1     -37.371  15.365  -3.718  1.00 20.00     0.169 C 
BRANCH   9  10
HETATM   10  O10 UNL     1     -38.140  14.163  -3.773  1.00 20.00    -0.400 OA
HETATM   11  H26 UNL     1     -38.632  14.192  -4.608  1.00 20.00     0.209 HD
ENDBRANCH   9  10
ENDBRANCH   2   9
TORSDOF 3
ENDMDL
MODEL 9
REMARK VINA RESULT:      -4.0      1.481      2.527
REMARK  3 active torsions:
REMARK  status: ('A' for Active; 'I' for Inactive)
REMARK    1  A    between atoms: C4_4  and  C9_9 
REMARK    2  A    between atoms: C5_5  and  C6_6 
REMARK    3  A    between atoms: C9_9  and  O10_10 
ROOT
HETATM    1  C3  UNL     1     -35.857  16.208  -3.616  1.00 20.00     0.018 A 
HETATM    2  C4  UNL     1     -35.925  14.766  -4.032  1.00 20.00     0.019 A 
HETATM    3  C6  UNL     1     -35.829  15.858  -5.095  1.00 20.00    -0.031 A 
HETATM    4  C8  UNL     1     -37.093  16.130  -5.876  1.00 20.00     0.016 C 
ENDROOT
BRANCH   3   5
HETATM    5  C5  UNL     1     -34.551  16.083  -5.917  1.00 20.00    -0.036 A 
HETATM    6  C1  UNL     1     -34.033  17.482  -6.152  1.00 20.00     0.011 A 
HETATM    7  C2  UNL     1     -33.284  16.551  -5.242  1.00 20.00     0.011 A 
HETATM    8  C7  UNL     1     -34.385  15.104  -7.054  1.00 20.00     0.016 C 
ENDBRANCH   3   5
BRANCH   2   9
HETATM    9  C9  UNL     1     -34.789  13.848  -3.738  1.00 20.00     0.169 C 
BRANCH   9  10
HETATM   10  O10 UNL     1     -35.094  12.532  -4.202  1.00 20.00    -0.400 OA
HETATM   11  H26 UNL     1     -35.254  12.610  -5.155  1.00 20.00     0.209 HD
ENDBRANCH   9  10
ENDBRANCH   2   9
TORSDOF 3
ENDMDL
