MODEL 1
REMARK VINA RESULT:      -4.8      0.000      0.000
REMARK  2 active torsions:
REMARK  status: ('A' for Active; 'I' for Inactive)
REMARK    1  A    between atoms: C2_2  and  C7_7 
REMARK    2  A    between atoms: C3_3  and  C8_8 
ROOT
HETATM    1  C1  UNL     1     -33.797   4.881   2.760  1.00 20.00     0.016 A 
HETATM    2  C2  UNL     1     -33.576   6.349   2.992  1.00 20.00     0.009 A 
HETATM    3  C3  UNL     1     -34.498   5.563   3.923  1.00 20.00    -0.036 A 
HETATM    4  C4  UNL     1     -35.978   5.818   3.801  1.00 20.00     0.016 C 
ENDROOT
BRANCH   3   5
HETATM    5  C8  UNL     1     -34.048   5.225   5.319  1.00 20.00    -0.014 C 
HETATM    6  C5  UNL     1     -34.228   6.417   6.269  1.00 20.00     0.010 C 
HETATM    7  C6  UNL     1     -34.801   4.006   5.868  1.00 20.00     0.010 C 
ENDBRANCH   3   5
BRANCH   2   8
HETATM    8  C7  UNL     1     -32.239   6.849   3.417  1.00 20.00     0.120 C 
HETATM    9 CL9  UNL     1     -31.711   8.224   2.407  1.00 20.00    -0.130 Cl
ENDBRANCH   2   8
TORSDOF 2
ENDMDL
MODEL 2
REMARK VINA RESULT:      -4.1      1.514      2.798
REMARK  2 active torsions:
REMARK  status: ('A' for Active; 'I' for Inactive)
REMARK    1  A    between atoms: C2_2  and  C7_7 
REMARK    2  A    between atoms: C3_3  and  C8_8 
ROOT
HETATM    1  C1  UNL     1     -31.461   7.448   3.874  1.00 20.00     0.016 A 
HETATM    2  C2  UNL     1     -32.026   7.688   2.502  1.00 20.00     0.009 A 
HETATM    3  C3  UNL     1     -32.551   6.529   3.348  1.00 20.00    -0.036 A 
HETATM    4  C4  UNL     1     -32.156   5.137   2.929  1.00 20.00     0.016 C 
ENDROOT
BRANCH   3   5
HETATM    5  C8  UNL     1     -33.915   6.614   3.979  1.00 20.00    -0.014 C 
HETATM    6  C5  UNL     1     -34.849   5.521   3.442  1.00 20.00     0.010 C 
HETATM    7  C6  UNL     1     -33.830   6.517   5.508  1.00 20.00     0.010 C 
ENDBRANCH   3   5
BRANCH   2   8
HETATM    8  C7  UNL     1     -32.831   8.911   2.225  1.00 20.00     0.120 C 
HETATM    9 CL9  UNL     1     -32.411   9.614   0.638  1.00 20.00    -0.130 Cl
ENDBRANCH   2   8
TORSDOF 2
ENDMDL
MODEL 3
REMARK VINA RESULT:      -4.1     11.700     12.895
REMARK  2 active torsions:
REMARK  status: ('A' for Active; 'I' for Inactive)
REMARK    1  A    between atoms: C2_2  and  C7_7 
REMARK    2  A    between atoms: C3_3  and  C8_8 
ROOT
HETATM    1  C1  UNL     1     -32.926  15.088  -3.598  1.00 20.00     0.016 A 
HETATM    2  C2  UNL     1     -33.881  16.162  -3.160  1.00 20.00     0.009 A 
HETATM    3  C3  UNL     1     -33.990  15.577  -4.568  1.00 20.00    -0.036 A 
HETATM    4  C4  UNL     1     -33.549  16.453  -5.712  1.00 20.00     0.016 C 
ENDROOT
BRANCH   3   5
HETATM    5  C8  UNL     1     -35.119  14.644  -4.911  1.00 20.00    -0.014 C 
HETATM    6  C5  UNL     1     -35.695  14.950  -6.300  1.00 20.00     0.010 C 
HETATM    7  C6  UNL     1     -34.670  13.178  -4.848  1.00 20.00     0.010 C 
ENDBRANCH   3   5
BRANCH   2   8
HETATM    8  C7  UNL     1     -34.885  15.886  -2.094  1.00 20.00     0.120 C 
HETATM    9 CL9  UNL     1     -34.481  16.751  -0.586  1.00 20.00    -0.130 Cl
ENDBRANCH   2   8
TORSDOF 2
ENDMDL
MODEL 4
REMARK VINA RESULT:      -4.0     11.483     12.578
REMARK  2 active torsions:
REMARK  status: ('A' for Active; 'I' for Inactive)
REMARK    1  A    between atoms: C2_2  and  C7_7 
REMARK    2  A    between atoms: C3_3  and  C8_8 
ROOT
HETATM    1  C1  UNL     1     -35.431  17.145  -3.229  1.00 20.00     0.016 A 
HETATM    2  C2  UNL     1     -35.351  16.433  -1.908  1.00 20.00     0.009 A 
HETATM    3  C3  UNL     1     -35.022  15.681  -3.196  1.00 20.00    -0.036 A 
HETATM    4  C4  UNL     1     -36.022  14.660  -3.671  1.00 20.00     0.016 C 
ENDROOT
BRANCH   3   5
HETATM    5  C8  UNL     1     -33.594  15.337  -3.524  1.00 20.00    -0.014 C 
HETATM    6  C5  UNL     1     -33.427  13.833  -3.785  1.00 20.00     0.010 C 
HETATM    7  C6  UNL     1     -33.092  16.132  -4.737  1.00 20.00     0.010 C 
ENDBRANCH   3   5
BRANCH   2   8
HETATM    8  C7  UNL     1     -34.311  16.815  -0.911  1.00 20.00     0.120 C 
HETATM    9 CL9  UNL     1     -35.050  17.296   0.641  1.00 20.00    -0.130 Cl
ENDBRANCH   2   8
TORSDOF 2
ENDMDL
MODEL 5
REMARK VINA RESULT:      -4.0     11.582     12.828
REMARK  2 active torsions:
REMARK  status: ('A' for Active; 'I' for Inactive)
REMARK    1  A    between atoms: C2_2  and  C7_7 
REMARK    2  A    between atoms: C3_3  and  C8_8 
ROOT
HETATM    1  C1  UNL     1     -34.887  14.046  -5.550  1.00 20.00     0.016 A 
HETATM    2  C2  UNL     1     -35.669  13.816  -4.288  1.00 20.00     0.009 A 
HETATM    3  C3  UNL     1     -34.306  14.504  -4.222  1.00 20.00    -0.036 A 
HETATM    4  C4  UNL     1     -33.163  13.712  -3.643  1.00 20.00     0.016 C 
ENDROOT
BRANCH   3   5
HETATM    5  C8  UNL     1     -34.221  15.983  -3.958  1.00 20.00    -0.014 C 
HETATM    6  C5  UNL     1     -33.728  16.270  -2.533  1.00 20.00     0.010 C 
HETATM    7  C6  UNL     1     -33.306  16.680  -4.973  1.00 20.00     0.010 C 
ENDBRANCH   3   5
BRANCH   2   8
HETATM    8  C7  UNL     1     -36.949  14.542  -4.054  1.00 20.00     0.120 C 
HETATM    9 CL9  UNL     1     -37.576  15.250  -5.568  1.00 20.00    -0.130 Cl
ENDBRANCH   2   8
TORSDOF 2
ENDMDL
MODEL 6
REMARK VINA RESULT:      -4.0     11.834     13.232
REMARK  2 active torsions:
REMARK  status: ('A' for Active; 'I' for Inactive)
REMARK    1  A    between atoms: C2_2  and  C7_7 
REMARK    2  A    between atoms: C3_3  and  C8_8 
ROOT
HETATM    1  C1  UNL     1     -34.572  13.296  -4.798  1.00 20.00     0.016 A 
HETATM    2  C2  UNL     1     -35.364  14.109  -3.815  1.00 20.00     0.009 A 
HETATM    3  C3  UNL     1     -34.181  14.743  -4.545  1.00 20.00    -0.036 A 
HETATM    4  C4  UNL     1     -32.936  15.005  -3.739  1.00 20.00     0.016 C 
ENDROOT
BRANCH   3   5
HETATM    5  C8  UNL     1     -34.422  15.744  -5.643  1.00 20.00    -0.014 C 
HETATM    6  C5  UNL     1     -33.478  16.947  -5.519  1.00 20.00     0.010 C 
HETATM    7  C6  UNL     1     -34.266  15.102  -7.028  1.00 20.00     0.010 C 
ENDBRANCH   3   5
BRANCH   2   8
HETATM    8  C7  UNL     1     -36.779  14.472  -4.107  1.00 20.00     0.120 C 
HETATM    9 CL9  UNL     1     -37.215  16.032  -3.358  1.00 20.00    -0.130 Cl
ENDBRANCH   2   8
TORSDOF 2
ENDMDL
MODEL 7
REMARK VINA RESULT:      -4.0      0.982      2.187
REMARK  2 active torsions:
REMARK  status: ('A' for Active; 'I' for Inactive)
REMARK    1  A    between atoms: C2_2  and  C7_7 
REMARK    2  A    between atoms: C3_3  and  C8_8 
ROOT
HETATM    1  C1  UNL     1     -34.156   7.559   4.297  1.00 20.00     0.016 A 
HETATM    2  C2  UNL     1     -32.809   6.896   4.341  1.00 20.00     0.009 A 
HETATM    3  C3  UNL     1     -34.000   6.241   5.039  1.00 20.00    -0.036 A 
HETATM    4  C4  UNL     1     -34.018   6.275   6.545  1.00 20.00     0.016 C 
ENDROOT
BRANCH   3   5
HETATM    5  C8  UNL     1     -34.639   5.015   4.447  1.00 20.00    -0.014 C 
HETATM    6  C5  UNL     1     -34.972   3.979   5.530  1.00 20.00     0.010 C 
HETATM    7  C6  UNL     1     -35.909   5.370   3.662  1.00 20.00     0.010 C 
ENDBRANCH   3   5
BRANCH   2   8
HETATM    8  C7  UNL     1     -32.203   6.345   3.096  1.00 20.00     0.120 C 
HETATM    9 CL9  UNL     1     -31.895   7.634   1.901  1.00 20.00    -0.130 Cl
ENDBRANCH   2   8
TORSDOF 2
ENDMDL
MODEL 8
REMARK VINA RESULT:      -3.9     11.746     12.949
REMARK  2 active torsions:
REMARK  status: ('A' for Active; 'I' for Inactive)
REMARK    1  A    between atoms: C2_2  and  C7_7 
REMARK    2  A    between atoms: C3_3  and  C8_8 
ROOT
HETATM    1  C1  UNL     1     -34.596  15.676  -2.326  1.00 20.00     0.016 A 
HETATM    2  C2  UNL     1     -33.689  16.376  -3.298  1.00 20.00     0.009 A 
HETATM    3  C3  UNL     1     -34.326  15.041  -3.680  1.00 20.00    -0.036 A 
HETATM    4  C4  UNL     1     -33.423  13.836  -3.724  1.00 20.00     0.016 C 
ENDROOT
BRANCH   3   5
HETATM    5  C8  UNL     1     -35.449  15.000  -4.680  1.00 20.00    -0.014 C 
HETATM    6  C5  UNL     1     -35.083  14.141  -5.898  1.00 20.00     0.010 C 
HETATM    7  C6  UNL     1     -36.744  14.475  -4.045  1.00 20.00     0.010 C 
ENDBRANCH   3   5
BRANCH   2   8
HETATM    8  C7  UNL     1     -34.102  17.669  -3.912  1.00 20.00     0.120 C 
HETATM    9 CL9  UNL     1     -33.425  17.850  -5.554  1.00 20.00    -0.130 Cl
ENDBRANCH   2   8
TORSDOF 2
ENDMDL
MODEL 9
REMARK VINA RESULT:      -3.9     11.748     13.081
REMARK  2 active torsions:
REMARK  status: ('A' for Active; 'I' for Inactive)
REMARK    1  A    between atoms: C2_2  and  C7_7 
REMARK    2  A    between atoms: C3_3  and  C8_8 
ROOT
HETATM    1  C1  UNL     1     -36.044  14.900  -3.495  1.00 20.00     0.016 A 
HETATM    2  C2  UNL     1     -34.601  14.945  -3.081  1.00 20.00     0.009 A 
HETATM    3  C3  UNL     1     -34.963  14.690  -4.543  1.00 20.00    -0.036 A 
HETATM    4  C4  UNL     1     -34.755  13.294  -5.069  1.00 20.00     0.016 C 
ENDROOT
BRANCH   3   5
HETATM    5  C8  UNL     1     -34.754  15.769  -5.571  1.00 20.00    -0.014 C 
HETATM    6  C5  UNL     1     -34.236  15.187  -6.894  1.00 20.00     0.010 C 
HETATM    7  C6  UNL     1     -36.044  16.559  -5.822  1.00 20.00     0.010 C 
ENDBRANCH   3   5
BRANCH   2   8
HETATM    8  C7  UNL     1     -33.993  16.223  -2.614  1.00 20.00     0.120 C 
HETATM    9 CL9  UNL     1     -34.477  16.594  -0.936  1.00 20.00    -0.130 Cl
ENDBRANCH   2   8
TORSDOF 2
ENDMDL
