MODEL 1
REMARK VINA RESULT:      -4.5      0.000      0.000
REMARK  1 active torsions:
REMARK  status: ('A' for Active; 'I' for Inactive)
REMARK    1  A    between atoms: C5_5  and  C10_10 
ROOT
HETATM    1  C1  UNL     1     -34.938  14.390  -6.719  1.00 20.00     0.002 C 
HETATM    2  C2  UNL     1     -34.486  13.953  -5.332  1.00 20.00     0.011 C 
HETATM    3  C3  UNL     1     -34.310  15.766  -6.875  1.00 20.00     0.010 C 
HETATM    4  C4  UNL     1     -33.270  15.230  -3.436  1.00 20.00     0.017 A 
HETATM    5  C5  UNL     1     -34.719  15.220  -3.053  1.00 20.00     0.005 A 
HETATM    6  C6  UNL     1     -34.327  15.239  -4.531  1.00 20.00    -0.029 A 
HETATM    7  C7  UNL     1     -34.505  16.436  -5.486  1.00 20.00    -0.040 C 
HETATM    8  C8  UNL     1     -33.471  17.555  -5.330  1.00 20.00     0.015 C 
HETATM    9  C9  UNL     1     -35.923  17.029  -5.408  1.00 20.00     0.015 C 
ENDROOT
BRANCH   5  10
HETATM   10  C10 UNL     1     -35.267  16.372  -2.289  1.00 20.00     0.090 C 
HETATM   11 BR11 UNL     1     -33.856  17.243  -1.256  1.00 20.00    -0.096 Br
ENDBRANCH   5  10
TORSDOF 1
ENDMDL
MODEL 2
REMARK VINA RESULT:      -4.5      1.202      2.502
REMARK  1 active torsions:
REMARK  status: ('A' for Active; 'I' for Inactive)
REMARK    1  A    between atoms: C5_5  and  C10_10 
ROOT
HETATM    1  C1  UNL     1     -34.377  15.016  -7.249  1.00 20.00     0.002 C 
HETATM    2  C2  UNL     1     -34.206  16.317  -6.475  1.00 20.00     0.011 C 
HETATM    3  C3  UNL     1     -35.490  14.304  -6.497  1.00 20.00     0.010 C 
HETATM    4  C4  UNL     1     -35.202  17.124  -4.226  1.00 20.00     0.017 A 
HETATM    5  C5  UNL     1     -33.811  16.664  -3.911  1.00 20.00     0.005 A 
HETATM    6  C6  UNL     1     -34.594  15.990  -5.039  1.00 20.00    -0.029 A 
HETATM    7  C7  UNL     1     -35.165  14.559  -4.999  1.00 20.00    -0.040 C 
HETATM    8  C8  UNL     1     -36.448  14.390  -4.181  1.00 20.00     0.015 C 
HETATM    9  C9  UNL     1     -34.116  13.534  -4.531  1.00 20.00     0.015 C 
ENDROOT
BRANCH   5  10
HETATM   10  C10 UNL     1     -33.538  16.071  -2.575  1.00 20.00     0.090 C 
HETATM   11 BR11 UNL     1     -34.732  16.833  -1.230  1.00 20.00    -0.096 Br
ENDBRANCH   5  10
TORSDOF 1
ENDMDL
MODEL 3
REMARK VINA RESULT:      -4.5      1.325      1.773
REMARK  1 active torsions:
REMARK  status: ('A' for Active; 'I' for Inactive)
REMARK    1  A    between atoms: C5_5  and  C10_10 
ROOT
HETATM    1  C1  UNL     1     -34.766  13.072  -4.799  1.00 20.00     0.002 C 
HETATM    2  C2  UNL     1     -33.847  13.793  -3.821  1.00 20.00     0.011 C 
HETATM    3  C3  UNL     1     -35.308  14.198  -5.665  1.00 20.00     0.010 C 
HETATM    4  C4  UNL     1     -33.461  16.310  -3.357  1.00 20.00     0.017 A 
HETATM    5  C5  UNL     1     -34.375  15.834  -2.269  1.00 20.00     0.005 A 
HETATM    6  C6  UNL     1     -34.442  15.185  -3.652  1.00 20.00    -0.029 A 
HETATM    7  C7  UNL     1     -35.596  15.350  -4.661  1.00 20.00    -0.040 C 
HETATM    8  C8  UNL     1     -35.611  16.676  -5.425  1.00 20.00     0.015 C 
HETATM    9  C9  UNL     1     -36.969  15.114  -4.007  1.00 20.00     0.015 C 
ENDROOT
BRANCH   5  10
HETATM   10  C10 UNL     1     -35.376  16.780  -1.709  1.00 20.00     0.090 C 
HETATM   11 BR11 UNL     1     -34.836  17.373   0.072  1.00 20.00    -0.096 Br
ENDBRANCH   5  10
TORSDOF 1
ENDMDL
MODEL 4
REMARK VINA RESULT:      -4.4      2.358      3.906
REMARK  1 active torsions:
REMARK  status: ('A' for Active; 'I' for Inactive)
REMARK    1  A    between atoms: C5_5  and  C10_10 
ROOT
HETATM    1  C1  UNL     1     -34.656  16.287  -1.610  1.00 20.00     0.002 C 
HETATM    2  C2  UNL     1     -35.818  15.882  -2.508  1.00 20.00     0.011 C 
HETATM    3  C3  UNL     1     -33.735  17.048  -2.551  1.00 20.00     0.010 C 
HETATM    4  C4  UNL     1     -36.147  16.036  -5.072  1.00 20.00     0.017 A 
HETATM    5  C5  UNL     1     -35.760  14.614  -4.798  1.00 20.00     0.005 A 
HETATM    6  C6  UNL     1     -35.222  15.731  -3.902  1.00 20.00    -0.029 A 
HETATM    7  C7  UNL     1     -33.760  16.220  -3.866  1.00 20.00    -0.040 C 
HETATM    8  C8  UNL     1     -33.347  17.128  -5.027  1.00 20.00     0.015 C 
HETATM    9  C9  UNL     1     -32.766  15.052  -3.744  1.00 20.00     0.015 C 
ENDROOT
BRANCH   5  10
HETATM   10  C10 UNL     1     -34.976  13.874  -5.822  1.00 20.00     0.090 C 
HETATM   11 BR11 UNL     1     -35.100  14.765  -7.555  1.00 20.00    -0.096 Br
ENDBRANCH   5  10
TORSDOF 1
ENDMDL
MODEL 5
REMARK VINA RESULT:      -4.3      1.507      2.501
REMARK  1 active torsions:
REMARK  status: ('A' for Active; 'I' for Inactive)
REMARK    1  A    between atoms: C5_5  and  C10_10 
ROOT
HETATM    1  C1  UNL     1     -36.084  14.155  -4.489  1.00 20.00     0.002 C 
HETATM    2  C2  UNL     1     -36.243  15.091  -3.298  1.00 20.00     0.011 C 
HETATM    3  C3  UNL     1     -34.604  13.805  -4.464  1.00 20.00     0.010 C 
HETATM    4  C4  UNL     1     -34.502  16.206  -1.739  1.00 20.00     0.017 A 
HETATM    5  C5  UNL     1     -34.900  17.264  -2.724  1.00 20.00     0.005 A 
HETATM    6  C6  UNL     1     -34.900  15.795  -3.150  1.00 20.00    -0.029 A 
HETATM    7  C7  UNL     1     -33.898  15.149  -4.127  1.00 20.00    -0.040 C 
HETATM    8  C8  UNL     1     -32.517  14.845  -3.540  1.00 20.00     0.015 C 
HETATM    9  C9  UNL     1     -33.741  15.972  -5.418  1.00 20.00     0.015 C 
ENDROOT
BRANCH   5  10
HETATM   10  C10 UNL     1     -33.895  18.281  -3.129  1.00 20.00     0.090 C 
HETATM   11 BR11 UNL     1     -33.243  19.259  -1.569  1.00 20.00    -0.096 Br
ENDBRANCH   5  10
TORSDOF 1
ENDMDL
MODEL 6
REMARK VINA RESULT:      -4.3      2.413      3.881
REMARK  1 active torsions:
REMARK  status: ('A' for Active; 'I' for Inactive)
REMARK    1  A    between atoms: C5_5  and  C10_10 
ROOT
HETATM    1  C1  UNL     1     -33.714  16.197  -2.625  1.00 20.00     0.002 C 
HETATM    2  C2  UNL     1     -33.382  15.045  -3.565  1.00 20.00     0.011 C 
HETATM    3  C3  UNL     1     -35.198  16.009  -2.352  1.00 20.00     0.010 C 
HETATM    4  C4  UNL     1     -34.889  13.327  -4.783  1.00 20.00     0.017 A 
HETATM    5  C5  UNL     1     -34.547  14.365  -5.808  1.00 20.00     0.005 A 
HETATM    6  C6  UNL     1     -34.665  14.765  -4.337  1.00 20.00    -0.029 A 
HETATM    7  C7  UNL     1     -35.796  15.620  -3.732  1.00 20.00    -0.040 C 
HETATM    8  C8  UNL     1     -37.120  14.884  -3.505  1.00 20.00     0.015 C 
HETATM    9  C9  UNL     1     -36.051  16.899  -4.549  1.00 20.00     0.015 C 
ENDROOT
BRANCH   5  10
HETATM   10  C10 UNL     1     -35.539  14.677  -6.871  1.00 20.00     0.090 C 
HETATM   11 BR11 UNL     1     -34.960  16.223  -7.915  1.00 20.00    -0.096 Br
ENDBRANCH   5  10
TORSDOF 1
ENDMDL
MODEL 7
REMARK VINA RESULT:      -4.2      2.372      3.949
REMARK  1 active torsions:
REMARK  status: ('A' for Active; 'I' for Inactive)
REMARK    1  A    between atoms: C5_5  and  C10_10 
ROOT
HETATM    1  C1  UNL     1     -33.293  16.429  -3.893  1.00 20.00     0.002 C 
HETATM    2  C2  UNL     1     -33.577  16.625  -5.377  1.00 20.00     0.011 C 
HETATM    3  C3  UNL     1     -33.409  14.924  -3.710  1.00 20.00     0.010 C 
HETATM    4  C4  UNL     1     -34.417  14.990  -7.200  1.00 20.00     0.017 A 
HETATM    5  C5  UNL     1     -35.618  15.785  -6.786  1.00 20.00     0.005 A 
HETATM    6  C6  UNL     1     -34.516  15.491  -5.766  1.00 20.00    -0.029 A 
HETATM    7  C7  UNL     1     -34.642  14.527  -4.570  1.00 20.00    -0.040 C 
HETATM    8  C8  UNL     1     -34.540  13.039  -4.917  1.00 20.00     0.015 C 
HETATM    9  C9  UNL     1     -35.924  14.781  -3.758  1.00 20.00     0.015 C 
ENDROOT
BRANCH   5  10
HETATM   10  C10 UNL     1     -36.956  15.138  -6.824  1.00 20.00     0.090 C 
HETATM   11 BR11 UNL     1     -38.342  16.398  -6.271  1.00 20.00    -0.096 Br
ENDBRANCH   5  10
TORSDOF 1
ENDMDL
MODEL 8
REMARK VINA RESULT:      -4.2      2.095      3.016
REMARK  1 active torsions:
REMARK  status: ('A' for Active; 'I' for Inactive)
REMARK    1  A    between atoms: C5_5  and  C10_10 
ROOT
HETATM    1  C1  UNL     1     -34.809  13.544  -3.785  1.00 20.00     0.002 C 
HETATM    2  C2  UNL     1     -34.072  14.853  -3.529  1.00 20.00     0.011 C 
HETATM    3  C3  UNL     1     -34.750  13.399  -5.297  1.00 20.00     0.010 C 
HETATM    4  C4  UNL     1     -33.198  16.680  -5.142  1.00 20.00     0.017 A 
HETATM    5  C5  UNL     1     -34.488  17.208  -4.593  1.00 20.00     0.005 A 
HETATM    6  C6  UNL     1     -34.303  15.701  -4.773  1.00 20.00    -0.029 A 
HETATM    7  C7  UNL     1     -35.015  14.835  -5.831  1.00 20.00    -0.040 C 
HETATM    8  C8  UNL     1     -34.451  14.943  -7.250  1.00 20.00     0.015 C 
HETATM    9  C9  UNL     1     -36.532  15.089  -5.857  1.00 20.00     0.015 C 
ENDROOT
BRANCH   5  10
HETATM   10  C10 UNL     1     -35.327  18.085  -5.452  1.00 20.00     0.090 C 
HETATM   11 BR11 UNL     1     -34.275  18.801  -6.934  1.00 20.00    -0.096 Br
ENDBRANCH   5  10
TORSDOF 1
ENDMDL
MODEL 9
REMARK VINA RESULT:      -4.2      1.314      2.188
REMARK  1 active torsions:
REMARK  status: ('A' for Active; 'I' for Inactive)
REMARK    1  A    between atoms: C5_5  and  C10_10 
ROOT
HETATM    1  C1  UNL     1     -35.984  14.963  -7.001  1.00 20.00     0.002 C 
HETATM    2  C2  UNL     1     -36.832  15.383  -5.808  1.00 20.00     0.011 C 
HETATM    3  C3  UNL     1     -34.820  14.223  -6.361  1.00 20.00     0.010 C 
HETATM    4  C4  UNL     1     -36.390  15.278  -3.259  1.00 20.00     0.017 A 
HETATM    5  C5  UNL     1     -36.113  16.695  -3.660  1.00 20.00     0.005 A 
HETATM    6  C6  UNL     1     -35.853  15.562  -4.654  1.00 20.00    -0.029 A 
HETATM    7  C7  UNL     1     -34.464  15.076  -5.111  1.00 20.00    -0.040 C 
HETATM    8  C8  UNL     1     -33.719  14.191  -4.108  1.00 20.00     0.015 C 
HETATM    9  C9  UNL     1     -33.559  16.244  -5.542  1.00 20.00     0.015 C 
ENDROOT
BRANCH   5  10
HETATM   10  C10 UNL     1     -35.068  17.456  -2.926  1.00 20.00     0.090 C 
HETATM   11 BR11 UNL     1     -34.632  16.571  -1.240  1.00 20.00    -0.096 Br
ENDBRANCH   5  10
TORSDOF 1
ENDMDL
