MODEL 1
REMARK VINA RESULT:      -4.9      0.000      0.000
REMARK  3 active torsions:
REMARK  status: ('A' for Active; 'I' for Inactive)
REMARK    1  A    between atoms: C2_2  and  C5_5 
REMARK    2  A    between atoms: C3_3  and  C6_6 
REMARK    3  A    between atoms: C5_5  and  C7_7 
ROOT
HETATM    1  C1  UNL     1     -32.137   5.717   3.288  1.00 20.00     0.011 A 
HETATM    2  C2  UNL     1     -33.407   6.324   3.825  1.00 20.00    -0.009 A 
HETATM    3  C3  UNL     1     -32.782   6.873   2.568  1.00 20.00     0.004 A 
ENDROOT
BRANCH   2   4
HETATM    4  C5  UNL     1     -34.687   5.567   3.752  1.00 20.00     0.005 C 
BRANCH   4   5
HETATM    5  C7  UNL     1     -35.011   4.827   5.062  1.00 20.00    -0.004 C 
HETATM    6  C4  UNL     1     -34.510   5.569   6.291  1.00 20.00     0.005 C 
ENDBRANCH   4   5
ENDBRANCH   2   4
BRANCH   3   7
HETATM    7  C6  UNL     1     -32.137   8.216   2.580  1.00 20.00     0.119 C 
HETATM    8 CL8  UNL     1     -32.019   8.893   0.933  1.00 20.00    -0.130 Cl
ENDBRANCH   3   7
TORSDOF 3
ENDMDL
MODEL 2
REMARK VINA RESULT:      -4.8      2.381      4.283
REMARK  3 active torsions:
REMARK  status: ('A' for Active; 'I' for Inactive)
REMARK    1  A    between atoms: C2_2  and  C5_5 
REMARK    2  A    between atoms: C3_3  and  C6_6 
REMARK    3  A    between atoms: C5_5  and  C7_7 
ROOT
HETATM    1  C1  UNL     1     -35.111   5.367   3.790  1.00 20.00     0.011 A 
HETATM    2  C2  UNL     1     -33.944   6.313   3.893  1.00 20.00    -0.009 A 
HETATM    3  C3  UNL     1     -34.174   5.280   4.966  1.00 20.00     0.004 A 
ENDROOT
BRANCH   2   4
HETATM    4  C5  UNL     1     -32.787   6.181   2.966  1.00 20.00     0.005 C 
BRANCH   4   5
HETATM    5  C7  UNL     1     -31.854   7.404   3.004  1.00 20.00    -0.004 C 
HETATM    6  C4  UNL     1     -32.112   8.369   1.858  1.00 20.00     0.005 C 
ENDBRANCH   4   5
ENDBRANCH   2   4
BRANCH   3   7
HETATM    7  C6  UNL     1     -34.633   5.698   6.320  1.00 20.00     0.119 C 
HETATM    8 CL8  UNL     1     -33.708   7.106   6.911  1.00 20.00    -0.130 Cl
ENDBRANCH   3   7
TORSDOF 3
ENDMDL
MODEL 3
REMARK VINA RESULT:      -4.5      0.933      1.395
REMARK  3 active torsions:
REMARK  status: ('A' for Active; 'I' for Inactive)
REMARK    1  A    between atoms: C2_2  and  C5_5 
REMARK    2  A    between atoms: C3_3  and  C6_6 
REMARK    3  A    between atoms: C5_5  and  C7_7 
ROOT
HETATM    1  C1  UNL     1     -34.073   5.366   2.518  1.00 20.00     0.011 A 
HETATM    2  C2  UNL     1     -33.889   5.259   4.009  1.00 20.00    -0.009 A 
HETATM    3  C3  UNL     1     -33.581   6.555   3.303  1.00 20.00     0.004 A 
ENDROOT
BRANCH   2   4
HETATM    4  C5  UNL     1     -35.074   5.160   4.905  1.00 20.00     0.005 C 
BRANCH   4   5
HETATM    5  C7  UNL     1     -34.708   5.328   6.390  1.00 20.00    -0.004 C 
HETATM    6  C4  UNL     1     -33.982   6.635   6.668  1.00 20.00     0.005 C 
ENDBRANCH   4   5
ENDBRANCH   2   4
BRANCH   3   7
HETATM    7  C6  UNL     1     -32.171   7.013   3.162  1.00 20.00     0.119 C 
HETATM    8 CL8  UNL     1     -32.013   8.242   1.879  1.00 20.00    -0.130 Cl
ENDBRANCH   3   7
TORSDOF 3
ENDMDL
MODEL 4
REMARK VINA RESULT:      -4.5      2.863      4.690
REMARK  3 active torsions:
REMARK  status: ('A' for Active; 'I' for Inactive)
REMARK    1  A    between atoms: C2_2  and  C5_5 
REMARK    2  A    between atoms: C3_3  and  C6_6 
REMARK    3  A    between atoms: C5_5  and  C7_7 
ROOT
HETATM    1  C1  UNL     1     -34.276   5.506   3.177  1.00 20.00     0.011 A 
HETATM    2  C2  UNL     1     -33.530   6.770   3.514  1.00 20.00    -0.009 A 
HETATM    3  C3  UNL     1     -33.612   5.651   4.522  1.00 20.00     0.004 A 
ENDROOT
BRANCH   2   4
HETATM    4  C5  UNL     1     -32.236   7.077   2.844  1.00 20.00     0.005 C 
BRANCH   4   5
HETATM    5  C7  UNL     1     -32.181   8.514   2.296  1.00 20.00    -0.004 C 
HETATM    6  C4  UNL     1     -31.856   8.559   0.811  1.00 20.00     0.005 C 
ENDBRANCH   4   5
ENDBRANCH   2   4
BRANCH   3   7
HETATM    7  C6  UNL     1     -34.437   5.812   5.751  1.00 20.00     0.119 C 
HETATM    8 CL8  UNL     1     -35.203   4.271   6.224  1.00 20.00    -0.130 Cl
ENDBRANCH   3   7
TORSDOF 3
ENDMDL
MODEL 5
REMARK VINA RESULT:      -4.5      2.819      4.550
REMARK  3 active torsions:
REMARK  status: ('A' for Active; 'I' for Inactive)
REMARK    1  A    between atoms: C2_2  and  C5_5 
REMARK    2  A    between atoms: C3_3  and  C6_6 
REMARK    3  A    between atoms: C5_5  and  C7_7 
ROOT
HETATM    1  C1  UNL     1     -33.667   6.654   4.786  1.00 20.00     0.011 A 
HETATM    2  C2  UNL     1     -33.046   5.806   3.707  1.00 20.00    -0.009 A 
HETATM    3  C3  UNL     1     -34.535   5.764   3.936  1.00 20.00     0.004 A 
ENDROOT
BRANCH   2   4
HETATM    4  C5  UNL     1     -32.498   6.441   2.477  1.00 20.00     0.005 C 
BRANCH   4   5
HETATM    5  C7  UNL     1     -31.970   7.864   2.733  1.00 20.00    -0.004 C 
HETATM    6  C4  UNL     1     -32.067   8.751   1.501  1.00 20.00     0.005 C 
ENDBRANCH   4   5
ENDBRANCH   2   4
BRANCH   3   7
HETATM    7  C6  UNL     1     -35.167   4.550   4.525  1.00 20.00     0.119 C 
HETATM    8 CL8  UNL     1     -35.180   4.627   6.308  1.00 20.00    -0.130 Cl
ENDBRANCH   3   7
TORSDOF 3
ENDMDL
MODEL 6
REMARK VINA RESULT:      -3.8      2.838      4.599
REMARK  3 active torsions:
REMARK  status: ('A' for Active; 'I' for Inactive)
REMARK    1  A    between atoms: C2_2  and  C5_5 
REMARK    2  A    between atoms: C3_3  and  C6_6 
REMARK    3  A    between atoms: C5_5  and  C7_7 
ROOT
HETATM    1  C1  UNL     1     -33.263   7.107   5.753  1.00 20.00     0.011 A 
HETATM    2  C2  UNL     1     -33.156   6.211   4.547  1.00 20.00    -0.009 A 
HETATM    3  C3  UNL     1     -34.418   6.218   5.372  1.00 20.00     0.004 A 
ENDROOT
BRANCH   2   4
HETATM    4  C5  UNL     1     -33.155   6.795   3.178  1.00 20.00     0.005 C 
BRANCH   4   5
HETATM    5  C7  UNL     1     -31.861   7.566   2.864  1.00 20.00    -0.004 C 
HETATM    6  C4  UNL     1     -32.016   8.506   1.679  1.00 20.00     0.005 C 
ENDBRANCH   4   5
ENDBRANCH   2   4
BRANCH   3   7
HETATM    7  C6  UNL     1     -34.766   5.041   6.215  1.00 20.00     0.119 C 
HETATM    8 CL8  UNL     1     -35.033   3.586   5.217  1.00 20.00    -0.130 Cl
ENDBRANCH   3   7
TORSDOF 3
ENDMDL
MODEL 7
REMARK VINA RESULT:      -3.6     10.612     11.517
REMARK  3 active torsions:
REMARK  status: ('A' for Active; 'I' for Inactive)
REMARK    1  A    between atoms: C2_2  and  C5_5 
REMARK    2  A    between atoms: C3_3  and  C6_6 
REMARK    3  A    between atoms: C5_5  and  C7_7 
ROOT
HETATM    1  C1  UNL     1     -34.618  16.011  -4.046  1.00 20.00     0.011 A 
HETATM    2  C2  UNL     1     -34.420  15.768  -2.573  1.00 20.00    -0.009 A 
HETATM    3  C3  UNL     1     -33.493  15.127  -3.574  1.00 20.00     0.004 A 
ENDROOT
BRANCH   2   4
HETATM    4  C5  UNL     1     -33.927  16.862  -1.693  1.00 20.00     0.005 C 
BRANCH   4   5
HETATM    5  C7  UNL     1     -34.689  16.936  -0.358  1.00 20.00    -0.004 C 
HETATM    6  C4  UNL     1     -34.170  18.041   0.549  1.00 20.00     0.005 C 
ENDBRANCH   4   5
ENDBRANCH   2   4
BRANCH   3   7
HETATM    7  C6  UNL     1     -33.548  13.657  -3.809  1.00 20.00     0.119 C 
HETATM    8 CL8  UNL     1     -34.702  13.251  -5.108  1.00 20.00    -0.130 Cl
ENDBRANCH   3   7
TORSDOF 3
ENDMDL
MODEL 8
REMARK VINA RESULT:      -3.6     11.434     11.998
REMARK  3 active torsions:
REMARK  status: ('A' for Active; 'I' for Inactive)
REMARK    1  A    between atoms: C2_2  and  C5_5 
REMARK    2  A    between atoms: C3_3  and  C6_6 
REMARK    3  A    between atoms: C5_5  and  C7_7 
ROOT
HETATM    1  C1  UNL     1     -33.076  14.798  -3.672  1.00 20.00     0.011 A 
HETATM    2  C2  UNL     1     -33.645  16.101  -3.174  1.00 20.00    -0.009 A 
HETATM    3  C3  UNL     1     -34.178  15.480  -4.440  1.00 20.00     0.004 A 
ENDROOT
BRANCH   2   4
HETATM    4  C5  UNL     1     -34.485  16.131  -1.946  1.00 20.00     0.005 C 
BRANCH   4   5
HETATM    5  C7  UNL     1     -34.028  17.205  -0.943  1.00 20.00    -0.004 C 
HETATM    6  C4  UNL     1     -34.936  17.291   0.273  1.00 20.00     0.005 C 
ENDBRANCH   4   5
ENDBRANCH   2   4
BRANCH   3   7
HETATM    7  C6  UNL     1     -33.893  16.109  -5.759  1.00 20.00     0.119 C 
HETATM    8 CL8  UNL     1     -34.272  14.998  -7.103  1.00 20.00    -0.130 Cl
ENDBRANCH   3   7
TORSDOF 3
ENDMDL
MODEL 9
REMARK VINA RESULT:      -3.5     10.932     11.695
REMARK  3 active torsions:
REMARK  status: ('A' for Active; 'I' for Inactive)
REMARK    1  A    between atoms: C2_2  and  C5_5 
REMARK    2  A    between atoms: C3_3  and  C6_6 
REMARK    3  A    between atoms: C5_5  and  C7_7 
ROOT
HETATM    1  C1  UNL     1     -33.709  13.700  -3.797  1.00 20.00     0.011 A 
HETATM    2  C2  UNL     1     -34.174  15.128  -3.678  1.00 20.00    -0.009 A 
HETATM    3  C3  UNL     1     -34.867  14.187  -4.630  1.00 20.00     0.004 A 
ENDROOT
BRANCH   2   4
HETATM    4  C5  UNL     1     -34.870  15.588  -2.445  1.00 20.00     0.005 C 
BRANCH   4   5
HETATM    5  C7  UNL     1     -34.080  16.671  -1.689  1.00 20.00    -0.004 C 
HETATM    6  C4  UNL     1     -34.680  16.987  -0.328  1.00 20.00     0.005 C 
ENDBRANCH   4   5
ENDBRANCH   2   4
BRANCH   3   7
HETATM    7  C6  UNL     1     -34.710  14.362  -6.100  1.00 20.00     0.119 C 
HETATM    8 CL8  UNL     1     -36.245  14.860  -6.861  1.00 20.00    -0.130 Cl
ENDBRANCH   3   7
TORSDOF 3
ENDMDL
