MODEL 1
REMARK VINA RESULT:      -4.6      0.000      0.000
REMARK  3 active torsions:
REMARK  status: ('A' for Active; 'I' for Inactive)
REMARK    1  A    between atoms: C2_2  and  C7_7 
REMARK    2  A    between atoms: C3_3  and  C9_9 
REMARK    3  A    between atoms: C8_8  and  C9_9 
ROOT
HETATM    1  C1  UNL     1     -31.458   7.434   3.887  1.00 20.00     0.016 A 
HETATM    2  C2  UNL     1     -32.033   7.677   2.521  1.00 20.00     0.009 A 
HETATM    3  C3  UNL     1     -32.554   6.517   3.368  1.00 20.00    -0.036 A 
HETATM    4  C4  UNL     1     -32.166   5.125   2.943  1.00 20.00     0.016 C 
ENDROOT
BRANCH   3   5
HETATM    5  C9  UNL     1     -33.913   6.604   4.009  1.00 20.00    -0.010 C 
HETATM    6  C6  UNL     1     -34.838   5.500   3.469  1.00 20.00     0.011 C 
BRANCH   5   7
HETATM    7  C8  UNL     1     -33.867   6.510   5.553  1.00 20.00     0.000 C 
HETATM    8  C5  UNL     1     -34.581   5.282   6.100  1.00 20.00     0.005 C 
ENDBRANCH   5   7
ENDBRANCH   3   5
BRANCH   2   9
HETATM    9  C7  UNL     1     -32.837   8.902   2.251  1.00 20.00     0.120 C 
HETATM   10 CL10 UNL     1     -32.420   9.614   0.668  1.00 20.00    -0.130 Cl
ENDBRANCH   2   9
TORSDOF 3
ENDMDL
MODEL 2
REMARK VINA RESULT:      -4.0     10.855     11.981
REMARK  3 active torsions:
REMARK  status: ('A' for Active; 'I' for Inactive)
REMARK    1  A    between atoms: C2_2  and  C7_7 
REMARK    2  A    between atoms: C3_3  and  C9_9 
REMARK    3  A    between atoms: C8_8  and  C9_9 
ROOT
HETATM    1  C1  UNL     1     -35.001  16.804  -3.522  1.00 20.00     0.016 A 
HETATM    2  C2  UNL     1     -33.579  16.548  -3.932  1.00 20.00     0.009 A 
HETATM    3  C3  UNL     1     -33.878  17.552  -2.821  1.00 20.00    -0.036 A 
HETATM    4  C4  UNL     1     -33.694  19.012  -3.143  1.00 20.00     0.016 C 
ENDROOT
BRANCH   3   5
HETATM    5  C9  UNL     1     -33.580  17.200  -1.387  1.00 20.00    -0.010 C 
HETATM    6  C6  UNL     1     -33.001  18.415  -0.641  1.00 20.00     0.011 C 
BRANCH   5   7
HETATM    7  C8  UNL     1     -34.816  16.679  -0.617  1.00 20.00     0.000 C 
HETATM    8  C5  UNL     1     -35.109  17.470   0.650  1.00 20.00     0.005 C 
ENDBRANCH   5   7
ENDBRANCH   3   5
BRANCH   2   9
HETATM    9  C7  UNL     1     -32.949  15.223  -3.673  1.00 20.00     0.120 C 
HETATM   10 CL10 UNL     1     -34.183  13.948  -3.468  1.00 20.00    -0.130 Cl
ENDBRANCH   2   9
TORSDOF 3
ENDMDL
MODEL 3
REMARK VINA RESULT:      -3.9     10.897     12.445
REMARK  3 active torsions:
REMARK  status: ('A' for Active; 'I' for Inactive)
REMARK    1  A    between atoms: C2_2  and  C7_7 
REMARK    2  A    between atoms: C3_3  and  C9_9 
REMARK    3  A    between atoms: C8_8  and  C9_9 
ROOT
HETATM    1  C1  UNL     1     -33.005  15.162  -3.701  1.00 20.00     0.016 A 
HETATM    2  C2  UNL     1     -33.773  16.230  -2.978  1.00 20.00     0.009 A 
HETATM    3  C3  UNL     1     -33.969  16.041  -4.481  1.00 20.00    -0.036 A 
HETATM    4  C4  UNL     1     -33.388  17.092  -5.389  1.00 20.00     0.016 C 
ENDROOT
BRANCH   3   5
HETATM    5  C9  UNL     1     -35.235  15.414  -5.002  1.00 20.00    -0.010 C 
HETATM    6  C6  UNL     1     -36.077  16.451  -5.765  1.00 20.00     0.011 C 
BRANCH   5   7
HETATM    7  C8  UNL     1     -34.980  14.198  -5.924  1.00 20.00     0.000 C 
HETATM    8  C5  UNL     1     -35.282  14.482  -7.388  1.00 20.00     0.005 C 
ENDBRANCH   5   7
ENDBRANCH   3   5
BRANCH   2   9
HETATM    9  C7  UNL     1     -34.813  15.861  -1.977  1.00 20.00     0.120 C 
HETATM   10 CL10 UNL     1     -34.614  16.787  -0.463  1.00 20.00    -0.130 Cl
ENDBRANCH   2   9
TORSDOF 3
ENDMDL
MODEL 4
REMARK VINA RESULT:      -3.9     10.878     12.542
REMARK  3 active torsions:
REMARK  status: ('A' for Active; 'I' for Inactive)
REMARK    1  A    between atoms: C2_2  and  C7_7 
REMARK    2  A    between atoms: C3_3  and  C9_9 
REMARK    3  A    between atoms: C8_8  and  C9_9 
ROOT
HETATM    1  C1  UNL     1     -34.657  13.286  -4.713  1.00 20.00     0.016 A 
HETATM    2  C2  UNL     1     -35.440  14.170  -3.786  1.00 20.00     0.009 A 
HETATM    3  C3  UNL     1     -34.269  14.749  -4.577  1.00 20.00    -0.036 A 
HETATM    4  C4  UNL     1     -33.015  15.077  -3.810  1.00 20.00     0.016 C 
ENDROOT
BRANCH   3   5
HETATM    5  C9  UNL     1     -34.528  15.663  -5.745  1.00 20.00    -0.010 C 
HETATM    6  C6  UNL     1     -33.658  16.928  -5.645  1.00 20.00     0.011 C 
BRANCH   5   7
HETATM    7  C8  UNL     1     -34.278  14.988  -7.115  1.00 20.00     0.000 C 
HETATM    8  C5  UNL     1     -35.557  14.739  -7.902  1.00 20.00     0.005 C 
ENDBRANCH   5   7
ENDBRANCH   3   5
BRANCH   2   9
HETATM    9  C7  UNL     1     -36.860  14.505  -4.087  1.00 20.00     0.120 C 
HETATM   10 CL10 UNL     1     -37.310  16.092  -3.403  1.00 20.00    -0.130 Cl
ENDBRANCH   2   9
TORSDOF 3
ENDMDL
MODEL 5
REMARK VINA RESULT:      -3.9     10.390     12.190
REMARK  3 active torsions:
REMARK  status: ('A' for Active; 'I' for Inactive)
REMARK    1  A    between atoms: C2_2  and  C7_7 
REMARK    2  A    between atoms: C3_3  and  C9_9 
REMARK    3  A    between atoms: C8_8  and  C9_9 
ROOT
HETATM    1  C1  UNL     1     -34.907  13.949  -5.549  1.00 20.00     0.016 A 
HETATM    2  C2  UNL     1     -35.680  13.777  -4.273  1.00 20.00     0.009 A 
HETATM    3  C3  UNL     1     -34.311  14.452  -4.244  1.00 20.00    -0.036 A 
HETATM    4  C4  UNL     1     -33.171  13.672  -3.643  1.00 20.00     0.016 C 
ENDROOT
BRANCH   3   5
HETATM    5  C9  UNL     1     -34.209  15.941  -4.038  1.00 20.00    -0.010 C 
HETATM    6  C6  UNL     1     -33.728  16.258  -2.612  1.00 20.00     0.011 C 
BRANCH   5   7
HETATM    7  C8  UNL     1     -33.268  16.634  -5.052  1.00 20.00     0.000 C 
HETATM    8  C5  UNL     1     -34.001  17.552  -6.020  1.00 20.00     0.005 C 
ENDBRANCH   5   7
ENDBRANCH   3   5
BRANCH   2   9
HETATM    9  C7  UNL     1     -36.951  14.524  -4.057  1.00 20.00     0.120 C 
HETATM   10 CL10 UNL     1     -37.504  15.310  -5.563  1.00 20.00    -0.130 Cl
ENDBRANCH   2   9
TORSDOF 3
ENDMDL
MODEL 6
REMARK VINA RESULT:      -3.9     10.521     11.917
REMARK  3 active torsions:
REMARK  status: ('A' for Active; 'I' for Inactive)
REMARK    1  A    between atoms: C2_2  and  C7_7 
REMARK    2  A    between atoms: C3_3  and  C9_9 
REMARK    3  A    between atoms: C8_8  and  C9_9 
ROOT
HETATM    1  C1  UNL     1     -36.031  16.497  -4.856  1.00 20.00     0.016 A 
HETATM    2  C2  UNL     1     -36.767  15.190  -4.928  1.00 20.00     0.009 A 
HETATM    3  C3  UNL     1     -35.243  15.197  -4.818  1.00 20.00    -0.036 A 
HETATM    4  C4  UNL     1     -34.462  14.809  -6.045  1.00 20.00     0.016 C 
ENDROOT
BRANCH   3   5
HETATM    5  C9  UNL     1     -34.581  14.808  -3.522  1.00 20.00    -0.010 C 
HETATM    6  C6  UNL     1     -33.498  13.743  -3.767  1.00 20.00     0.011 C 
BRANCH   5   7
HETATM    7  C8  UNL     1     -33.946  16.007  -2.778  1.00 20.00     0.000 C 
HETATM    8  C5  UNL     1     -34.632  16.324  -1.457  1.00 20.00     0.005 C 
ENDBRANCH   5   7
ENDBRANCH   3   5
BRANCH   2   9
HETATM    9  C7  UNL     1     -37.654  14.764  -3.810  1.00 20.00     0.120 C 
HETATM   10 CL10 UNL     1     -39.337  14.547  -4.364  1.00 20.00    -0.130 Cl
ENDBRANCH   2   9
TORSDOF 3
ENDMDL
MODEL 7
REMARK VINA RESULT:      -3.8     10.866     12.078
REMARK  3 active torsions:
REMARK  status: ('A' for Active; 'I' for Inactive)
REMARK    1  A    between atoms: C2_2  and  C7_7 
REMARK    2  A    between atoms: C3_3  and  C9_9 
REMARK    3  A    between atoms: C8_8  and  C9_9 
ROOT
HETATM    1  C1  UNL     1     -35.885  16.856  -3.867  1.00 20.00     0.016 A 
HETATM    2  C2  UNL     1     -35.602  16.145  -2.575  1.00 20.00     0.009 A 
HETATM    3  C3  UNL     1     -35.666  15.351  -3.878  1.00 20.00    -0.036 A 
HETATM    4  C4  UNL     1     -36.866  14.465  -4.088  1.00 20.00     0.016 C 
ENDROOT
BRANCH   3   5
HETATM    5  C9  UNL     1     -34.400  14.825  -4.502  1.00 20.00    -0.010 C 
HETATM    6  C6  UNL     1     -34.528  13.320  -4.797  1.00 20.00     0.011 C 
BRANCH   5   7
HETATM    7  C8  UNL     1     -34.010  15.560  -5.806  1.00 20.00     0.000 C 
HETATM    8  C5  UNL     1     -34.548  14.885  -7.059  1.00 20.00     0.005 C 
ENDBRANCH   5   7
ENDBRANCH   3   5
BRANCH   2   9
HETATM    9  C7  UNL     1     -34.328  16.393  -1.844  1.00 20.00     0.120 C 
HETATM   10 CL10 UNL     1     -34.635  16.958  -0.178  1.00 20.00    -0.130 Cl
ENDBRANCH   2   9
TORSDOF 3
ENDMDL
MODEL 8
REMARK VINA RESULT:      -3.8      1.293      2.529
REMARK  3 active torsions:
REMARK  status: ('A' for Active; 'I' for Inactive)
REMARK    1  A    between atoms: C2_2  and  C7_7 
REMARK    2  A    between atoms: C3_3  and  C9_9 
REMARK    3  A    between atoms: C8_8  and  C9_9 
ROOT
HETATM    1  C1  UNL     1     -33.737   5.036   2.578  1.00 20.00     0.016 A 
HETATM    2  C2  UNL     1     -33.571   6.513   2.790  1.00 20.00     0.009 A 
HETATM    3  C3  UNL     1     -34.404   5.695   3.775  1.00 20.00    -0.036 A 
HETATM    4  C4  UNL     1     -35.898   5.882   3.735  1.00 20.00     0.016 C 
ENDROOT
BRANCH   3   5
HETATM    5  C9  UNL     1     -33.862   5.387   5.146  1.00 20.00    -0.010 C 
HETATM    6  C6  UNL     1     -34.140   6.552   6.111  1.00 20.00     0.011 C 
BRANCH   5   7
HETATM    7  C8  UNL     1     -34.437   4.084   5.751  1.00 20.00     0.000 C 
HETATM    8  C5  UNL     1     -35.422   4.335   6.885  1.00 20.00     0.005 C 
ENDBRANCH   5   7
ENDBRANCH   3   5
BRANCH   2   9
HETATM    9  C7  UNL     1     -32.236   7.077   3.138  1.00 20.00     0.120 C 
HETATM   10 CL10 UNL     1     -31.733   8.324   1.963  1.00 20.00    -0.130 Cl
ENDBRANCH   2   9
TORSDOF 3
ENDMDL
MODEL 9
REMARK VINA RESULT:      -3.8     10.940     11.924
REMARK  3 active torsions:
REMARK  status: ('A' for Active; 'I' for Inactive)
REMARK    1  A    between atoms: C2_2  and  C7_7 
REMARK    2  A    between atoms: C3_3  and  C9_9 
REMARK    3  A    between atoms: C8_8  and  C9_9 
ROOT
HETATM    1  C1  UNL     1     -35.064  13.510  -4.275  1.00 20.00     0.016 A 
HETATM    2  C2  UNL     1     -35.427  14.224  -5.545  1.00 20.00     0.009 A 
HETATM    3  C3  UNL     1     -35.865  14.800  -4.199  1.00 20.00    -0.036 A 
HETATM    4  C4  UNL     1     -37.328  14.703  -3.852  1.00 20.00     0.016 C 
ENDROOT
BRANCH   3   5
HETATM    5  C9  UNL     1     -35.186  16.025  -3.647  1.00 20.00    -0.010 C 
HETATM    6  C6  UNL     1     -36.226  17.079  -3.230  1.00 20.00     0.011 C 
BRANCH   5   7
HETATM    7  C8  UNL     1     -34.267  15.721  -2.439  1.00 20.00     0.000 C 
HETATM    8  C5  UNL     1     -34.668  16.471  -1.177  1.00 20.00     0.005 C 
ENDBRANCH   5   7
ENDBRANCH   3   5
BRANCH   2   9
HETATM    9  C7  UNL     1     -34.367  14.853  -6.382  1.00 20.00     0.120 C 
HETATM   10 CL10 UNL     1     -35.057  16.061  -7.501  1.00 20.00    -0.130 Cl
ENDBRANCH   2   9
TORSDOF 3
ENDMDL
