MODEL 1
REMARK VINA RESULT:      -4.2      0.000      0.000
REMARK  1 active torsions:
REMARK  status: ('A' for Active; 'I' for Inactive)
REMARK    1  A    between atoms: C4_4  and  C8_8 
ROOT
HETATM    1  C1  UNL     1     -34.807  16.632  -0.779  1.00 20.00     0.017 A 
HETATM    2  C2  UNL     1     -34.148  15.237  -2.871  1.00 20.00     0.025 C 
HETATM    3  C3  UNL     1     -35.414  17.355  -3.202  1.00 20.00     0.084 C 
HETATM    4  C4  UNL     1     -33.561  17.255  -1.343  1.00 20.00     0.009 A 
HETATM    5  C5  UNL     1     -35.400  14.670  -3.529  1.00 20.00     0.044 C 
HETATM    6  C6  UNL     1     -34.541  16.560  -2.269  1.00 20.00    -0.026 A 
HETATM    7  C7  UNL     1     -35.093  13.595  -4.556  1.00 20.00     0.021 C 
HETATM    8  S9  UNL     1     -36.187  16.120  -4.296  1.00 20.00    -0.164 SA
ENDROOT
BRANCH   4   9
HETATM    9  C8  UNL     1     -33.398  18.737  -1.329  1.00 20.00     0.120 C 
HETATM   10 CL10 UNL     1     -32.157  19.239  -0.147  1.00 20.00    -0.130 Cl
ENDBRANCH   4   9
TORSDOF 1
ENDMDL
MODEL 2
REMARK VINA RESULT:      -4.2      3.330      4.595
REMARK  1 active torsions:
REMARK  status: ('A' for Active; 'I' for Inactive)
REMARK    1  A    between atoms: C4_4  and  C8_8 
ROOT
HETATM    1  C1  UNL     1     -32.885  15.089  -3.701  1.00 20.00     0.017 A 
HETATM    2  C2  UNL     1     -34.676  15.953  -2.026  1.00 20.00     0.025 C 
HETATM    3  C3  UNL     1     -33.756  17.540  -3.710  1.00 20.00     0.084 C 
HETATM    4  C4  UNL     1     -34.205  15.050  -4.418  1.00 20.00     0.009 A 
HETATM    5  C5  UNL     1     -34.051  16.971  -1.082  1.00 20.00     0.044 C 
HETATM    6  C6  UNL     1     -33.962  16.094  -3.344  1.00 20.00    -0.026 A 
HETATM    7  C7  UNL     1     -34.931  17.285   0.115  1.00 20.00     0.021 C 
HETATM    8  S9  UNL     1     -33.797  18.439  -2.126  1.00 20.00    -0.164 SA
ENDROOT
BRANCH   4   9
HETATM    9  C8  UNL     1     -34.278  15.402  -5.864  1.00 20.00     0.120 C 
HETATM   10 CL10 UNL     1     -35.266  14.220  -6.768  1.00 20.00    -0.130 Cl
ENDBRANCH   4   9
TORSDOF 1
ENDMDL
MODEL 3
REMARK VINA RESULT:      -4.1      2.981      4.518
REMARK  1 active torsions:
REMARK  status: ('A' for Active; 'I' for Inactive)
REMARK    1  A    between atoms: C4_4  and  C8_8 
ROOT
HETATM    1  C1  UNL     1     -33.698  14.839  -3.390  1.00 20.00     0.017 A 
HETATM    2  C2  UNL     1     -34.664  16.270  -1.446  1.00 20.00     0.025 C 
HETATM    3  C3  UNL     1     -34.425  17.318  -3.692  1.00 20.00     0.084 C 
HETATM    4  C4  UNL     1     -35.193  14.811  -3.531  1.00 20.00     0.009 A 
HETATM    5  C5  UNL     1     -33.688  17.384  -1.090  1.00 20.00     0.044 C 
HETATM    6  C6  UNL     1     -34.517  16.027  -2.924  1.00 20.00    -0.026 A 
HETATM    7  C7  UNL     1     -34.021  18.063   0.227  1.00 20.00     0.021 C 
HETATM    8  S9  UNL     1     -33.815  18.542  -2.488  1.00 20.00    -0.164 SA
ENDROOT
BRANCH   4   9
HETATM    9  C8  UNL     1     -35.814  14.842  -4.886  1.00 20.00     0.120 C 
HETATM   10 CL10 UNL     1     -34.630  14.408  -6.149  1.00 20.00    -0.130 Cl
ENDBRANCH   4   9
TORSDOF 1
ENDMDL
MODEL 4
REMARK VINA RESULT:      -4.0      2.104      2.654
REMARK  1 active torsions:
REMARK  status: ('A' for Active; 'I' for Inactive)
REMARK    1  A    between atoms: C4_4  and  C8_8 
ROOT
HETATM    1  C1  UNL     1     -34.507  14.723  -3.095  1.00 20.00     0.017 A 
HETATM    2  C2  UNL     1     -34.302  15.165  -5.648  1.00 20.00     0.025 C 
HETATM    3  C3  UNL     1     -36.051  16.387  -4.364  1.00 20.00     0.084 C 
HETATM    4  C4  UNL     1     -33.704  15.983  -3.255  1.00 20.00     0.009 A 
HETATM    5  C5  UNL     1     -35.540  14.639  -6.364  1.00 20.00     0.044 C 
HETATM    6  C6  UNL     1     -34.756  15.624  -4.288  1.00 20.00    -0.026 A 
HETATM    7  C7  UNL     1     -35.365  14.568  -7.871  1.00 20.00     0.021 C 
HETATM    8  S9  UNL     1     -36.848  15.814  -5.899  1.00 20.00    -0.164 SA
ENDROOT
BRANCH   4   9
HETATM    9  C8  UNL     1     -33.887  17.110  -2.296  1.00 20.00     0.120 C 
HETATM   10 CL10 UNL     1     -34.603  16.543  -0.762  1.00 20.00    -0.130 Cl
ENDBRANCH   4   9
TORSDOF 1
ENDMDL
MODEL 5
REMARK VINA RESULT:      -4.0      3.133      4.605
REMARK  1 active torsions:
REMARK  status: ('A' for Active; 'I' for Inactive)
REMARK    1  A    between atoms: C4_4  and  C8_8 
ROOT
HETATM    1  C1  UNL     1     -33.542  16.004  -4.952  1.00 20.00     0.017 A 
HETATM    2  C2  UNL     1     -34.260  15.679  -2.475  1.00 20.00     0.025 C 
HETATM    3  C3  UNL     1     -35.967  16.442  -4.120  1.00 20.00     0.084 C 
HETATM    4  C4  UNL     1     -34.192  14.652  -4.862  1.00 20.00     0.009 A 
HETATM    5  C5  UNL     1     -34.606  17.028  -1.857  1.00 20.00     0.044 C 
HETATM    6  C6  UNL     1     -34.635  15.766  -3.930  1.00 20.00    -0.026 A 
HETATM    7  C7  UNL     1     -34.726  16.971  -0.344  1.00 20.00     0.021 C 
HETATM    8  S9  UNL     1     -36.188  17.474  -2.635  1.00 20.00    -0.164 SA
ENDROOT
BRANCH   4   9
HETATM    9  C8  UNL     1     -35.050  14.163  -5.977  1.00 20.00     0.120 C 
HETATM   10 CL10 UNL     1     -34.569  14.896  -7.533  1.00 20.00    -0.130 Cl
ENDBRANCH   4   9
TORSDOF 1
ENDMDL
MODEL 6
REMARK VINA RESULT:      -3.9      3.007      4.543
REMARK  1 active torsions:
REMARK  status: ('A' for Active; 'I' for Inactive)
REMARK    1  A    between atoms: C4_4  and  C8_8 
ROOT
HETATM    1  C1  UNL     1     -33.507  15.470  -3.139  1.00 20.00     0.017 A 
HETATM    2  C2  UNL     1     -34.526  16.476  -0.970  1.00 20.00     0.025 C 
HETATM    3  C3  UNL     1     -34.868  17.686  -3.119  1.00 20.00     0.084 C 
HETATM    4  C4  UNL     1     -34.952  15.060  -3.107  1.00 20.00     0.009 A 
HETATM    5  C5  UNL     1     -33.822  17.783  -0.626  1.00 20.00     0.044 C 
HETATM    6  C6  UNL     1     -34.526  16.371  -2.472  1.00 20.00    -0.026 A 
HETATM    7  C7  UNL     1     -34.130  18.269   0.778  1.00 20.00     0.021 C 
HETATM    8  S9  UNL     1     -34.426  18.950  -1.884  1.00 20.00    -0.164 SA
ENDROOT
BRANCH   4   9
HETATM    9  C8  UNL     1     -35.741  15.011  -4.371  1.00 20.00     0.120 C 
HETATM   10 CL10 UNL     1     -37.449  14.600  -4.052  1.00 20.00    -0.130 Cl
ENDBRANCH   4   9
TORSDOF 1
ENDMDL
MODEL 7
REMARK VINA RESULT:      -3.9      1.976      2.746
REMARK  1 active torsions:
REMARK  status: ('A' for Active; 'I' for Inactive)
REMARK    1  A    between atoms: C4_4  and  C8_8 
ROOT
HETATM    1  C1  UNL     1     -33.286  16.401  -3.484  1.00 20.00     0.017 A 
HETATM    2  C2  UNL     1     -35.144  15.768  -5.189  1.00 20.00     0.025 C 
HETATM    3  C3  UNL     1     -34.512  14.108  -3.444  1.00 20.00     0.084 C 
HETATM    4  C4  UNL     1     -34.603  16.655  -2.806  1.00 20.00     0.009 A 
HETATM    5  C5  UNL     1     -34.655  14.643  -6.092  1.00 20.00     0.044 C 
HETATM    6  C6  UNL     1     -34.492  15.558  -3.848  1.00 20.00    -0.026 A 
HETATM    7  C7  UNL     1     -35.542  14.431  -7.305  1.00 20.00     0.021 C 
HETATM    8  S9  UNL     1     -34.647  13.182  -5.007  1.00 20.00    -0.164 SA
ENDROOT
BRANCH   4   9
HETATM    9  C8  UNL     1     -34.763  16.357  -1.354  1.00 20.00     0.120 C 
HETATM   10 CL10 UNL     1     -33.915  17.564  -0.349  1.00 20.00    -0.130 Cl
ENDBRANCH   4   9
TORSDOF 1
ENDMDL
MODEL 8
REMARK VINA RESULT:      -3.9      3.418      4.918
REMARK  1 active torsions:
REMARK  status: ('A' for Active; 'I' for Inactive)
REMARK    1  A    between atoms: C4_4  and  C8_8 
ROOT
HETATM    1  C1  UNL     1     -34.594  14.209  -5.008  1.00 20.00     0.017 A 
HETATM    2  C2  UNL     1     -35.430  15.470  -2.894  1.00 20.00     0.025 C 
HETATM    3  C3  UNL     1     -34.605  16.804  -4.828  1.00 20.00     0.084 C 
HETATM    4  C4  UNL     1     -36.010  14.631  -5.284  1.00 20.00     0.009 A 
HETATM    5  C5  UNL     1     -34.262  16.177  -2.219  1.00 20.00     0.044 C 
HETATM    6  C6  UNL     1     -35.138  15.472  -4.370  1.00 20.00    -0.026 A 
HETATM    7  C7  UNL     1     -34.595  16.666  -0.821  1.00 20.00     0.021 C 
HETATM    8  S9  UNL     1     -33.881  17.560  -3.337  1.00 20.00    -0.164 SA
ENDROOT
BRANCH   4   9
HETATM    9  C8  UNL     1     -36.398  15.086  -6.650  1.00 20.00     0.120 C 
HETATM   10 CL10 UNL     1     -35.196  14.576  -7.867  1.00 20.00    -0.130 Cl
ENDBRANCH   4   9
TORSDOF 1
ENDMDL
MODEL 9
REMARK VINA RESULT:      -3.8     11.716     12.334
REMARK  1 active torsions:
REMARK  status: ('A' for Active; 'I' for Inactive)
REMARK    1  A    between atoms: C4_4  and  C8_8 
ROOT
HETATM    1  C1  UNL     1     -31.760   6.116   3.203  1.00 20.00     0.017 A 
HETATM    2  C2  UNL     1     -34.181   5.425   3.851  1.00 20.00     0.025 C 
HETATM    3  C3  UNL     1     -33.114   7.315   5.072  1.00 20.00     0.084 C 
HETATM    4  C4  UNL     1     -32.687   7.061   2.492  1.00 20.00     0.009 A 
HETATM    5  C5  UNL     1     -34.193   4.841   5.258  1.00 20.00     0.044 C 
HETATM    6  C6  UNL     1     -33.095   6.468   3.828  1.00 20.00    -0.026 A 
HETATM    7  C7  UNL     1     -35.491   4.128   5.592  1.00 20.00     0.021 C 
HETATM    8  S9  UNL     1     -33.929   6.285   6.334  1.00 20.00    -0.164 SA
ENDROOT
BRANCH   4   9
HETATM    9  C8  UNL     1     -32.315   8.496   2.342  1.00 20.00     0.120 C 
HETATM   10 CL10 UNL     1     -32.123   8.938   0.623  1.00 20.00    -0.130 Cl
ENDBRANCH   4   9
TORSDOF 1
ENDMDL
