MODEL 1
REMARK VINA RESULT:      -5.1      0.000      0.000
REMARK  1 active torsions:
REMARK  status: ('A' for Active; 'I' for Inactive)
REMARK    1  A    between atoms: C6_6  and  C8_8 
ROOT
HETATM    1  C1  UNL     1     -33.607   6.821   5.177  1.00 20.00     0.036 C 
HETATM    2  C2  UNL     1     -34.804   5.371   3.507  1.00 20.00     0.036 C 
HETATM    3  C3  UNL     1     -32.213   5.595   3.353  1.00 20.00     0.016 A 
HETATM    4  C4  UNL     1     -34.034   5.812   6.241  1.00 20.00     0.168 C 
HETATM    5  C5  UNL     1     -35.154   4.447   4.668  1.00 20.00     0.168 C 
HETATM    6  C6  UNL     1     -32.810   6.797   2.668  1.00 20.00     0.005 A 
HETATM    7  C7  UNL     1     -33.543   6.143   3.827  1.00 20.00    -0.032 A 
HETATM    8  O9  UNL     1     -35.274   5.197   5.880  1.00 20.00    -0.391 OA
ENDROOT
BRANCH   6   9
HETATM    9  C8  UNL     1     -32.155   8.130   2.784  1.00 20.00     0.090 C 
HETATM   10 BR10 UNL     1     -32.158   9.043   1.058  1.00 20.00    -0.096 Br
ENDBRANCH   6   9
TORSDOF 1
ENDMDL
MODEL 2
REMARK VINA RESULT:      -4.1     11.658     12.517
REMARK  1 active torsions:
REMARK  status: ('A' for Active; 'I' for Inactive)
REMARK    1  A    between atoms: C6_6  and  C8_8 
ROOT
HETATM    1  C1  UNL     1     -35.134  14.203  -3.837  1.00 20.00     0.036 C 
HETATM    2  C2  UNL     1     -34.572  16.062  -5.434  1.00 20.00     0.036 C 
HETATM    3  C3  UNL     1     -32.976  15.600  -3.428  1.00 20.00     0.016 A 
HETATM    4  C4  UNL     1     -34.893  13.240  -4.996  1.00 20.00     0.168 C 
HETATM    5  C5  UNL     1     -34.359  14.989  -6.495  1.00 20.00     0.168 C 
HETATM    6  C6  UNL     1     -34.111  16.446  -2.914  1.00 20.00     0.005 A 
HETATM    7  C7  UNL     1     -34.348  15.475  -4.058  1.00 20.00    -0.032 A 
HETATM    8  O9  UNL     1     -35.209  13.866  -6.243  1.00 20.00    -0.391 OA
ENDROOT
BRANCH   6   9
HETATM    9  C8  UNL     1     -34.657  16.222  -1.546  1.00 20.00     0.090 C 
HETATM   10 BR10 UNL     1     -34.144  17.684  -0.358  1.00 20.00    -0.096 Br
ENDBRANCH   6   9
TORSDOF 1
ENDMDL
MODEL 3
REMARK VINA RESULT:      -4.1     11.445     12.482
REMARK  1 active torsions:
REMARK  status: ('A' for Active; 'I' for Inactive)
REMARK    1  A    between atoms: C6_6  and  C8_8 
ROOT
HETATM    1  C1  UNL     1     -33.755  16.312  -4.358  1.00 20.00     0.036 C 
HETATM    2  C2  UNL     1     -34.577  14.078  -3.547  1.00 20.00     0.036 C 
HETATM    3  C3  UNL     1     -35.778  16.237  -2.722  1.00 20.00     0.016 A 
HETATM    4  C4  UNL     1     -34.222  15.891  -5.749  1.00 20.00     0.168 C 
HETATM    5  C5  UNL     1     -35.000  13.794  -4.984  1.00 20.00     0.168 C 
HETATM    6  C6  UNL     1     -34.556  16.047  -1.864  1.00 20.00     0.005 A 
HETATM    7  C7  UNL     1     -34.550  15.572  -3.306  1.00 20.00    -0.032 A 
HETATM    8  O9  UNL     1     -34.135  14.472  -5.900  1.00 20.00    -0.391 OA
ENDROOT
BRANCH   6   9
HETATM    9  C8  UNL     1     -33.768  17.226  -1.405  1.00 20.00     0.090 C 
HETATM   10 BR10 UNL     1     -34.441  17.871   0.310  1.00 20.00    -0.096 Br
ENDBRANCH   6   9
TORSDOF 1
ENDMDL
MODEL 4
REMARK VINA RESULT:      -4.1     11.107     11.960
REMARK  1 active torsions:
REMARK  status: ('A' for Active; 'I' for Inactive)
REMARK    1  A    between atoms: C6_6  and  C8_8 
ROOT
HETATM    1  C1  UNL     1     -33.778  14.673  -3.054  1.00 20.00     0.036 C 
HETATM    2  C2  UNL     1     -36.230  14.861  -3.577  1.00 20.00     0.036 C 
HETATM    3  C3  UNL     1     -34.663  16.862  -4.150  1.00 20.00     0.016 A 
HETATM    4  C4  UNL     1     -33.717  13.574  -4.111  1.00 20.00     0.168 C 
HETATM    5  C5  UNL     1     -36.021  13.756  -4.606  1.00 20.00     0.168 C 
HETATM    6  C6  UNL     1     -35.014  16.969  -2.689  1.00 20.00     0.005 A 
HETATM    7  C7  UNL     1     -34.932  15.604  -3.350  1.00 20.00    -0.032 A 
HETATM    8  O9  UNL     1     -34.966  12.884  -4.191  1.00 20.00    -0.391 OA
ENDROOT
BRANCH   6   9
HETATM    9  C8  UNL     1     -34.001  17.446  -1.706  1.00 20.00     0.090 C 
HETATM   10 BR10 UNL     1     -34.735  17.409   0.102  1.00 20.00    -0.096 Br
ENDBRANCH   6   9
TORSDOF 1
ENDMDL
MODEL 5
REMARK VINA RESULT:      -4.0     11.938     12.783
REMARK  1 active torsions:
REMARK  status: ('A' for Active; 'I' for Inactive)
REMARK    1  A    between atoms: C6_6  and  C8_8 
ROOT
HETATM    1  C1  UNL     1     -34.499  17.161  -4.052  1.00 20.00     0.036 C 
HETATM    2  C2  UNL     1     -33.158  15.159  -3.335  1.00 20.00     0.036 C 
HETATM    3  C3  UNL     1     -34.815  16.238  -1.639  1.00 20.00     0.016 A 
HETATM    4  C4  UNL     1     -35.207  16.235  -5.037  1.00 20.00     0.168 C 
HETATM    5  C5  UNL     1     -33.950  14.353  -4.358  1.00 20.00     0.168 C 
HETATM    6  C6  UNL     1     -33.544  17.045  -1.601  1.00 20.00     0.005 A 
HETATM    7  C7  UNL     1     -33.967  16.357  -2.888  1.00 20.00    -0.032 A 
HETATM    8  O9  UNL     1     -34.333  15.184  -5.456  1.00 20.00    -0.391 OA
ENDROOT
BRANCH   6   9
HETATM    9  C8  UNL     1     -33.597  18.524  -1.428  1.00 20.00     0.090 C 
HETATM   10 BR10 UNL     1     -32.375  19.090  -0.016  1.00 20.00    -0.096 Br
ENDBRANCH   6   9
TORSDOF 1
ENDMDL
MODEL 6
REMARK VINA RESULT:      -4.0      9.696     10.911
REMARK  1 active torsions:
REMARK  status: ('A' for Active; 'I' for Inactive)
REMARK    1  A    between atoms: C6_6  and  C8_8 
ROOT
HETATM    1  C1  UNL     1     -40.829   4.758  -1.155  1.00 20.00     0.036 C 
HETATM    2  C2  UNL     1     -42.210   6.361  -2.514  1.00 20.00     0.036 C 
HETATM    3  C3  UNL     1     -43.292   4.130  -1.716  1.00 20.00     0.016 A 
HETATM    4  C4  UNL     1     -40.822   5.818  -0.057  1.00 20.00     0.168 C 
HETATM    5  C5  UNL     1     -42.125   7.322  -1.334  1.00 20.00     0.168 C 
HETATM    6  C6  UNL     1     -42.502   3.826  -2.962  1.00 20.00     0.005 A 
HETATM    7  C7  UNL     1     -42.050   4.937  -2.030  1.00 20.00    -0.032 A 
HETATM    8  O9  UNL     1     -40.899   7.129  -0.624  1.00 20.00    -0.391 OA
ENDROOT
BRANCH   6   9
HETATM    9  C8  UNL     1     -41.766   2.537  -3.090  1.00 20.00     0.090 C 
HETATM   10 BR10 UNL     1     -42.429   1.522  -4.619  1.00 20.00    -0.096 Br
ENDBRANCH   6   9
TORSDOF 1
ENDMDL
MODEL 7
REMARK VINA RESULT:      -4.0     10.988     12.298
REMARK  1 active torsions:
REMARK  status: ('A' for Active; 'I' for Inactive)
REMARK    1  A    between atoms: C6_6  and  C8_8 
ROOT
HETATM    1  C1  UNL     1     -35.353  15.244  -4.345  1.00 20.00     0.036 C 
HETATM    2  C2  UNL     1     -32.996  14.644  -3.706  1.00 20.00     0.036 C 
HETATM    3  C3  UNL     1     -34.426  16.063  -2.055  1.00 20.00     0.016 A 
HETATM    4  C4  UNL     1     -35.674  13.754  -4.250  1.00 20.00     0.168 C 
HETATM    5  C5  UNL     1     -33.459  13.193  -3.643  1.00 20.00     0.168 C 
HETATM    6  C6  UNL     1     -33.858  17.006  -3.083  1.00 20.00     0.005 A 
HETATM    7  C7  UNL     1     -34.168  15.568  -3.463  1.00 20.00    -0.032 A 
HETATM    8  O9  UNL     1     -34.522  12.970  -4.574  1.00 20.00    -0.391 OA
ENDROOT
BRANCH   6   9
HETATM    9  C8  UNL     1     -34.666  18.157  -3.575  1.00 20.00     0.090 C 
HETATM   10 BR10 UNL     1     -33.734  19.077  -5.022  1.00 20.00    -0.096 Br
ENDBRANCH   6   9
TORSDOF 1
ENDMDL
MODEL 8
REMARK VINA RESULT:      -3.9     11.873     12.756
REMARK  1 active torsions:
REMARK  status: ('A' for Active; 'I' for Inactive)
REMARK    1  A    between atoms: C6_6  and  C8_8 
ROOT
HETATM    1  C1  UNL     1     -34.760  17.673  -3.331  1.00 20.00     0.036 C 
HETATM    2  C2  UNL     1     -34.527  16.571  -1.083  1.00 20.00     0.036 C 
HETATM    3  C3  UNL     1     -33.576  15.359  -3.184  1.00 20.00     0.016 A 
HETATM    4  C4  UNL     1     -33.813  18.752  -2.813  1.00 20.00     0.168 C 
HETATM    5  C5  UNL     1     -33.590  17.712  -0.702  1.00 20.00     0.168 C 
HETATM    6  C6  UNL     1     -35.052  15.064  -3.124  1.00 20.00     0.005 A 
HETATM    7  C7  UNL     1     -34.520  16.380  -2.584  1.00 20.00    -0.032 A 
HETATM    8  O9  UNL     1     -33.954  18.907  -1.399  1.00 20.00    -0.391 OA
ENDROOT
BRANCH   6   9
HETATM    9  C8  UNL     1     -35.852  14.977  -4.377  1.00 20.00     0.090 C 
HETATM   10 BR10 UNL     1     -34.715  14.468  -5.879  1.00 20.00    -0.096 Br
ENDBRANCH   6   9
TORSDOF 1
ENDMDL
MODEL 9
REMARK VINA RESULT:      -3.9     11.053     12.615
REMARK  1 active torsions:
REMARK  status: ('A' for Active; 'I' for Inactive)
REMARK    1  A    between atoms: C6_6  and  C8_8 
ROOT
HETATM    1  C1  UNL     1     -33.930  14.885  -3.319  1.00 20.00     0.036 C 
HETATM    2  C2  UNL     1     -35.416  15.038  -5.342  1.00 20.00     0.036 C 
HETATM    3  C3  UNL     1     -33.297  16.547  -5.218  1.00 20.00     0.016 A 
HETATM    4  C4  UNL     1     -33.598  13.464  -3.768  1.00 20.00     0.168 C 
HETATM    5  C5  UNL     1     -34.990  13.612  -5.673  1.00 20.00     0.168 C 
HETATM    6  C6  UNL     1     -34.382  17.230  -4.428  1.00 20.00     0.005 A 
HETATM    7  C7  UNL     1     -34.346  15.714  -4.514  1.00 20.00    -0.032 A 
HETATM    8  O9  UNL     1     -34.702  12.889  -4.473  1.00 20.00    -0.391 OA
ENDROOT
BRANCH   6   9
HETATM    9  C8  UNL     1     -34.049  17.970  -3.178  1.00 20.00     0.090 C 
HETATM   10 BR10 UNL     1     -35.677  18.444  -2.212  1.00 20.00    -0.096 Br
ENDBRANCH   6   9
TORSDOF 1
ENDMDL
