MODEL 1
REMARK VINA RESULT:      -5.7      0.000      0.000
REMARK  2 active torsions:
REMARK  status: ('A' for Active; 'I' for Inactive)
REMARK    1  A    between atoms: C5_5  and  C6_6 
REMARK    2  A    between atoms: C7_7  and  C8_8 
ROOT
HETATM    1  C4  UNL     1     -31.941   5.986   3.289  1.00 20.00     0.011 A 
HETATM    2  C6  UNL     1     -33.397   6.304   3.102  1.00 20.00    -0.005 A 
HETATM    3  C7  UNL     1     -32.378   7.407   3.048  1.00 20.00     0.004 A 
ENDROOT
BRANCH   2   4
HETATM    4  C5  UNL     1     -34.412   6.184   4.220  1.00 20.00    -0.010 C 
HETATM    5  C2  UNL     1     -33.860   6.237   5.668  1.00 20.00     0.005 C 
HETATM    6  C1  UNL     1     -34.929   5.188   6.035  1.00 20.00     0.001 C 
HETATM    7  C3  UNL     1     -34.910   4.755   4.555  1.00 20.00     0.005 C 
ENDBRANCH   2   4
BRANCH   3   8
HETATM    8  C8  UNL     1     -32.075   8.075   1.752  1.00 20.00     0.119 C 
HETATM    9 CL9  UNL     1     -32.551   9.795   1.783  1.00 20.00    -0.130 Cl
ENDBRANCH   3   8
TORSDOF 2
ENDMDL
MODEL 2
REMARK VINA RESULT:      -4.9      0.877      1.533
REMARK  2 active torsions:
REMARK  status: ('A' for Active; 'I' for Inactive)
REMARK    1  A    between atoms: C5_5  and  C6_6 
REMARK    2  A    between atoms: C7_7  and  C8_8 
ROOT
HETATM    1  C4  UNL     1     -31.525   7.486   3.880  1.00 20.00     0.011 A 
HETATM    2  C6  UNL     1     -32.175   6.356   3.134  1.00 20.00    -0.005 A 
HETATM    3  C7  UNL     1     -32.439   7.775   2.718  1.00 20.00     0.004 A 
ENDROOT
BRANCH   2   4
HETATM    4  C5  UNL     1     -33.242   5.474   3.750  1.00 20.00    -0.010 C 
HETATM    5  C2  UNL     1     -34.598   5.398   3.001  1.00 20.00     0.005 C 
HETATM    6  C1  UNL     1     -35.275   5.345   4.386  1.00 20.00     0.001 C 
HETATM    7  C3  UNL     1     -34.032   6.070   4.942  1.00 20.00     0.005 C 
ENDBRANCH   2   4
BRANCH   3   8
HETATM    8  C8  UNL     1     -31.881   8.288   1.436  1.00 20.00     0.119 C 
HETATM    9 CL9  UNL     1     -32.411   9.965   1.125  1.00 20.00    -0.130 Cl
ENDBRANCH   3   8
TORSDOF 2
ENDMDL
MODEL 3
REMARK VINA RESULT:      -4.4      2.293      4.531
REMARK  2 active torsions:
REMARK  status: ('A' for Active; 'I' for Inactive)
REMARK    1  A    between atoms: C5_5  and  C6_6 
REMARK    2  A    between atoms: C7_7  and  C8_8 
ROOT
HETATM    1  C4  UNL     1     -32.205   5.856   2.910  1.00 20.00     0.011 A 
HETATM    2  C6  UNL     1     -32.052   7.269   3.396  1.00 20.00    -0.005 A 
HETATM    3  C7  UNL     1     -33.403   6.613   3.422  1.00 20.00     0.004 A 
ENDROOT
BRANCH   2   4
HETATM    4  C5  UNL     1     -31.721   8.422   2.471  1.00 20.00    -0.010 C 
HETATM    5  C2  UNL     1     -32.837   9.475   2.248  1.00 20.00     0.005 C 
HETATM    6  C1  UNL     1     -32.353   9.571   0.787  1.00 20.00     0.001 C 
HETATM    7  C3  UNL     1     -31.806   8.137   0.950  1.00 20.00     0.005 C 
ENDBRANCH   2   4
BRANCH   3   8
HETATM    8  C8  UNL     1     -34.023   6.242   4.724  1.00 20.00     0.119 C 
HETATM    9 CL9  UNL     1     -35.285   4.997   4.508  1.00 20.00    -0.130 Cl
ENDBRANCH   3   8
TORSDOF 2
ENDMDL
MODEL 4
REMARK VINA RESULT:      -4.1      2.685      4.403
REMARK  2 active torsions:
REMARK  status: ('A' for Active; 'I' for Inactive)
REMARK    1  A    between atoms: C5_5  and  C6_6 
REMARK    2  A    between atoms: C7_7  and  C8_8 
ROOT
HETATM    1  C4  UNL     1     -34.868   5.721   3.672  1.00 20.00     0.011 A 
HETATM    2  C6  UNL     1     -33.386   5.625   3.894  1.00 20.00    -0.005 A 
HETATM    3  C7  UNL     1     -34.253   6.295   4.921  1.00 20.00     0.004 A 
ENDROOT
BRANCH   2   4
HETATM    4  C5  UNL     1     -32.381   6.385   3.053  1.00 20.00    -0.010 C 
HETATM    5  C2  UNL     1     -31.537   7.461   3.782  1.00 20.00     0.005 C 
HETATM    6  C1  UNL     1     -31.639   8.307   2.496  1.00 20.00     0.001 C 
HETATM    7  C3  UNL     1     -32.938   7.537   2.179  1.00 20.00     0.005 C 
ENDBRANCH   2   4
BRANCH   3   8
HETATM    8  C8  UNL     1     -34.484   5.641   6.239  1.00 20.00     0.119 C 
HETATM    9 CL9  UNL     1     -34.894   3.915   6.042  1.00 20.00    -0.130 Cl
ENDBRANCH   3   8
TORSDOF 2
ENDMDL
MODEL 5
REMARK VINA RESULT:      -4.0     10.639     11.665
REMARK  2 active torsions:
REMARK  status: ('A' for Active; 'I' for Inactive)
REMARK    1  A    between atoms: C5_5  and  C6_6 
REMARK    2  A    between atoms: C7_7  and  C8_8 
ROOT
HETATM    1  C4  UNL     1     -34.050  17.052  -3.670  1.00 20.00     0.011 A 
HETATM    2  C6  UNL     1     -34.942  16.101  -2.925  1.00 20.00    -0.005 A 
HETATM    3  C7  UNL     1     -33.647  16.546  -2.309  1.00 20.00     0.004 A 
ENDROOT
BRANCH   2   4
HETATM    4  C5  UNL     1     -35.182  14.676  -3.381  1.00 20.00    -0.010 C 
HETATM    5  C2  UNL     1     -33.924  13.822  -3.682  1.00 20.00     0.005 C 
HETATM    6  C1  UNL     1     -34.721  13.188  -4.840  1.00 20.00     0.001 C 
HETATM    7  C3  UNL     1     -35.566  14.478  -4.869  1.00 20.00     0.005 C 
ENDBRANCH   2   4
BRANCH   3   8
HETATM    8  C8  UNL     1     -33.660  17.463  -1.136  1.00 20.00     0.119 C 
HETATM    9 CL9  UNL     1     -34.909  16.984   0.046  1.00 20.00    -0.130 Cl
ENDBRANCH   3   8
TORSDOF 2
ENDMDL
MODEL 6
REMARK VINA RESULT:      -4.0     10.585     11.727
REMARK  2 active torsions:
REMARK  status: ('A' for Active; 'I' for Inactive)
REMARK    1  A    between atoms: C5_5  and  C6_6 
REMARK    2  A    between atoms: C7_7  and  C8_8 
ROOT
HETATM    1  C4  UNL     1     -33.658  16.398  -4.107  1.00 20.00     0.011 A 
HETATM    2  C6  UNL     1     -33.556  16.280  -2.613  1.00 20.00    -0.005 A 
HETATM    3  C7  UNL     1     -34.413  15.315  -3.382  1.00 20.00     0.004 A 
ENDROOT
BRANCH   2   4
HETATM    4  C5  UNL     1     -34.137  17.312  -1.668  1.00 20.00    -0.010 C 
HETATM    5  C2  UNL     1     -33.136  18.037  -0.732  1.00 20.00     0.005 C 
HETATM    6  C1  UNL     1     -34.234  18.000   0.350  1.00 20.00     0.001 C 
HETATM    7  C3  UNL     1     -34.814  16.773  -0.383  1.00 20.00     0.005 C 
ENDBRANCH   2   4
BRANCH   3   8
HETATM    8  C8  UNL     1     -33.992  13.892  -3.515  1.00 20.00     0.119 C 
HETATM    9 CL9  UNL     1     -34.751  13.122  -4.936  1.00 20.00    -0.130 Cl
ENDBRANCH   3   8
TORSDOF 2
ENDMDL
MODEL 7
REMARK VINA RESULT:      -4.0     11.465     12.648
REMARK  2 active torsions:
REMARK  status: ('A' for Active; 'I' for Inactive)
REMARK    1  A    between atoms: C5_5  and  C6_6 
REMARK    2  A    between atoms: C7_7  and  C8_8 
ROOT
HETATM    1  C4  UNL     1     -33.529  17.385  -5.236  1.00 20.00     0.011 A 
HETATM    2  C6  UNL     1     -33.227  16.089  -4.539  1.00 20.00    -0.005 A 
HETATM    3  C7  UNL     1     -34.332  16.151  -5.554  1.00 20.00     0.004 A 
ENDROOT
BRANCH   2   4
HETATM    4  C5  UNL     1     -33.486  15.873  -3.062  1.00 20.00    -0.010 C 
HETATM    5  C2  UNL     1     -34.930  15.474  -2.661  1.00 20.00     0.005 C 
HETATM    6  C1  UNL     1     -34.742  16.346  -1.403  1.00 20.00     0.001 C 
HETATM    7  C3  UNL     1     -33.691  17.144  -2.200  1.00 20.00     0.005 C 
ENDBRANCH   2   4
BRANCH   3   8
HETATM    8  C8  UNL     1     -34.170  15.471  -6.869  1.00 20.00     0.119 C 
HETATM    9 CL9  UNL     1     -35.481  14.293  -7.155  1.00 20.00    -0.130 Cl
ENDBRANCH   3   8
TORSDOF 2
ENDMDL
MODEL 8
REMARK VINA RESULT:      -4.0     11.406     12.598
REMARK  2 active torsions:
REMARK  status: ('A' for Active; 'I' for Inactive)
REMARK    1  A    between atoms: C5_5  and  C6_6 
REMARK    2  A    between atoms: C7_7  and  C8_8 
ROOT
HETATM    1  C4  UNL     1     -32.913  15.060  -3.629  1.00 20.00     0.011 A 
HETATM    2  C6  UNL     1     -33.765  16.044  -4.379  1.00 20.00    -0.005 A 
HETATM    3  C7  UNL     1     -34.021  15.794  -2.920  1.00 20.00     0.004 A 
ENDROOT
BRANCH   2   4
HETATM    4  C5  UNL     1     -34.738  15.626  -5.462  1.00 20.00    -0.010 C 
HETATM    5  C2  UNL     1     -34.909  14.102  -5.692  1.00 20.00     0.005 C 
HETATM    6  C1  UNL     1     -35.037  14.418  -7.196  1.00 20.00     0.001 C 
HETATM    7  C3  UNL     1     -34.226  15.701  -6.923  1.00 20.00     0.005 C 
ENDBRANCH   2   4
BRANCH   3   8
HETATM    8  C8  UNL     1     -33.701  16.849  -1.919  1.00 20.00     0.119 C 
HETATM    9 CL9  UNL     1     -34.715  16.686  -0.459  1.00 20.00    -0.130 Cl
ENDBRANCH   3   8
TORSDOF 2
ENDMDL
MODEL 9
REMARK VINA RESULT:      -4.0     10.964     11.940
REMARK  2 active torsions:
REMARK  status: ('A' for Active; 'I' for Inactive)
REMARK    1  A    between atoms: C5_5  and  C6_6 
REMARK    2  A    between atoms: C7_7  and  C8_8 
ROOT
HETATM    1  C4  UNL     1     -34.421  16.552  -1.346  1.00 20.00     0.011 A 
HETATM    2  C6  UNL     1     -34.033  15.957  -2.669  1.00 20.00    -0.005 A 
HETATM    3  C7  UNL     1     -34.923  17.166  -2.626  1.00 20.00     0.004 A 
ENDROOT
BRANCH   2   4
HETATM    4  C5  UNL     1     -34.522  14.600  -3.131  1.00 20.00    -0.010 C 
HETATM    5  C2  UNL     1     -33.494  13.707  -3.874  1.00 20.00     0.005 C 
HETATM    6  C1  UNL     1     -34.660  13.237  -4.768  1.00 20.00     0.001 C 
HETATM    7  C3  UNL     1     -35.359  14.571  -4.435  1.00 20.00     0.005 C 
ENDBRANCH   2   4
BRANCH   3   8
HETATM    8  C8  UNL     1     -34.402  18.486  -3.078  1.00 20.00     0.119 C 
HETATM    9 CL9  UNL     1     -33.529  18.342  -4.628  1.00 20.00    -0.130 Cl
ENDBRANCH   3   8
TORSDOF 2
ENDMDL
