MODEL 1
REMARK VINA RESULT:      -4.5      0.000      0.000
REMARK  1 active torsions:
REMARK  status: ('A' for Active; 'I' for Inactive)
REMARK    1  A    between atoms: C5_5  and  C10_10 
ROOT
HETATM    1  C1  UNL     1     -34.088  13.927  -3.484  1.00 20.00     0.036 C 
HETATM    2  C2  UNL     1     -33.781  16.241  -2.393  1.00 20.00     0.016 A 
HETATM    3  C3  UNL     1     -34.251  15.975  -4.923  1.00 20.00     0.047 C 
HETATM    4  C4  UNL     1     -34.971  13.214  -4.496  1.00 20.00     0.169 C 
HETATM    5  C5  UNL     1     -35.266  16.023  -2.463  1.00 20.00     0.009 A 
HETATM    6  C6  UNL     1     -34.357  15.414  -3.523  1.00 20.00    -0.031 A 
HETATM    7  C7  UNL     1     -35.075  15.150  -5.934  1.00 20.00     0.054 C 
HETATM    8  C8  UNL     1     -36.584  15.401  -5.808  1.00 20.00     0.045 C 
HETATM    9  C9  UNL     1     -34.644  15.536  -7.358  1.00 20.00     0.045 C 
HETATM   10  O11 UNL     1     -34.777  13.749  -5.806  1.00 20.00    -0.381 OA
ENDROOT
BRANCH   5  11
HETATM   11  C10 UNL     1     -36.160  17.193  -2.698  1.00 20.00     0.120 C 
HETATM   12 CL12 UNL     1     -35.296  18.731  -2.430  1.00 20.00    -0.130 Cl
ENDBRANCH   5  11
TORSDOF 1
ENDMDL
MODEL 2
REMARK VINA RESULT:      -4.5      1.700      2.126
REMARK  1 active torsions:
REMARK  status: ('A' for Active; 'I' for Inactive)
REMARK    1  A    between atoms: C5_5  and  C10_10 
ROOT
HETATM    1  C1  UNL     1     -34.640  14.148  -5.231  1.00 20.00     0.036 C 
HETATM    2  C2  UNL     1     -32.686  14.699  -3.644  1.00 20.00     0.016 A 
HETATM    3  C3  UNL     1     -33.535  16.394  -5.404  1.00 20.00     0.047 C 
HETATM    4  C4  UNL     1     -35.893  14.781  -5.814  1.00 20.00     0.169 C 
HETATM    5  C5  UNL     1     -33.905  15.302  -3.006  1.00 20.00     0.009 A 
HETATM    6  C6  UNL     1     -33.814  15.197  -4.523  1.00 20.00    -0.031 A 
HETATM    7  C7  UNL     1     -34.823  16.931  -6.063  1.00 20.00     0.054 C 
HETATM    8  C8  UNL     1     -35.712  17.702  -5.077  1.00 20.00     0.045 C 
HETATM    9  C9  UNL     1     -34.437  17.886  -7.204  1.00 20.00     0.045 C 
HETATM   10  O11 UNL     1     -35.558  15.862  -6.685  1.00 20.00    -0.381 OA
ENDROOT
BRANCH   5  11
HETATM   11  C10 UNL     1     -33.770  16.577  -2.244  1.00 20.00     0.120 C 
HETATM   12 CL12 UNL     1     -34.704  16.524  -0.725  1.00 20.00    -0.130 Cl
ENDBRANCH   5  11
TORSDOF 1
ENDMDL
MODEL 3
REMARK VINA RESULT:      -4.5      1.820      3.426
REMARK  1 active torsions:
REMARK  status: ('A' for Active; 'I' for Inactive)
REMARK    1  A    between atoms: C5_5  and  C10_10 
ROOT
HETATM    1  C1  UNL     1     -34.810  13.408  -5.587  1.00 20.00     0.036 C 
HETATM    2  C2  UNL     1     -34.736  14.961  -7.641  1.00 20.00     0.016 A 
HETATM    3  C3  UNL     1     -36.647  15.087  -5.902  1.00 20.00     0.047 C 
HETATM    4  C4  UNL     1     -35.106  13.446  -4.096  1.00 20.00     0.169 C 
HETATM    5  C5  UNL     1     -34.146  15.759  -6.513  1.00 20.00     0.009 A 
HETATM    6  C6  UNL     1     -35.218  14.715  -6.227  1.00 20.00    -0.031 A 
HETATM    7  C7  UNL     1     -36.930  15.000  -4.387  1.00 20.00     0.054 C 
HETATM    8  C8  UNL     1     -36.312  16.168  -3.605  1.00 20.00     0.045 C 
HETATM    9  C9  UNL     1     -38.450  15.028  -4.163  1.00 20.00     0.045 C 
HETATM   10  O11 UNL     1     -36.483  13.739  -3.859  1.00 20.00    -0.381 OA
ENDROOT
BRANCH   5  11
HETATM   11  C10 UNL     1     -34.376  17.231  -6.466  1.00 20.00     0.120 C 
HETATM   12 CL12 UNL     1     -33.466  17.985  -5.129  1.00 20.00    -0.130 Cl
ENDBRANCH   5  11
TORSDOF 1
ENDMDL
MODEL 4
REMARK VINA RESULT:      -4.4     11.940     13.259
REMARK  1 active torsions:
REMARK  status: ('A' for Active; 'I' for Inactive)
REMARK    1  A    between atoms: C5_5  and  C10_10 
ROOT
HETATM    1  C1  UNL     1     -42.206   4.584   0.501  1.00 20.00     0.036 C 
HETATM    2  C2  UNL     1     -40.420   6.300  -0.209  1.00 20.00     0.016 A 
HETATM    3  C3  UNL     1     -41.151   4.367  -1.765  1.00 20.00     0.047 C 
HETATM    4  C4  UNL     1     -43.417   3.852  -0.055  1.00 20.00     0.169 C 
HETATM    5  C5  UNL     1     -41.709   6.788  -0.810  1.00 20.00     0.009 A 
HETATM    6  C6  UNL     1     -41.477   5.295  -0.616  1.00 20.00    -0.031 A 
HETATM    7  C7  UNL     1     -42.388   3.563  -2.219  1.00 20.00     0.054 C 
HETATM    8  C8  UNL     1     -43.383   4.415  -3.019  1.00 20.00     0.045 C 
HETATM    9  C9  UNL     1     -41.925   2.404  -3.115  1.00 20.00     0.045 C 
HETATM   10  O11 UNL     1     -43.033   2.948  -1.091  1.00 20.00    -0.381 OA
ENDROOT
BRANCH   5  11
HETATM   11  C10 UNL     1     -41.678   7.476  -2.132  1.00 20.00     0.120 C 
HETATM   12 CL12 UNL     1     -43.307   8.022  -2.615  1.00 20.00    -0.130 Cl
ENDBRANCH   5  11
TORSDOF 1
ENDMDL
MODEL 5
REMARK VINA RESULT:      -4.4      2.398      4.038
REMARK  1 active torsions:
REMARK  status: ('A' for Active; 'I' for Inactive)
REMARK    1  A    between atoms: C5_5  and  C10_10 
ROOT
HETATM    1  C1  UNL     1     -33.288  16.156  -4.529  1.00 20.00     0.036 C 
HETATM    2  C2  UNL     1     -34.293  13.797  -4.274  1.00 20.00     0.016 A 
HETATM    3  C3  UNL     1     -34.380  15.533  -2.358  1.00 20.00     0.047 C 
HETATM    4  C4  UNL     1     -33.605  17.609  -4.207  1.00 20.00     0.169 C 
HETATM    5  C5  UNL     1     -35.445  14.687  -4.646  1.00 20.00     0.009 A 
HETATM    6  C6  UNL     1     -34.280  15.248  -3.840  1.00 20.00    -0.031 A 
HETATM    7  C7  UNL     1     -34.588  17.037  -2.078  1.00 20.00     0.054 C 
HETATM    8  C8  UNL     1     -36.016  17.502  -2.396  1.00 20.00     0.045 C 
HETATM    9  C9  UNL     1     -34.318  17.306  -0.590  1.00 20.00     0.045 C 
HETATM   10  O11 UNL     1     -33.623  17.824  -2.796  1.00 20.00    -0.381 OA
ENDROOT
BRANCH   5  11
HETATM   11  C10 UNL     1     -36.794  14.401  -4.080  1.00 20.00     0.120 C 
HETATM   12 CL12 UNL     1     -38.024  15.507  -4.749  1.00 20.00    -0.130 Cl
ENDBRANCH   5  11
TORSDOF 1
ENDMDL
MODEL 6
REMARK VINA RESULT:      -4.3      1.852      3.667
REMARK  1 active torsions:
REMARK  status: ('A' for Active; 'I' for Inactive)
REMARK    1  A    between atoms: C5_5  and  C10_10 
ROOT
HETATM    1  C1  UNL     1     -34.178  16.430  -6.451  1.00 20.00     0.036 C 
HETATM    2  C2  UNL     1     -36.145  14.861  -7.007  1.00 20.00     0.016 A 
HETATM    3  C3  UNL     1     -34.439  14.306  -5.142  1.00 20.00     0.047 C 
HETATM    4  C4  UNL     1     -33.441  17.011  -5.254  1.00 20.00     0.169 C 
HETATM    5  C5  UNL     1     -36.606  15.686  -5.838  1.00 20.00     0.009 A 
HETATM    6  C6  UNL     1     -35.129  15.348  -5.995  1.00 20.00    -0.031 A 
HETATM    7  C7  UNL     1     -33.613  14.950  -4.009  1.00 20.00     0.054 C 
HETATM    8  C8  UNL     1     -34.492  15.487  -2.871  1.00 20.00     0.045 C 
HETATM    9  C9  UNL     1     -32.666  13.892  -3.422  1.00 20.00     0.045 C 
HETATM   10  O11 UNL     1     -32.762  15.986  -4.529  1.00 20.00    -0.381 OA
ENDROOT
BRANCH   5  11
HETATM   11  C10 UNL     1     -37.504  15.066  -4.823  1.00 20.00     0.120 C 
HETATM   12 CL12 UNL     1     -37.986  16.251  -3.577  1.00 20.00    -0.130 Cl
ENDBRANCH   5  11
TORSDOF 1
ENDMDL
MODEL 7
REMARK VINA RESULT:      -4.3      1.716      2.974
REMARK  1 active torsions:
REMARK  status: ('A' for Active; 'I' for Inactive)
REMARK    1  A    between atoms: C5_5  and  C10_10 
ROOT
HETATM    1  C1  UNL     1     -35.111  17.459  -4.876  1.00 20.00     0.036 C 
HETATM    2  C2  UNL     1     -35.905  17.839  -2.455  1.00 20.00     0.016 A 
HETATM    3  C3  UNL     1     -35.220  15.497  -3.315  1.00 20.00     0.047 C 
HETATM    4  C4  UNL     1     -34.045  16.705  -5.658  1.00 20.00     0.169 C 
HETATM    5  C5  UNL     1     -34.404  17.857  -2.393  1.00 20.00     0.009 A 
HETATM    6  C6  UNL     1     -35.112  17.001  -3.435  1.00 20.00    -0.031 A 
HETATM    7  C7  UNL     1     -34.193  14.776  -4.214  1.00 20.00     0.054 C 
HETATM    8  C8  UNL     1     -32.766  14.849  -3.652  1.00 20.00     0.045 C 
HETATM    9  C9  UNL     1     -34.587  13.296  -4.328  1.00 20.00     0.045 C 
HETATM   10  O11 UNL     1     -34.241  15.295  -5.554  1.00 20.00    -0.381 OA
ENDROOT
BRANCH   5  11
HETATM   11  C10 UNL     1     -33.721  17.311  -1.185  1.00 20.00     0.120 C 
HETATM   12 CL12 UNL     1     -34.878  17.050   0.149  1.00 20.00    -0.130 Cl
ENDBRANCH   5  11
TORSDOF 1
ENDMDL
MODEL 8
REMARK VINA RESULT:      -4.3      2.612      3.918
REMARK  1 active torsions:
REMARK  status: ('A' for Active; 'I' for Inactive)
REMARK    1  A    between atoms: C5_5  and  C10_10 
ROOT
HETATM    1  C1  UNL     1     -33.760  16.010  -2.768  1.00 20.00     0.036 C 
HETATM    2  C2  UNL     1     -34.283  13.614  -3.559  1.00 20.00     0.016 A 
HETATM    3  C3  UNL     1     -36.134  15.404  -3.312  1.00 20.00     0.047 C 
HETATM    4  C4  UNL     1     -34.116  17.454  -3.085  1.00 20.00     0.169 C 
HETATM    5  C5  UNL     1     -34.161  14.434  -4.813  1.00 20.00     0.009 A 
HETATM    6  C6  UNL     1     -34.673  15.077  -3.530  1.00 20.00    -0.031 A 
HETATM    7  C7  UNL     1     -36.423  16.904  -3.535  1.00 20.00     0.054 C 
HETATM    8  C8  UNL     1     -36.424  17.289  -5.021  1.00 20.00     0.045 C 
HETATM    9  C9  UNL     1     -37.806  17.234  -2.955  1.00 20.00     0.045 C 
HETATM   10  O11 UNL     1     -35.490  17.714  -2.798  1.00 20.00    -0.381 OA
ENDROOT
BRANCH   5  11
HETATM   11  C10 UNL     1     -35.021  14.100  -5.984  1.00 20.00     0.120 C 
HETATM   12 CL12 UNL     1     -34.481  14.964  -7.449  1.00 20.00    -0.130 Cl
ENDBRANCH   5  11
TORSDOF 1
ENDMDL
MODEL 9
REMARK VINA RESULT:      -4.2      2.050      3.851
REMARK  1 active torsions:
REMARK  status: ('A' for Active; 'I' for Inactive)
REMARK    1  A    between atoms: C5_5  and  C10_10 
ROOT
HETATM    1  C1  UNL     1     -34.822  13.348  -5.236  1.00 20.00     0.036 C 
HETATM    2  C2  UNL     1     -36.104  14.747  -6.979  1.00 20.00     0.016 A 
HETATM    3  C3  UNL     1     -35.689  15.607  -4.575  1.00 20.00     0.047 C 
HETATM    4  C4  UNL     1     -33.761  13.501  -4.157  1.00 20.00     0.169 C 
HETATM    5  C5  UNL     1     -34.690  15.255  -7.016  1.00 20.00     0.009 A 
HETATM    6  C6  UNL     1     -35.269  14.709  -5.717  1.00 20.00    -0.031 A 
HETATM    7  C7  UNL     1     -34.630  15.641  -3.453  1.00 20.00     0.054 C 
HETATM    8  C8  UNL     1     -33.400  16.479  -3.830  1.00 20.00     0.045 C 
HETATM    9  C9  UNL     1     -35.259  16.256  -2.194  1.00 20.00     0.045 C 
HETATM   10  O11 UNL     1     -34.244  14.307  -3.081  1.00 20.00    -0.381 OA
ENDROOT
BRANCH   5  11
HETATM   11  C10 UNL     1     -34.446  16.701  -7.282  1.00 20.00     0.120 C 
HETATM   12 CL12 UNL     1     -35.912  17.498  -7.917  1.00 20.00    -0.130 Cl
ENDBRANCH   5  11
TORSDOF 1
ENDMDL
