MODEL 1
REMARK VINA RESULT:      -5.1      0.000      0.000
REMARK  1 active torsions:
REMARK  status: ('A' for Active; 'I' for Inactive)
REMARK    1  A    between atoms: C6_6  and  C8_8 
ROOT
HETATM    1  C1  UNL     1     -33.927   5.749   6.246  1.00 20.00     0.027 C 
HETATM    2  C2  UNL     1     -33.556   6.766   5.169  1.00 20.00     0.014 C 
HETATM    3  C3  UNL     1     -32.233   5.584   3.269  1.00 20.00     0.018 A 
HETATM    4  C4  UNL     1     -35.195   4.996   5.862  1.00 20.00     0.167 C 
HETATM    5  C5  UNL     1     -34.801   5.299   3.543  1.00 20.00     0.177 C 
HETATM    6  C6  UNL     1     -32.889   6.775   2.625  1.00 20.00     0.011 A 
HETATM    7  C7  UNL     1     -33.550   6.098   3.812  1.00 20.00    -0.014 A 
HETATM    8  O9  UNL     1     -35.027   4.357   4.596  1.00 20.00    -0.390 OA
ENDROOT
BRANCH   6   9
HETATM    9  C8  UNL     1     -32.258   8.123   2.718  1.00 20.00     0.120 C 
HETATM   10 CL10 UNL     1     -31.923   8.793   1.097  1.00 20.00    -0.130 Cl
ENDBRANCH   6   9
TORSDOF 1
ENDMDL
MODEL 2
REMARK VINA RESULT:      -4.3     11.471     12.290
REMARK  1 active torsions:
REMARK  status: ('A' for Active; 'I' for Inactive)
REMARK    1  A    between atoms: C6_6  and  C8_8 
ROOT
HETATM    1  C1  UNL     1     -36.192  14.294  -4.152  1.00 20.00     0.027 C 
HETATM    2  C2  UNL     1     -35.562  15.686  -4.122  1.00 20.00     0.014 C 
HETATM    3  C3  UNL     1     -34.541  16.134  -1.775  1.00 20.00     0.018 A 
HETATM    4  C4  UNL     1     -35.137  13.231  -4.432  1.00 20.00     0.167 C 
HETATM    5  C5  UNL     1     -33.403  14.549  -3.492  1.00 20.00     0.177 C 
HETATM    6  C6  UNL     1     -33.756  16.993  -2.729  1.00 20.00     0.011 A 
HETATM    7  C7  UNL     1     -34.357  15.684  -3.209  1.00 20.00    -0.014 A 
HETATM    8  O9  UNL     1     -34.095  13.297  -3.457  1.00 20.00    -0.390 OA
ENDROOT
BRANCH   6   9
HETATM    9  C8  UNL     1     -34.283  18.322  -3.151  1.00 20.00     0.120 C 
HETATM   10 CL10 UNL     1     -33.487  18.889  -4.646  1.00 20.00    -0.130 Cl
ENDBRANCH   6   9
TORSDOF 1
ENDMDL
MODEL 3
REMARK VINA RESULT:      -4.1     11.758     13.013
REMARK  1 active torsions:
REMARK  status: ('A' for Active; 'I' for Inactive)
REMARK    1  A    between atoms: C6_6  and  C8_8 
ROOT
HETATM    1  C1  UNL     1     -34.701  16.353  -6.604  1.00 20.00     0.027 C 
HETATM    2  C2  UNL     1     -34.148  16.458  -5.184  1.00 20.00     0.014 C 
HETATM    3  C3  UNL     1     -35.866  15.473  -3.501  1.00 20.00     0.018 A 
HETATM    4  C4  UNL     1     -34.440  14.967  -7.183  1.00 20.00     0.167 C 
HETATM    5  C5  UNL     1     -34.417  13.958  -5.037  1.00 20.00     0.177 C 
HETATM    6  C6  UNL     1     -34.521  15.321  -2.843  1.00 20.00     0.011 A 
HETATM    7  C7  UNL     1     -34.631  15.288  -4.357  1.00 20.00    -0.014 A 
HETATM    8  O9  UNL     1     -35.008  13.963  -6.340  1.00 20.00    -0.390 OA
ENDROOT
BRANCH   6   9
HETATM    9  C8  UNL     1     -33.911  16.463  -2.106  1.00 20.00     0.120 C 
HETATM   10 CL10 UNL     1     -34.681  16.688  -0.510  1.00 20.00    -0.130 Cl
ENDBRANCH   6   9
TORSDOF 1
ENDMDL
MODEL 4
REMARK VINA RESULT:      -4.1     11.964     12.719
REMARK  1 active torsions:
REMARK  status: ('A' for Active; 'I' for Inactive)
REMARK    1  A    between atoms: C6_6  and  C8_8 
ROOT
HETATM    1  C1  UNL     1     -35.191  13.446  -5.335  1.00 20.00     0.027 C 
HETATM    2  C2  UNL     1     -35.277  14.389  -4.136  1.00 20.00     0.014 C 
HETATM    3  C3  UNL     1     -32.903  15.261  -3.536  1.00 20.00     0.018 A 
HETATM    4  C4  UNL     1     -35.175  14.234  -6.639  1.00 20.00     0.167 C 
HETATM    5  C5  UNL     1     -34.212  16.138  -5.603  1.00 20.00     0.177 C 
HETATM    6  C6  UNL     1     -33.858  16.317  -3.049  1.00 20.00     0.011 A 
HETATM    7  C7  UNL     1     -34.222  15.465  -4.252  1.00 20.00    -0.014 A 
HETATM    8  O9  UNL     1     -34.090  15.163  -6.644  1.00 20.00    -0.390 OA
ENDROOT
BRANCH   6   9
HETATM    9  C8  UNL     1     -34.531  16.171  -1.727  1.00 20.00     0.120 C 
HETATM   10 CL10 UNL     1     -33.930  17.379  -0.558  1.00 20.00    -0.130 Cl
ENDBRANCH   6   9
TORSDOF 1
ENDMDL
MODEL 5
REMARK VINA RESULT:      -4.0      9.724     10.959
REMARK  1 active torsions:
REMARK  status: ('A' for Active; 'I' for Inactive)
REMARK    1  A    between atoms: C6_6  and  C8_8 
ROOT
HETATM    1  C1  UNL     1     -40.875   5.840  -0.163  1.00 20.00     0.027 C 
HETATM    2  C2  UNL     1     -40.848   4.743  -1.227  1.00 20.00     0.014 C 
HETATM    3  C3  UNL     1     -43.276   3.985  -1.762  1.00 20.00     0.018 A 
HETATM    4  C4  UNL     1     -41.137   7.200  -0.798  1.00 20.00     0.167 C 
HETATM    5  C5  UNL     1     -42.318   6.243  -2.619  1.00 20.00     0.177 C 
HETATM    6  C6  UNL     1     -42.477   3.692  -3.004  1.00 20.00     0.011 A 
HETATM    7  C7  UNL     1     -42.078   4.846  -2.101  1.00 20.00    -0.014 A 
HETATM    8  O9  UNL     1     -42.361   7.176  -1.535  1.00 20.00    -0.390 OA
ENDROOT
BRANCH   6   9
HETATM    9  C8  UNL     1     -41.678   2.438  -3.106  1.00 20.00     0.120 C 
HETATM   10 CL10 UNL     1     -42.024   1.573  -4.629  1.00 20.00    -0.130 Cl
ENDBRANCH   6   9
TORSDOF 1
ENDMDL
MODEL 6
REMARK VINA RESULT:      -4.0     11.333     12.271
REMARK  1 active torsions:
REMARK  status: ('A' for Active; 'I' for Inactive)
REMARK    1  A    between atoms: C6_6  and  C8_8 
ROOT
HETATM    1  C1  UNL     1     -33.746  13.564  -4.141  1.00 20.00     0.027 C 
HETATM    2  C2  UNL     1     -33.832  14.608  -3.029  1.00 20.00     0.014 C 
HETATM    3  C3  UNL     1     -33.670  16.992  -4.053  1.00 20.00     0.018 A 
HETATM    4  C4  UNL     1     -35.109  13.354  -4.790  1.00 20.00     0.167 C 
HETATM    5  C5  UNL     1     -35.824  15.551  -4.251  1.00 20.00     0.177 C 
HETATM    6  C6  UNL     1     -34.439  17.154  -2.770  1.00 20.00     0.011 A 
HETATM    7  C7  UNL     1     -34.525  15.850  -3.544  1.00 20.00    -0.014 A 
HETATM    8  O9  UNL     1     -35.615  14.593  -5.292  1.00 20.00    -0.390 OA
ENDROOT
BRANCH   6   9
HETATM    9  C8  UNL     1     -33.718  17.271  -1.470  1.00 20.00     0.120 C 
HETATM   10 CL10 UNL     1     -34.808  16.950  -0.094  1.00 20.00    -0.130 Cl
ENDBRANCH   6   9
TORSDOF 1
ENDMDL
MODEL 7
REMARK VINA RESULT:      -3.9     11.771     12.350
REMARK  1 active torsions:
REMARK  status: ('A' for Active; 'I' for Inactive)
REMARK    1  A    between atoms: C6_6  and  C8_8 
ROOT
HETATM    1  C1  UNL     1     -34.848  17.112  -0.030  1.00 20.00     0.027 C 
HETATM    2  C2  UNL     1     -34.046  16.776  -1.286  1.00 20.00     0.014 C 
HETATM    3  C3  UNL     1     -35.493  15.327  -2.886  1.00 20.00     0.018 A 
HETATM    4  C4  UNL     1     -35.748  18.318  -0.271  1.00 20.00     0.167 C 
HETATM    5  C5  UNL     1     -35.892  17.879  -2.598  1.00 20.00     0.177 C 
HETATM    6  C6  UNL     1     -34.504  16.039  -3.768  1.00 20.00     0.011 A 
HETATM    7  C7  UNL     1     -34.972  16.689  -2.478  1.00 20.00    -0.014 A 
HETATM    8  O9  UNL     1     -36.616  18.074  -1.379  1.00 20.00    -0.390 OA
ENDROOT
BRANCH   6   9
HETATM    9  C8  UNL     1     -33.126  15.498  -3.942  1.00 20.00     0.120 C 
HETATM   10 CL10 UNL     1     -33.090  13.729  -3.701  1.00 20.00    -0.130 Cl
ENDBRANCH   6   9
TORSDOF 1
ENDMDL
MODEL 8
REMARK VINA RESULT:      -3.8     11.520     13.203
REMARK  1 active torsions:
REMARK  status: ('A' for Active; 'I' for Inactive)
REMARK    1  A    between atoms: C6_6  and  C8_8 
ROOT
HETATM    1  C1  UNL     1     -32.982  15.067  -3.973  1.00 20.00     0.027 C 
HETATM    2  C2  UNL     1     -34.109  15.822  -4.676  1.00 20.00     0.014 C 
HETATM    3  C3  UNL     1     -34.250  15.068  -7.159  1.00 20.00     0.018 A 
HETATM    4  C4  UNL     1     -33.459  13.697  -3.507  1.00 20.00     0.167 C 
HETATM    5  C5  UNL     1     -35.101  13.569  -5.214  1.00 20.00     0.177 C 
HETATM    6  C6  UNL     1     -35.633  15.540  -6.800  1.00 20.00     0.011 A 
HETATM    7  C7  UNL     1     -34.737  14.939  -5.731  1.00 20.00    -0.014 A 
HETATM    8  O9  UNL     1     -33.963  12.945  -4.612  1.00 20.00    -0.390 OA
ENDROOT
BRANCH   6   9
HETATM    9  C8  UNL     1     -35.968  16.991  -6.846  1.00 20.00     0.120 C 
HETATM   10 CL10 UNL     1     -34.758  17.905  -7.790  1.00 20.00    -0.130 Cl
ENDBRANCH   6   9
TORSDOF 1
ENDMDL
MODEL 9
REMARK VINA RESULT:      -3.8     11.388     13.076
REMARK  1 active torsions:
REMARK  status: ('A' for Active; 'I' for Inactive)
REMARK    1  A    between atoms: C6_6  and  C8_8 
ROOT
HETATM    1  C1  UNL     1     -33.253  15.399  -4.016  1.00 20.00     0.027 C 
HETATM    2  C2  UNL     1     -34.531  15.797  -4.753  1.00 20.00     0.014 C 
HETATM    3  C3  UNL     1     -34.485  14.834  -7.167  1.00 20.00     0.018 A 
HETATM    4  C4  UNL     1     -33.382  13.996  -3.435  1.00 20.00     0.167 C 
HETATM    5  C5  UNL     1     -34.943  13.335  -5.094  1.00 20.00     0.177 C 
HETATM    6  C6  UNL     1     -35.941  14.983  -6.818  1.00 20.00     0.011 A 
HETATM    7  C7  UNL     1     -34.925  14.707  -5.724  1.00 20.00    -0.014 A 
HETATM    8  O9  UNL     1     -33.687  13.058  -4.468  1.00 20.00    -0.390 OA
ENDROOT
BRANCH   6   9
HETATM    9  C8  UNL     1     -36.620  16.301  -6.970  1.00 20.00     0.120 C 
HETATM   10 CL10 UNL     1     -38.195  16.319  -6.128  1.00 20.00    -0.130 Cl
ENDBRANCH   6   9
TORSDOF 1
ENDMDL
