MODEL 1
REMARK VINA RESULT:      -4.9      0.000      0.000
REMARK  2 active torsions:
REMARK  status: ('A' for Active; 'I' for Inactive)
REMARK    1  A    between atoms: C7_7  and  C10_10 
REMARK    2  A    between atoms: C7_7  and  C11_11 
ROOT
HETATM    1  C1  UNL     1     -33.519  14.897  -3.479  1.00 20.00     0.140 C 
HETATM    2  C2  UNL     1     -35.300  14.268  -5.913  1.00 20.00     0.001 C 
HETATM    3  C3  UNL     1     -34.627  13.176  -5.094  1.00 20.00     0.013 C 
HETATM    4  C4  UNL     1     -36.332  14.850  -4.956  1.00 20.00     0.007 C 
HETATM    5  C5  UNL     1     -34.538  13.762  -3.693  1.00 20.00     0.061 C 
HETATM    6  C6  UNL     1     -35.667  14.825  -3.575  1.00 20.00     0.013 C 
HETATM    7  C7  UNL     1     -34.628  15.924  -3.120  1.00 20.00     0.025 C 
HETATM    8  O12 UNL     1     -32.310  14.957  -3.559  1.00 20.00    -0.297 OA
ENDROOT
BRANCH   7   9
HETATM    9  C10 UNL     1     -34.694  16.227  -1.620  1.00 20.00     0.013 C 
HETATM   10  C8  UNL     1     -33.698  17.267  -1.226  1.00 20.00     0.006 C 
ENDBRANCH   7   9
BRANCH   7  11
HETATM   11  C11 UNL     1     -34.573  17.212  -3.934  1.00 20.00     0.013 C 
HETATM   12  C9  UNL     1     -35.759  18.083  -3.675  1.00 20.00     0.006 C 
ENDBRANCH   7  11
TORSDOF 2
ENDMDL
MODEL 2
REMARK VINA RESULT:      -4.8      1.003      1.101
REMARK  2 active torsions:
REMARK  status: ('A' for Active; 'I' for Inactive)
REMARK    1  A    between atoms: C7_7  and  C10_10 
REMARK    2  A    between atoms: C7_7  and  C11_11 
ROOT
HETATM    1  C1  UNL     1     -33.418  15.812  -4.145  1.00 20.00     0.140 C 
HETATM    2  C2  UNL     1     -35.884  14.332  -5.249  1.00 20.00     0.001 C 
HETATM    3  C3  UNL     1     -34.528  13.657  -5.102  1.00 20.00     0.013 C 
HETATM    4  C4  UNL     1     -36.323  14.569  -3.811  1.00 20.00     0.007 C 
HETATM    5  C5  UNL     1     -33.886  14.362  -3.918  1.00 20.00     0.061 C 
HETATM    6  C6  UNL     1     -35.043  14.928  -3.047  1.00 20.00     0.013 C 
HETATM    7  C7  UNL     1     -34.412  16.375  -3.091  1.00 20.00     0.025 C 
HETATM    8  O12 UNL     1     -32.585  16.316  -4.870  1.00 20.00    -0.297 OA
ENDROOT
BRANCH   7   9
HETATM    9  C10 UNL     1     -33.727  16.772  -1.781  1.00 20.00     0.013 C 
HETATM   10  C8  UNL     1     -34.687  16.768  -0.637  1.00 20.00     0.006 C 
ENDBRANCH   7   9
BRANCH   7  11
HETATM   11  C11 UNL     1     -35.295  17.505  -3.609  1.00 20.00     0.013 C 
HETATM   12  C9  UNL     1     -34.635  18.838  -3.457  1.00 20.00     0.006 C 
ENDBRANCH   7  11
TORSDOF 2
ENDMDL
MODEL 3
REMARK VINA RESULT:      -4.8      1.628      2.817
REMARK  2 active torsions:
REMARK  status: ('A' for Active; 'I' for Inactive)
REMARK    1  A    between atoms: C7_7  and  C10_10 
REMARK    2  A    between atoms: C7_7  and  C11_11 
ROOT
HETATM    1  C1  UNL     1     -36.027  15.208  -3.627  1.00 20.00     0.140 C 
HETATM    2  C2  UNL     1     -33.395  13.610  -3.717  1.00 20.00     0.001 C 
HETATM    3  C3  UNL     1     -34.402  13.585  -4.858  1.00 20.00     0.013 C 
HETATM    4  C4  UNL     1     -32.856  15.034  -3.747  1.00 20.00     0.007 C 
HETATM    5  C5  UNL     1     -35.065  14.952  -4.802  1.00 20.00     0.061 C 
HETATM    6  C6  UNL     1     -34.056  15.916  -4.116  1.00 20.00     0.013 C 
HETATM    7  C7  UNL     1     -35.141  16.350  -3.054  1.00 20.00     0.025 C 
HETATM    8  O12 UNL     1     -37.078  14.707  -3.286  1.00 20.00    -0.297 OA
ENDROOT
BRANCH   7   9
HETATM    9  C10 UNL     1     -35.720  17.741  -3.323  1.00 20.00     0.013 C 
HETATM   10  C8  UNL     1     -36.860  18.047  -2.409  1.00 20.00     0.006 C 
ENDBRANCH   7   9
BRANCH   7  11
HETATM   11  C11 UNL     1     -34.784  16.183  -1.582  1.00 20.00     0.013 C 
HETATM   12  C9  UNL     1     -33.865  17.262  -1.109  1.00 20.00     0.006 C 
ENDBRANCH   7  11
TORSDOF 2
ENDMDL
MODEL 4
REMARK VINA RESULT:      -4.7      1.664      2.700
REMARK  2 active torsions:
REMARK  status: ('A' for Active; 'I' for Inactive)
REMARK    1  A    between atoms: C7_7  and  C10_10 
REMARK    2  A    between atoms: C7_7  and  C11_11 
ROOT
HETATM    1  C1  UNL     1     -35.213  13.903  -4.578  1.00 20.00     0.140 C 
HETATM    2  C2  UNL     1     -34.290  15.145  -7.242  1.00 20.00     0.001 C 
HETATM    3  C3  UNL     1     -35.659  14.501  -7.076  1.00 20.00     0.013 C 
HETATM    4  C4  UNL     1     -34.372  16.390  -6.369  1.00 20.00     0.007 C 
HETATM    5  C5  UNL     1     -36.003  14.728  -5.612  1.00 20.00     0.061 C 
HETATM    6  C6  UNL     1     -35.203  15.977  -5.148  1.00 20.00     0.013 C 
HETATM    7  C7  UNL     1     -34.583  15.172  -3.939  1.00 20.00     0.025 C 
HETATM    8  O12 UNL     1     -35.125  12.714  -4.352  1.00 20.00    -0.297 OA
ENDROOT
BRANCH   7   9
HETATM    9  C10 UNL     1     -35.213  15.533  -2.592  1.00 20.00     0.013 C 
HETATM   10  C8  UNL     1     -34.321  16.420  -1.788  1.00 20.00     0.006 C 
ENDBRANCH   7   9
BRANCH   7  11
HETATM   11  C11 UNL     1     -33.063  15.128  -3.836  1.00 20.00     0.013 C 
HETATM   12  C9  UNL     1     -32.578  13.802  -3.347  1.00 20.00     0.006 C 
ENDBRANCH   7  11
TORSDOF 2
ENDMDL
MODEL 5
REMARK VINA RESULT:      -4.5      1.822      2.919
REMARK  2 active torsions:
REMARK  status: ('A' for Active; 'I' for Inactive)
REMARK    1  A    between atoms: C7_7  and  C10_10 
REMARK    2  A    between atoms: C7_7  and  C11_11 
ROOT
HETATM    1  C1  UNL     1     -36.336  15.289  -4.096  1.00 20.00     0.140 C 
HETATM    2  C2  UNL     1     -35.440  14.331  -6.884  1.00 20.00     0.001 C 
HETATM    3  C3  UNL     1     -36.704  15.151  -6.673  1.00 20.00     0.013 C 
HETATM    4  C4  UNL     1     -34.320  15.308  -6.552  1.00 20.00     0.007 C 
HETATM    5  C5  UNL     1     -36.394  16.009  -5.456  1.00 20.00     0.061 C 
HETATM    6  C6  UNL     1     -34.847  16.153  -5.387  1.00 20.00     0.013 C 
HETATM    7  C7  UNL     1     -34.834  15.634  -3.895  1.00 20.00     0.025 C 
HETATM    8  O12 UNL     1     -37.156  14.685  -3.436  1.00 20.00    -0.297 OA
ENDROOT
BRANCH   7   9
HETATM    9  C10 UNL     1     -34.613  16.752  -2.873  1.00 20.00     0.013 C 
HETATM   10  C8  UNL     1     -34.683  16.238  -1.473  1.00 20.00     0.006 C 
ENDBRANCH   7   9
BRANCH   7  11
HETATM   11  C11 UNL     1     -33.953  14.429  -3.584  1.00 20.00     0.013 C 
HETATM   12  C9  UNL     1     -32.502  14.784  -3.599  1.00 20.00     0.006 C 
ENDBRANCH   7  11
TORSDOF 2
ENDMDL
MODEL 6
REMARK VINA RESULT:      -4.5      1.516      4.216
REMARK  2 active torsions:
REMARK  status: ('A' for Active; 'I' for Inactive)
REMARK    1  A    between atoms: C7_7  and  C10_10 
REMARK    2  A    between atoms: C7_7  and  C11_11 
ROOT
HETATM    1  C1  UNL     1     -34.038  17.516  -4.247  1.00 20.00     0.140 C 
HETATM    2  C2  UNL     1     -33.730  17.569  -1.182  1.00 20.00     0.001 C 
HETATM    3  C3  UNL     1     -34.497  18.642  -1.941  1.00 20.00     0.013 C 
HETATM    4  C4  UNL     1     -34.590  16.324  -1.353  1.00 20.00     0.007 C 
HETATM    5  C5  UNL     1     -35.051  17.915  -3.157  1.00 20.00     0.061 C 
HETATM    6  C6  UNL     1     -35.154  16.411  -2.777  1.00 20.00     0.013 C 
HETATM    7  C7  UNL     1     -34.308  15.999  -4.045  1.00 20.00     0.025 C 
HETATM    8  O12 UNL     1     -33.312  18.151  -4.983  1.00 20.00    -0.297 OA
ENDROOT
BRANCH   7   9
HETATM    9  C10 UNL     1     -35.161  15.394  -5.164  1.00 20.00     0.013 C 
HETATM   10  C8  UNL     1     -34.384  15.253  -6.431  1.00 20.00     0.006 C 
ENDBRANCH   7   9
BRANCH   7  11
HETATM   11  C11 UNL     1     -33.052  15.169  -3.807  1.00 20.00     0.013 C 
HETATM   12  C9  UNL     1     -33.364  13.711  -3.700  1.00 20.00     0.006 C 
ENDBRANCH   7  11
TORSDOF 2
ENDMDL
MODEL 7
REMARK VINA RESULT:      -4.4      1.075      3.831
REMARK  2 active torsions:
REMARK  status: ('A' for Active; 'I' for Inactive)
REMARK    1  A    between atoms: C7_7  and  C10_10 
REMARK    2  A    between atoms: C7_7  and  C11_11 
ROOT
HETATM    1  C1  UNL     1     -33.214  15.601  -3.684  1.00 20.00     0.140 C 
HETATM    2  C2  UNL     1     -34.934  16.461  -1.276  1.00 20.00     0.001 C 
HETATM    3  C3  UNL     1     -33.654  17.189  -1.663  1.00 20.00     0.013 C 
HETATM    4  C4  UNL     1     -35.885  16.775  -2.424  1.00 20.00     0.007 C 
HETATM    5  C5  UNL     1     -33.564  17.011  -3.171  1.00 20.00     0.061 C 
HETATM    6  C6  UNL     1     -35.014  16.779  -3.686  1.00 20.00     0.013 C 
HETATM    7  C7  UNL     1     -34.577  15.448  -4.414  1.00 20.00     0.025 C 
HETATM    8  O12 UNL     1     -32.239  14.889  -3.562  1.00 20.00    -0.297 OA
ENDROOT
BRANCH   7   9
HETATM    9  C10 UNL     1     -34.458  15.605  -5.932  1.00 20.00     0.013 C 
HETATM   10  C8  UNL     1     -35.793  15.810  -6.569  1.00 20.00     0.006 C 
ENDBRANCH   7   9
BRANCH   7  11
HETATM   11  C11 UNL     1     -35.336  14.175  -4.056  1.00 20.00     0.013 C 
HETATM   12  C9  UNL     1     -34.832  12.995  -4.821  1.00 20.00     0.006 C 
ENDBRANCH   7  11
TORSDOF 2
ENDMDL
MODEL 8
REMARK VINA RESULT:      -4.3      2.092      3.749
REMARK  2 active torsions:
REMARK  status: ('A' for Active; 'I' for Inactive)
REMARK    1  A    between atoms: C7_7  and  C10_10 
REMARK    2  A    between atoms: C7_7  and  C11_11 
ROOT
HETATM    1  C1  UNL     1     -36.075  14.311  -4.569  1.00 20.00     0.140 C 
HETATM    2  C2  UNL     1     -33.394  15.381  -3.491  1.00 20.00     0.001 C 
HETATM    3  C3  UNL     1     -33.673  13.893  -3.647  1.00 20.00     0.013 C 
HETATM    4  C4  UNL     1     -33.338  15.887  -4.927  1.00 20.00     0.007 C 
HETATM    5  C5  UNL     1     -34.639  13.814  -4.819  1.00 20.00     0.061 C 
HETATM    6  C6  UNL     1     -34.406  15.086  -5.683  1.00 20.00     0.013 C 
HETATM    7  C7  UNL     1     -35.940  15.453  -5.615  1.00 20.00     0.025 C 
HETATM    8  O12 UNL     1     -36.969  13.944  -3.835  1.00 20.00    -0.297 OA
ENDROOT
BRANCH   7   9
HETATM    9  C10 UNL     1     -36.686  15.155  -6.919  1.00 20.00     0.013 C 
HETATM   10  C8  UNL     1     -38.159  15.340  -6.763  1.00 20.00     0.006 C 
ENDBRANCH   7   9
BRANCH   7  11
HETATM   11  C11 UNL     1     -36.305  16.834  -5.082  1.00 20.00     0.013 C 
HETATM   12  C9  UNL     1     -36.081  17.900  -6.105  1.00 20.00     0.006 C 
ENDBRANCH   7  11
TORSDOF 2
ENDMDL
MODEL 9
REMARK VINA RESULT:      -4.3      1.836      2.969
REMARK  2 active torsions:
REMARK  status: ('A' for Active; 'I' for Inactive)
REMARK    1  A    between atoms: C7_7  and  C10_10 
REMARK    2  A    between atoms: C7_7  and  C11_11 
ROOT
HETATM    1  C1  UNL     1     -33.749  16.929  -5.116  1.00 20.00     0.140 C 
HETATM    2  C2  UNL     1     -36.390  16.378  -6.605  1.00 20.00     0.001 C 
HETATM    3  C3  UNL     1     -35.110  16.764  -7.333  1.00 20.00     0.013 C 
HETATM    4  C4  UNL     1     -36.085  14.991  -6.057  1.00 20.00     0.007 C 
HETATM    5  C5  UNL     1     -33.999  16.210  -6.455  1.00 20.00     0.061 C 
HETATM    6  C6  UNL     1     -34.608  15.030  -5.646  1.00 20.00     0.013 C 
HETATM    7  C7  UNL     1     -34.127  15.671  -4.286  1.00 20.00     0.025 C 
HETATM    8  O12 UNL     1     -33.390  18.052  -4.827  1.00 20.00    -0.297 OA
ENDROOT
BRANCH   7   9
HETATM    9  C10 UNL     1     -32.907  14.966  -3.688  1.00 20.00     0.013 C 
HETATM   10  C8  UNL     1     -33.118  13.491  -3.591  1.00 20.00     0.006 C 
ENDBRANCH   7   9
BRANCH   7  11
HETATM   11  C11 UNL     1     -35.187  15.923  -3.220  1.00 20.00     0.013 C 
HETATM   12  C9  UNL     1     -34.577  16.182  -1.881  1.00 20.00     0.006 C 
ENDBRANCH   7  11
TORSDOF 2
ENDMDL
