MODEL 1
REMARK VINA RESULT:      -5.4      0.000      0.000
REMARK  2 active torsions:
REMARK  status: ('A' for Active; 'I' for Inactive)
REMARK    1  A    between atoms: C6_6  and  C10_10 
REMARK    2  A    between atoms: C7_7  and  C9_9 
ROOT
HETATM    1  C1  UNL     1     -35.749  16.805  -4.810  1.00 20.00     0.001 C 
HETATM    2  C2  UNL     1     -34.831  15.915  -5.645  1.00 20.00     0.013 C 
HETATM    3  C3  UNL     1     -34.969  17.578  -3.749  1.00 20.00     0.010 C 
HETATM    4  C4  UNL     1     -33.231  15.733  -3.693  1.00 20.00     0.023 C 
HETATM    5  C5  UNL     1     -34.726  16.136  -1.591  1.00 20.00     0.016 A 
HETATM    6  C6  UNL     1     -33.985  14.962  -4.787  1.00 20.00     0.094 C 
HETATM    7  C7  UNL     1     -33.598  17.132  -1.556  1.00 20.00     0.009 A 
HETATM    8  C8  UNL     1     -34.140  16.644  -2.892  1.00 20.00    -0.035 A 
ENDROOT
BRANCH   6   9
HETATM    9  C10 UNL     1     -34.828  13.824  -4.204  1.00 20.00     0.391 C 
HETATM   10  F11 UNL     1     -34.247  13.343  -3.095  1.00 20.00    -0.171 F 
HETATM   11  F12 UNL     1     -36.054  14.273  -3.894  1.00 20.00    -0.171 F 
HETATM   12  F13 UNL     1     -34.943  12.832  -5.100  1.00 20.00    -0.171 F 
ENDBRANCH   6   9
BRANCH   7  13
HETATM   13  C9  UNL     1     -33.830  18.511  -1.045  1.00 20.00     0.120 C 
HETATM   14 CL14 UNL     1     -32.364  19.168  -0.265  1.00 20.00    -0.130 Cl
ENDBRANCH   7  13
TORSDOF 2
ENDMDL
MODEL 2
REMARK VINA RESULT:      -5.4      0.019      1.009
REMARK  2 active torsions:
REMARK  status: ('A' for Active; 'I' for Inactive)
REMARK    1  A    between atoms: C6_6  and  C10_10 
REMARK    2  A    between atoms: C7_7  and  C9_9 
ROOT
HETATM    1  C1  UNL     1     -35.774  16.802  -4.793  1.00 20.00     0.001 C 
HETATM    2  C2  UNL     1     -34.859  15.915  -5.636  1.00 20.00     0.013 C 
HETATM    3  C3  UNL     1     -34.988  17.581  -3.742  1.00 20.00     0.010 C 
HETATM    4  C4  UNL     1     -33.240  15.744  -3.700  1.00 20.00     0.023 C 
HETATM    5  C5  UNL     1     -34.716  16.145  -1.584  1.00 20.00     0.016 A 
HETATM    6  C6  UNL     1     -34.001  14.968  -4.785  1.00 20.00     0.094 C 
HETATM    7  C7  UNL     1     -33.594  17.146  -1.562  1.00 20.00     0.009 A 
HETATM    8  C8  UNL     1     -34.145  16.653  -2.892  1.00 20.00    -0.035 A 
ENDROOT
BRANCH   6   9
HETATM    9  C10 UNL     1     -34.832  13.827  -4.192  1.00 20.00     0.391 C 
HETATM   10  F11 UNL     1     -36.056  14.270  -3.868  1.00 20.00    -0.171 F 
HETATM   11  F12 UNL     1     -34.952  12.833  -5.085  1.00 20.00    -0.171 F 
HETATM   12  F13 UNL     1     -34.237  13.349  -3.089  1.00 20.00    -0.171 F 
ENDBRANCH   6   9
BRANCH   7  13
HETATM   13  C9  UNL     1     -33.827  18.525  -1.050  1.00 20.00     0.120 C 
HETATM   14 CL14 UNL     1     -32.365  19.181  -0.263  1.00 20.00    -0.130 Cl
ENDBRANCH   7  13
TORSDOF 2
ENDMDL
MODEL 3
REMARK VINA RESULT:      -5.2     12.746     14.527
REMARK  2 active torsions:
REMARK  status: ('A' for Active; 'I' for Inactive)
REMARK    1  A    between atoms: C6_6  and  C10_10 
REMARK    2  A    between atoms: C7_7  and  C9_9 
ROOT
HETATM    1  C1  UNL     1     -43.417   4.817   0.234  1.00 20.00     0.001 C 
HETATM    2  C2  UNL     1     -42.134   5.485   0.723  1.00 20.00     0.013 C 
HETATM    3  C3  UNL     1     -43.120   3.582  -0.613  1.00 20.00     0.010 C 
HETATM    4  C4  UNL     1     -40.900   4.597  -1.300  1.00 20.00     0.023 C 
HETATM    5  C5  UNL     1     -42.762   4.270  -3.101  1.00 20.00     0.016 A 
HETATM    6  C6  UNL     1     -41.170   5.829  -0.422  1.00 20.00     0.094 C 
HETATM    7  C7  UNL     1     -42.051   2.956  -2.926  1.00 20.00     0.009 A 
HETATM    8  C8  UNL     1     -42.177   3.914  -1.750  1.00 20.00    -0.035 A 
ENDROOT
BRANCH   6   9
HETATM    9  C10 UNL     1     -41.669   7.018  -1.247  1.00 20.00     0.391 C 
HETATM   10  F11 UNL     1     -43.010   7.055  -1.237  1.00 20.00    -0.171 F 
HETATM   11  F12 UNL     1     -41.200   8.165  -0.731  1.00 20.00    -0.171 F 
HETATM   12  F13 UNL     1     -41.246   6.908  -2.516  1.00 20.00    -0.171 F 
ENDBRANCH   6   9
BRANCH   7  13
HETATM   13  C9  UNL     1     -42.807   1.675  -3.010  1.00 20.00     0.120 C 
HETATM   14 CL14 UNL     1     -41.817   0.387  -3.751  1.00 20.00    -0.130 Cl
ENDBRANCH   7  13
TORSDOF 2
ENDMDL
MODEL 4
REMARK VINA RESULT:      -5.1      3.350      4.934
REMARK  2 active torsions:
REMARK  status: ('A' for Active; 'I' for Inactive)
REMARK    1  A    between atoms: C6_6  and  C10_10 
REMARK    2  A    between atoms: C7_7  and  C9_9 
ROOT
HETATM    1  C1  UNL     1     -34.419  13.378  -4.045  1.00 20.00     0.001 C 
HETATM    2  C2  UNL     1     -33.139  14.115  -3.657  1.00 20.00     0.013 C 
HETATM    3  C3  UNL     1     -34.842  13.704  -5.476  1.00 20.00     0.010 C 
HETATM    4  C4  UNL     1     -33.706  15.963  -5.289  1.00 20.00     0.023 C 
HETATM    5  C5  UNL     1     -36.306  15.860  -5.506  1.00 20.00     0.016 A 
HETATM    6  C6  UNL     1     -33.242  15.634  -3.862  1.00 20.00     0.094 C 
HETATM    7  C7  UNL     1     -35.721  15.735  -6.886  1.00 20.00     0.009 A 
HETATM    8  C8  UNL     1     -34.955  15.200  -5.685  1.00 20.00    -0.035 A 
ENDROOT
BRANCH   6   9
HETATM    9  C10 UNL     1     -34.134  16.291  -2.807  1.00 20.00     0.391 C 
HETATM   10  F11 UNL     1     -35.129  15.459  -2.463  1.00 20.00    -0.171 F 
HETATM   11  F12 UNL     1     -33.414  16.583  -1.713  1.00 20.00    -0.171 F 
HETATM   12  F13 UNL     1     -34.664  17.424  -3.292  1.00 20.00    -0.171 F 
ENDBRANCH   6   9
BRANCH   7  13
HETATM   13  C9  UNL     1     -36.363  14.849  -7.896  1.00 20.00     0.120 C 
HETATM   14 CL14 UNL     1     -38.143  14.968  -7.824  1.00 20.00    -0.130 Cl
ENDBRANCH   7  13
TORSDOF 2
ENDMDL
MODEL 5
REMARK VINA RESULT:      -5.1      2.039      2.907
REMARK  2 active torsions:
REMARK  status: ('A' for Active; 'I' for Inactive)
REMARK    1  A    between atoms: C6_6  and  C10_10 
REMARK    2  A    between atoms: C7_7  and  C9_9 
ROOT
HETATM    1  C1  UNL     1     -33.694  13.640  -4.099  1.00 20.00     0.001 C 
HETATM    2  C2  UNL     1     -35.044  13.232  -4.685  1.00 20.00     0.013 C 
HETATM    3  C3  UNL     1     -33.845  14.751  -3.063  1.00 20.00     0.010 C 
HETATM    4  C4  UNL     1     -35.941  15.555  -4.241  1.00 20.00     0.023 C 
HETATM    5  C5  UNL     1     -33.820  17.078  -4.237  1.00 20.00     0.016 A 
HETATM    6  C6  UNL     1     -35.823  14.420  -5.269  1.00 20.00     0.094 C 
HETATM    7  C7  UNL     1     -34.537  17.279  -2.929  1.00 20.00     0.009 A 
HETATM    8  C8  UNL     1     -34.604  15.931  -3.633  1.00 20.00    -0.035 A 
ENDROOT
BRANCH   6   9
HETATM    9  C10 UNL     1     -35.214  14.905  -6.587  1.00 20.00     0.391 C 
HETATM   10  F11 UNL     1     -33.875  14.846  -6.525  1.00 20.00    -0.171 F 
HETATM   11  F12 UNL     1     -35.636  14.134  -7.600  1.00 20.00    -0.171 F 
HETATM   12  F13 UNL     1     -35.582  16.173  -6.824  1.00 20.00    -0.171 F 
ENDBRANCH   6   9
BRANCH   7  13
HETATM   13  C9  UNL     1     -33.764  17.499  -1.675  1.00 20.00     0.120 C 
HETATM   14 CL14 UNL     1     -34.681  16.950  -0.245  1.00 20.00    -0.130 Cl
ENDBRANCH   7  13
TORSDOF 2
ENDMDL
MODEL 6
REMARK VINA RESULT:      -5.1      1.574      1.796
REMARK  2 active torsions:
REMARK  status: ('A' for Active; 'I' for Inactive)
REMARK    1  A    between atoms: C6_6  and  C10_10 
REMARK    2  A    between atoms: C7_7  and  C9_9 
ROOT
HETATM    1  C1  UNL     1     -35.809  17.498  -5.515  1.00 20.00     0.001 C 
HETATM    2  C2  UNL     1     -34.943  16.985  -6.664  1.00 20.00     0.013 C 
HETATM    3  C3  UNL     1     -34.983  17.742  -4.254  1.00 20.00     0.010 C 
HETATM    4  C4  UNL     1     -33.339  15.960  -4.996  1.00 20.00     0.023 C 
HETATM    5  C5  UNL     1     -34.796  15.541  -2.870  1.00 20.00     0.016 A 
HETATM    6  C6  UNL     1     -34.139  15.731  -6.287  1.00 20.00     0.094 C 
HETATM    7  C7  UNL     1     -33.620  16.389  -2.467  1.00 20.00     0.009 A 
HETATM    8  C8  UNL     1     -34.195  16.507  -3.871  1.00 20.00    -0.035 A 
ENDROOT
BRANCH   6   9
HETATM    9  C10 UNL     1     -35.033  14.492  -6.191  1.00 20.00     0.391 C 
HETATM   10  F11 UNL     1     -34.445  13.559  -5.428  1.00 20.00    -0.171 F 
HETATM   11  F12 UNL     1     -36.214  14.819  -5.646  1.00 20.00    -0.171 F 
HETATM   12  F13 UNL     1     -35.246  13.982  -7.414  1.00 20.00    -0.171 F 
ENDBRANCH   6   9
BRANCH   7  13
HETATM   13  C9  UNL     1     -33.779  17.451  -1.435  1.00 20.00     0.120 C 
HETATM   14 CL14 UNL     1     -34.850  16.914  -0.111  1.00 20.00    -0.130 Cl
ENDBRANCH   7  13
TORSDOF 2
ENDMDL
MODEL 7
REMARK VINA RESULT:      -4.7      2.939      3.793
REMARK  2 active torsions:
REMARK  status: ('A' for Active; 'I' for Inactive)
REMARK    1  A    between atoms: C6_6  and  C10_10 
REMARK    2  A    between atoms: C7_7  and  C9_9 
ROOT
HETATM    1  C1  UNL     1     -34.303  16.562  -5.500  1.00 20.00     0.001 C 
HETATM    2  C2  UNL     1     -33.285  16.346  -4.382  1.00 20.00     0.013 C 
HETATM    3  C3  UNL     1     -35.671  16.953  -4.946  1.00 20.00     0.010 C 
HETATM    4  C4  UNL     1     -35.154  15.697  -2.805  1.00 20.00     0.023 C 
HETATM    5  C5  UNL     1     -37.046  14.814  -4.373  1.00 20.00     0.016 A 
HETATM    6  C6  UNL     1     -33.759  15.328  -3.335  1.00 20.00     0.094 C 
HETATM    7  C7  UNL     1     -37.621  15.918  -3.528  1.00 20.00     0.009 A 
HETATM    8  C8  UNL     1     -36.151  15.949  -3.919  1.00 20.00    -0.035 A 
ENDROOT
BRANCH   6   9
HETATM    9  C10 UNL     1     -33.715  13.896  -3.874  1.00 20.00     0.391 C 
HETATM   10  F11 UNL     1     -33.931  13.896  -5.198  1.00 20.00    -0.171 F 
HETATM   11  F12 UNL     1     -32.514  13.350  -3.630  1.00 20.00    -0.171 F 
HETATM   12  F13 UNL     1     -34.660  13.151  -3.280  1.00 20.00    -0.171 F 
ENDBRANCH   6   9
BRANCH   7  13
HETATM   13  C9  UNL     1     -38.630  16.854  -4.099  1.00 20.00     0.120 C 
HETATM   14 CL14 UNL     1     -39.278  16.241  -5.646  1.00 20.00    -0.130 Cl
ENDBRANCH   7  13
TORSDOF 2
ENDMDL
MODEL 8
REMARK VINA RESULT:      -4.7      2.944      3.677
REMARK  2 active torsions:
REMARK  status: ('A' for Active; 'I' for Inactive)
REMARK    1  A    between atoms: C6_6  and  C10_10 
REMARK    2  A    between atoms: C7_7  and  C9_9 
ROOT
HETATM    1  C1  UNL     1     -34.308  16.562  -5.503  1.00 20.00     0.001 C 
HETATM    2  C2  UNL     1     -33.291  16.347  -4.383  1.00 20.00     0.013 C 
HETATM    3  C3  UNL     1     -35.677  16.952  -4.951  1.00 20.00     0.010 C 
HETATM    4  C4  UNL     1     -35.163  15.697  -2.809  1.00 20.00     0.023 C 
HETATM    5  C5  UNL     1     -37.052  14.813  -4.380  1.00 20.00     0.016 A 
HETATM    6  C6  UNL     1     -33.767  15.328  -3.337  1.00 20.00     0.094 C 
HETATM    7  C7  UNL     1     -37.629  15.917  -3.536  1.00 20.00     0.009 A 
HETATM    8  C8  UNL     1     -36.158  15.948  -3.925  1.00 20.00    -0.035 A 
ENDROOT
BRANCH   6   9
HETATM    9  C10 UNL     1     -33.721  13.896  -3.876  1.00 20.00     0.391 C 
HETATM   10  F11 UNL     1     -32.523  13.349  -3.626  1.00 20.00    -0.171 F 
HETATM   11  F12 UNL     1     -34.670  13.153  -3.286  1.00 20.00    -0.171 F 
HETATM   12  F13 UNL     1     -33.931  13.897  -5.201  1.00 20.00    -0.171 F 
ENDBRANCH   6   9
BRANCH   7  13
HETATM   13  C9  UNL     1     -38.637  16.851  -4.110  1.00 20.00     0.120 C 
HETATM   14 CL14 UNL     1     -39.292  16.232  -5.652  1.00 20.00    -0.130 Cl
ENDBRANCH   7  13
TORSDOF 2
ENDMDL
MODEL 9
REMARK VINA RESULT:      -4.7      3.243      3.952
REMARK  2 active torsions:
REMARK  status: ('A' for Active; 'I' for Inactive)
REMARK    1  A    between atoms: C6_6  and  C10_10 
REMARK    2  A    between atoms: C7_7  and  C9_9 
ROOT
HETATM    1  C1  UNL     1     -36.465  14.469  -3.898  1.00 20.00     0.001 C 
HETATM    2  C2  UNL     1     -35.529  13.402  -4.462  1.00 20.00     0.013 C 
HETATM    3  C3  UNL     1     -36.693  15.601  -4.898  1.00 20.00     0.010 C 
HETATM    4  C4  UNL     1     -34.418  15.146  -5.921  1.00 20.00     0.023 C 
HETATM    5  C5  UNL     1     -34.820  17.397  -4.658  1.00 20.00     0.016 A 
HETATM    6  C6  UNL     1     -34.190  13.981  -4.945  1.00 20.00     0.094 C 
HETATM    7  C7  UNL     1     -35.363  17.544  -6.054  1.00 20.00     0.009 A 
HETATM    8  C8  UNL     1     -35.379  16.184  -5.373  1.00 20.00    -0.035 A 
ENDROOT
BRANCH   6   9
HETATM    9  C10 UNL     1     -33.291  14.385  -3.775  1.00 20.00     0.391 C 
HETATM   10  F11 UNL     1     -32.482  15.391  -4.141  1.00 20.00    -0.171 F 
HETATM   11  F12 UNL     1     -34.040  14.787  -2.737  1.00 20.00    -0.171 F 
HETATM   12  F13 UNL     1     -32.540  13.342  -3.390  1.00 20.00    -0.171 F 
ENDBRANCH   6   9
BRANCH   7  13
HETATM   13  C9  UNL     1     -36.597  18.341  -6.299  1.00 20.00     0.120 C 
HETATM   14 CL14 UNL     1     -37.363  17.889  -7.847  1.00 20.00    -0.130 Cl
ENDBRANCH   7  13
TORSDOF 2
ENDMDL
