MODEL 1
REMARK VINA RESULT:      -4.7      0.000      0.000
REMARK  2 active torsions:
REMARK  status: ('A' for Active; 'I' for Inactive)
REMARK    1  A    between atoms: C2_2  and  C6_6 
REMARK    2  A    between atoms: C7_7  and  C10_10 
ROOT
HETATM    1  C1  UNL     1     -34.639  15.225  -3.003  1.00 20.00     0.022 A 
HETATM    2  C2  UNL     1     -34.406  16.631  -3.000  1.00 20.00    -0.040 A 
HETATM    3  C3  UNL     1     -34.362  14.658  -4.226  1.00 20.00    -0.020 A 
HETATM    4  C4  UNL     1     -33.959  17.084  -4.222  1.00 20.00    -0.014 A 
HETATM    5  C8  UNL     1     -34.476  13.238  -4.630  1.00 20.00     0.056 C 
HETATM    6  C9  UNL     1     -33.605  18.462  -4.630  1.00 20.00     0.057 C 
HETATM    7  S11 UNL     1     -33.822  15.816  -5.365  1.00 20.00    -0.100 SA
ENDROOT
BRANCH   2   8
HETATM    8  C6  UNL     1     -34.627  17.512  -1.793  1.00 20.00     0.025 A 
HETATM    9  C5  UNL     1     -34.637  16.912  -0.403  1.00 20.00     0.016 A 
HETATM   10  C7  UNL     1     -33.487  17.776  -0.830  1.00 20.00     0.004 A 
BRANCH  10  11
HETATM   11  C10 UNL     1     -33.308  19.131  -0.238  1.00 20.00     0.090 C 
HETATM   12 BR12 UNL     1     -31.794  19.142   0.994  1.00 20.00    -0.096 Br
ENDBRANCH  10  11
ENDBRANCH   2   8
TORSDOF 2
ENDMDL
MODEL 2
REMARK VINA RESULT:      -4.6      3.249      5.087
REMARK  2 active torsions:
REMARK  status: ('A' for Active; 'I' for Inactive)
REMARK    1  A    between atoms: C2_2  and  C6_6 
REMARK    2  A    between atoms: C7_7  and  C10_10 
ROOT
HETATM    1  C1  UNL     1     -34.467  15.902  -1.918  1.00 20.00     0.022 A 
HETATM    2  C2  UNL     1     -34.124  16.042  -3.294  1.00 20.00    -0.040 A 
HETATM    3  C3  UNL     1     -34.459  17.110  -1.258  1.00 20.00    -0.020 A 
HETATM    4  C4  UNL     1     -33.868  17.353  -3.633  1.00 20.00    -0.014 A 
HETATM    5  C8  UNL     1     -34.756  17.384   0.166  1.00 20.00     0.056 C 
HETATM    6  C9  UNL     1     -33.484  17.915  -4.947  1.00 20.00     0.057 C 
HETATM    7  S11 UNL     1     -34.041  18.407  -2.295  1.00 20.00    -0.100 SA
ENDROOT
BRANCH   2   8
HETATM    8  C6  UNL     1     -34.053  14.882  -4.259  1.00 20.00     0.025 A 
HETATM    9  C5  UNL     1     -34.845  13.619  -3.994  1.00 20.00     0.016 A 
HETATM   10  C7  UNL     1     -35.256  14.532  -5.111  1.00 20.00     0.004 A 
BRANCH  10  11
HETATM   11  C10 UNL     1     -35.071  14.111  -6.528  1.00 20.00     0.090 C 
HETATM   12 BR12 UNL     1     -35.152  15.659  -7.715  1.00 20.00    -0.096 Br
ENDBRANCH  10  11
ENDBRANCH   2   8
TORSDOF 2
ENDMDL
MODEL 3
REMARK VINA RESULT:      -4.5      3.467      5.033
REMARK  2 active torsions:
REMARK  status: ('A' for Active; 'I' for Inactive)
REMARK    1  A    between atoms: C2_2  and  C6_6 
REMARK    2  A    between atoms: C7_7  and  C10_10 
ROOT
HETATM    1  C1  UNL     1     -34.552  16.590  -0.762  1.00 20.00     0.022 A 
HETATM    2  C2  UNL     1     -34.043  17.037  -2.015  1.00 20.00    -0.040 A 
HETATM    3  C3  UNL     1     -34.844  17.638   0.081  1.00 20.00    -0.020 A 
HETATM    4  C4  UNL     1     -33.966  18.412  -2.082  1.00 20.00    -0.014 A 
HETATM    5  C8  UNL     1     -35.386  17.590   1.457  1.00 20.00     0.056 C 
HETATM    6  C9  UNL     1     -33.497  19.263  -3.198  1.00 20.00     0.057 C 
HETATM    7  S11 UNL     1     -34.506  19.155  -0.638  1.00 20.00    -0.100 SA
ENDROOT
BRANCH   2   8
HETATM    8  C6  UNL     1     -33.637  16.105  -3.133  1.00 20.00     0.025 A 
HETATM    9  C5  UNL     1     -34.341  14.776  -3.311  1.00 20.00     0.016 A 
HETATM   10  C7  UNL     1     -34.572  15.877  -4.304  1.00 20.00     0.004 A 
BRANCH  10  11
HETATM   11  C10 UNL     1     -34.025  15.766  -5.685  1.00 20.00     0.090 C 
HETATM   12 BR12 UNL     1     -35.083  14.509  -6.739  1.00 20.00    -0.096 Br
ENDBRANCH  10  11
ENDBRANCH   2   8
TORSDOF 2
ENDMDL
MODEL 4
REMARK VINA RESULT:      -4.3      2.109      2.702
REMARK  2 active torsions:
REMARK  status: ('A' for Active; 'I' for Inactive)
REMARK    1  A    between atoms: C2_2  and  C6_6 
REMARK    2  A    between atoms: C7_7  and  C10_10 
ROOT
HETATM    1  C1  UNL     1     -36.155  15.833  -2.929  1.00 20.00     0.022 A 
HETATM    2  C2  UNL     1     -34.750  15.657  -2.773  1.00 20.00    -0.040 A 
HETATM    3  C3  UNL     1     -36.713  14.862  -3.730  1.00 20.00    -0.020 A 
HETATM    4  C4  UNL     1     -34.287  14.555  -3.460  1.00 20.00    -0.014 A 
HETATM    5  C8  UNL     1     -38.128  14.699  -4.130  1.00 20.00     0.056 C 
HETATM    6  C9  UNL     1     -32.907  14.031  -3.554  1.00 20.00     0.057 C 
HETATM    7  S11 UNL     1     -35.545  13.742  -4.289  1.00 20.00    -0.100 SA
ENDROOT
BRANCH   2   8
HETATM    8  C6  UNL     1     -33.879  16.575  -1.948  1.00 20.00     0.025 A 
HETATM    9  C5  UNL     1     -33.728  18.032  -2.333  1.00 20.00     0.016 A 
HETATM   10  C7  UNL     1     -34.513  17.666  -1.108  1.00 20.00     0.004 A 
BRANCH  10  11
HETATM   11  C10 UNL     1     -33.974  17.973   0.247  1.00 20.00     0.090 C 
HETATM   12 BR12 UNL     1     -35.350  17.706   1.605  1.00 20.00    -0.096 Br
ENDBRANCH  10  11
ENDBRANCH   2   8
TORSDOF 2
ENDMDL
MODEL 5
REMARK VINA RESULT:      -4.2      3.723      5.699
REMARK  2 active torsions:
REMARK  status: ('A' for Active; 'I' for Inactive)
REMARK    1  A    between atoms: C2_2  and  C6_6 
REMARK    2  A    between atoms: C7_7  and  C10_10 
ROOT
HETATM    1  C1  UNL     1     -35.428  17.551   1.064  1.00 20.00     0.022 A 
HETATM    2  C2  UNL     1     -34.447  17.886   0.087  1.00 20.00    -0.040 A 
HETATM    3  C3  UNL     1     -35.080  17.996   2.320  1.00 20.00    -0.020 A 
HETATM    4  C4  UNL     1     -33.386  18.576   0.634  1.00 20.00    -0.014 A 
HETATM    5  C8  UNL     1     -35.827  17.847   3.589  1.00 20.00     0.056 C 
HETATM    6  C9  UNL     1     -32.175  19.101  -0.035  1.00 20.00     0.057 C 
HETATM    7  S11 UNL     1     -33.577  18.816   2.319  1.00 20.00    -0.100 SA
ENDROOT
BRANCH   2   8
HETATM    8  C6  UNL     1     -34.565  17.523  -1.374  1.00 20.00     0.025 A 
HETATM    9  C5  UNL     1     -33.466  16.734  -2.055  1.00 20.00     0.016 A 
HETATM   10  C7  UNL     1     -34.788  16.080  -1.779  1.00 20.00     0.004 A 
BRANCH  10  11
HETATM   11  C10 UNL     1     -35.711  15.754  -2.902  1.00 20.00     0.090 C 
HETATM   12 BR12 UNL     1     -35.069  14.190  -3.880  1.00 20.00    -0.096 Br
ENDBRANCH  10  11
ENDBRANCH   2   8
TORSDOF 2
ENDMDL
MODEL 6
REMARK VINA RESULT:      -4.2      1.914      3.063
REMARK  2 active torsions:
REMARK  status: ('A' for Active; 'I' for Inactive)
REMARK    1  A    between atoms: C2_2  and  C6_6 
REMARK    2  A    between atoms: C7_7  and  C10_10 
ROOT
HETATM    1  C1  UNL     1     -34.154  17.089  -5.399  1.00 20.00     0.022 A 
HETATM    2  C2  UNL     1     -34.050  16.200  -4.291  1.00 20.00    -0.040 A 
HETATM    3  C3  UNL     1     -34.508  16.434  -6.557  1.00 20.00    -0.020 A 
HETATM    4  C4  UNL     1     -34.329  14.897  -4.645  1.00 20.00    -0.014 A 
HETATM    5  C8  UNL     1     -34.715  16.999  -7.909  1.00 20.00     0.056 C 
HETATM    6  C9  UNL     1     -34.332  13.685  -3.796  1.00 20.00     0.057 C 
HETATM    7  S11 UNL     1     -34.714  14.752  -6.306  1.00 20.00    -0.100 SA
ENDROOT
BRANCH   2   8
HETATM    8  C6  UNL     1     -33.676  16.643  -2.896  1.00 20.00     0.025 A 
HETATM    9  C5  UNL     1     -33.816  18.096  -2.495  1.00 20.00     0.016 A 
HETATM   10  C7  UNL     1     -34.756  17.075  -1.925  1.00 20.00     0.004 A 
BRANCH  10  11
HETATM   11  C10 UNL     1     -34.664  16.693  -0.488  1.00 20.00     0.090 C 
HETATM   12 BR12 UNL     1     -35.514  18.046   0.634  1.00 20.00    -0.096 Br
ENDBRANCH  10  11
ENDBRANCH   2   8
TORSDOF 2
ENDMDL
MODEL 7
REMARK VINA RESULT:      -4.0      4.282      6.927
REMARK  2 active torsions:
REMARK  status: ('A' for Active; 'I' for Inactive)
REMARK    1  A    between atoms: C2_2  and  C6_6 
REMARK    2  A    between atoms: C7_7  and  C10_10 
ROOT
HETATM    1  C1  UNL     1     -32.192  19.239   2.536  1.00 20.00     0.022 A 
HETATM    2  C2  UNL     1     -33.441  18.853   1.970  1.00 20.00    -0.040 A 
HETATM    3  C3  UNL     1     -32.135  18.982   3.887  1.00 20.00    -0.020 A 
HETATM    4  C4  UNL     1     -34.292  18.315   2.911  1.00 20.00    -0.014 A 
HETATM    5  C8  UNL     1     -31.021  19.237   4.828  1.00 20.00     0.056 C 
HETATM    6  C9  UNL     1     -35.667  17.798   2.733  1.00 20.00     0.057 C 
HETATM    7  S11 UNL     1     -33.583  18.278   4.470  1.00 20.00    -0.100 SA
ENDROOT
BRANCH   2   8
HETATM    8  C6  UNL     1     -33.783  19.020   0.508  1.00 20.00     0.025 A 
HETATM    9  C5  UNL     1     -32.697  18.931  -0.543  1.00 20.00     0.016 A 
HETATM   10  C7  UNL     1     -33.707  17.829  -0.426  1.00 20.00     0.004 A 
BRANCH  10  11
HETATM   11  C10 UNL     1     -34.740  17.643  -1.485  1.00 20.00     0.090 C 
HETATM   12 BR12 UNL     1     -34.506  15.919  -2.371  1.00 20.00    -0.096 Br
ENDBRANCH  10  11
ENDBRANCH   2   8
TORSDOF 2
ENDMDL
MODEL 8
REMARK VINA RESULT:      -4.0      4.111      6.256
REMARK  2 active torsions:
REMARK  status: ('A' for Active; 'I' for Inactive)
REMARK    1  A    between atoms: C2_2  and  C6_6 
REMARK    2  A    between atoms: C7_7  and  C10_10 
ROOT
HETATM    1  C1  UNL     1     -34.100  18.059   1.903  1.00 20.00     0.022 A 
HETATM    2  C2  UNL     1     -35.160  18.103   0.952  1.00 20.00    -0.040 A 
HETATM    3  C3  UNL     1     -34.553  18.235   3.191  1.00 20.00    -0.020 A 
HETATM    4  C4  UNL     1     -36.384  18.311   1.551  1.00 20.00    -0.014 A 
HETATM    5  C8  UNL     1     -33.772  18.254   4.448  1.00 20.00     0.056 C 
HETATM    6  C9  UNL     1     -37.719  18.418   0.922  1.00 20.00     0.057 C 
HETATM    7  S11 UNL     1     -36.250  18.451   3.252  1.00 20.00    -0.100 SA
ENDROOT
BRANCH   2   8
HETATM    8  C6  UNL     1     -34.955  17.941  -0.535  1.00 20.00     0.025 A 
HETATM    9  C5  UNL     1     -33.593  17.566  -1.081  1.00 20.00     0.016 A 
HETATM   10  C7  UNL     1     -34.710  16.565  -1.120  1.00 20.00     0.004 A 
BRANCH  10  11
HETATM   11  C10 UNL     1     -35.330  16.184  -2.420  1.00 20.00     0.090 C 
HETATM   12 BR12 UNL     1     -34.228  14.860  -3.339  1.00 20.00    -0.096 Br
ENDBRANCH  10  11
ENDBRANCH   2   8
TORSDOF 2
ENDMDL
MODEL 9
REMARK VINA RESULT:      -4.0      3.441      5.386
REMARK  2 active torsions:
REMARK  status: ('A' for Active; 'I' for Inactive)
REMARK    1  A    between atoms: C2_2  and  C6_6 
REMARK    2  A    between atoms: C7_7  and  C10_10 
ROOT
HETATM    1  C1  UNL     1     -33.340  17.816  -0.696  1.00 20.00     0.022 A 
HETATM    2  C2  UNL     1     -34.532  17.644  -1.457  1.00 20.00    -0.040 A 
HETATM    3  C3  UNL     1     -33.548  18.591   0.423  1.00 20.00    -0.020 A 
HETATM    4  C4  UNL     1     -35.606  18.295  -0.891  1.00 20.00    -0.014 A 
HETATM    5  C8  UNL     1     -32.570  18.996   1.458  1.00 20.00     0.056 C 
HETATM    6  C9  UNL     1     -37.006  18.363  -1.364  1.00 20.00     0.057 C 
HETATM    7  S11 UNL     1     -35.175  19.108   0.553  1.00 20.00    -0.100 SA
ENDROOT
BRANCH   2   8
HETATM    8  C6  UNL     1     -34.598  16.842  -2.735  1.00 20.00     0.025 A 
HETATM    9  C5  UNL     1     -33.506  15.847  -3.069  1.00 20.00     0.016 A 
HETATM   10  C7  UNL     1     -34.867  15.351  -2.679  1.00 20.00     0.004 A 
BRANCH  10  11
HETATM   11  C10 UNL     1     -35.751  14.713  -3.694  1.00 20.00     0.090 C 
HETATM   12 BR12 UNL     1     -34.759  13.382  -4.722  1.00 20.00    -0.096 Br
ENDBRANCH  10  11
ENDBRANCH   2   8
TORSDOF 2
ENDMDL
