MODEL 1
REMARK VINA RESULT:      -4.7      0.000      0.000
REMARK  2 active torsions:
REMARK  status: ('A' for Active; 'I' for Inactive)
REMARK    1  A    between atoms: C2_2  and  C6_6 
REMARK    2  A    between atoms: C7_7  and  C10_10 
ROOT
HETATM    1  C1  UNL     1     -34.740  15.240  -2.962  1.00 20.00     0.022 A 
HETATM    2  C2  UNL     1     -34.450  16.634  -2.972  1.00 20.00    -0.040 A 
HETATM    3  C3  UNL     1     -34.515  14.656  -4.188  1.00 20.00    -0.020 A 
HETATM    4  C4  UNL     1     -34.013  17.064  -4.206  1.00 20.00    -0.014 A 
HETATM    5  C8  UNL     1     -34.695  13.241  -4.582  1.00 20.00     0.056 C 
HETATM    6  C9  UNL     1     -33.613  18.425  -4.629  1.00 20.00     0.057 C 
HETATM    7  S11 UNL     1     -33.955  15.787  -5.346  1.00 20.00    -0.100 SA
ENDROOT
BRANCH   2   8
HETATM    8  C6  UNL     1     -34.608  17.530  -1.764  1.00 20.00     0.025 A 
HETATM    9  C5  UNL     1     -34.679  16.930  -0.376  1.00 20.00     0.016 A 
HETATM   10  C7  UNL     1     -33.459  17.696  -0.792  1.00 20.00     0.008 A 
BRANCH  10  11
HETATM   11  C10 UNL     1     -33.172  19.031  -0.196  1.00 20.00     0.119 C 
HETATM   12 CL12 UNL     1     -31.667  19.002   0.764  1.00 20.00    -0.130 Cl
ENDBRANCH  10  11
ENDBRANCH   2   8
TORSDOF 2
ENDMDL
MODEL 2
REMARK VINA RESULT:      -4.6      3.150      5.021
REMARK  2 active torsions:
REMARK  status: ('A' for Active; 'I' for Inactive)
REMARK    1  A    between atoms: C2_2  and  C6_6 
REMARK    2  A    between atoms: C7_7  and  C10_10 
ROOT
HETATM    1  C1  UNL     1     -34.477  15.903  -1.914  1.00 20.00     0.022 A 
HETATM    2  C2  UNL     1     -34.131  16.042  -3.289  1.00 20.00    -0.040 A 
HETATM    3  C3  UNL     1     -34.476  17.113  -1.256  1.00 20.00    -0.020 A 
HETATM    4  C4  UNL     1     -33.881  17.353  -3.630  1.00 20.00    -0.014 A 
HETATM    5  C8  UNL     1     -34.779  17.388   0.166  1.00 20.00     0.056 C 
HETATM    6  C9  UNL     1     -33.495  17.914  -4.945  1.00 20.00     0.057 C 
HETATM    7  S11 UNL     1     -34.061  18.409  -2.295  1.00 20.00    -0.100 SA
ENDROOT
BRANCH   2   8
HETATM    8  C6  UNL     1     -34.052  14.879  -4.252  1.00 20.00     0.025 A 
HETATM    9  C5  UNL     1     -34.836  13.613  -3.983  1.00 20.00     0.016 A 
HETATM   10  C7  UNL     1     -35.252  14.520  -5.103  1.00 20.00     0.008 A 
BRANCH  10  11
HETATM   11  C10 UNL     1     -35.063  14.097  -6.519  1.00 20.00     0.119 C 
HETATM   12 CL12 UNL     1     -34.790  15.504  -7.584  1.00 20.00    -0.130 Cl
ENDBRANCH  10  11
ENDBRANCH   2   8
TORSDOF 2
ENDMDL
MODEL 3
REMARK VINA RESULT:      -4.4      1.544      1.866
REMARK  2 active torsions:
REMARK  status: ('A' for Active; 'I' for Inactive)
REMARK    1  A    between atoms: C2_2  and  C6_6 
REMARK    2  A    between atoms: C7_7  and  C10_10 
ROOT
HETATM    1  C1  UNL     1     -34.426  15.265  -2.942  1.00 20.00     0.022 A 
HETATM    2  C2  UNL     1     -35.357  16.278  -2.575  1.00 20.00    -0.040 A 
HETATM    3  C3  UNL     1     -34.954  14.385  -3.860  1.00 20.00    -0.020 A 
HETATM    4  C4  UNL     1     -36.562  16.135  -3.228  1.00 20.00    -0.014 A 
HETATM    5  C8  UNL     1     -34.310  13.207  -4.483  1.00 20.00     0.056 C 
HETATM    6  C9  UNL     1     -37.780  16.971  -3.127  1.00 20.00     0.057 C 
HETATM    7  S11 UNL     1     -36.566  14.781  -4.277  1.00 20.00    -0.100 SA
ENDROOT
BRANCH   2   8
HETATM    8  C6  UNL     1     -35.049  17.377  -1.584  1.00 20.00     0.025 A 
HETATM    9  C5  UNL     1     -34.769  17.040  -0.135  1.00 20.00     0.016 A 
HETATM   10  C7  UNL     1     -33.651  17.512  -1.016  1.00 20.00     0.008 A 
BRANCH  10  11
HETATM   11  C10 UNL     1     -33.055  18.862  -0.812  1.00 20.00     0.119 C 
HETATM   12 CL12 UNL     1     -31.761  18.819   0.418  1.00 20.00    -0.130 Cl
ENDBRANCH  10  11
ENDBRANCH   2   8
TORSDOF 2
ENDMDL
MODEL 4
REMARK VINA RESULT:      -4.3      3.446      5.457
REMARK  2 active torsions:
REMARK  status: ('A' for Active; 'I' for Inactive)
REMARK    1  A    between atoms: C2_2  and  C6_6 
REMARK    2  A    between atoms: C7_7  and  C10_10 
ROOT
HETATM    1  C1  UNL     1     -35.181  17.491   0.901  1.00 20.00     0.022 A 
HETATM    2  C2  UNL     1     -34.011  17.793   0.148  1.00 20.00    -0.040 A 
HETATM    3  C3  UNL     1     -35.217  18.172   2.098  1.00 20.00    -0.020 A 
HETATM    4  C4  UNL     1     -33.196  18.696   0.797  1.00 20.00    -0.014 A 
HETATM    5  C8  UNL     1     -36.256  18.130   3.150  1.00 20.00     0.056 C 
HETATM    6  C9  UNL     1     -31.901  19.263   0.358  1.00 20.00     0.057 C 
HETATM    7  S11 UNL     1     -33.844  19.173   2.309  1.00 20.00    -0.100 SA
ENDROOT
BRANCH   2   8
HETATM    8  C6  UNL     1     -33.707  17.188  -1.204  1.00 20.00     0.025 A 
HETATM    9  C5  UNL     1     -34.692  16.239  -1.851  1.00 20.00     0.016 A 
HETATM   10  C7  UNL     1     -34.505  17.615  -2.417  1.00 20.00     0.008 A 
BRANCH  10  11
HETATM   11  C10 UNL     1     -33.826  17.800  -3.731  1.00 20.00     0.119 C 
HETATM   12 CL12 UNL     1     -33.444  16.228  -4.488  1.00 20.00    -0.130 Cl
ENDBRANCH  10  11
ENDBRANCH   2   8
TORSDOF 2
ENDMDL
MODEL 5
REMARK VINA RESULT:      -4.2      1.688      2.922
REMARK  2 active torsions:
REMARK  status: ('A' for Active; 'I' for Inactive)
REMARK    1  A    between atoms: C2_2  and  C6_6 
REMARK    2  A    between atoms: C7_7  and  C10_10 
ROOT
HETATM    1  C1  UNL     1     -34.161  17.073  -5.346  1.00 20.00     0.022 A 
HETATM    2  C2  UNL     1     -34.057  16.185  -4.238  1.00 20.00    -0.040 A 
HETATM    3  C3  UNL     1     -34.512  16.416  -6.505  1.00 20.00    -0.020 A 
HETATM    4  C4  UNL     1     -34.333  14.882  -4.591  1.00 20.00    -0.014 A 
HETATM    5  C8  UNL     1     -34.718  16.980  -7.857  1.00 20.00     0.056 C 
HETATM    6  C9  UNL     1     -34.334  13.669  -3.742  1.00 20.00     0.057 C 
HETATM    7  S11 UNL     1     -34.715  14.734  -6.253  1.00 20.00    -0.100 SA
ENDROOT
BRANCH   2   8
HETATM    8  C6  UNL     1     -33.685  16.630  -2.842  1.00 20.00     0.025 A 
HETATM    9  C5  UNL     1     -33.767  18.093  -2.463  1.00 20.00     0.016 A 
HETATM   10  C7  UNL     1     -34.760  17.123  -1.896  1.00 20.00     0.008 A 
BRANCH  10  11
HETATM   11  C10 UNL     1     -34.709  16.756  -0.452  1.00 20.00     0.119 C 
HETATM   12 CL12 UNL     1     -33.977  18.061   0.521  1.00 20.00    -0.130 Cl
ENDBRANCH  10  11
ENDBRANCH   2   8
TORSDOF 2
ENDMDL
MODEL 6
REMARK VINA RESULT:      -4.2      1.770      2.310
REMARK  2 active torsions:
REMARK  status: ('A' for Active; 'I' for Inactive)
REMARK    1  A    between atoms: C2_2  and  C6_6 
REMARK    2  A    between atoms: C7_7  and  C10_10 
ROOT
HETATM    1  C1  UNL     1     -36.362  15.837  -3.032  1.00 20.00     0.022 A 
HETATM    2  C2  UNL     1     -34.989  15.758  -2.665  1.00 20.00    -0.040 A 
HETATM    3  C3  UNL     1     -36.595  15.307  -4.282  1.00 20.00    -0.020 A 
HETATM    4  C4  UNL     1     -34.223  15.169  -3.647  1.00 20.00    -0.014 A 
HETATM    5  C8  UNL     1     -37.877  15.204  -5.014  1.00 20.00     0.056 C 
HETATM    6  C9  UNL     1     -32.767  14.902  -3.656  1.00 20.00     0.057 C 
HETATM    7  S11 UNL     1     -35.161  14.716  -5.007  1.00 20.00    -0.100 SA
ENDROOT
BRANCH   2   8
HETATM    8  C6  UNL     1     -34.446  16.264  -1.348  1.00 20.00     0.025 A 
HETATM    9  C5  UNL     1     -33.691  17.575  -1.289  1.00 20.00     0.016 A 
HETATM   10  C7  UNL     1     -35.064  17.482  -0.695  1.00 20.00     0.008 A 
BRANCH  10  11
HETATM   11  C10 UNL     1     -35.245  17.525   0.784  1.00 20.00     0.119 C 
HETATM   12 CL12 UNL     1     -33.905  18.401   1.575  1.00 20.00    -0.130 Cl
ENDBRANCH  10  11
ENDBRANCH   2   8
TORSDOF 2
ENDMDL
MODEL 7
REMARK VINA RESULT:      -4.0      2.287      3.105
REMARK  2 active torsions:
REMARK  status: ('A' for Active; 'I' for Inactive)
REMARK    1  A    between atoms: C2_2  and  C6_6 
REMARK    2  A    between atoms: C7_7  and  C10_10 
ROOT
HETATM    1  C1  UNL     1     -35.002  14.850  -5.437  1.00 20.00     0.022 A 
HETATM    2  C2  UNL     1     -35.633  15.221  -4.216  1.00 20.00    -0.040 A 
HETATM    3  C3  UNL     1     -35.882  14.859  -6.498  1.00 20.00    -0.020 A 
HETATM    4  C4  UNL     1     -36.971  15.502  -4.388  1.00 20.00    -0.014 A 
HETATM    5  C8  UNL     1     -35.617  14.536  -7.917  1.00 20.00     0.056 C 
HETATM    6  C9  UNL     1     -37.971  15.920  -3.380  1.00 20.00     0.057 C 
HETATM    7  S11 UNL     1     -37.461  15.315  -6.018  1.00 20.00    -0.100 SA
ENDROOT
BRANCH   2   8
HETATM    8  C6  UNL     1     -34.910  15.295  -2.890  1.00 20.00     0.025 A 
HETATM    9  C5  UNL     1     -33.484  15.799  -2.829  1.00 20.00     0.016 A 
HETATM   10  C7  UNL     1     -34.594  16.643  -2.277  1.00 20.00     0.008 A 
BRANCH  10  11
HETATM   11  C10 UNL     1     -34.724  16.843  -0.806  1.00 20.00     0.119 C 
HETATM   12 CL12 UNL     1     -33.456  17.935  -0.186  1.00 20.00    -0.130 Cl
ENDBRANCH  10  11
ENDBRANCH   2   8
TORSDOF 2
ENDMDL
MODEL 8
REMARK VINA RESULT:      -4.0      3.295      5.167
REMARK  2 active torsions:
REMARK  status: ('A' for Active; 'I' for Inactive)
REMARK    1  A    between atoms: C2_2  and  C6_6 
REMARK    2  A    between atoms: C7_7  and  C10_10 
ROOT
HETATM    1  C1  UNL     1     -33.797  17.015  -1.337  1.00 20.00     0.022 A 
HETATM    2  C2  UNL     1     -34.770  16.732  -2.337  1.00 20.00    -0.040 A 
HETATM    3  C3  UNL     1     -34.284  17.860  -0.365  1.00 20.00    -0.020 A 
HETATM    4  C4  UNL     1     -35.966  17.372  -2.091  1.00 20.00    -0.014 A 
HETATM    5  C8  UNL     1     -33.589  18.385   0.831  1.00 20.00     0.056 C 
HETATM    6  C9  UNL     1     -37.217  17.340  -2.882  1.00 20.00     0.057 C 
HETATM    7  S11 UNL     1     -35.909  18.309  -0.659  1.00 20.00    -0.100 SA
ENDROOT
BRANCH   2   8
HETATM    8  C6  UNL     1     -34.511  15.835  -3.526  1.00 20.00     0.025 A 
HETATM    9  C5  UNL     1     -33.201  15.088  -3.645  1.00 20.00     0.016 A 
HETATM   10  C7  UNL     1     -34.460  14.333  -3.341  1.00 20.00     0.008 A 
BRANCH  10  11
HETATM   11  C10 UNL     1     -35.060  13.433  -4.366  1.00 20.00     0.119 C 
HETATM   12 CL12 UNL     1     -34.707  14.008  -6.019  1.00 20.00    -0.130 Cl
ENDBRANCH  10  11
ENDBRANCH   2   8
TORSDOF 2
ENDMDL
MODEL 9
REMARK VINA RESULT:      -3.9      3.313      5.335
REMARK  2 active torsions:
REMARK  status: ('A' for Active; 'I' for Inactive)
REMARK    1  A    between atoms: C2_2  and  C6_6 
REMARK    2  A    between atoms: C7_7  and  C10_10 
ROOT
HETATM    1  C1  UNL     1     -33.683  18.304  -2.733  1.00 20.00     0.022 A 
HETATM    2  C2  UNL     1     -34.501  17.427  -3.501  1.00 20.00    -0.040 A 
HETATM    3  C3  UNL     1     -33.669  17.962  -1.399  1.00 20.00    -0.020 A 
HETATM    4  C4  UNL     1     -35.082  16.448  -2.726  1.00 20.00    -0.014 A 
HETATM    5  C8  UNL     1     -32.947  18.619  -0.287  1.00 20.00     0.056 C 
HETATM    6  C9  UNL     1     -35.991  15.354  -3.136  1.00 20.00     0.057 C 
HETATM    7  S11 UNL     1     -34.641  16.589  -1.077  1.00 20.00    -0.100 SA
ENDROOT
BRANCH   2   8
HETATM    8  C6  UNL     1     -34.703  17.566  -4.993  1.00 20.00     0.025 A 
HETATM    9  C5  UNL     1     -33.636  18.214  -5.848  1.00 20.00     0.016 A 
HETATM   10  C7  UNL     1     -33.869  16.736  -5.947  1.00 20.00     0.008 A 
BRANCH  10  11
HETATM   11  C10 UNL     1     -34.491  16.156  -7.171  1.00 20.00     0.119 C 
HETATM   12 CL12 UNL     1     -35.004  14.468  -6.898  1.00 20.00    -0.130 Cl
ENDBRANCH  10  11
ENDBRANCH   2   8
TORSDOF 2
ENDMDL
