MODEL 1
REMARK VINA RESULT:      -4.4      0.000      0.000
REMARK  1 active torsions:
REMARK  status: ('A' for Active; 'I' for Inactive)
REMARK    1  A    between atoms: C4_4  and  C9_9 
ROOT
HETATM    1  C1  UNL     1     -34.906  13.566  -4.273  1.00 20.00     0.131 C 
HETATM    2  C2  UNL     1     -35.908  14.732  -4.208  1.00 20.00     0.084 C 
HETATM    3  C3  UNL     1     -34.002  14.204  -3.190  1.00 20.00     0.056 C 
HETATM    4  C4  UNL     1     -35.206  15.165  -2.891  1.00 20.00     0.011 C 
HETATM    5  C5  UNL     1     -32.696  14.770  -3.717  1.00 20.00     0.018 C 
HETATM    6  O10 UNL     1     -34.846  12.546  -4.927  1.00 20.00    -0.298 OA
ENDROOT
BRANCH   4   7
HETATM    7  C9  UNL     1     -34.943  16.654  -2.746  1.00 20.00    -0.047 C 
HETATM    8  C6  UNL     1     -36.260  17.399  -2.453  1.00 20.00     0.015 C 
HETATM    9  C7  UNL     1     -34.332  17.212  -4.046  1.00 20.00     0.015 C 
HETATM   10  C8  UNL     1     -33.959  16.905  -1.586  1.00 20.00     0.015 C 
ENDBRANCH   4   7
TORSDOF 1
ENDMDL
MODEL 2
REMARK VINA RESULT:      -4.4      0.015      1.376
REMARK  1 active torsions:
REMARK  status: ('A' for Active; 'I' for Inactive)
REMARK    1  A    between atoms: C4_4  and  C9_9 
ROOT
HETATM    1  C1  UNL     1     -34.903  13.568  -4.271  1.00 20.00     0.131 C 
HETATM    2  C2  UNL     1     -35.912  14.729  -4.204  1.00 20.00     0.084 C 
HETATM    3  C3  UNL     1     -33.998  14.215  -3.195  1.00 20.00     0.056 C 
HETATM    4  C4  UNL     1     -35.206  15.171  -2.893  1.00 20.00     0.011 C 
HETATM    5  C5  UNL     1     -32.698  14.786  -3.730  1.00 20.00     0.018 C 
HETATM    6  O10 UNL     1     -34.841  12.546  -4.921  1.00 20.00    -0.298 OA
ENDROOT
BRANCH   4   7
HETATM    7  C9  UNL     1     -34.950  16.661  -2.754  1.00 20.00    -0.047 C 
HETATM    8  C6  UNL     1     -34.336  17.216  -4.054  1.00 20.00     0.015 C 
HETATM    9  C7  UNL     1     -33.975  16.924  -1.590  1.00 20.00     0.015 C 
HETATM   10  C8  UNL     1     -36.273  17.401  -2.472  1.00 20.00     0.015 C 
ENDBRANCH   4   7
TORSDOF 1
ENDMDL
MODEL 3
REMARK VINA RESULT:      -4.4      0.012      1.373
REMARK  1 active torsions:
REMARK  status: ('A' for Active; 'I' for Inactive)
REMARK    1  A    between atoms: C4_4  and  C9_9 
ROOT
HETATM    1  C1  UNL     1     -34.905  13.568  -4.271  1.00 20.00     0.131 C 
HETATM    2  C2  UNL     1     -35.911  14.730  -4.206  1.00 20.00     0.084 C 
HETATM    3  C3  UNL     1     -34.001  14.213  -3.193  1.00 20.00     0.056 C 
HETATM    4  C4  UNL     1     -35.207  15.171  -2.894  1.00 20.00     0.011 C 
HETATM    5  C5  UNL     1     -32.698  14.782  -3.726  1.00 20.00     0.018 C 
HETATM    6  O10 UNL     1     -34.843  12.546  -4.922  1.00 20.00    -0.298 OA
ENDROOT
BRANCH   4   7
HETATM    7  C9  UNL     1     -34.948  16.660  -2.753  1.00 20.00    -0.047 C 
HETATM    8  C6  UNL     1     -33.968  16.921  -1.593  1.00 20.00     0.015 C 
HETATM    9  C7  UNL     1     -36.269  17.401  -2.466  1.00 20.00     0.015 C 
HETATM   10  C8  UNL     1     -34.338  17.216  -4.056  1.00 20.00     0.015 C 
ENDBRANCH   4   7
TORSDOF 1
ENDMDL
MODEL 4
REMARK VINA RESULT:      -4.2      1.544      2.341
REMARK  1 active torsions:
REMARK  status: ('A' for Active; 'I' for Inactive)
REMARK    1  A    between atoms: C4_4  and  C9_9 
ROOT
HETATM    1  C1  UNL     1     -37.059  14.587  -3.815  1.00 20.00     0.131 C 
HETATM    2  C2  UNL     1     -36.525  15.854  -3.123  1.00 20.00     0.084 C 
HETATM    3  C3  UNL     1     -35.631  14.026  -4.021  1.00 20.00     0.056 C 
HETATM    4  C4  UNL     1     -35.158  15.125  -3.006  1.00 20.00     0.011 C 
HETATM    5  C5  UNL     1     -35.145  14.065  -5.459  1.00 20.00     0.018 C 
HETATM    6  O10 UNL     1     -38.170  14.188  -4.094  1.00 20.00    -0.298 OA
ENDROOT
BRANCH   4   7
HETATM    7  C9  UNL     1     -33.936  15.961  -3.341  1.00 20.00    -0.047 C 
HETATM    8  C6  UNL     1     -34.215  16.835  -4.580  1.00 20.00     0.015 C 
HETATM    9  C7  UNL     1     -32.733  15.045  -3.639  1.00 20.00     0.015 C 
HETATM   10  C8  UNL     1     -33.581  16.879  -2.154  1.00 20.00     0.015 C 
ENDBRANCH   4   7
TORSDOF 1
ENDMDL
MODEL 5
REMARK VINA RESULT:      -4.2      2.212      3.254
REMARK  1 active torsions:
REMARK  status: ('A' for Active; 'I' for Inactive)
REMARK    1  A    between atoms: C4_4  and  C9_9 
ROOT
HETATM    1  C1  UNL     1     -37.194  14.748  -4.184  1.00 20.00     0.131 C 
HETATM    2  C2  UNL     1     -36.999  15.619  -5.438  1.00 20.00     0.084 C 
HETATM    3  C3  UNL     1     -35.718  14.932  -3.755  1.00 20.00     0.056 C 
HETATM    4  C4  UNL     1     -35.656  16.088  -4.814  1.00 20.00     0.011 C 
HETATM    5  C5  UNL     1     -34.855  13.696  -3.934  1.00 20.00     0.018 C 
HETATM    6  O10 UNL     1     -38.139  14.146  -3.718  1.00 20.00    -0.298 OA
ENDROOT
BRANCH   4   7
HETATM    7  C9  UNL     1     -34.476  16.152  -5.767  1.00 20.00    -0.047 C 
HETATM    8  C6  UNL     1     -34.452  14.900  -6.666  1.00 20.00     0.015 C 
HETATM    9  C7  UNL     1     -33.157  16.221  -4.972  1.00 20.00     0.015 C 
HETATM   10  C8  UNL     1     -34.584  17.405  -6.660  1.00 20.00     0.015 C 
ENDBRANCH   4   7
TORSDOF 1
ENDMDL
MODEL 6
REMARK VINA RESULT:      -4.1      1.540      2.597
REMARK  1 active torsions:
REMARK  status: ('A' for Active; 'I' for Inactive)
REMARK    1  A    between atoms: C4_4  and  C9_9 
ROOT
HETATM    1  C1  UNL     1     -33.784  13.661  -3.741  1.00 20.00     0.131 C 
HETATM    2  C2  UNL     1     -35.190  13.391  -4.306  1.00 20.00     0.084 C 
HETATM    3  C3  UNL     1     -34.172  15.094  -3.302  1.00 20.00     0.056 C 
HETATM    4  C4  UNL     1     -35.661  14.661  -3.546  1.00 20.00     0.011 C 
HETATM    5  C5  UNL     1     -33.558  16.196  -4.145  1.00 20.00     0.018 C 
HETATM    6  O10 UNL     1     -32.766  13.006  -3.672  1.00 20.00    -0.298 OA
ENDROOT
BRANCH   4   7
HETATM    7  C9  UNL     1     -36.581  15.588  -4.320  1.00 20.00    -0.047 C 
HETATM    8  C6  UNL     1     -36.120  15.688  -5.787  1.00 20.00     0.015 C 
HETATM    9  C7  UNL     1     -36.561  16.997  -3.694  1.00 20.00     0.015 C 
HETATM   10  C8  UNL     1     -38.025  15.049  -4.286  1.00 20.00     0.015 C 
ENDBRANCH   4   7
TORSDOF 1
ENDMDL
MODEL 7
REMARK VINA RESULT:      -4.1      1.545      2.556
REMARK  1 active torsions:
REMARK  status: ('A' for Active; 'I' for Inactive)
REMARK    1  A    between atoms: C4_4  and  C9_9 
ROOT
HETATM    1  C1  UNL     1     -33.780  13.661  -3.743  1.00 20.00     0.131 C 
HETATM    2  C2  UNL     1     -35.186  13.387  -4.305  1.00 20.00     0.084 C 
HETATM    3  C3  UNL     1     -34.167  15.098  -3.318  1.00 20.00     0.056 C 
HETATM    4  C4  UNL     1     -35.656  14.664  -3.556  1.00 20.00     0.011 C 
HETATM    5  C5  UNL     1     -33.552  16.192  -4.172  1.00 20.00     0.018 C 
HETATM    6  O10 UNL     1     -32.762  13.006  -3.670  1.00 20.00    -0.298 OA
ENDROOT
BRANCH   4   7
HETATM    7  C9  UNL     1     -36.576  15.584  -4.338  1.00 20.00    -0.047 C 
HETATM    8  C6  UNL     1     -36.551  17.000  -3.730  1.00 20.00     0.015 C 
HETATM    9  C7  UNL     1     -38.021  15.049  -4.295  1.00 20.00     0.015 C 
HETATM   10  C8  UNL     1     -36.118  15.665  -5.808  1.00 20.00     0.015 C 
ENDBRANCH   4   7
TORSDOF 1
ENDMDL
MODEL 8
REMARK VINA RESULT:      -4.1      1.194      1.712
REMARK  1 active torsions:
REMARK  status: ('A' for Active; 'I' for Inactive)
REMARK    1  A    between atoms: C4_4  and  C9_9 
ROOT
HETATM    1  C1  UNL     1     -34.547  13.635  -4.591  1.00 20.00     0.131 C 
HETATM    2  C2  UNL     1     -34.523  14.341  -3.223  1.00 20.00     0.084 C 
HETATM    3  C3  UNL     1     -34.142  14.932  -5.333  1.00 20.00     0.056 C 
HETATM    4  C4  UNL     1     -33.774  15.510  -3.921  1.00 20.00     0.011 C 
HETATM    5  C5  UNL     1     -35.259  15.567  -6.141  1.00 20.00     0.018 C 
HETATM    6  O10 UNL     1     -34.794  12.503  -4.947  1.00 20.00    -0.298 OA
ENDROOT
BRANCH   4   7
HETATM    7  C9  UNL     1     -34.243  16.905  -3.550  1.00 20.00    -0.047 C 
HETATM    8  C6  UNL     1     -35.782  16.977  -3.594  1.00 20.00     0.015 C 
HETATM    9  C7  UNL     1     -33.667  17.937  -4.540  1.00 20.00     0.015 C 
HETATM   10  C8  UNL     1     -33.768  17.262  -2.127  1.00 20.00     0.015 C 
ENDBRANCH   4   7
TORSDOF 1
ENDMDL
MODEL 9
REMARK VINA RESULT:      -4.1      0.896      2.319
REMARK  1 active torsions:
REMARK  status: ('A' for Active; 'I' for Inactive)
REMARK    1  A    between atoms: C4_4  and  C9_9 
ROOT
HETATM    1  C1  UNL     1     -34.747  13.678  -4.462  1.00 20.00     0.131 C 
HETATM    2  C2  UNL     1     -33.732  14.546  -3.696  1.00 20.00     0.084 C 
HETATM    3  C3  UNL     1     -35.741  14.857  -4.597  1.00 20.00     0.056 C 
HETATM    4  C4  UNL     1     -34.554  15.782  -4.153  1.00 20.00     0.011 C 
HETATM    5  C5  UNL     1     -36.976  14.739  -3.721  1.00 20.00     0.018 C 
HETATM    6  O10 UNL     1     -34.762  12.518  -4.815  1.00 20.00    -0.298 OA
ENDROOT
BRANCH   4   7
HETATM    7  C9  UNL     1     -34.800  16.838  -3.091  1.00 20.00    -0.047 C 
HETATM    8  C6  UNL     1     -33.705  17.922  -3.158  1.00 20.00     0.015 C 
HETATM    9  C7  UNL     1     -34.779  16.194  -1.690  1.00 20.00     0.015 C 
HETATM   10  C8  UNL     1     -36.173  17.502  -3.313  1.00 20.00     0.015 C 
ENDBRANCH   4   7
TORSDOF 1
ENDMDL
