MODEL 1
REMARK VINA RESULT:      -4.5      0.000      0.000
REMARK  3 active torsions:
REMARK  status: ('A' for Active; 'I' for Inactive)
REMARK    1  A    between atoms: C2_2  and  C10_10 
REMARK    2  A    between atoms: C3_3  and  C9_9 
REMARK    3  A    between atoms: C4_4  and  O11_11 
ROOT
HETATM    1  C1  UNL     1     -33.580  14.394  -3.611  1.00 20.00     0.038 C 
HETATM    2  C2  UNL     1     -33.897  15.695  -4.384  1.00 20.00     0.002 C 
HETATM    3  C3  UNL     1     -35.067  14.938  -5.075  1.00 20.00     0.019 C 
HETATM    4  C4  UNL     1     -35.008  13.899  -3.919  1.00 20.00     0.123 C 
ENDROOT
BRANCH   2   5
HETATM    5  C10 UNL     1     -34.299  16.888  -3.529  1.00 20.00    -0.047 C 
HETATM    6  C6  UNL     1     -33.849  16.671  -2.070  1.00 20.00     0.015 C 
HETATM    7  C7  UNL     1     -35.830  17.069  -3.555  1.00 20.00     0.015 C 
HETATM    8  C8  UNL     1     -33.638  18.174  -4.066  1.00 20.00     0.015 C 
ENDBRANCH   2   5
BRANCH   3   9
HETATM    9  C9  UNL     1     -34.768  14.433  -6.480  1.00 20.00     0.003 C 
HETATM   10  C5  UNL     1     -35.914  14.665  -7.416  1.00 20.00     0.005 C 
ENDBRANCH   3   9
BRANCH   4  11
HETATM   11  O11 UNL     1     -35.131  12.512  -4.280  1.00 20.00    -0.395 OA
HETATM   12  H31 UNL     1     -34.401  12.063  -3.837  1.00 20.00     0.210 HD
ENDBRANCH   4  11
TORSDOF 3
ENDMDL
MODEL 2
REMARK VINA RESULT:      -4.5      0.013      1.312
REMARK  3 active torsions:
REMARK  status: ('A' for Active; 'I' for Inactive)
REMARK    1  A    between atoms: C2_2  and  C10_10 
REMARK    2  A    between atoms: C3_3  and  C9_9 
REMARK    3  A    between atoms: C4_4  and  O11_11 
ROOT
HETATM    1  C1  UNL     1     -33.577  14.393  -3.617  1.00 20.00     0.038 C 
HETATM    2  C2  UNL     1     -33.894  15.694  -4.391  1.00 20.00     0.002 C 
HETATM    3  C3  UNL     1     -35.069  14.939  -5.076  1.00 20.00     0.019 C 
HETATM    4  C4  UNL     1     -35.009  13.903  -3.918  1.00 20.00     0.123 C 
ENDROOT
BRANCH   2   5
HETATM    5  C10 UNL     1     -34.288  16.889  -3.538  1.00 20.00    -0.047 C 
HETATM    6  C6  UNL     1     -33.631  18.174  -4.084  1.00 20.00     0.015 C 
HETATM    7  C7  UNL     1     -33.827  16.678  -2.081  1.00 20.00     0.015 C 
HETATM    8  C8  UNL     1     -35.820  17.072  -3.552  1.00 20.00     0.015 C 
ENDBRANCH   2   5
BRANCH   3   9
HETATM    9  C9  UNL     1     -34.777  14.431  -6.481  1.00 20.00     0.003 C 
HETATM   10  C5  UNL     1     -35.929  14.658  -7.412  1.00 20.00     0.005 C 
ENDBRANCH   3   9
BRANCH   4  11
HETATM   11  O11 UNL     1     -35.137  12.515  -4.276  1.00 20.00    -0.395 OA
HETATM   12  H31 UNL     1     -34.243  12.154  -4.241  1.00 20.00     0.210 HD
ENDBRANCH   4  11
TORSDOF 3
ENDMDL
MODEL 3
REMARK VINA RESULT:      -4.3      2.165      4.315
REMARK  3 active torsions:
REMARK  status: ('A' for Active; 'I' for Inactive)
REMARK    1  A    between atoms: C2_2  and  C10_10 
REMARK    2  A    between atoms: C3_3  and  C9_9 
REMARK    3  A    between atoms: C4_4  and  O11_11 
ROOT
HETATM    1  C1  UNL     1     -33.192  16.637  -5.097  1.00 20.00     0.038 C 
HETATM    2  C2  UNL     1     -33.852  15.456  -4.347  1.00 20.00     0.002 C 
HETATM    3  C3  UNL     1     -34.481  16.494  -3.373  1.00 20.00     0.019 C 
HETATM    4  C4  UNL     1     -34.227  17.584  -4.454  1.00 20.00     0.123 C 
ENDROOT
BRANCH   2   5
HETATM    5  C10 UNL     1     -34.840  14.632  -5.157  1.00 20.00    -0.047 C 
HETATM    6  C6  UNL     1     -36.286  15.051  -4.819  1.00 20.00     0.015 C 
HETATM    7  C7  UNL     1     -34.672  13.132  -4.835  1.00 20.00     0.015 C 
HETATM    8  C8  UNL     1     -34.602  14.845  -6.665  1.00 20.00     0.015 C 
ENDBRANCH   2   5
BRANCH   3   9
HETATM    9  C9  UNL     1     -33.757  16.651  -2.043  1.00 20.00     0.003 C 
HETATM   10  C5  UNL     1     -34.701  16.603  -0.881  1.00 20.00     0.005 C 
ENDBRANCH   3   9
BRANCH   4  11
HETATM   11  O11 UNL     1     -33.723  18.851  -3.997  1.00 20.00    -0.395 OA
HETATM   12  H31 UNL     1     -34.251  19.520  -4.451  1.00 20.00     0.210 HD
ENDBRANCH   4  11
TORSDOF 3
ENDMDL
MODEL 4
REMARK VINA RESULT:      -4.3      2.166      4.327
REMARK  3 active torsions:
REMARK  status: ('A' for Active; 'I' for Inactive)
REMARK    1  A    between atoms: C2_2  and  C10_10 
REMARK    2  A    between atoms: C3_3  and  C9_9 
REMARK    3  A    between atoms: C4_4  and  O11_11 
ROOT
HETATM    1  C1  UNL     1     -33.203  16.655  -5.087  1.00 20.00     0.038 C 
HETATM    2  C2  UNL     1     -33.848  15.463  -4.342  1.00 20.00     0.002 C 
HETATM    3  C3  UNL     1     -34.483  16.489  -3.360  1.00 20.00     0.019 C 
HETATM    4  C4  UNL     1     -34.245  17.588  -4.434  1.00 20.00     0.123 C 
ENDROOT
BRANCH   2   5
HETATM    5  C10 UNL     1     -34.832  14.634  -5.153  1.00 20.00    -0.047 C 
HETATM    6  C6  UNL     1     -34.649  13.135  -4.839  1.00 20.00     0.015 C 
HETATM    7  C7  UNL     1     -34.598  14.856  -6.662  1.00 20.00     0.015 C 
HETATM    8  C8  UNL     1     -36.280  15.040  -4.811  1.00 20.00     0.015 C 
ENDBRANCH   2   5
BRANCH   3   9
HETATM    9  C9  UNL     1     -33.756  16.645  -2.031  1.00 20.00     0.003 C 
HETATM   10  C5  UNL     1     -34.698  16.610  -0.867  1.00 20.00     0.005 C 
ENDBRANCH   3   9
BRANCH   4  11
HETATM   11  O11 UNL     1     -33.751  18.857  -3.972  1.00 20.00    -0.395 OA
HETATM   12  H31 UNL     1     -33.018  18.652  -3.380  1.00 20.00     0.210 HD
ENDBRANCH   4  11
TORSDOF 3
ENDMDL
MODEL 5
REMARK VINA RESULT:      -4.2      1.464      3.683
REMARK  3 active torsions:
REMARK  status: ('A' for Active; 'I' for Inactive)
REMARK    1  A    between atoms: C2_2  and  C10_10 
REMARK    2  A    between atoms: C3_3  and  C9_9 
REMARK    3  A    between atoms: C4_4  and  O11_11 
ROOT
HETATM    1  C1  UNL     1     -35.197  13.415  -4.797  1.00 20.00     0.038 C 
HETATM    2  C2  UNL     1     -35.553  14.915  -4.915  1.00 20.00     0.002 C 
HETATM    3  C3  UNL     1     -34.322  15.225  -4.016  1.00 20.00     0.019 C 
HETATM    4  C4  UNL     1     -33.767  13.819  -4.381  1.00 20.00     0.123 C 
ENDROOT
BRANCH   2   5
HETATM    5  C10 UNL     1     -35.503  15.495  -6.321  1.00 20.00    -0.047 C 
HETATM    6  C6  UNL     1     -35.347  14.363  -7.357  1.00 20.00     0.015 C 
HETATM    7  C7  UNL     1     -34.307  16.459  -6.457  1.00 20.00     0.015 C 
HETATM    8  C8  UNL     1     -36.802  16.269  -6.624  1.00 20.00     0.015 C 
ENDBRANCH   2   5
BRANCH   3   9
HETATM    9  C9  UNL     1     -34.644  15.488  -2.551  1.00 20.00     0.003 C 
HETATM   10  C5  UNL     1     -33.850  16.632  -1.998  1.00 20.00     0.005 C 
ENDBRANCH   3   9
BRANCH   4  11
HETATM   11  O11 UNL     1     -33.180  13.052  -3.315  1.00 20.00    -0.395 OA
HETATM   12  H31 UNL     1     -32.381  12.659  -3.687  1.00 20.00     0.210 HD
ENDBRANCH   4  11
TORSDOF 3
ENDMDL
MODEL 6
REMARK VINA RESULT:      -4.1      2.097      4.091
REMARK  3 active torsions:
REMARK  status: ('A' for Active; 'I' for Inactive)
REMARK    1  A    between atoms: C2_2  and  C10_10 
REMARK    2  A    between atoms: C3_3  and  C9_9 
REMARK    3  A    between atoms: C4_4  and  O11_11 
ROOT
HETATM    1  C1  UNL     1     -37.489  15.744  -5.061  1.00 20.00     0.038 C 
HETATM    2  C2  UNL     1     -35.950  15.890  -5.073  1.00 20.00     0.002 C 
HETATM    3  C3  UNL     1     -35.940  15.353  -3.613  1.00 20.00     0.019 C 
HETATM    4  C4  UNL     1     -37.357  14.768  -3.874  1.00 20.00     0.123 C 
ENDROOT
BRANCH   2   5
HETATM    5  C10 UNL     1     -35.215  15.034  -6.094  1.00 20.00    -0.047 C 
HETATM    6  C6  UNL     1     -33.984  15.790  -6.635  1.00 20.00     0.015 C 
HETATM    7  C7  UNL     1     -36.148  14.696  -7.274  1.00 20.00     0.015 C 
HETATM    8  C8  UNL     1     -34.742  13.718  -5.443  1.00 20.00     0.015 C 
ENDBRANCH   2   5
BRANCH   3   9
HETATM    9  C9  UNL     1     -35.814  16.420  -2.534  1.00 20.00     0.003 C 
HETATM   10  C5  UNL     1     -34.607  16.210  -1.673  1.00 20.00     0.005 C 
ENDBRANCH   3   9
BRANCH   4  11
HETATM   11  O11 UNL     1     -38.328  14.917  -2.823  1.00 20.00    -0.395 OA
HETATM   12  H31 UNL     1     -38.159  15.783  -2.433  1.00 20.00     0.210 HD
ENDBRANCH   4  11
TORSDOF 3
ENDMDL
MODEL 7
REMARK VINA RESULT:      -4.1      2.103      4.089
REMARK  3 active torsions:
REMARK  status: ('A' for Active; 'I' for Inactive)
REMARK    1  A    between atoms: C2_2  and  C10_10 
REMARK    2  A    between atoms: C3_3  and  C9_9 
REMARK    3  A    between atoms: C4_4  and  O11_11 
ROOT
HETATM    1  C1  UNL     1     -37.490  15.720  -5.110  1.00 20.00     0.038 C 
HETATM    2  C2  UNL     1     -35.950  15.860  -5.103  1.00 20.00     0.002 C 
HETATM    3  C3  UNL     1     -35.958  15.312  -3.648  1.00 20.00     0.019 C 
HETATM    4  C4  UNL     1     -37.374  14.734  -3.929  1.00 20.00     0.123 C 
ENDROOT
BRANCH   2   5
HETATM    5  C10 UNL     1     -35.207  15.009  -6.122  1.00 20.00    -0.047 C 
HETATM    6  C6  UNL     1     -34.742  13.688  -5.475  1.00 20.00     0.015 C 
HETATM    7  C7  UNL     1     -33.969  15.766  -6.646  1.00 20.00     0.015 C 
HETATM    8  C8  UNL     1     -36.128  14.680  -7.314  1.00 20.00     0.015 C 
ENDBRANCH   2   5
BRANCH   3   9
HETATM    9  C9  UNL     1     -35.841  16.370  -2.560  1.00 20.00     0.003 C 
HETATM   10  C5  UNL     1     -34.603  16.194  -1.735  1.00 20.00     0.005 C 
ENDBRANCH   3   9
BRANCH   4  11
HETATM   11  O11 UNL     1     -38.357  14.878  -2.889  1.00 20.00    -0.395 OA
HETATM   12  H31 UNL     1     -39.105  15.330  -3.298  1.00 20.00     0.210 HD
ENDBRANCH   4  11
TORSDOF 3
ENDMDL
MODEL 8
REMARK VINA RESULT:      -4.0      2.020      4.003
REMARK  3 active torsions:
REMARK  status: ('A' for Active; 'I' for Inactive)
REMARK    1  A    between atoms: C2_2  and  C10_10 
REMARK    2  A    between atoms: C3_3  and  C9_9 
REMARK    3  A    between atoms: C4_4  and  O11_11 
ROOT
HETATM    1  C1  UNL     1     -34.631  14.552  -5.090  1.00 20.00     0.038 C 
HETATM    2  C2  UNL     1     -35.728  15.011  -4.102  1.00 20.00     0.002 C 
HETATM    3  C3  UNL     1     -34.759  16.132  -3.628  1.00 20.00     0.019 C 
HETATM    4  C4  UNL     1     -33.971  15.940  -4.955  1.00 20.00     0.123 C 
ENDROOT
BRANCH   2   5
HETATM    5  C10 UNL     1     -37.026  15.489  -4.735  1.00 20.00    -0.047 C 
HETATM    6  C6  UNL     1     -37.016  15.201  -6.250  1.00 20.00     0.015 C 
HETATM    7  C7  UNL     1     -37.196  17.007  -4.519  1.00 20.00     0.015 C 
HETATM    8  C8  UNL     1     -38.228  14.760  -4.100  1.00 20.00     0.015 C 
ENDBRANCH   2   5
BRANCH   3   9
HETATM    9  C9  UNL     1     -34.019  15.838  -2.330  1.00 20.00     0.003 C 
HETATM   10  C5  UNL     1     -34.604  16.582  -1.168  1.00 20.00     0.005 C 
ENDBRANCH   3   9
BRANCH   4  11
HETATM   11  O11 UNL     1     -32.535  15.950  -4.869  1.00 20.00    -0.395 OA
HETATM   12  H31 UNL     1     -32.255  16.769  -5.294  1.00 20.00     0.210 HD
ENDBRANCH   4  11
TORSDOF 3
ENDMDL
MODEL 9
REMARK VINA RESULT:      -3.9      2.389      3.275
REMARK  3 active torsions:
REMARK  status: ('A' for Active; 'I' for Inactive)
REMARK    1  A    between atoms: C2_2  and  C10_10 
REMARK    2  A    between atoms: C3_3  and  C9_9 
REMARK    3  A    between atoms: C4_4  and  O11_11 
ROOT
HETATM    1  C1  UNL     1     -34.752  17.607  -4.443  1.00 20.00     0.038 C 
HETATM    2  C2  UNL     1     -34.830  16.084  -4.705  1.00 20.00     0.002 C 
HETATM    3  C3  UNL     1     -33.869  16.295  -5.910  1.00 20.00     0.019 C 
HETATM    4  C4  UNL     1     -33.453  17.652  -5.274  1.00 20.00     0.123 C 
ENDROOT
BRANCH   2   5
HETATM    5  C10 UNL     1     -34.301  15.197  -3.589  1.00 20.00    -0.047 C 
HETATM    6  C6  UNL     1     -34.913  13.785  -3.697  1.00 20.00     0.015 C 
HETATM    7  C7  UNL     1     -34.668  15.793  -2.215  1.00 20.00     0.015 C 
HETATM    8  C8  UNL     1     -32.766  15.080  -3.684  1.00 20.00     0.015 C 
ENDBRANCH   2   5
BRANCH   3   9
HETATM    9  C9  UNL     1     -34.546  16.344  -7.273  1.00 20.00     0.003 C 
HETATM   10  C5  UNL     1     -34.790  14.974  -7.829  1.00 20.00     0.005 C 
ENDBRANCH   3   9
BRANCH   4  11
HETATM   11  O11 UNL     1     -33.312  18.774  -6.163  1.00 20.00    -0.395 OA
HETATM   12  H31 UNL     1     -32.807  19.433  -5.671  1.00 20.00     0.210 HD
ENDBRANCH   4  11
TORSDOF 3
ENDMDL
