MODEL 1
REMARK VINA RESULT:      -4.2      0.000      0.000
REMARK  3 active torsions:
REMARK  status: ('A' for Active; 'I' for Inactive)
REMARK    1  A    between atoms: C4_4  and  C6_6 
REMARK    2  A    between atoms: C5_5  and  C8_8 
REMARK    3  A    between atoms: C6_6  and  C9_9 
ROOT
HETATM    1  C3  UNL     1     -35.526  16.528  -2.907  1.00 20.00     0.017 A 
HETATM    2  C5  UNL     1     -34.594  16.224  -1.770  1.00 20.00     0.009 A 
HETATM    3  C6  UNL     1     -34.338  15.610  -3.146  1.00 20.00    -0.032 A 
ENDROOT
BRANCH   3   4
HETATM    4  C4  UNL     1     -34.555  14.102  -3.342  1.00 20.00    -0.006 A 
HETATM    5  C1  UNL     1     -35.488  13.543  -4.380  1.00 20.00     0.006 A 
HETATM    6  C2  UNL     1     -34.003  13.350  -4.521  1.00 20.00     0.006 A 
ENDBRANCH   3   4
BRANCH   3   7
HETATM    7  C9  UNL     1     -33.216  16.164  -3.991  1.00 20.00     0.006 C 
HETATM    8  C7  UNL     1     -33.722  16.938  -5.172  1.00 20.00     0.006 C 
ENDBRANCH   3   7
BRANCH   2   9
HETATM    9  C8  UNL     1     -33.736  17.296  -1.190  1.00 20.00     0.120 C 
HETATM   10 CL10 UNL     1     -34.298  17.762   0.440  1.00 20.00    -0.130 Cl
ENDBRANCH   2   9
TORSDOF 3
ENDMDL
MODEL 2
REMARK VINA RESULT:      -4.1      2.505      4.167
REMARK  3 active torsions:
REMARK  status: ('A' for Active; 'I' for Inactive)
REMARK    1  A    between atoms: C4_4  and  C6_6 
REMARK    2  A    between atoms: C5_5  and  C8_8 
REMARK    3  A    between atoms: C6_6  and  C9_9 
ROOT
HETATM    1  C3  UNL     1     -33.549  15.533  -3.840  1.00 20.00     0.017 A 
HETATM    2  C5  UNL     1     -34.374  14.386  -3.331  1.00 20.00     0.009 A 
HETATM    3  C6  UNL     1     -34.708  15.813  -2.898  1.00 20.00    -0.032 A 
ENDROOT
BRANCH   3   4
HETATM    4  C4  UNL     1     -34.438  16.234  -1.445  1.00 20.00    -0.006 A 
HETATM    5  C1  UNL     1     -33.681  17.484  -1.089  1.00 20.00     0.006 A 
HETATM    6  C2  UNL     1     -35.151  17.382  -0.787  1.00 20.00     0.006 A 
ENDBRANCH   3   4
BRANCH   3   7
HETATM    7  C9  UNL     1     -35.917  16.490  -3.497  1.00 20.00     0.006 C 
HETATM    8  C7  UNL     1     -35.543  17.539  -4.501  1.00 20.00     0.006 C 
ENDBRANCH   3   7
BRANCH   2   9
HETATM    9  C8  UNL     1     -35.232  13.602  -4.263  1.00 20.00     0.120 C 
HETATM   10 CL10 UNL     1     -34.888  14.019  -5.965  1.00 20.00    -0.130 Cl
ENDBRANCH   2   9
TORSDOF 3
ENDMDL
MODEL 3
REMARK VINA RESULT:      -3.9     10.776     11.911
REMARK  3 active torsions:
REMARK  status: ('A' for Active; 'I' for Inactive)
REMARK    1  A    between atoms: C4_4  and  C6_6 
REMARK    2  A    between atoms: C5_5  and  C8_8 
REMARK    3  A    between atoms: C6_6  and  C9_9 
ROOT
HETATM    1  C3  UNL     1     -31.968   5.907   3.582  1.00 20.00     0.017 A 
HETATM    2  C5  UNL     1     -32.601   6.850   2.599  1.00 20.00     0.009 A 
HETATM    3  C6  UNL     1     -33.430   6.289   3.754  1.00 20.00    -0.032 A 
ENDROOT
BRANCH   3   4
HETATM    4  C4  UNL     1     -34.536   5.267   3.450  1.00 20.00    -0.006 A 
HETATM    5  C1  UNL     1     -35.166   4.411   4.515  1.00 20.00     0.006 A 
HETATM    6  C2  UNL     1     -35.972   5.486   3.839  1.00 20.00     0.006 A 
ENDBRANCH   3   4
BRANCH   3   7
HETATM    7  C9  UNL     1     -33.759   7.192   4.917  1.00 20.00     0.006 C 
HETATM    8  C7  UNL     1     -33.459   6.550   6.240  1.00 20.00     0.006 C 
ENDBRANCH   3   7
BRANCH   2   9
HETATM    9  C8  UNL     1     -32.165   8.274   2.533  1.00 20.00     0.120 C 
HETATM   10 CL10 UNL     1     -31.901   8.791   0.844  1.00 20.00    -0.130 Cl
ENDBRANCH   2   9
TORSDOF 3
ENDMDL
MODEL 4
REMARK VINA RESULT:      -3.9      2.760      4.138
REMARK  3 active torsions:
REMARK  status: ('A' for Active; 'I' for Inactive)
REMARK    1  A    between atoms: C4_4  and  C6_6 
REMARK    2  A    between atoms: C5_5  and  C8_8 
REMARK    3  A    between atoms: C6_6  and  C9_9 
ROOT
HETATM    1  C3  UNL     1     -35.715  14.900  -3.662  1.00 20.00     0.017 A 
HETATM    2  C5  UNL     1     -35.605  16.058  -4.611  1.00 20.00     0.009 A 
HETATM    3  C6  UNL     1     -34.636  15.946  -3.435  1.00 20.00    -0.032 A 
ENDROOT
BRANCH   3   4
HETATM    4  C4  UNL     1     -34.758  16.942  -2.271  1.00 20.00    -0.006 A 
HETATM    5  C1  UNL     1     -34.701  16.517  -0.829  1.00 20.00     0.006 A 
HETATM    6  C2  UNL     1     -33.587  17.338  -1.416  1.00 20.00     0.006 A 
ENDBRANCH   3   4
BRANCH   3   7
HETATM    7  C9  UNL     1     -33.214  15.518  -3.703  1.00 20.00     0.006 C 
HETATM    8  C7  UNL     1     -33.023  14.039  -3.536  1.00 20.00     0.006 C 
ENDBRANCH   3   7
BRANCH   2   9
HETATM    9  C8  UNL     1     -35.189  15.836  -6.025  1.00 20.00     0.120 C 
HETATM   10 CL10 UNL     1     -35.252  14.104  -6.455  1.00 20.00    -0.130 Cl
ENDBRANCH   2   9
TORSDOF 3
ENDMDL
MODEL 5
REMARK VINA RESULT:      -3.9      1.535      2.553
REMARK  3 active torsions:
REMARK  status: ('A' for Active; 'I' for Inactive)
REMARK    1  A    between atoms: C4_4  and  C6_6 
REMARK    2  A    between atoms: C5_5  and  C8_8 
REMARK    3  A    between atoms: C6_6  and  C9_9 
ROOT
HETATM    1  C3  UNL     1     -33.397  16.241  -3.963  1.00 20.00     0.017 A 
HETATM    2  C5  UNL     1     -34.758  16.538  -3.402  1.00 20.00     0.009 A 
HETATM    3  C6  UNL     1     -34.579  15.382  -4.385  1.00 20.00    -0.032 A 
ENDROOT
BRANCH   3   4
HETATM    4  C4  UNL     1     -35.160  15.510  -5.801  1.00 20.00    -0.006 A 
HETATM    5  C1  UNL     1     -34.324  15.348  -7.040  1.00 20.00     0.006 A 
HETATM    6  C2  UNL     1     -35.372  14.325  -6.701  1.00 20.00     0.006 A 
ENDBRANCH   3   4
BRANCH   3   7
HETATM    7  C9  UNL     1     -34.608  13.968  -3.856  1.00 20.00     0.006 C 
HETATM    8  C7  UNL     1     -33.233  13.383  -3.719  1.00 20.00     0.006 C 
ENDBRANCH   3   7
BRANCH   2   9
HETATM    9  C8  UNL     1     -35.038  16.332  -1.952  1.00 20.00     0.120 C 
HETATM   10 CL10 UNL     1     -33.868  17.218  -0.935  1.00 20.00    -0.130 Cl
ENDBRANCH   2   9
TORSDOF 3
ENDMDL
MODEL 6
REMARK VINA RESULT:      -3.8     11.381     12.497
REMARK  3 active torsions:
REMARK  status: ('A' for Active; 'I' for Inactive)
REMARK    1  A    between atoms: C4_4  and  C6_6 
REMARK    2  A    between atoms: C5_5  and  C8_8 
REMARK    3  A    between atoms: C6_6  and  C9_9 
ROOT
HETATM    1  C3  UNL     1     -33.746   7.369   4.377  1.00 20.00     0.017 A 
HETATM    2  C5  UNL     1     -32.576   6.556   3.904  1.00 20.00     0.009 A 
HETATM    3  C6  UNL     1     -33.881   5.858   4.285  1.00 20.00    -0.032 A 
ENDROOT
BRANCH   3   4
HETATM    4  C4  UNL     1     -33.926   5.007   5.564  1.00 20.00    -0.006 A 
HETATM    5  C1  UNL     1     -34.978   5.187   6.623  1.00 20.00     0.006 A 
HETATM    6  C2  UNL     1     -34.956   3.935   5.790  1.00 20.00     0.006 A 
ENDBRANCH   3   4
BRANCH   3   7
HETATM    7  C9  UNL     1     -34.768   5.325   3.186  1.00 20.00     0.006 C 
HETATM    8  C7  UNL     1     -36.123   5.968   3.186  1.00 20.00     0.006 C 
ENDBRANCH   3   7
BRANCH   2   9
HETATM    9  C8  UNL     1     -32.100   6.667   2.496  1.00 20.00     0.120 C 
HETATM   10 CL10 UNL     1     -32.134   8.362   1.934  1.00 20.00    -0.130 Cl
ENDBRANCH   2   9
TORSDOF 3
ENDMDL
MODEL 7
REMARK VINA RESULT:      -3.8      1.550      2.735
REMARK  3 active torsions:
REMARK  status: ('A' for Active; 'I' for Inactive)
REMARK    1  A    between atoms: C4_4  and  C6_6 
REMARK    2  A    between atoms: C5_5  and  C8_8 
REMARK    3  A    between atoms: C6_6  and  C9_9 
ROOT
HETATM    1  C3  UNL     1     -34.390  14.251  -3.417  1.00 20.00     0.017 A 
HETATM    2  C5  UNL     1     -33.989  15.622  -2.953  1.00 20.00     0.009 A 
HETATM    3  C6  UNL     1     -34.785  15.462  -4.247  1.00 20.00    -0.032 A 
ENDROOT
BRANCH   3   4
HETATM    4  C4  UNL     1     -34.090  15.738  -5.589  1.00 20.00    -0.006 A 
HETATM    5  C1  UNL     1     -34.397  14.959  -6.838  1.00 20.00     0.006 A 
HETATM    6  C2  UNL     1     -34.787  16.408  -6.741  1.00 20.00     0.006 A 
ENDBRANCH   3   4
BRANCH   3   7
HETATM    7  C9  UNL     1     -36.249  15.830  -4.250  1.00 20.00     0.006 C 
HETATM    8  C7  UNL     1     -37.140  14.624  -4.184  1.00 20.00     0.006 C 
ENDBRANCH   3   7
BRANCH   2   9
HETATM    9  C8  UNL     1     -34.574  16.198  -1.709  1.00 20.00     0.120 C 
HETATM   10 CL10 UNL     1     -33.526  17.477  -1.033  1.00 20.00    -0.130 Cl
ENDBRANCH   2   9
TORSDOF 3
ENDMDL
MODEL 8
REMARK VINA RESULT:      -3.7      2.033      2.951
REMARK  3 active torsions:
REMARK  status: ('A' for Active; 'I' for Inactive)
REMARK    1  A    between atoms: C4_4  and  C6_6 
REMARK    2  A    between atoms: C5_5  and  C8_8 
REMARK    3  A    between atoms: C6_6  and  C9_9 
ROOT
HETATM    1  C3  UNL     1     -33.131  16.247  -4.838  1.00 20.00     0.017 A 
HETATM    2  C5  UNL     1     -34.553  16.727  -4.797  1.00 20.00     0.009 A 
HETATM    3  C6  UNL     1     -33.997  15.902  -3.638  1.00 20.00    -0.032 A 
ENDROOT
BRANCH   3   4
HETATM    4  C4  UNL     1     -34.500  14.464  -3.437  1.00 20.00    -0.006 A 
HETATM    5  C1  UNL     1     -35.725  13.928  -4.127  1.00 20.00     0.006 A 
HETATM    6  C2  UNL     1     -34.364  13.402  -4.492  1.00 20.00     0.006 A 
ENDBRANCH   3   4
BRANCH   3   7
HETATM    7  C9  UNL     1     -33.664  16.601  -2.342  1.00 20.00     0.006 C 
HETATM    8  C7  UNL     1     -34.702  16.364  -1.284  1.00 20.00     0.006 C 
ENDBRANCH   3   7
BRANCH   2   9
HETATM    9  C8  UNL     1     -34.855  18.182  -4.683  1.00 20.00     0.120 C 
HETATM   10 CL10 UNL     1     -33.429  19.174  -5.096  1.00 20.00    -0.130 Cl
ENDBRANCH   2   9
TORSDOF 3
ENDMDL
MODEL 9
REMARK VINA RESULT:      -3.7      1.860      2.831
REMARK  3 active torsions:
REMARK  status: ('A' for Active; 'I' for Inactive)
REMARK    1  A    between atoms: C4_4  and  C6_6 
REMARK    2  A    between atoms: C5_5  and  C8_8 
REMARK    3  A    between atoms: C6_6  and  C9_9 
ROOT
HETATM    1  C3  UNL     1     -33.236  16.581  -4.664  1.00 20.00     0.017 A 
HETATM    2  C5  UNL     1     -34.710  16.863  -4.611  1.00 20.00     0.009 A 
HETATM    3  C6  UNL     1     -34.032  16.153  -3.441  1.00 20.00    -0.032 A 
ENDROOT
BRANCH   3   4
HETATM    4  C4  UNL     1     -34.331  14.666  -3.195  1.00 20.00    -0.006 A 
HETATM    5  C1  UNL     1     -35.054  13.807  -4.195  1.00 20.00     0.006 A 
HETATM    6  C2  UNL     1     -33.598  13.563  -3.906  1.00 20.00     0.006 A 
ENDBRANCH   3   4
BRANCH   3   7
HETATM    7  C9  UNL     1     -33.782  16.927  -2.169  1.00 20.00     0.006 C 
HETATM    8  C7  UNL     1     -34.623  16.435  -1.028  1.00 20.00     0.006 C 
ENDBRANCH   3   7
BRANCH   2   9
HETATM    9  C8  UNL     1     -35.208  18.265  -4.529  1.00 20.00     0.120 C 
HETATM   10 CL10 UNL     1     -36.840  18.332  -3.810  1.00 20.00    -0.130 Cl
ENDBRANCH   2   9
TORSDOF 3
ENDMDL
