MODEL 1
REMARK VINA RESULT:      -4.4      0.000      0.000
REMARK  2 active torsions:
REMARK  status: ('A' for Active; 'I' for Inactive)
REMARK    1  A    between atoms: C4_4  and  C6_6 
REMARK    2  A    between atoms: C7_7  and  C8_8 
ROOT
HETATM    1  C1  UNL     1     -35.486  14.350  -3.868  1.00 20.00     0.034 A 
HETATM    2  C2  UNL     1     -35.023  13.168  -4.397  1.00 20.00     0.142 A 
HETATM    3  C3  UNL     1     -33.275  14.206  -3.615  1.00 20.00     0.148 A 
HETATM    4  C4  UNL     1     -34.350  15.024  -3.361  1.00 20.00    -0.029 A 
HETATM    5  O9  UNL     1     -33.676  13.072  -4.247  1.00 20.00    -0.334 OA
ENDROOT
BRANCH   4   6
HETATM    6  C6  UNL     1     -34.321  16.372  -2.678  1.00 20.00     0.026 A 
HETATM    7  C5  UNL     1     -35.612  17.104  -2.381  1.00 20.00     0.016 A 
HETATM    8  C7  UNL     1     -34.821  16.509  -1.254  1.00 20.00     0.005 A 
BRANCH   8   9
HETATM    9  C8  UNL     1     -34.104  17.392  -0.293  1.00 20.00     0.090 C 
HETATM   10 BR10 UNL     1     -35.212  17.737   1.276  1.00 20.00    -0.096 Br
ENDBRANCH   8   9
ENDBRANCH   4   6
TORSDOF 2
ENDMDL
MODEL 2
REMARK VINA RESULT:      -4.4      1.319      1.416
REMARK  2 active torsions:
REMARK  status: ('A' for Active; 'I' for Inactive)
REMARK    1  A    between atoms: C4_4  and  C6_6 
REMARK    2  A    between atoms: C7_7  and  C8_8 
ROOT
HETATM    1  C1  UNL     1     -34.536  15.001  -5.172  1.00 20.00     0.034 A 
HETATM    2  C2  UNL     1     -34.844  13.777  -5.719  1.00 20.00     0.142 A 
HETATM    3  C3  UNL     1     -34.267  13.390  -3.654  1.00 20.00     0.148 A 
HETATM    4  C4  UNL     1     -34.162  14.750  -3.831  1.00 20.00    -0.029 A 
HETATM    5  O9  UNL     1     -34.682  12.789  -4.799  1.00 20.00    -0.334 OA
ENDROOT
BRANCH   4   6
HETATM    6  C6  UNL     1     -33.731  15.767  -2.800  1.00 20.00     0.026 A 
HETATM    7  C5  UNL     1     -33.952  17.243  -3.048  1.00 20.00     0.016 A 
HETATM    8  C7  UNL     1     -34.774  16.534  -2.014  1.00 20.00     0.005 A 
BRANCH   8   9
HETATM    9  C8  UNL     1     -34.561  16.813  -0.566  1.00 20.00     0.090 C 
HETATM   10 BR10 UNL     1     -33.370  18.341  -0.332  1.00 20.00    -0.096 Br
ENDBRANCH   8   9
ENDBRANCH   4   6
TORSDOF 2
ENDMDL
MODEL 3
REMARK VINA RESULT:      -4.4     11.045     11.677
REMARK  2 active torsions:
REMARK  status: ('A' for Active; 'I' for Inactive)
REMARK    1  A    between atoms: C4_4  and  C6_6 
REMARK    2  A    between atoms: C7_7  and  C8_8 
ROOT
HETATM    1  C1  UNL     1     -34.128   5.730   5.956  1.00 20.00     0.034 A 
HETATM    2  C2  UNL     1     -35.262   4.951   5.960  1.00 20.00     0.142 A 
HETATM    3  C3  UNL     1     -34.770   5.291   3.865  1.00 20.00     0.148 A 
HETATM    4  C4  UNL     1     -33.809   5.951   4.595  1.00 20.00    -0.029 A 
HETATM    5  O9  UNL     1     -35.660   4.679   4.690  1.00 20.00    -0.334 OA
ENDROOT
BRANCH   4   6
HETATM    6  C6  UNL     1     -32.649   6.750   4.050  1.00 20.00     0.026 A 
HETATM    7  C5  UNL     1     -31.767   6.172   2.965  1.00 20.00     0.016 A 
HETATM    8  C7  UNL     1     -32.703   7.296   2.638  1.00 20.00     0.005 A 
BRANCH   8   9
HETATM    9  C8  UNL     1     -32.169   8.655   2.342  1.00 20.00     0.090 C 
HETATM   10 BR10 UNL     1     -32.420   9.092   0.457  1.00 20.00    -0.096 Br
ENDBRANCH   8   9
ENDBRANCH   4   6
TORSDOF 2
ENDMDL
MODEL 4
REMARK VINA RESULT:      -4.1      1.447      1.918
REMARK  2 active torsions:
REMARK  status: ('A' for Active; 'I' for Inactive)
REMARK    1  A    between atoms: C4_4  and  C6_6 
REMARK    2  A    between atoms: C7_7  and  C8_8 
ROOT
HETATM    1  C1  UNL     1     -33.162  14.823  -3.389  1.00 20.00     0.034 A 
HETATM    2  C2  UNL     1     -33.439  13.617  -3.991  1.00 20.00     0.142 A 
HETATM    3  C3  UNL     1     -35.355  14.420  -3.335  1.00 20.00     0.148 A 
HETATM    4  C4  UNL     1     -34.407  15.344  -2.963  1.00 20.00    -0.029 A 
HETATM    5  O9  UNL     1     -34.774  13.364  -3.962  1.00 20.00    -0.334 OA
ENDROOT
BRANCH   4   6
HETATM    6  C6  UNL     1     -34.649  16.650  -2.244  1.00 20.00     0.026 A 
HETATM    7  C5  UNL     1     -34.805  16.674  -0.739  1.00 20.00     0.016 A 
HETATM    8  C7  UNL     1     -33.566  17.241  -1.364  1.00 20.00     0.005 A 
BRANCH   8   9
HETATM    9  C8  UNL     1     -33.328  18.711  -1.358  1.00 20.00     0.090 C 
HETATM   10 BR10 UNL     1     -32.211  19.217   0.160  1.00 20.00    -0.096 Br
ENDBRANCH   8   9
ENDBRANCH   4   6
TORSDOF 2
ENDMDL
MODEL 5
REMARK VINA RESULT:      -3.9      3.648      5.001
REMARK  2 active torsions:
REMARK  status: ('A' for Active; 'I' for Inactive)
REMARK    1  A    between atoms: C4_4  and  C6_6 
REMARK    2  A    between atoms: C7_7  and  C8_8 
ROOT
HETATM    1  C1  UNL     1     -34.720  16.573  -0.665  1.00 20.00     0.034 A 
HETATM    2  C2  UNL     1     -34.785  17.673   0.159  1.00 20.00     0.142 A 
HETATM    3  C3  UNL     1     -33.528  18.252  -1.524  1.00 20.00     0.148 A 
HETATM    4  C4  UNL     1     -33.904  16.950  -1.758  1.00 20.00    -0.029 A 
HETATM    5  O9  UNL     1     -34.061  18.701  -0.357  1.00 20.00    -0.334 OA
ENDROOT
BRANCH   4   6
HETATM    6  C6  UNL     1     -33.519  16.096  -2.943  1.00 20.00     0.026 A 
HETATM    7  C5  UNL     1     -34.336  14.873  -3.299  1.00 20.00     0.016 A 
HETATM    8  C7  UNL     1     -34.392  16.084  -4.182  1.00 20.00     0.005 A 
BRANCH   8   9
HETATM    9  C8  UNL     1     -33.768  16.055  -5.534  1.00 20.00     0.090 C 
HETATM   10 BR10 UNL     1     -34.737  14.834  -6.708  1.00 20.00    -0.096 Br
ENDBRANCH   8   9
ENDBRANCH   4   6
TORSDOF 2
ENDMDL
MODEL 6
REMARK VINA RESULT:      -3.9      2.124      2.618
REMARK  2 active torsions:
REMARK  status: ('A' for Active; 'I' for Inactive)
REMARK    1  A    between atoms: C4_4  and  C6_6 
REMARK    2  A    between atoms: C7_7  and  C8_8 
ROOT
HETATM    1  C1  UNL     1     -33.818  15.513  -3.052  1.00 20.00     0.034 A 
HETATM    2  C2  UNL     1     -33.378  15.315  -4.340  1.00 20.00     0.142 A 
HETATM    3  C3  UNL     1     -33.631  17.466  -4.112  1.00 20.00     0.148 A 
HETATM    4  C4  UNL     1     -33.982  16.911  -2.904  1.00 20.00    -0.029 A 
HETATM    5  O9  UNL     1     -33.261  16.500  -4.993  1.00 20.00    -0.334 OA
ENDROOT
BRANCH   4   6
HETATM    6  C6  UNL     1     -34.451  17.647  -1.671  1.00 20.00     0.026 A 
HETATM    7  C5  UNL     1     -34.718  16.891  -0.388  1.00 20.00     0.016 A 
HETATM    8  C7  UNL     1     -33.525  17.794  -0.481  1.00 20.00     0.005 A 
BRANCH   8   9
HETATM    9  C8  UNL     1     -33.489  19.072   0.284  1.00 20.00     0.090 C 
HETATM   10 BR10 UNL     1     -31.786  19.263   1.217  1.00 20.00    -0.096 Br
ENDBRANCH   8   9
ENDBRANCH   4   6
TORSDOF 2
ENDMDL
MODEL 7
REMARK VINA RESULT:      -3.9      1.892      2.126
REMARK  2 active torsions:
REMARK  status: ('A' for Active; 'I' for Inactive)
REMARK    1  A    between atoms: C4_4  and  C6_6 
REMARK    2  A    between atoms: C7_7  and  C8_8 
ROOT
HETATM    1  C1  UNL     1     -35.655  14.131  -4.102  1.00 20.00     0.034 A 
HETATM    2  C2  UNL     1     -34.971  13.146  -4.776  1.00 20.00     0.142 A 
HETATM    3  C3  UNL     1     -33.519  14.094  -3.457  1.00 20.00     0.148 A 
HETATM    4  C4  UNL     1     -34.711  14.747  -3.245  1.00 20.00    -0.029 A 
HETATM    5  O9  UNL     1     -33.669  13.116  -4.389  1.00 20.00    -0.334 OA
ENDROOT
BRANCH   4   6
HETATM    6  C6  UNL     1     -34.959  15.891  -2.291  1.00 20.00     0.026 A 
HETATM    7  C5  UNL     1     -33.809  16.756  -1.822  1.00 20.00     0.016 A 
HETATM    8  C7  UNL     1     -34.822  17.321  -2.773  1.00 20.00     0.005 A 
BRANCH   8   9
HETATM    9  C8  UNL     1     -35.785  18.360  -2.312  1.00 20.00     0.090 C 
HETATM   10 BR10 UNL     1     -37.110  18.725  -3.697  1.00 20.00    -0.096 Br
ENDBRANCH   8   9
ENDBRANCH   4   6
TORSDOF 2
ENDMDL
MODEL 8
REMARK VINA RESULT:      -3.8      3.417      4.998
REMARK  2 active torsions:
REMARK  status: ('A' for Active; 'I' for Inactive)
REMARK    1  A    between atoms: C4_4  and  C6_6 
REMARK    2  A    between atoms: C7_7  and  C8_8 
ROOT
HETATM    1  C1  UNL     1     -33.328  18.020  -1.253  1.00 20.00     0.034 A 
HETATM    2  C2  UNL     1     -33.284  18.509   0.032  1.00 20.00     0.142 A 
HETATM    3  C3  UNL     1     -34.842  16.986   0.017  1.00 20.00     0.148 A 
HETATM    4  C4  UNL     1     -34.340  17.031  -1.262  1.00 20.00    -0.029 A 
HETATM    5  O9  UNL     1     -34.203  17.884   0.813  1.00 20.00    -0.334 OA
ENDROOT
BRANCH   4   6
HETATM    6  C6  UNL     1     -34.784  16.194  -2.439  1.00 20.00     0.026 A 
HETATM    7  C5  UNL     1     -34.217  16.455  -3.818  1.00 20.00     0.016 A 
HETATM    8  C7  UNL     1     -33.820  15.214  -3.076  1.00 20.00     0.005 A 
BRANCH   8   9
HETATM    9  C8  UNL     1     -34.303  13.881  -3.533  1.00 20.00     0.090 C 
HETATM   10 BR10 UNL     1     -34.820  13.949  -5.413  1.00 20.00    -0.096 Br
ENDBRANCH   8   9
ENDBRANCH   4   6
TORSDOF 2
ENDMDL
MODEL 9
REMARK VINA RESULT:      -3.8      2.612      2.859
REMARK  2 active torsions:
REMARK  status: ('A' for Active; 'I' for Inactive)
REMARK    1  A    between atoms: C4_4  and  C6_6 
REMARK    2  A    between atoms: C7_7  and  C8_8 
ROOT
HETATM    1  C1  UNL     1     -34.700  14.414  -5.427  1.00 20.00     0.034 A 
HETATM    2  C2  UNL     1     -34.755  13.241  -4.710  1.00 20.00     0.142 A 
HETATM    3  C3  UNL     1     -33.295  14.501  -3.697  1.00 20.00     0.148 A 
HETATM    4  C4  UNL     1     -33.752  15.232  -4.768  1.00 20.00    -0.029 A 
HETATM    5  O9  UNL     1     -33.901  13.286  -3.654  1.00 20.00    -0.334 OA
ENDROOT
BRANCH   4   6
HETATM    6  C6  UNL     1     -33.325  16.627  -5.161  1.00 20.00     0.026 A 
HETATM    7  C5  UNL     1     -34.130  17.415  -6.172  1.00 20.00     0.016 A 
HETATM    8  C7  UNL     1     -34.151  17.821  -4.729  1.00 20.00     0.005 A 
BRANCH   8   9
HETATM    9  C8  UNL     1     -33.477  19.077  -4.294  1.00 20.00     0.090 C 
HETATM   10 BR10 UNL     1     -33.565  19.262  -2.353  1.00 20.00    -0.096 Br
ENDBRANCH   8   9
ENDBRANCH   4   6
TORSDOF 2
ENDMDL
