MODEL 1
REMARK VINA RESULT:      -4.3      0.000      0.000
REMARK  1 active torsions:
REMARK  status: ('A' for Active; 'I' for Inactive)
REMARK    1  A    between atoms: C5_5  and  C9_9 
ROOT
HETATM    1  C1  UNL     1     -33.858  14.243  -3.729  1.00 20.00     0.036 C 
HETATM    2  C2  UNL     1     -33.188  16.575  -4.670  1.00 20.00     0.016 A 
HETATM    3  C3  UNL     1     -35.462  15.488  -5.251  1.00 20.00     0.041 C 
HETATM    4  C4  UNL     1     -34.457  13.104  -4.544  1.00 20.00     0.169 C 
HETATM    5  C5  UNL     1     -34.089  16.850  -3.502  1.00 20.00     0.009 A 
HETATM    6  C6  UNL     1     -36.465  14.430  -4.778  1.00 20.00     0.118 C 
HETATM    7  C7  UNL     1     -34.273  15.576  -4.315  1.00 20.00    -0.031 A 
HETATM    8  C8  UNL     1     -37.227  14.866  -3.528  1.00 20.00     0.039 C 
HETATM    9  O10 UNL     1     -35.883  13.145  -4.522  1.00 20.00    -0.386 OA
ENDROOT
BRANCH   5  10
HETATM   10  C9  UNL     1     -33.533  16.846  -2.120  1.00 20.00     0.120 C 
HETATM   11 CL11 UNL     1     -34.799  16.486  -0.914  1.00 20.00    -0.130 Cl
ENDBRANCH   5  10
TORSDOF 1
ENDMDL
MODEL 2
REMARK VINA RESULT:      -4.3      2.094      3.381
REMARK  1 active torsions:
REMARK  status: ('A' for Active; 'I' for Inactive)
REMARK    1  A    between atoms: C5_5  and  C9_9 
ROOT
HETATM    1  C1  UNL     1     -35.674  17.572  -2.831  1.00 20.00     0.036 C 
HETATM    2  C2  UNL     1     -34.687  16.693  -0.589  1.00 20.00     0.016 A 
HETATM    3  C3  UNL     1     -34.402  15.378  -2.798  1.00 20.00     0.041 C 
HETATM    4  C4  UNL     1     -36.469  16.740  -3.829  1.00 20.00     0.169 C 
HETATM    5  C5  UNL     1     -33.543  17.341  -1.312  1.00 20.00     0.009 A 
HETATM    6  C6  UNL     1     -34.434  15.531  -4.323  1.00 20.00     0.118 C 
HETATM    7  C7  UNL     1     -34.672  16.698  -2.106  1.00 20.00    -0.031 A 
HETATM    8  C8  UNL     1     -33.221  16.288  -4.858  1.00 20.00     0.039 C 
HETATM    9  O10 UNL     1     -35.617  16.169  -4.821  1.00 20.00    -0.386 OA
ENDROOT
BRANCH   5  10
HETATM   10  C9  UNL     1     -33.356  18.817  -1.234  1.00 20.00     0.120 C 
HETATM   11 CL11 UNL     1     -32.103  19.249  -0.038  1.00 20.00    -0.130 Cl
ENDBRANCH   5  10
TORSDOF 1
ENDMDL
MODEL 3
REMARK VINA RESULT:      -4.2      1.841      2.760
REMARK  1 active torsions:
REMARK  status: ('A' for Active; 'I' for Inactive)
REMARK    1  A    between atoms: C5_5  and  C9_9 
ROOT
HETATM    1  C1  UNL     1     -36.290  16.229  -3.348  1.00 20.00     0.036 C 
HETATM    2  C2  UNL     1     -34.378  16.330  -1.584  1.00 20.00     0.016 A 
HETATM    3  C3  UNL     1     -34.603  14.338  -3.219  1.00 20.00     0.041 C 
HETATM    4  C4  UNL     1     -37.166  15.016  -3.628  1.00 20.00     0.169 C 
HETATM    5  C5  UNL     1     -33.765  16.783  -2.876  1.00 20.00     0.009 A 
HETATM    6  C6  UNL     1     -35.220  13.923  -4.560  1.00 20.00     0.118 C 
HETATM    7  C7  UNL     1     -34.915  15.785  -2.895  1.00 20.00    -0.031 A 
HETATM    8  C8  UNL     1     -34.504  14.554  -5.752  1.00 20.00     0.039 C 
HETATM    9  O10 UNL     1     -36.619  14.213  -4.674  1.00 20.00    -0.386 OA
ENDROOT
BRANCH   5  10
HETATM   10  C9  UNL     1     -33.924  18.198  -3.316  1.00 20.00     0.120 C 
HETATM   11 CL11 UNL     1     -33.462  18.400  -5.029  1.00 20.00    -0.130 Cl
ENDBRANCH   5  10
TORSDOF 1
ENDMDL
MODEL 4
REMARK VINA RESULT:      -4.1      1.477      2.462
REMARK  1 active torsions:
REMARK  status: ('A' for Active; 'I' for Inactive)
REMARK    1  A    between atoms: C5_5  and  C9_9 
ROOT
HETATM    1  C1  UNL     1     -34.417  16.573  -4.529  1.00 20.00     0.036 C 
HETATM    2  C2  UNL     1     -36.131  16.798  -2.583  1.00 20.00     0.016 A 
HETATM    3  C3  UNL     1     -35.741  14.541  -3.786  1.00 20.00     0.041 C 
HETATM    4  C4  UNL     1     -34.679  15.874  -5.856  1.00 20.00     0.169 C 
HETATM    5  C5  UNL     1     -34.893  16.210  -1.971  1.00 20.00     0.009 A 
HETATM    6  C6  UNL     1     -34.733  13.778  -4.653  1.00 20.00     0.118 C 
HETATM    7  C7  UNL     1     -35.226  15.920  -3.428  1.00 20.00    -0.031 A 
HETATM    8  C8  UNL     1     -33.504  13.333  -3.863  1.00 20.00     0.039 C 
HETATM    9  O10 UNL     1     -34.287  14.503  -5.805  1.00 20.00    -0.386 OA
ENDROOT
BRANCH   5  10
HETATM   10  C9  UNL     1     -33.770  17.102  -1.567  1.00 20.00     0.120 C 
HETATM   11 CL11 UNL     1     -34.030  17.769   0.069  1.00 20.00    -0.130 Cl
ENDBRANCH   5  10
TORSDOF 1
ENDMDL
MODEL 5
REMARK VINA RESULT:      -4.1     11.439     12.868
REMARK  1 active torsions:
REMARK  status: ('A' for Active; 'I' for Inactive)
REMARK    1  A    between atoms: C5_5  and  C9_9 
ROOT
HETATM    1  C1  UNL     1     -42.884   5.249   0.071  1.00 20.00     0.036 C 
HETATM    2  C2  UNL     1     -40.497   6.269  -0.121  1.00 20.00     0.016 A 
HETATM    3  C3  UNL     1     -41.213   4.231  -1.544  1.00 20.00     0.041 C 
HETATM    4  C4  UNL     1     -43.199   3.764   0.196  1.00 20.00     0.169 C 
HETATM    5  C5  UNL     1     -41.273   6.824  -1.280  1.00 20.00     0.009 A 
HETATM    6  C6  UNL     1     -42.442   3.490  -2.084  1.00 20.00     0.118 C 
HETATM    7  C7  UNL     1     -41.616   5.445  -0.733  1.00 20.00    -0.031 A 
HETATM    8  C8  UNL     1     -43.140   4.256  -3.204  1.00 20.00     0.039 C 
HETATM    9  O10 UNL     1     -43.417   3.171  -1.083  1.00 20.00    -0.386 OA
ENDROOT
BRANCH   5  10
HETATM   10  C9  UNL     1     -42.156   8.008  -1.082  1.00 20.00     0.120 C 
HETATM   11 CL11 UNL     1     -43.401   8.108  -2.357  1.00 20.00    -0.130 Cl
ENDBRANCH   5  10
TORSDOF 1
ENDMDL
MODEL 6
REMARK VINA RESULT:      -4.1      1.354      1.600
REMARK  1 active torsions:
REMARK  status: ('A' for Active; 'I' for Inactive)
REMARK    1  A    between atoms: C5_5  and  C9_9 
ROOT
HETATM    1  C1  UNL     1     -34.807  14.204  -3.700  1.00 20.00     0.036 C 
HETATM    2  C2  UNL     1     -33.240  16.203  -3.133  1.00 20.00     0.016 A 
HETATM    3  C3  UNL     1     -33.944  15.687  -5.568  1.00 20.00     0.041 C 
HETATM    4  C4  UNL     1     -34.575  13.192  -4.814  1.00 20.00     0.169 C 
HETATM    5  C5  UNL     1     -34.610  16.793  -3.304  1.00 20.00     0.009 A 
HETATM    6  C6  UNL     1     -35.004  14.961  -6.405  1.00 20.00     0.118 C 
HETATM    7  C7  UNL     1     -34.222  15.546  -4.086  1.00 20.00    -0.031 A 
HETATM    8  C8  UNL     1     -36.352  15.677  -6.386  1.00 20.00     0.039 C 
HETATM    9  O10 UNL     1     -35.216  13.596  -6.022  1.00 20.00    -0.386 OA
ENDROOT
BRANCH   5  10
HETATM   10  C9  UNL     1     -35.577  16.762  -2.170  1.00 20.00     0.120 C 
HETATM   11 CL11 UNL     1     -34.734  16.611  -0.604  1.00 20.00    -0.130 Cl
ENDBRANCH   5  10
TORSDOF 1
ENDMDL
MODEL 7
REMARK VINA RESULT:      -4.0      2.030      3.103
REMARK  1 active torsions:
REMARK  status: ('A' for Active; 'I' for Inactive)
REMARK    1  A    between atoms: C5_5  and  C9_9 
ROOT
HETATM    1  C1  UNL     1     -35.634  15.312  -3.049  1.00 20.00     0.036 C 
HETATM    2  C2  UNL     1     -34.703  16.486  -0.921  1.00 20.00     0.016 A 
HETATM    3  C3  UNL     1     -33.194  16.001  -2.965  1.00 20.00     0.041 C 
HETATM    4  C4  UNL     1     -34.963  14.159  -3.783  1.00 20.00     0.169 C 
HETATM    5  C5  UNL     1     -34.974  17.584  -1.907  1.00 20.00     0.009 A 
HETATM    6  C6  UNL     1     -33.233  15.703  -4.468  1.00 20.00     0.118 C 
HETATM    7  C7  UNL     1     -34.588  16.199  -2.406  1.00 20.00    -0.031 A 
HETATM    8  C8  UNL     1     -33.607  16.930  -5.296  1.00 20.00     0.039 C 
HETATM    9  O10 UNL     1     -34.117  14.634  -4.829  1.00 20.00    -0.386 OA
ENDROOT
BRANCH   5  10
HETATM   10  C9  UNL     1     -36.353  18.132  -2.045  1.00 20.00     0.120 C 
HETATM   11 CL11 UNL     1     -36.562  18.972  -3.606  1.00 20.00    -0.130 Cl
ENDBRANCH   5  10
TORSDOF 1
ENDMDL
MODEL 8
REMARK VINA RESULT:      -4.0      2.461      3.799
REMARK  1 active torsions:
REMARK  status: ('A' for Active; 'I' for Inactive)
REMARK    1  A    between atoms: C5_5  and  C9_9 
ROOT
HETATM    1  C1  UNL     1     -34.118  16.387  -4.874  1.00 20.00     0.036 C 
HETATM    2  C2  UNL     1     -33.156  14.288  -3.673  1.00 20.00     0.016 A 
HETATM    3  C3  UNL     1     -33.573  16.500  -2.399  1.00 20.00     0.041 C 
HETATM    4  C4  UNL     1     -33.573  17.803  -4.743  1.00 20.00     0.169 C 
HETATM    5  C5  UNL     1     -34.620  14.309  -3.347  1.00 20.00     0.009 A 
HETATM    6  C6  UNL     1     -34.363  17.813  -2.457  1.00 20.00     0.118 C 
HETATM    7  C7  UNL     1     -33.882  15.618  -3.591  1.00 20.00    -0.031 A 
HETATM    8  C8  UNL     1     -35.850  17.611  -2.176  1.00 20.00     0.039 C 
HETATM    9  O10 UNL     1     -34.234  18.517  -3.699  1.00 20.00    -0.386 OA
ENDROOT
BRANCH   5  10
HETATM   10  C9  UNL     1     -35.604  13.750  -4.317  1.00 20.00     0.120 C 
HETATM   11 CL11 UNL     1     -37.227  14.451  -4.071  1.00 20.00    -0.130 Cl
ENDBRANCH   5  10
TORSDOF 1
ENDMDL
MODEL 9
REMARK VINA RESULT:      -4.0      2.210      3.274
REMARK  1 active torsions:
REMARK  status: ('A' for Active; 'I' for Inactive)
REMARK    1  A    between atoms: C5_5  and  C9_9 
ROOT
HETATM    1  C1  UNL     1     -34.725  14.313  -5.829  1.00 20.00     0.036 C 
HETATM    2  C2  UNL     1     -36.984  15.576  -6.113  1.00 20.00     0.016 A 
HETATM    3  C3  UNL     1     -36.053  14.983  -3.773  1.00 20.00     0.041 C 
HETATM    4  C4  UNL     1     -34.493  13.121  -4.910  1.00 20.00     0.169 C 
HETATM    5  C5  UNL     1     -35.964  16.630  -5.793  1.00 20.00     0.009 A 
HETATM    6  C6  UNL     1     -34.764  14.616  -3.029  1.00 20.00     0.118 C 
HETATM    7  C7  UNL     1     -35.790  15.220  -5.247  1.00 20.00    -0.031 A 
HETATM    8  C8  UNL     1     -33.821  15.807  -2.875  1.00 20.00     0.039 C 
HETATM    9  O10 UNL     1     -34.031  13.539  -3.627  1.00 20.00    -0.386 OA
ENDROOT
BRANCH   5  10
HETATM   10  C9  UNL     1     -35.104  17.183  -6.876  1.00 20.00     0.120 C 
HETATM   11 CL11 UNL     1     -33.720  18.089  -6.206  1.00 20.00    -0.130 Cl
ENDBRANCH   5  10
TORSDOF 1
ENDMDL
