MODEL 1
REMARK VINA RESULT:      -4.6      0.000      0.000
REMARK  2 active torsions:
REMARK  status: ('A' for Active; 'I' for Inactive)
REMARK    1  A    between atoms: C6_6  and  C8_8 
REMARK    2  A    between atoms: C8_8  and  O9_9 
ROOT
HETATM    1  C1  UNL     1     -34.836  16.926  -0.752  1.00 20.00     0.011 C 
HETATM    2  C2  UNL     1     -33.689  16.749  -1.746  1.00 20.00     0.011 C 
HETATM    3  C3  UNL     1     -33.191  15.483  -3.944  1.00 20.00     0.018 A 
HETATM    4  C4  UNL     1     -35.894  17.911  -1.240  1.00 20.00     0.074 C 
HETATM    5  C5  UNL     1     -35.136  17.167  -3.784  1.00 20.00     0.083 C 
HETATM    6  C6  UNL     1     -34.287  14.720  -3.254  1.00 20.00     0.019 A 
HETATM    7  C7  UNL     1     -34.188  16.231  -3.079  1.00 20.00    -0.026 A 
HETATM    8  S10 UNL     1     -36.648  17.375  -2.806  1.00 20.00    -0.168 SA
ENDROOT
BRANCH   6   9
HETATM    9  C8  UNL     1     -35.355  14.058  -4.057  1.00 20.00     0.169 C 
BRANCH   9  10
HETATM   10  O9  UNL     1     -35.133  12.648  -4.092  1.00 20.00    -0.400 OA
HETATM   11  H24 UNL     1     -34.219  12.509  -3.801  1.00 20.00     0.209 HD
ENDBRANCH   9  10
ENDBRANCH   6   9
TORSDOF 2
ENDMDL
MODEL 2
REMARK VINA RESULT:      -4.6      1.131      1.171
REMARK  2 active torsions:
REMARK  status: ('A' for Active; 'I' for Inactive)
REMARK    1  A    between atoms: C6_6  and  C8_8 
REMARK    2  A    between atoms: C8_8  and  O9_9 
ROOT
HETATM    1  C1  UNL     1     -35.271  16.684  -1.787  1.00 20.00     0.011 C 
HETATM    2  C2  UNL     1     -33.812  16.374  -2.124  1.00 20.00     0.011 C 
HETATM    3  C3  UNL     1     -32.459  14.845  -3.708  1.00 20.00     0.018 A 
HETATM    4  C4  UNL     1     -35.926  17.614  -2.803  1.00 20.00     0.074 C 
HETATM    5  C5  UNL     1     -34.152  16.558  -4.628  1.00 20.00     0.083 C 
HETATM    6  C6  UNL     1     -33.796  14.184  -3.521  1.00 20.00     0.019 A 
HETATM    7  C7  UNL     1     -33.687  15.704  -3.477  1.00 20.00    -0.026 A 
HETATM    8  S10 UNL     1     -35.925  16.901  -4.476  1.00 20.00    -0.168 SA
ENDROOT
BRANCH   6   9
HETATM    9  C8  UNL     1     -34.427  13.442  -4.650  1.00 20.00     0.169 C 
BRANCH   9  10
HETATM   10  O9  UNL     1     -35.417  12.544  -4.147  1.00 20.00    -0.400 OA
HETATM   11  H24 UNL     1     -34.944  11.885  -3.618  1.00 20.00     0.209 HD
ENDBRANCH   9  10
ENDBRANCH   6   9
TORSDOF 2
ENDMDL
MODEL 3
REMARK VINA RESULT:      -4.1      3.176      4.474
REMARK  2 active torsions:
REMARK  status: ('A' for Active; 'I' for Inactive)
REMARK    1  A    between atoms: C6_6  and  C8_8 
REMARK    2  A    between atoms: C8_8  and  O9_9 
ROOT
HETATM    1  C1  UNL     1     -33.309  15.778  -3.326  1.00 20.00     0.011 C 
HETATM    2  C2  UNL     1     -34.265  15.909  -2.141  1.00 20.00     0.011 C 
HETATM    3  C3  UNL     1     -34.782  17.567  -0.227  1.00 20.00     0.018 A 
HETATM    4  C4  UNL     1     -33.744  16.608  -4.529  1.00 20.00     0.074 C 
HETATM    5  C5  UNL     1     -34.934  18.288  -2.698  1.00 20.00     0.083 C 
HETATM    6  C6  UNL     1     -33.356  17.817  -0.630  1.00 20.00     0.019 A 
HETATM    7  C7  UNL     1     -34.366  17.345  -1.669  1.00 20.00    -0.026 A 
HETATM    8  S10 UNL     1     -33.833  18.381  -4.134  1.00 20.00    -0.168 SA
ENDROOT
BRANCH   6   9
HETATM    9  C8  UNL     1     -32.802  19.201  -0.598  1.00 20.00     0.169 C 
BRANCH   9  10
HETATM   10  O9  UNL     1     -31.474  19.180  -0.075  1.00 20.00    -0.400 OA
HETATM   11  H24 UNL     1     -31.509  18.655   0.739  1.00 20.00     0.209 HD
ENDBRANCH   9  10
ENDBRANCH   6   9
TORSDOF 2
ENDMDL
MODEL 4
REMARK VINA RESULT:      -4.1      2.842      4.262
REMARK  2 active torsions:
REMARK  status: ('A' for Active; 'I' for Inactive)
REMARK    1  A    between atoms: C6_6  and  C8_8 
REMARK    2  A    between atoms: C8_8  and  O9_9 
ROOT
HETATM    1  C1  UNL     1     -34.474  15.108  -7.586  1.00 20.00     0.011 C 
HETATM    2  C2  UNL     1     -35.314  14.254  -6.637  1.00 20.00     0.011 C 
HETATM    3  C3  UNL     1     -35.339  13.553  -4.149  1.00 20.00     0.018 A 
HETATM    4  C4  UNL     1     -34.762  16.599  -7.450  1.00 20.00     0.074 C 
HETATM    5  C5  UNL     1     -35.439  16.035  -4.838  1.00 20.00     0.083 C 
HETATM    6  C6  UNL     1     -33.915  13.906  -4.476  1.00 20.00     0.019 A 
HETATM    7  C7  UNL     1     -35.056  14.620  -5.189  1.00 20.00    -0.026 A 
HETATM    8  S10 UNL     1     -34.417  17.207  -5.770  1.00 20.00    -0.168 SA
ENDROOT
BRANCH   6   9
HETATM    9  C8  UNL     1     -33.054  14.561  -3.451  1.00 20.00     0.169 C 
BRANCH   9  10
HETATM   10  O9  UNL     1     -31.854  15.040  -4.058  1.00 20.00    -0.400 OA
HETATM   11  H24 UNL     1     -31.892  14.769  -4.988  1.00 20.00     0.209 HD
ENDBRANCH   9  10
ENDBRANCH   6   9
TORSDOF 2
ENDMDL
MODEL 5
REMARK VINA RESULT:      -4.1      2.076      3.114
REMARK  2 active torsions:
REMARK  status: ('A' for Active; 'I' for Inactive)
REMARK    1  A    between atoms: C6_6  and  C8_8 
REMARK    2  A    between atoms: C8_8  and  O9_9 
ROOT
HETATM    1  C1  UNL     1     -36.452  16.933  -5.342  1.00 20.00     0.011 C 
HETATM    2  C2  UNL     1     -35.607  17.212  -4.100  1.00 20.00     0.011 C 
HETATM    3  C3  UNL     1     -33.890  15.998  -2.597  1.00 20.00     0.018 A 
HETATM    4  C4  UNL     1     -35.652  17.040  -6.636  1.00 20.00     0.074 C 
HETATM    5  C5  UNL     1     -33.467  16.316  -5.120  1.00 20.00     0.083 C 
HETATM    6  C6  UNL     1     -34.715  14.925  -3.250  1.00 20.00     0.019 A 
HETATM    7  C7  UNL     1     -34.455  16.235  -3.984  1.00 20.00    -0.026 A 
HETATM    8  S10 UNL     1     -34.271  15.858  -6.679  1.00 20.00    -0.168 SA
ENDROOT
BRANCH   6   9
HETATM    9  C8  UNL     1     -34.085  13.631  -3.639  1.00 20.00     0.169 C 
BRANCH   9  10
HETATM   10  O9  UNL     1     -35.086  12.719  -4.092  1.00 20.00    -0.400 OA
HETATM   11  H24 UNL     1     -34.965  12.636  -5.050  1.00 20.00     0.209 HD
ENDBRANCH   9  10
ENDBRANCH   6   9
TORSDOF 2
ENDMDL
MODEL 6
REMARK VINA RESULT:      -4.1      2.649      3.118
REMARK  2 active torsions:
REMARK  status: ('A' for Active; 'I' for Inactive)
REMARK    1  A    between atoms: C6_6  and  C8_8 
REMARK    2  A    between atoms: C8_8  and  O9_9 
ROOT
HETATM    1  C1  UNL     1     -33.618  17.391  -4.236  1.00 20.00     0.011 C 
HETATM    2  C2  UNL     1     -33.295  15.928  -3.932  1.00 20.00     0.011 C 
HETATM    3  C3  UNL     1     -34.509  13.651  -3.801  1.00 20.00     0.018 A 
HETATM    4  C4  UNL     1     -33.731  17.673  -5.731  1.00 20.00     0.074 C 
HETATM    5  C5  UNL     1     -34.506  15.039  -5.973  1.00 20.00     0.083 C 
HETATM    6  C6  UNL     1     -35.558  14.703  -3.571  1.00 20.00     0.019 A 
HETATM    7  C7  UNL     1     -34.366  15.003  -4.473  1.00 20.00    -0.026 A 
HETATM    8  S10 UNL     1     -35.044  16.685  -6.510  1.00 20.00    -0.168 SA
ENDROOT
BRANCH   6   9
HETATM    9  C8  UNL     1     -36.943  14.504  -4.085  1.00 20.00     0.169 C 
BRANCH   9  10
HETATM   10  O9  UNL     1     -37.890  14.822  -3.066  1.00 20.00    -0.400 OA
HETATM   11  H24 UNL     1     -37.393  15.263  -2.360  1.00 20.00     0.209 HD
ENDBRANCH   9  10
ENDBRANCH   6   9
TORSDOF 2
ENDMDL
MODEL 7
REMARK VINA RESULT:      -4.0      2.239      2.687
REMARK  2 active torsions:
REMARK  status: ('A' for Active; 'I' for Inactive)
REMARK    1  A    between atoms: C6_6  and  C8_8 
REMARK    2  A    between atoms: C8_8  and  O9_9 
ROOT
HETATM    1  C1  UNL     1     -33.585  17.805  -4.926  1.00 20.00     0.011 C 
HETATM    2  C2  UNL     1     -33.984  16.810  -6.015  1.00 20.00     0.011 C 
HETATM    3  C3  UNL     1     -34.845  14.381  -6.218  1.00 20.00     0.018 A 
HETATM    4  C4  UNL     1     -34.787  18.463  -4.258  1.00 20.00     0.074 C 
HETATM    5  C5  UNL     1     -36.159  16.157  -4.889  1.00 20.00     0.083 C 
HETATM    6  C6  UNL     1     -34.126  14.467  -4.901  1.00 20.00     0.019 A 
HETATM    7  C7  UNL     1     -34.842  15.693  -5.456  1.00 20.00    -0.026 A 
HETATM    8  S10 UNL     1     -35.876  17.242  -3.464  1.00 20.00    -0.168 SA
ENDROOT
BRANCH   6   9
HETATM    9  C8  UNL     1     -34.621  13.693  -3.727  1.00 20.00     0.169 C 
BRANCH   9  10
HETATM   10  O9  UNL     1     -35.360  12.556  -4.172  1.00 20.00    -0.400 OA
HETATM   11  H24 UNL     1     -34.886  11.777  -3.846  1.00 20.00     0.209 HD
ENDBRANCH   9  10
ENDBRANCH   6   9
TORSDOF 2
ENDMDL
MODEL 8
REMARK VINA RESULT:      -4.0      1.792      2.184
REMARK  2 active torsions:
REMARK  status: ('A' for Active; 'I' for Inactive)
REMARK    1  A    between atoms: C6_6  and  C8_8 
REMARK    2  A    between atoms: C8_8  and  O9_9 
ROOT
HETATM    1  C1  UNL     1     -33.821  16.571  -2.222  1.00 20.00     0.011 C 
HETATM    2  C2  UNL     1     -33.543  15.484  -3.261  1.00 20.00     0.011 C 
HETATM    3  C3  UNL     1     -34.849  13.988  -4.915  1.00 20.00     0.018 A 
HETATM    4  C4  UNL     1     -34.057  17.941  -2.851  1.00 20.00     0.074 C 
HETATM    5  C5  UNL     1     -34.979  16.560  -5.051  1.00 20.00     0.083 C 
HETATM    6  C6  UNL     1     -35.819  14.370  -3.832  1.00 20.00     0.019 A 
HETATM    7  C7  UNL     1     -34.703  15.330  -4.223  1.00 20.00    -0.026 A 
HETATM    8  S10 UNL     1     -35.483  17.932  -3.980  1.00 20.00    -0.168 SA
ENDROOT
BRANCH   6   9
HETATM    9  C8  UNL     1     -37.254  14.605  -4.162  1.00 20.00     0.169 C 
BRANCH   9  10
HETATM   10  O9  UNL     1     -37.986  14.891  -2.971  1.00 20.00    -0.400 OA
HETATM   11  H24 UNL     1     -38.010  15.856  -2.890  1.00 20.00     0.209 HD
ENDBRANCH   9  10
ENDBRANCH   6   9
TORSDOF 2
ENDMDL
MODEL 9
REMARK VINA RESULT:      -3.8      1.928      2.798
REMARK  2 active torsions:
REMARK  status: ('A' for Active; 'I' for Inactive)
REMARK    1  A    between atoms: C6_6  and  C8_8 
REMARK    2  A    between atoms: C8_8  and  O9_9 
ROOT
HETATM    1  C1  UNL     1     -37.332  16.276  -4.034  1.00 20.00     0.011 C 
HETATM    2  C2  UNL     1     -36.679  14.936  -3.697  1.00 20.00     0.011 C 
HETATM    3  C3  UNL     1     -34.315  13.904  -3.539  1.00 20.00     0.018 A 
HETATM    4  C4  UNL     1     -37.272  17.269  -2.878  1.00 20.00     0.074 C 
HETATM    5  C5  UNL     1     -34.979  15.946  -2.112  1.00 20.00     0.083 C 
HETATM    6  C6  UNL     1     -34.207  15.068  -4.483  1.00 20.00     0.019 A 
HETATM    7  C7  UNL     1     -35.216  15.108  -3.342  1.00 20.00    -0.026 A 
HETATM    8  S10 UNL     1     -35.559  17.641  -2.391  1.00 20.00    -0.168 SA
ENDROOT
BRANCH   6   9
HETATM    9  C8  UNL     1     -32.968  15.897  -4.508  1.00 20.00     0.169 C 
BRANCH   9  10
HETATM   10  O9  UNL     1     -31.851  15.114  -4.089  1.00 20.00    -0.400 OA
HETATM   11  H24 UNL     1     -31.067  15.519  -4.491  1.00 20.00     0.209 HD
ENDBRANCH   9  10
ENDBRANCH   6   9
TORSDOF 2
ENDMDL
