MODEL 1
REMARK VINA RESULT:      -4.7      0.000      0.000
REMARK  1 active torsions:
REMARK  status: ('A' for Active; 'I' for Inactive)
REMARK    1  A    between atoms: C1_1  and  C5_5 
ROOT
HETATM    1  C2  UNL     1     -35.836  14.973  -3.496  1.00 20.00     0.013 C 
HETATM    2  C3  UNL     1     -36.092  16.406  -3.030  1.00 20.00     0.009 C 
HETATM    3  C4  UNL     1     -33.767  17.048  -3.842  1.00 20.00     0.013 C 
HETATM    4  C5  UNL     1     -34.890  14.947  -4.695  1.00 20.00     0.051 C 
HETATM    5  C6  UNL     1     -33.541  15.629  -4.402  1.00 20.00    -0.007 C 
HETATM    6  C7  UNL     1     -34.801  17.186  -2.696  1.00 20.00    -0.047 C 
HETATM    7  C8  UNL     1     -32.595  14.793  -3.533  1.00 20.00     0.011 C 
HETATM    8  C9  UNL     1     -34.226  16.720  -1.346  1.00 20.00     0.015 C 
HETATM    9  C10 UNL     1     -35.155  18.682  -2.541  1.00 20.00     0.015 C 
ENDROOT
BRANCH   4  10
HETATM   10  C1  UNL     1     -34.704  13.542  -5.185  1.00 20.00     0.236 C 
HETATM   11  O11 UNL     1     -35.019  12.551  -4.532  1.00 20.00    -0.306 OA
ENDBRANCH   4  10
TORSDOF 1
ENDMDL
MODEL 2
REMARK VINA RESULT:      -4.4      1.005      2.212
REMARK  1 active torsions:
REMARK  status: ('A' for Active; 'I' for Inactive)
REMARK    1  A    between atoms: C1_1  and  C5_5 
ROOT
HETATM    1  C2  UNL     1     -34.055  16.076  -5.116  1.00 20.00     0.013 C 
HETATM    2  C3  UNL     1     -33.515  17.201  -4.234  1.00 20.00     0.009 C 
HETATM    3  C4  UNL     1     -34.709  16.163  -2.239  1.00 20.00     0.013 C 
HETATM    4  C5  UNL     1     -34.239  14.790  -4.312  1.00 20.00     0.051 C 
HETATM    5  C6  UNL     1     -35.175  14.973  -3.103  1.00 20.00    -0.007 C 
HETATM    6  C7  UNL     1     -34.386  17.481  -2.989  1.00 20.00    -0.047 C 
HETATM    7  C8  UNL     1     -36.661  15.054  -3.470  1.00 20.00     0.011 C 
HETATM    8  C9  UNL     1     -35.664  18.241  -3.387  1.00 20.00     0.015 C 
HETATM    9  C10 UNL     1     -33.596  18.401  -2.031  1.00 20.00     0.015 C 
ENDROOT
BRANCH   4  10
HETATM   10  C1  UNL     1     -34.701  13.677  -5.205  1.00 20.00     0.236 C 
HETATM   11  O11 UNL     1     -34.755  12.503  -4.850  1.00 20.00    -0.306 OA
ENDBRANCH   4  10
TORSDOF 1
ENDMDL
MODEL 3
REMARK VINA RESULT:      -4.4      1.626      2.654
REMARK  1 active torsions:
REMARK  status: ('A' for Active; 'I' for Inactive)
REMARK    1  A    between atoms: C1_1  and  C5_5 
ROOT
HETATM    1  C2  UNL     1     -34.561  14.982  -5.685  1.00 20.00     0.013 C 
HETATM    2  C3  UNL     1     -34.166  16.303  -6.343  1.00 20.00     0.009 C 
HETATM    3  C4  UNL     1     -33.664  17.261  -4.039  1.00 20.00     0.013 C 
HETATM    4  C5  UNL     1     -33.779  14.758  -4.392  1.00 20.00     0.051 C 
HETATM    5  C6  UNL     1     -33.967  15.901  -3.378  1.00 20.00    -0.007 C 
HETATM    6  C7  UNL     1     -34.326  17.528  -5.415  1.00 20.00    -0.047 C 
HETATM    7  C8  UNL     1     -35.321  15.881  -2.659  1.00 20.00     0.011 C 
HETATM    8  C9  UNL     1     -35.813  17.902  -5.272  1.00 20.00     0.015 C 
HETATM    9  C10 UNL     1     -33.618  18.736  -6.066  1.00 20.00     0.015 C 
ENDROOT
BRANCH   4  10
HETATM   10  C1  UNL     1     -34.125  13.426  -3.795  1.00 20.00     0.236 C 
HETATM   11  O11 UNL     1     -34.987  12.683  -4.254  1.00 20.00    -0.306 OA
ENDBRANCH   4  10
TORSDOF 1
ENDMDL
MODEL 4
REMARK VINA RESULT:      -4.4      1.764      3.411
REMARK  1 active torsions:
REMARK  status: ('A' for Active; 'I' for Inactive)
REMARK    1  A    between atoms: C1_1  and  C5_5 
ROOT
HETATM    1  C2  UNL     1     -35.757  14.436  -5.222  1.00 20.00     0.013 C 
HETATM    2  C3  UNL     1     -34.298  14.108  -4.908  1.00 20.00     0.009 C 
HETATM    3  C4  UNL     1     -34.480  15.493  -2.780  1.00 20.00     0.013 C 
HETATM    4  C5  UNL     1     -36.561  14.640  -3.939  1.00 20.00     0.051 C 
HETATM    5  C6  UNL     1     -35.979  15.746  -3.041  1.00 20.00    -0.007 C 
HETATM    6  C7  UNL     1     -33.605  15.162  -4.016  1.00 20.00    -0.047 C 
HETATM    7  C8  UNL     1     -36.260  17.168  -3.540  1.00 20.00     0.011 C 
HETATM    8  C9  UNL     1     -33.273  16.423  -4.835  1.00 20.00     0.015 C 
HETATM    9  C10 UNL     1     -32.263  14.583  -3.519  1.00 20.00     0.015 C 
ENDROOT
BRANCH   4  10
HETATM   10  C1  UNL     1     -38.004  14.891  -4.260  1.00 20.00     0.236 C 
HETATM   11  O11 UNL     1     -38.917  14.155  -3.896  1.00 20.00    -0.306 OA
ENDBRANCH   4  10
TORSDOF 1
ENDMDL
MODEL 5
REMARK VINA RESULT:      -4.3      1.019      2.191
REMARK  1 active torsions:
REMARK  status: ('A' for Active; 'I' for Inactive)
REMARK    1  A    between atoms: C1_1  and  C5_5 
ROOT
HETATM    1  C2  UNL     1     -33.566  15.525  -3.048  1.00 20.00     0.013 C 
HETATM    2  C3  UNL     1     -34.061  16.516  -1.994  1.00 20.00     0.009 C 
HETATM    3  C4  UNL     1     -36.388  16.387  -3.017  1.00 20.00     0.013 C 
HETATM    4  C5  UNL     1     -34.683  14.574  -3.474  1.00 20.00     0.051 C 
HETATM    5  C6  UNL     1     -35.917  15.314  -4.021  1.00 20.00    -0.007 C 
HETATM    6  C7  UNL     1     -35.298  17.327  -2.442  1.00 20.00    -0.047 C 
HETATM    7  C8  UNL     1     -35.736  15.868  -5.438  1.00 20.00     0.011 C 
HETATM    8  C9  UNL     1     -34.890  18.416  -3.451  1.00 20.00     0.015 C 
HETATM    9  C10 UNL     1     -35.884  18.052  -1.211  1.00 20.00     0.015 C 
ENDROOT
BRANCH   4  10
HETATM   10  C1  UNL     1     -34.165  13.564  -4.454  1.00 20.00     0.236 C 
HETATM   11  O11 UNL     1     -34.794  12.567  -4.794  1.00 20.00    -0.306 OA
ENDBRANCH   4  10
TORSDOF 1
ENDMDL
MODEL 6
REMARK VINA RESULT:      -4.3      1.203      2.072
REMARK  1 active torsions:
REMARK  status: ('A' for Active; 'I' for Inactive)
REMARK    1  A    between atoms: C1_1  and  C5_5 
ROOT
HETATM    1  C2  UNL     1     -33.508  15.612  -3.111  1.00 20.00     0.013 C 
HETATM    2  C3  UNL     1     -34.024  16.967  -2.626  1.00 20.00     0.009 C 
HETATM    3  C4  UNL     1     -35.632  17.023  -4.598  1.00 20.00     0.013 C 
HETATM    4  C5  UNL     1     -34.606  14.838  -3.839  1.00 20.00     0.051 C 
HETATM    5  C6  UNL     1     -35.186  15.613  -5.036  1.00 20.00    -0.007 C 
HETATM    6  C7  UNL     1     -34.622  17.839  -3.751  1.00 20.00    -0.047 C 
HETATM    7  C8  UNL     1     -34.272  15.638  -6.267  1.00 20.00     0.011 C 
HETATM    8  C9  UNL     1     -33.501  18.439  -4.620  1.00 20.00     0.015 C 
HETATM    9  C10 UNL     1     -35.376  19.025  -3.109  1.00 20.00     0.015 C 
ENDROOT
BRANCH   4  10
HETATM   10  C1  UNL     1     -34.107  13.483  -4.247  1.00 20.00     0.236 C 
HETATM   11  O11 UNL     1     -34.846  12.567  -4.595  1.00 20.00    -0.306 OA
ENDBRANCH   4  10
TORSDOF 1
ENDMDL
MODEL 7
REMARK VINA RESULT:      -4.3      2.261      3.847
REMARK  1 active torsions:
REMARK  status: ('A' for Active; 'I' for Inactive)
REMARK    1  A    between atoms: C1_1  and  C5_5 
ROOT
HETATM    1  C2  UNL     1     -34.841  16.914  -4.170  1.00 20.00     0.013 C 
HETATM    2  C3  UNL     1     -35.751  16.690  -5.377  1.00 20.00     0.009 C 
HETATM    3  C4  UNL     1     -35.773  14.199  -4.855  1.00 20.00     0.013 C 
HETATM    4  C5  UNL     1     -35.110  15.877  -3.081  1.00 20.00     0.051 C 
HETATM    5  C6  UNL     1     -34.936  14.431  -3.580  1.00 20.00    -0.007 C 
HETATM    6  C7  UNL     1     -35.650  15.267  -5.971  1.00 20.00    -0.047 C 
HETATM    7  C8  UNL     1     -33.474  14.000  -3.745  1.00 20.00     0.011 C 
HETATM    8  C9  UNL     1     -34.345  15.111  -6.772  1.00 20.00     0.015 C 
HETATM    9  C10 UNL     1     -36.815  15.064  -6.965  1.00 20.00     0.015 C 
ENDROOT
BRANCH   4  10
HETATM   10  C1  UNL     1     -34.260  16.152  -1.876  1.00 20.00     0.236 C 
HETATM   11  O11 UNL     1     -34.722  16.403  -0.766  1.00 20.00    -0.306 OA
ENDBRANCH   4  10
TORSDOF 1
ENDMDL
MODEL 8
REMARK VINA RESULT:      -4.2      2.114      3.846
REMARK  1 active torsions:
REMARK  status: ('A' for Active; 'I' for Inactive)
REMARK    1  A    between atoms: C1_1  and  C5_5 
ROOT
HETATM    1  C2  UNL     1     -35.115  15.398  -2.894  1.00 20.00     0.013 C 
HETATM    2  C3  UNL     1     -35.040  14.674  -4.238  1.00 20.00     0.009 C 
HETATM    3  C4  UNL     1     -33.676  16.612  -5.167  1.00 20.00     0.013 C 
HETATM    4  C5  UNL     1     -33.877  16.264  -2.669  1.00 20.00     0.051 C 
HETATM    5  C6  UNL     1     -33.665  17.301  -3.787  1.00 20.00    -0.007 C 
HETATM    6  C7  UNL     1     -34.838  15.622  -5.440  1.00 20.00    -0.047 C 
HETATM    7  C8  UNL     1     -34.619  18.499  -3.717  1.00 20.00     0.011 C 
HETATM    8  C9  UNL     1     -36.150  16.357  -5.771  1.00 20.00     0.015 C 
HETATM    9  C10 UNL     1     -34.471  14.776  -6.680  1.00 20.00     0.015 C 
ENDROOT
BRANCH   4  10
HETATM   10  C1  UNL     1     -33.932  16.913  -1.317  1.00 20.00     0.236 C 
HETATM   11  O11 UNL     1     -34.715  16.573  -0.435  1.00 20.00    -0.306 OA
ENDBRANCH   4  10
TORSDOF 1
ENDMDL
MODEL 9
REMARK VINA RESULT:      -4.2      2.245      3.437
REMARK  1 active torsions:
REMARK  status: ('A' for Active; 'I' for Inactive)
REMARK    1  A    between atoms: C1_1  and  C5_5 
ROOT
HETATM    1  C2  UNL     1     -35.923  14.782  -3.672  1.00 20.00     0.013 C 
HETATM    2  C3  UNL     1     -37.268  14.841  -4.396  1.00 20.00     0.009 C 
HETATM    3  C4  UNL     1     -36.032  14.875  -6.620  1.00 20.00     0.013 C 
HETATM    4  C5  UNL     1     -34.876  14.062  -4.521  1.00 20.00     0.051 C 
HETATM    5  C6  UNL     1     -34.677  14.716  -5.900  1.00 20.00    -0.007 C 
HETATM    6  C7  UNL     1     -37.189  15.492  -5.794  1.00 20.00    -0.047 C 
HETATM    7  C8  UNL     1     -33.871  16.020  -5.863  1.00 20.00     0.011 C 
HETATM    8  C9  UNL     1     -37.051  17.020  -5.669  1.00 20.00     0.015 C 
HETATM    9  C10 UNL     1     -38.514  15.220  -6.540  1.00 20.00     0.015 C 
ENDROOT
BRANCH   4  10
HETATM   10  C1  UNL     1     -33.582  13.950  -3.771  1.00 20.00     0.236 C 
HETATM   11  O11 UNL     1     -32.899  12.930  -3.750  1.00 20.00    -0.306 OA
ENDBRANCH   4  10
TORSDOF 1
ENDMDL
