MODEL 1
REMARK VINA RESULT:      -4.1      0.000      0.000
REMARK  4 active torsions:
REMARK  status: ('A' for Active; 'I' for Inactive)
REMARK    1  A    between atoms: C2_2  and  C6_6 
REMARK    2  A    between atoms: C3_3  and  C7_7 
REMARK    3  A    between atoms: C7_7  and  C8_8 
REMARK    4  A    between atoms: C8_8  and  O9_9 
ROOT
HETATM    1  C1  UNL     1     -34.979   3.963   4.856  1.00 20.00     0.016 A 
HETATM    2  C2  UNL     1     -35.025   5.233   5.657  1.00 20.00     0.008 A 
HETATM    3  C3  UNL     1     -34.756   5.295   4.158  1.00 20.00    -0.037 A 
HETATM    4  C4  UNL     1     -35.861   5.825   3.283  1.00 20.00     0.015 C 
ENDROOT
BRANCH   3   5
HETATM    5  C7  UNL     1     -33.372   5.605   3.653  1.00 20.00     0.035 C 
BRANCH   5   6
HETATM    6  C8  UNL     1     -33.212   7.074   3.272  1.00 20.00     0.167 C 
BRANCH   6   7
HETATM    7  O9  UNL     1     -31.997   7.243   2.554  1.00 20.00    -0.396 OA
HETATM    8  C5  UNL     1     -32.017   8.425   1.766  1.00 20.00     0.201 C 
ENDBRANCH   6   7
ENDBRANCH   5   6
ENDBRANCH   3   5
BRANCH   2   9
HETATM    9  C6  UNL     1     -33.974   5.519   6.674  1.00 20.00     0.120 C 
HETATM   10 CL10 UNL     1     -33.709   7.275   6.853  1.00 20.00    -0.130 Cl
ENDBRANCH   2   9
TORSDOF 4
ENDMDL
MODEL 2
REMARK VINA RESULT:      -4.0     11.320     12.581
REMARK  4 active torsions:
REMARK  status: ('A' for Active; 'I' for Inactive)
REMARK    1  A    between atoms: C2_2  and  C6_6 
REMARK    2  A    between atoms: C3_3  and  C7_7 
REMARK    3  A    between atoms: C7_7  and  C8_8 
REMARK    4  A    between atoms: C8_8  and  O9_9 
ROOT
HETATM    1  C1  UNL     1     -33.309  16.030  -4.197  1.00 20.00     0.016 A 
HETATM    2  C2  UNL     1     -33.559  15.996  -2.716  1.00 20.00     0.008 A 
HETATM    3  C3  UNL     1     -34.442  15.177  -3.649  1.00 20.00    -0.037 A 
HETATM    4  C4  UNL     1     -34.255  13.683  -3.635  1.00 20.00     0.015 C 
ENDROOT
BRANCH   3   5
HETATM    5  C7  UNL     1     -35.855  15.615  -3.929  1.00 20.00     0.035 C 
BRANCH   5   6
HETATM    6  C8  UNL     1     -36.730  14.466  -4.420  1.00 20.00     0.167 C 
BRANCH   6   7
HETATM    7  O9  UNL     1     -37.854  14.331  -3.561  1.00 20.00    -0.396 OA
HETATM    8  C5  UNL     1     -39.049  14.772  -4.193  1.00 20.00     0.201 C 
ENDBRANCH   6   7
ENDBRANCH   5   6
ENDBRANCH   3   5
BRANCH   2   9
HETATM    9  C6  UNL     1     -34.049  17.213  -2.008  1.00 20.00     0.120 C 
HETATM   10 CL10 UNL     1     -34.645  16.814  -0.373  1.00 20.00    -0.130 Cl
ENDBRANCH   2   9
TORSDOF 4
ENDMDL
MODEL 3
REMARK VINA RESULT:      -3.9     11.771     12.533
REMARK  4 active torsions:
REMARK  status: ('A' for Active; 'I' for Inactive)
REMARK    1  A    between atoms: C2_2  and  C6_6 
REMARK    2  A    between atoms: C3_3  and  C7_7 
REMARK    3  A    between atoms: C7_7  and  C8_8 
REMARK    4  A    between atoms: C8_8  and  O9_9 
ROOT
HETATM    1  C1  UNL     1     -33.680  16.640  -3.930  1.00 20.00     0.016 A 
HETATM    2  C2  UNL     1     -33.825  16.327  -2.468  1.00 20.00     0.008 A 
HETATM    3  C3  UNL     1     -33.721  15.190  -3.476  1.00 20.00    -0.037 A 
HETATM    4  C4  UNL     1     -32.433  14.409  -3.498  1.00 20.00     0.015 C 
ENDROOT
BRANCH   3   5
HETATM    5  C7  UNL     1     -34.938  14.375  -3.823  1.00 20.00     0.035 C 
BRANCH   5   6
HETATM    6  C8  UNL     1     -34.753  13.581  -5.112  1.00 20.00     0.167 C 
BRANCH   6   7
HETATM    7  O9  UNL     1     -35.446  14.232  -6.168  1.00 20.00    -0.396 OA
HETATM    8  C5  UNL     1     -34.547  14.830  -7.092  1.00 20.00     0.201 C 
ENDBRANCH   6   7
ENDBRANCH   5   6
ENDBRANCH   3   5
BRANCH   2   9
HETATM    9  C6  UNL     1     -35.092  16.653  -1.752  1.00 20.00     0.120 C 
HETATM   10 CL10 UNL     1     -34.792  16.982  -0.024  1.00 20.00    -0.130 Cl
ENDBRANCH   2   9
TORSDOF 4
ENDMDL
MODEL 4
REMARK VINA RESULT:      -3.9     12.387     13.250
REMARK  4 active torsions:
REMARK  status: ('A' for Active; 'I' for Inactive)
REMARK    1  A    between atoms: C2_2  and  C6_6 
REMARK    2  A    between atoms: C3_3  and  C7_7 
REMARK    3  A    between atoms: C7_7  and  C8_8 
REMARK    4  A    between atoms: C8_8  and  O9_9 
ROOT
HETATM    1  C1  UNL     1     -32.857  14.994  -3.536  1.00 20.00     0.016 A 
HETATM    2  C2  UNL     1     -33.423  16.216  -4.202  1.00 20.00     0.008 A 
HETATM    3  C3  UNL     1     -34.286  15.417  -3.233  1.00 20.00    -0.037 A 
HETATM    4  C4  UNL     1     -34.567  16.040  -1.891  1.00 20.00     0.015 C 
ENDROOT
BRANCH   3   5
HETATM    5  C7  UNL     1     -35.404  14.553  -3.754  1.00 20.00     0.035 C 
BRANCH   5   6
HETATM    6  C8  UNL     1     -36.778  15.148  -3.461  1.00 20.00     0.167 C 
BRANCH   6   7
HETATM    7  O9  UNL     1     -37.777  14.169  -3.715  1.00 20.00    -0.396 OA
HETATM    8  C5  UNL     1     -38.984  14.762  -4.173  1.00 20.00     0.201 C 
ENDBRANCH   6   7
ENDBRANCH   5   6
ENDBRANCH   3   5
BRANCH   2   9
HETATM    9  C6  UNL     1     -33.666  16.225  -5.673  1.00 20.00     0.120 C 
HETATM   10 CL10 UNL     1     -34.828  17.500  -6.129  1.00 20.00    -0.130 Cl
ENDBRANCH   2   9
TORSDOF 4
ENDMDL
MODEL 5
REMARK VINA RESULT:      -3.9     11.681     12.860
REMARK  4 active torsions:
REMARK  status: ('A' for Active; 'I' for Inactive)
REMARK    1  A    between atoms: C2_2  and  C6_6 
REMARK    2  A    between atoms: C3_3  and  C7_7 
REMARK    3  A    between atoms: C7_7  and  C8_8 
REMARK    4  A    between atoms: C8_8  and  O9_9 
ROOT
HETATM    1  C1  UNL     1     -33.005  15.113  -3.739  1.00 20.00     0.016 A 
HETATM    2  C2  UNL     1     -34.174  15.219  -2.803  1.00 20.00     0.008 A 
HETATM    3  C3  UNL     1     -34.386  14.694  -4.217  1.00 20.00    -0.037 A 
HETATM    4  C4  UNL     1     -34.662  13.220  -4.368  1.00 20.00     0.015 C 
ENDROOT
BRANCH   3   5
HETATM    5  C7  UNL     1     -35.068  15.553  -5.248  1.00 20.00     0.035 C 
BRANCH   5   6
HETATM    6  C8  UNL     1     -34.153  15.885  -6.422  1.00 20.00     0.167 C 
BRANCH   6   7
HETATM    7  O9  UNL     1     -34.264  14.867  -7.407  1.00 20.00    -0.396 OA
HETATM    8  C5  UNL     1     -35.622  14.603  -7.734  1.00 20.00     0.201 C 
ENDBRANCH   6   7
ENDBRANCH   5   6
ENDBRANCH   3   5
BRANCH   2   9
HETATM    9  C6  UNL     1     -34.664  16.556  -2.362  1.00 20.00     0.120 C 
HETATM   10 CL10 UNL     1     -34.646  16.696  -0.582  1.00 20.00    -0.130 Cl
ENDBRANCH   2   9
TORSDOF 4
ENDMDL
MODEL 6
REMARK VINA RESULT:      -3.9     11.944     12.517
REMARK  4 active torsions:
REMARK  status: ('A' for Active; 'I' for Inactive)
REMARK    1  A    between atoms: C2_2  and  C6_6 
REMARK    2  A    between atoms: C3_3  and  C7_7 
REMARK    3  A    between atoms: C7_7  and  C8_8 
REMARK    4  A    between atoms: C8_8  and  O9_9 
ROOT
HETATM    1  C1  UNL     1     -33.977  17.467  -2.863  1.00 20.00     0.016 A 
HETATM    2  C2  UNL     1     -33.868  16.662  -1.599  1.00 20.00     0.008 A 
HETATM    3  C3  UNL     1     -34.396  16.006  -2.869  1.00 20.00    -0.037 A 
HETATM    4  C4  UNL     1     -33.493  15.016  -3.557  1.00 20.00     0.015 C 
ENDROOT
BRANCH   3   5
HETATM    5  C7  UNL     1     -35.862  15.691  -3.001  1.00 20.00     0.035 C 
BRANCH   5   6
HETATM    6  C8  UNL     1     -36.121  14.536  -3.964  1.00 20.00     0.167 C 
BRANCH   6   7
HETATM    7  O9  UNL     1     -37.450  14.065  -3.786  1.00 20.00    -0.396 OA
HETATM    8  C5  UNL     1     -38.370  15.139  -3.646  1.00 20.00     0.201 C 
ENDBRANCH   6   7
ENDBRANCH   5   6
ENDBRANCH   3   5
BRANCH   2   9
HETATM    9  C6  UNL     1     -34.741  16.973  -0.432  1.00 20.00     0.120 C 
HETATM   10 CL10 UNL     1     -33.950  18.124   0.679  1.00 20.00    -0.130 Cl
ENDBRANCH   2   9
TORSDOF 4
ENDMDL
MODEL 7
REMARK VINA RESULT:      -3.8     11.218     12.701
REMARK  4 active torsions:
REMARK  status: ('A' for Active; 'I' for Inactive)
REMARK    1  A    between atoms: C2_2  and  C6_6 
REMARK    2  A    between atoms: C3_3  and  C7_7 
REMARK    3  A    between atoms: C7_7  and  C8_8 
REMARK    4  A    between atoms: C8_8  and  O9_9 
ROOT
HETATM    1  C1  UNL     1     -35.125  16.789  -3.375  1.00 20.00     0.016 A 
HETATM    2  C2  UNL     1     -33.958  17.593  -2.876  1.00 20.00     0.008 A 
HETATM    3  C3  UNL     1     -33.733  16.499  -3.912  1.00 20.00    -0.037 A 
HETATM    4  C4  UNL     1     -33.414  16.940  -5.317  1.00 20.00     0.015 C 
ENDROOT
BRANCH   3   5
HETATM    5  C7  UNL     1     -33.076  15.205  -3.513  1.00 20.00     0.035 C 
BRANCH   5   6
HETATM    6  C8  UNL     1     -34.086  14.074  -3.341  1.00 20.00     0.167 C 
BRANCH   6   7
HETATM    7  O9  UNL     1     -33.908  13.123  -4.382  1.00 20.00    -0.396 OA
HETATM    8  C5  UNL     1     -34.847  13.316  -5.431  1.00 20.00     0.201 C 
ENDBRANCH   6   7
ENDBRANCH   5   6
ENDBRANCH   3   5
BRANCH   2   9
HETATM    9  C6  UNL     1     -33.507  17.464  -1.461  1.00 20.00     0.120 C 
HETATM   10 CL10 UNL     1     -34.747  16.662  -0.458  1.00 20.00    -0.130 Cl
ENDBRANCH   2   9
TORSDOF 4
ENDMDL
MODEL 8
REMARK VINA RESULT:      -3.7     12.356     13.877
REMARK  4 active torsions:
REMARK  status: ('A' for Active; 'I' for Inactive)
REMARK    1  A    between atoms: C2_2  and  C6_6 
REMARK    2  A    between atoms: C3_3  and  C7_7 
REMARK    3  A    between atoms: C7_7  and  C8_8 
REMARK    4  A    between atoms: C8_8  and  O9_9 
ROOT
HETATM    1  C1  UNL     1     -35.131  14.389  -7.261  1.00 20.00     0.016 A 
HETATM    2  C2  UNL     1     -34.263  15.298  -6.437  1.00 20.00     0.008 A 
HETATM    3  C3  UNL     1     -35.336  14.457  -5.756  1.00 20.00    -0.037 A 
HETATM    4  C4  UNL     1     -34.869  13.288  -4.928  1.00 20.00     0.015 C 
ENDROOT
BRANCH   3   5
HETATM    5  C7  UNL     1     -36.592  15.108  -5.242  1.00 20.00     0.035 C 
BRANCH   5   6
HETATM    6  C8  UNL     1     -36.852  14.785  -3.774  1.00 20.00     0.167 C 
BRANCH   6   7
HETATM    7  O9  UNL     1     -38.155  14.233  -3.639  1.00 20.00    -0.396 OA
HETATM    8  C5  UNL     1     -39.035  14.720  -4.642  1.00 20.00     0.201 C 
ENDBRANCH   6   7
ENDBRANCH   5   6
ENDBRANCH   3   5
BRANCH   2   9
HETATM    9  C6  UNL     1     -34.374  16.777  -6.582  1.00 20.00     0.120 C 
HETATM   10 CL10 UNL     1     -33.422  17.622  -5.331  1.00 20.00    -0.130 Cl
ENDBRANCH   2   9
TORSDOF 4
ENDMDL
MODEL 9
REMARK VINA RESULT:      -3.7     11.908     12.832
REMARK  4 active torsions:
REMARK  status: ('A' for Active; 'I' for Inactive)
REMARK    1  A    between atoms: C2_2  and  C6_6 
REMARK    2  A    between atoms: C3_3  and  C7_7 
REMARK    3  A    between atoms: C7_7  and  C8_8 
REMARK    4  A    between atoms: C8_8  and  O9_9 
ROOT
HETATM    1  C1  UNL     1     -34.795  13.203  -4.239  1.00 20.00     0.016 A 
HETATM    2  C2  UNL     1     -34.428  14.091  -5.393  1.00 20.00     0.008 A 
HETATM    3  C3  UNL     1     -34.129  14.542  -3.969  1.00 20.00    -0.037 A 
HETATM    4  C4  UNL     1     -32.686  14.536  -3.535  1.00 20.00     0.015 C 
ENDROOT
BRANCH   3   5
HETATM    5  C7  UNL     1     -34.955  15.627  -3.331  1.00 20.00     0.035 C 
BRANCH   5   6
HETATM    6  C8  UNL     1     -34.166  16.421  -2.294  1.00 20.00     0.167 C 
BRANCH   6   7
HETATM    7  O9  UNL     1     -34.728  16.201  -1.007  1.00 20.00    -0.396 OA
HETATM    8  C5  UNL     1     -34.524  17.316  -0.151  1.00 20.00     0.201 C 
ENDBRANCH   6   7
ENDBRANCH   5   6
ENDBRANCH   3   5
BRANCH   2   9
HETATM    9  C6  UNL     1     -35.492  14.719  -6.227  1.00 20.00     0.120 C 
HETATM   10 CL10 UNL     1     -34.790  15.654  -7.575  1.00 20.00    -0.130 Cl
ENDBRANCH   2   9
TORSDOF 4
ENDMDL
