MODEL 1
REMARK VINA RESULT:      -5.2      0.000      0.000
REMARK  1 active torsions:
REMARK  status: ('A' for Active; 'I' for Inactive)
REMARK    1  A    between atoms: C5_5  and  C7_7 
ROOT
HETATM    1  C1  UNL     1     -35.206   4.658   6.347  1.00 20.00     0.002 C 
HETATM    2  C2  UNL     1     -34.229   5.821   6.097  1.00 20.00     0.010 C 
HETATM    3  C3  UNL     1     -34.757   4.056   5.004  1.00 20.00     0.010 C 
HETATM    4  C4  UNL     1     -34.909   6.286   3.571  1.00 20.00     0.016 A 
HETATM    5  C5  UNL     1     -33.463   5.855   3.534  1.00 20.00     0.005 A 
HETATM    6  C6  UNL     1     -34.340   5.439   4.670  1.00 20.00    -0.036 A 
ENDROOT
BRANCH   5   7
HETATM    7  C7  UNL     1     -32.380   6.862   3.727  1.00 20.00     0.090 C 
HETATM    8 BR8  UNL     1     -32.153   7.938   2.115  1.00 20.00    -0.096 Br
ENDBRANCH   5   7
TORSDOF 1
ENDMDL
MODEL 2
REMARK VINA RESULT:      -4.2      1.418      2.435
REMARK  1 active torsions:
REMARK  status: ('A' for Active; 'I' for Inactive)
REMARK    1  A    between atoms: C5_5  and  C7_7 
ROOT
HETATM    1  C1  UNL     1     -34.910   5.196   4.073  1.00 20.00     0.002 C 
HETATM    2  C2  UNL     1     -34.386   5.731   2.729  1.00 20.00     0.010 C 
HETATM    3  C3  UNL     1     -34.059   6.267   4.777  1.00 20.00     0.010 C 
HETATM    4  C4  UNL     1     -31.821   5.870   3.406  1.00 20.00     0.016 A 
HETATM    5  C5  UNL     1     -32.246   7.289   3.121  1.00 20.00     0.005 A 
HETATM    6  C6  UNL     1     -33.260   6.270   3.528  1.00 20.00    -0.036 A 
ENDROOT
BRANCH   5   7
HETATM    7  C7  UNL     1     -32.201   7.815   1.727  1.00 20.00     0.090 C 
HETATM    8 BR8  UNL     1     -32.579   9.730   1.708  1.00 20.00    -0.096 Br
ENDBRANCH   5   7
TORSDOF 1
ENDMDL
MODEL 3
REMARK VINA RESULT:      -4.1     11.582     12.589
REMARK  1 active torsions:
REMARK  status: ('A' for Active; 'I' for Inactive)
REMARK    1  A    between atoms: C5_5  and  C7_7 
ROOT
HETATM    1  C1  UNL     1     -34.634  13.229  -4.690  1.00 20.00     0.002 C 
HETATM    2  C2  UNL     1     -35.347  14.505  -4.211  1.00 20.00     0.010 C 
HETATM    3  C3  UNL     1     -33.456  13.600  -3.772  1.00 20.00     0.010 C 
HETATM    4  C4  UNL     1     -33.281  16.155  -4.468  1.00 20.00     0.016 A 
HETATM    5  C5  UNL     1     -33.611  16.139  -2.995  1.00 20.00     0.005 A 
HETATM    6  C6  UNL     1     -33.988  14.981  -3.861  1.00 20.00    -0.036 A 
ENDROOT
BRANCH   5   7
HETATM    7  C7  UNL     1     -34.648  17.063  -2.454  1.00 20.00     0.090 C 
HETATM    8 BR8  UNL     1     -34.674  16.990  -0.503  1.00 20.00    -0.096 Br
ENDBRANCH   5   7
TORSDOF 1
ENDMDL
MODEL 4
REMARK VINA RESULT:      -4.0     11.833     13.119
REMARK  1 active torsions:
REMARK  status: ('A' for Active; 'I' for Inactive)
REMARK    1  A    between atoms: C5_5  and  C7_7 
ROOT
HETATM    1  C1  UNL     1     -34.592  14.835  -6.725  1.00 20.00     0.002 C 
HETATM    2  C2  UNL     1     -33.851  15.765  -5.748  1.00 20.00     0.010 C 
HETATM    3  C3  UNL     1     -35.445  14.349  -5.539  1.00 20.00     0.010 C 
HETATM    4  C4  UNL     1     -33.453  13.976  -3.826  1.00 20.00     0.016 A 
HETATM    5  C5  UNL     1     -34.339  15.037  -3.220  1.00 20.00     0.005 A 
HETATM    6  C6  UNL     1     -34.321  14.829  -4.700  1.00 20.00    -0.036 A 
ENDROOT
BRANCH   5   7
HETATM    7  C7  UNL     1     -33.734  16.253  -2.607  1.00 20.00     0.090 C 
HETATM    8 BR8  UNL     1     -34.650  16.707  -0.944  1.00 20.00    -0.096 Br
ENDBRANCH   5   7
TORSDOF 1
ENDMDL
MODEL 5
REMARK VINA RESULT:      -4.0     11.729     12.718
REMARK  1 active torsions:
REMARK  status: ('A' for Active; 'I' for Inactive)
REMARK    1  A    between atoms: C5_5  and  C7_7 
ROOT
HETATM    1  C1  UNL     1     -34.809  16.156  -1.821  1.00 20.00     0.002 C 
HETATM    2  C2  UNL     1     -35.686  15.554  -2.933  1.00 20.00     0.010 C 
HETATM    3  C3  UNL     1     -33.608  16.047  -2.777  1.00 20.00     0.010 C 
HETATM    4  C4  UNL     1     -34.058  13.564  -3.599  1.00 20.00     0.016 A 
HETATM    5  C5  UNL     1     -34.156  14.440  -4.824  1.00 20.00     0.005 A 
HETATM    6  C6  UNL     1     -34.415  15.014  -3.469  1.00 20.00    -0.036 A 
ENDROOT
BRANCH   5   7
HETATM    7  C7  UNL     1     -35.265  14.237  -5.798  1.00 20.00     0.090 C 
HETATM    8 BR8  UNL     1     -34.822  15.049  -7.517  1.00 20.00    -0.096 Br
ENDBRANCH   5   7
TORSDOF 1
ENDMDL
MODEL 6
REMARK VINA RESULT:      -3.9     12.052     12.608
REMARK  1 active torsions:
REMARK  status: ('A' for Active; 'I' for Inactive)
REMARK    1  A    between atoms: C5_5  and  C7_7 
ROOT
HETATM    1  C1  UNL     1     -34.006  18.344   0.322  1.00 20.00     0.002 C 
HETATM    2  C2  UNL     1     -33.289  17.842  -0.944  1.00 20.00     0.010 C 
HETATM    3  C3  UNL     1     -34.920  17.110   0.235  1.00 20.00     0.010 C 
HETATM    4  C4  UNL     1     -35.468  17.281  -2.356  1.00 20.00     0.016 A 
HETATM    5  C5  UNL     1     -34.757  15.964  -2.159  1.00 20.00     0.005 A 
HETATM    6  C6  UNL     1     -34.538  17.086  -1.197  1.00 20.00    -0.036 A 
ENDROOT
BRANCH   5   7
HETATM    7  C7  UNL     1     -33.687  15.545  -3.108  1.00 20.00     0.090 C 
HETATM    8 BR8  UNL     1     -34.037  13.748  -3.783  1.00 20.00    -0.096 Br
ENDBRANCH   5   7
TORSDOF 1
ENDMDL
MODEL 7
REMARK VINA RESULT:      -3.9      2.699      4.844
REMARK  1 active torsions:
REMARK  status: ('A' for Active; 'I' for Inactive)
REMARK    1  A    between atoms: C5_5  and  C7_7 
ROOT
HETATM    1  C1  UNL     1     -32.105   9.700   1.022  1.00 20.00     0.002 C 
HETATM    2  C2  UNL     1     -32.967   9.372   2.254  1.00 20.00     0.010 C 
HETATM    3  C3  UNL     1     -31.864   8.190   0.848  1.00 20.00     0.010 C 
HETATM    4  C4  UNL     1     -31.289   7.648   3.382  1.00 20.00     0.016 A 
HETATM    5  C5  UNL     1     -32.529   6.855   3.049  1.00 20.00     0.005 A 
HETATM    6  C6  UNL     1     -32.208   8.099   2.287  1.00 20.00    -0.036 A 
ENDROOT
BRANCH   5   7
HETATM    7  C7  UNL     1     -33.667   6.814   4.010  1.00 20.00     0.090 C 
HETATM    8 BR8  UNL     1     -34.824   5.287   3.633  1.00 20.00    -0.096 Br
ENDBRANCH   5   7
TORSDOF 1
ENDMDL
MODEL 8
REMARK VINA RESULT:      -3.9     11.928     12.980
REMARK  1 active torsions:
REMARK  status: ('A' for Active; 'I' for Inactive)
REMARK    1  A    between atoms: C5_5  and  C7_7 
ROOT
HETATM    1  C1  UNL     1     -33.490  13.679  -3.651  1.00 20.00     0.002 C 
HETATM    2  C2  UNL     1     -32.860  15.083  -3.618  1.00 20.00     0.010 C 
HETATM    3  C3  UNL     1     -34.872  14.353  -3.712  1.00 20.00     0.010 C 
HETATM    4  C4  UNL     1     -34.466  16.123  -1.776  1.00 20.00     0.016 A 
HETATM    5  C5  UNL     1     -34.716  16.920  -3.033  1.00 20.00     0.005 A 
HETATM    6  C6  UNL     1     -34.184  15.526  -3.121  1.00 20.00    -0.036 A 
ENDROOT
BRANCH   5   7
HETATM    7  C7  UNL     1     -33.855  18.093  -3.355  1.00 20.00     0.090 C 
HETATM    8 BR8  UNL     1     -33.758  18.359  -5.286  1.00 20.00    -0.096 Br
ENDBRANCH   5   7
TORSDOF 1
ENDMDL
MODEL 9
REMARK VINA RESULT:      -3.9     12.285     13.024
REMARK  1 active torsions:
REMARK  status: ('A' for Active; 'I' for Inactive)
REMARK    1  A    between atoms: C5_5  and  C7_7 
ROOT
HETATM    1  C1  UNL     1     -34.447  16.580  -1.315  1.00 20.00     0.002 C 
HETATM    2  C2  UNL     1     -35.014  15.534  -2.291  1.00 20.00     0.010 C 
HETATM    3  C3  UNL     1     -33.737  17.240  -2.511  1.00 20.00     0.010 C 
HETATM    4  C4  UNL     1     -32.747  15.020  -3.577  1.00 20.00     0.016 A 
HETATM    5  C5  UNL     1     -33.679  15.607  -4.609  1.00 20.00     0.005 A 
HETATM    6  C6  UNL     1     -33.875  15.914  -3.160  1.00 20.00    -0.036 A 
ENDROOT
BRANCH   5   7
HETATM    7  C7  UNL     1     -34.629  14.724  -5.343  1.00 20.00     0.090 C 
HETATM    8 BR8  UNL     1     -34.572  15.101  -7.257  1.00 20.00    -0.096 Br
ENDBRANCH   5   7
TORSDOF 1
ENDMDL
