MODEL 1
REMARK VINA RESULT:      -4.7      0.000      0.000
REMARK  1 active torsions:
REMARK  status: ('A' for Active; 'I' for Inactive)
REMARK    1  A    between atoms: C6_6  and  C11_11 
ROOT
HETATM    1  C1  UNL     1     -36.831  16.442  -3.841  1.00 20.00     0.002 C 
HETATM    2  C2  UNL     1     -36.675  14.927  -3.929  1.00 20.00     0.010 C 
HETATM    3  C3  UNL     1     -36.053  17.011  -2.653  1.00 20.00     0.009 C 
HETATM    4  C4  UNL     1     -34.886  13.142  -4.457  1.00 20.00     0.016 A 
HETATM    5  C5  UNL     1     -34.413  15.081  -2.808  1.00 20.00     0.018 C 
HETATM    6  C6  UNL     1     -34.493  14.321  -5.302  1.00 20.00     0.005 A 
HETATM    7  C7  UNL     1     -35.214  14.541  -3.979  1.00 20.00    -0.035 A 
HETATM    8  C8  UNL     1     -34.557  16.613  -2.651  1.00 20.00    -0.047 C 
HETATM    9  C9  UNL     1     -33.802  17.349  -3.775  1.00 20.00     0.015 C 
HETATM   10  C10 UNL     1     -33.933  17.036  -1.307  1.00 20.00     0.015 C 
ENDROOT
BRANCH   6  11
HETATM   11  C11 UNL     1     -35.140  14.546  -6.625  1.00 20.00     0.090 C 
HETATM   12 BR12 UNL     1     -34.717  16.328  -7.297  1.00 20.00    -0.096 Br
ENDBRANCH   6  11
TORSDOF 1
ENDMDL
MODEL 2
REMARK VINA RESULT:      -4.5      2.335      4.355
REMARK  1 active torsions:
REMARK  status: ('A' for Active; 'I' for Inactive)
REMARK    1  A    between atoms: C6_6  and  C11_11 
ROOT
HETATM    1  C1  UNL     1     -34.034  17.407  -5.949  1.00 20.00     0.002 C 
HETATM    2  C2  UNL     1     -33.416  16.579  -4.827  1.00 20.00     0.010 C 
HETATM    3  C3  UNL     1     -34.452  16.523  -7.125  1.00 20.00     0.009 C 
HETATM    4  C4  UNL     1     -34.084  14.824  -3.055  1.00 20.00     0.016 A 
HETATM    5  C5  UNL     1     -34.785  14.574  -5.534  1.00 20.00     0.018 C 
HETATM    6  C6  UNL     1     -35.317  15.665  -3.226  1.00 20.00     0.005 A 
HETATM    7  C7  UNL     1     -34.357  15.478  -4.393  1.00 20.00    -0.035 A 
HETATM    8  C8  UNL     1     -35.393  15.364  -6.717  1.00 20.00    -0.047 C 
HETATM    9  C9  UNL     1     -36.789  15.906  -6.349  1.00 20.00     0.015 C 
HETATM   10  C10 UNL     1     -35.559  14.412  -7.918  1.00 20.00     0.015 C 
ENDROOT
BRANCH   6  11
HETATM   11  C11 UNL     1     -35.457  16.952  -2.489  1.00 20.00     0.090 C 
HETATM   12 BR12 UNL     1     -34.549  16.854  -0.765  1.00 20.00    -0.096 Br
ENDBRANCH   6  11
TORSDOF 1
ENDMDL
MODEL 3
REMARK VINA RESULT:      -4.5      1.849      2.842
REMARK  1 active torsions:
REMARK  status: ('A' for Active; 'I' for Inactive)
REMARK    1  A    between atoms: C6_6  and  C11_11 
ROOT
HETATM    1  C1  UNL     1     -35.500  18.879  -2.415  1.00 20.00     0.002 C 
HETATM    2  C2  UNL     1     -35.841  17.447  -2.813  1.00 20.00     0.010 C 
HETATM    3  C3  UNL     1     -35.371  19.016  -0.897  1.00 20.00     0.009 C 
HETATM    4  C4  UNL     1     -34.783  15.091  -2.857  1.00 20.00     0.016 A 
HETATM    5  C5  UNL     1     -34.681  16.579  -0.740  1.00 20.00     0.018 C 
HETATM    6  C6  UNL     1     -33.622  16.023  -3.058  1.00 20.00     0.005 A 
HETATM    7  C7  UNL     1     -34.828  16.478  -2.248  1.00 20.00    -0.035 A 
HETATM    8  C8  UNL     1     -34.363  18.019  -0.275  1.00 20.00    -0.047 C 
HETATM    9  C9  UNL     1     -32.919  18.407  -0.649  1.00 20.00     0.015 C 
HETATM   10  C10 UNL     1     -34.485  18.083   1.260  1.00 20.00     0.015 C 
ENDROOT
BRANCH   6  11
HETATM   11  C11 UNL     1     -33.310  16.553  -4.415  1.00 20.00     0.090 C 
HETATM   12 BR12 UNL     1     -34.241  15.519  -5.783  1.00 20.00    -0.096 Br
ENDBRANCH   6  11
TORSDOF 1
ENDMDL
MODEL 4
REMARK VINA RESULT:      -4.4      1.905      4.122
REMARK  1 active torsions:
REMARK  status: ('A' for Active; 'I' for Inactive)
REMARK    1  A    between atoms: C6_6  and  C11_11 
ROOT
HETATM    1  C1  UNL     1     -34.670  17.027  -5.151  1.00 20.00     0.002 C 
HETATM    2  C2  UNL     1     -33.838  17.383  -3.923  1.00 20.00     0.010 C 
HETATM    3  C3  UNL     1     -34.532  15.544  -5.503  1.00 20.00     0.009 C 
HETATM    4  C4  UNL     1     -33.772  16.956  -1.377  1.00 20.00     0.016 A 
HETATM    5  C5  UNL     1     -34.066  15.015  -3.065  1.00 20.00     0.018 C 
HETATM    6  C6  UNL     1     -35.235  16.920  -1.721  1.00 20.00     0.005 A 
HETATM    7  C7  UNL     1     -34.201  16.495  -2.755  1.00 20.00    -0.035 A 
HETATM    8  C8  UNL     1     -34.866  14.600  -4.322  1.00 20.00    -0.047 C 
HETATM    9  C9  UNL     1     -36.380  14.613  -4.032  1.00 20.00     0.015 C 
HETATM   10  C10 UNL     1     -34.472  13.162  -4.710  1.00 20.00     0.015 C 
ENDROOT
BRANCH   6  11
HETATM   11  C11 UNL     1     -36.013  18.186  -1.826  1.00 20.00     0.090 C 
HETATM   12 BR12 UNL     1     -37.766  17.846  -2.613  1.00 20.00    -0.096 Br
ENDBRANCH   6  11
TORSDOF 1
ENDMDL
MODEL 5
REMARK VINA RESULT:      -4.4      2.678      4.468
REMARK  1 active torsions:
REMARK  status: ('A' for Active; 'I' for Inactive)
REMARK    1  A    between atoms: C6_6  and  C11_11 
ROOT
HETATM    1  C1  UNL     1     -33.298  16.069  -4.524  1.00 20.00     0.002 C 
HETATM    2  C2  UNL     1     -33.321  15.819  -3.020  1.00 20.00     0.010 C 
HETATM    3  C3  UNL     1     -34.538  15.484  -5.202  1.00 20.00     0.009 C 
HETATM    4  C4  UNL     1     -34.614  16.543  -0.905  1.00 20.00     0.016 A 
HETATM    5  C5  UNL     1     -35.849  15.783  -3.050  1.00 20.00     0.018 C 
HETATM    6  C6  UNL     1     -34.668  17.746  -1.803  1.00 20.00     0.005 A 
HETATM    7  C7  UNL     1     -34.596  16.351  -2.408  1.00 20.00    -0.035 A 
HETATM    8  C8  UNL     1     -35.867  15.982  -4.584  1.00 20.00    -0.047 C 
HETATM    9  C9  UNL     1     -36.107  17.462  -4.938  1.00 20.00     0.015 C 
HETATM   10  C10 UNL     1     -37.029  15.161  -5.177  1.00 20.00     0.015 C 
ENDROOT
BRANCH   6  11
HETATM   11  C11 UNL     1     -33.530  18.707  -1.842  1.00 20.00     0.090 C 
HETATM   12 BR12 UNL     1     -32.647  18.790  -0.104  1.00 20.00    -0.096 Br
ENDBRANCH   6  11
TORSDOF 1
ENDMDL
MODEL 6
REMARK VINA RESULT:      -4.3      1.749      2.827
REMARK  1 active torsions:
REMARK  status: ('A' for Active; 'I' for Inactive)
REMARK    1  A    between atoms: C6_6  and  C11_11 
ROOT
HETATM    1  C1  UNL     1     -35.218  13.502  -4.405  1.00 20.00     0.002 C 
HETATM    2  C2  UNL     1     -34.656  13.950  -5.750  1.00 20.00     0.010 C 
HETATM    3  C3  UNL     1     -34.557  14.256  -3.250  1.00 20.00     0.009 C 
HETATM    4  C4  UNL     1     -34.649  16.004  -7.316  1.00 20.00     0.016 A 
HETATM    5  C5  UNL     1     -34.131  16.229  -4.789  1.00 20.00     0.018 C 
HETATM    6  C6  UNL     1     -35.980  16.072  -6.622  1.00 20.00     0.005 A 
HETATM    7  C7  UNL     1     -34.785  15.447  -5.913  1.00 20.00    -0.035 A 
HETATM    8  C8  UNL     1     -34.641  15.796  -3.395  1.00 20.00    -0.047 C 
HETATM    9  C9  UNL     1     -36.087  16.281  -3.169  1.00 20.00     0.015 C 
HETATM   10  C10 UNL     1     -33.752  16.445  -2.316  1.00 20.00     0.015 C 
ENDROOT
BRANCH   6  11
HETATM   11  C11 UNL     1     -37.132  15.273  -7.126  1.00 20.00     0.090 C 
HETATM   12 BR12 UNL     1     -38.633  15.380  -5.884  1.00 20.00    -0.096 Br
ENDBRANCH   6  11
TORSDOF 1
ENDMDL
MODEL 7
REMARK VINA RESULT:      -4.3      2.165      4.336
REMARK  1 active torsions:
REMARK  status: ('A' for Active; 'I' for Inactive)
REMARK    1  A    between atoms: C6_6  and  C11_11 
ROOT
HETATM    1  C1  UNL     1     -34.280  13.676  -4.416  1.00 20.00     0.002 C 
HETATM    2  C2  UNL     1     -35.313  14.328  -3.503  1.00 20.00     0.010 C 
HETATM    3  C3  UNL     1     -34.800  13.567  -5.850  1.00 20.00     0.009 C 
HETATM    4  C4  UNL     1     -36.439  16.615  -3.092  1.00 20.00     0.016 A 
HETATM    5  C5  UNL     1     -36.269  15.601  -5.468  1.00 20.00     0.018 C 
HETATM    6  C6  UNL     1     -35.067  16.963  -3.596  1.00 20.00     0.005 A 
HETATM    7  C7  UNL     1     -35.737  15.673  -4.048  1.00 20.00    -0.035 A 
HETATM    8  C8  UNL     1     -35.274  14.919  -6.436  1.00 20.00    -0.047 C 
HETATM    9  C9  UNL     1     -34.068  15.839  -6.714  1.00 20.00     0.015 C 
HETATM   10  C10 UNL     1     -35.986  14.657  -7.777  1.00 20.00     0.015 C 
ENDROOT
BRANCH   6  11
HETATM   11  C11 UNL     1     -33.908  16.991  -2.662  1.00 20.00     0.090 C 
HETATM   12 BR12 UNL     1     -34.522  16.945  -0.810  1.00 20.00    -0.096 Br
ENDBRANCH   6  11
TORSDOF 1
ENDMDL
MODEL 8
REMARK VINA RESULT:      -4.2      2.433      4.305
REMARK  1 active torsions:
REMARK  status: ('A' for Active; 'I' for Inactive)
REMARK    1  A    between atoms: C6_6  and  C11_11 
ROOT
HETATM    1  C1  UNL     1     -37.075  15.553  -3.422  1.00 20.00     0.002 C 
HETATM    2  C2  UNL     1     -36.415  16.922  -3.300  1.00 20.00     0.010 C 
HETATM    3  C3  UNL     1     -36.650  14.846  -4.711  1.00 20.00     0.009 C 
HETATM    4  C4  UNL     1     -34.091  17.980  -2.917  1.00 20.00     0.016 A 
HETATM    5  C5  UNL     1     -34.453  16.116  -4.676  1.00 20.00     0.018 C 
HETATM    6  C6  UNL     1     -34.035  16.681  -2.164  1.00 20.00     0.005 A 
HETATM    7  C7  UNL     1     -34.912  16.804  -3.403  1.00 20.00    -0.035 A 
HETATM    8  C8  UNL     1     -35.115  14.731  -4.869  1.00 20.00    -0.047 C 
HETATM    9  C9  UNL     1     -34.544  13.710  -3.866  1.00 20.00     0.015 C 
HETATM   10  C10 UNL     1     -34.799  14.223  -6.290  1.00 20.00     0.015 C 
ENDROOT
BRANCH   6  11
HETATM   11  C11 UNL     1     -34.590  16.587  -0.785  1.00 20.00     0.090 C 
HETATM   12 BR12 UNL     1     -34.089  18.157   0.260  1.00 20.00    -0.096 Br
ENDBRANCH   6  11
TORSDOF 1
ENDMDL
MODEL 9
REMARK VINA RESULT:      -4.2      1.690      3.329
REMARK  1 active torsions:
REMARK  status: ('A' for Active; 'I' for Inactive)
REMARK    1  A    between atoms: C6_6  and  C11_11 
ROOT
HETATM    1  C1  UNL     1     -35.905  15.320  -6.755  1.00 20.00     0.002 C 
HETATM    2  C2  UNL     1     -34.962  14.296  -6.131  1.00 20.00     0.010 C 
HETATM    3  C3  UNL     1     -37.329  15.159  -6.223  1.00 20.00     0.009 C 
HETATM    4  C4  UNL     1     -33.871  13.726  -3.861  1.00 20.00     0.016 A 
HETATM    5  C5  UNL     1     -36.407  14.210  -4.057  1.00 20.00     0.018 C 
HETATM    6  C6  UNL     1     -34.013  15.221  -3.839  1.00 20.00     0.005 A 
HETATM    7  C7  UNL     1     -35.008  14.376  -4.622  1.00 20.00    -0.035 A 
HETATM    8  C8  UNL     1     -37.415  15.205  -4.677  1.00 20.00    -0.047 C 
HETATM    9  C9  UNL     1     -37.155  16.635  -4.165  1.00 20.00     0.015 C 
HETATM   10  C10 UNL     1     -38.839  14.802  -4.247  1.00 20.00     0.015 C 
ENDROOT
BRANCH   6  11
HETATM   11  C11 UNL     1     -32.988  16.083  -4.493  1.00 20.00     0.090 C 
HETATM   12 BR12 UNL     1     -33.719  17.856  -4.856  1.00 20.00    -0.096 Br
ENDBRANCH   6  11
TORSDOF 1
ENDMDL
