MODEL 1
REMARK VINA RESULT:      -4.3      0.000      0.000
REMARK  1 active torsions:
REMARK  status: ('A' for Active; 'I' for Inactive)
REMARK    1  A    between atoms: C6_6  and  C8_8 
ROOT
HETATM    1  C1  UNL     1     -35.119   4.771   4.143  1.00 20.00     0.027 C 
HETATM    2  C2  UNL     1     -34.566   5.967   3.369  1.00 20.00     0.014 C 
HETATM    3  C3  UNL     1     -31.969   5.933   3.449  1.00 20.00     0.018 A 
HETATM    4  C4  UNL     1     -35.183   5.077   5.634  1.00 20.00     0.167 C 
HETATM    5  C5  UNL     1     -33.400   6.635   5.500  1.00 20.00     0.177 C 
HETATM    6  C6  UNL     1     -32.349   7.376   3.258  1.00 20.00     0.011 A 
HETATM    7  C7  UNL     1     -33.282   6.440   4.008  1.00 20.00    -0.014 A 
HETATM    8  O9  UNL     1     -33.891   5.443   6.121  1.00 20.00    -0.390 OA
ENDROOT
BRANCH   6   9
HETATM    9  C8  UNL     1     -32.661   7.898   1.897  1.00 20.00     0.120 C 
HETATM   10 CL10 UNL     1     -32.522   9.677   1.841  1.00 20.00    -0.130 Cl
ENDBRANCH   6   9
TORSDOF 1
ENDMDL
MODEL 2
REMARK VINA RESULT:      -4.3     11.444     12.487
REMARK  1 active torsions:
REMARK  status: ('A' for Active; 'I' for Inactive)
REMARK    1  A    between atoms: C6_6  and  C8_8 
ROOT
HETATM    1  C1  UNL     1     -34.323  15.668  -6.660  1.00 20.00     0.027 C 
HETATM    2  C2  UNL     1     -34.474  16.182  -5.229  1.00 20.00     0.014 C 
HETATM    3  C3  UNL     1     -33.007  14.753  -3.629  1.00 20.00     0.018 A 
HETATM    4  C4  UNL     1     -35.248  14.483  -6.906  1.00 20.00     0.167 C 
HETATM    5  C5  UNL     1     -35.237  13.860  -4.617  1.00 20.00     0.177 C 
HETATM    6  C6  UNL     1     -34.124  15.296  -2.778  1.00 20.00     0.011 A 
HETATM    7  C7  UNL     1     -34.357  15.032  -4.256  1.00 20.00    -0.014 A 
HETATM    8  O9  UNL     1     -34.984  13.443  -5.962  1.00 20.00    -0.390 OA
ENDROOT
BRANCH   6   9
HETATM    9  C8  UNL     1     -34.039  16.672  -2.213  1.00 20.00     0.120 C 
HETATM   10 CL10 UNL     1     -34.626  16.715  -0.527  1.00 20.00    -0.130 Cl
ENDBRANCH   6   9
TORSDOF 1
ENDMDL
MODEL 3
REMARK VINA RESULT:      -4.2     11.069     11.970
REMARK  1 active torsions:
REMARK  status: ('A' for Active; 'I' for Inactive)
REMARK    1  A    between atoms: C6_6  and  C8_8 
ROOT
HETATM    1  C1  UNL     1     -33.278  13.969  -3.682  1.00 20.00     0.027 C 
HETATM    2  C2  UNL     1     -33.273  15.488  -3.523  1.00 20.00     0.014 C 
HETATM    3  C3  UNL     1     -34.751  16.159  -1.492  1.00 20.00     0.018 A 
HETATM    4  C4  UNL     1     -34.509  13.512  -4.454  1.00 20.00     0.167 C 
HETATM    5  C5  UNL     1     -35.781  15.386  -3.748  1.00 20.00     0.177 C 
HETATM    6  C6  UNL     1     -34.762  17.350  -2.412  1.00 20.00     0.011 A 
HETATM    7  C7  UNL     1     -34.608  15.951  -2.986  1.00 20.00    -0.014 A 
HETATM    8  O9  UNL     1     -35.699  13.958  -3.801  1.00 20.00    -0.390 OA
ENDROOT
BRANCH   6   9
HETATM    9  C8  UNL     1     -33.643  18.333  -2.383  1.00 20.00     0.120 C 
HETATM   10 CL10 UNL     1     -32.985  18.515  -0.733  1.00 20.00    -0.130 Cl
ENDBRANCH   6   9
TORSDOF 1
ENDMDL
MODEL 4
REMARK VINA RESULT:      -4.1      1.258      2.070
REMARK  1 active torsions:
REMARK  status: ('A' for Active; 'I' for Inactive)
REMARK    1  A    between atoms: C6_6  and  C8_8 
ROOT
HETATM    1  C1  UNL     1     -34.668   5.743   6.545  1.00 20.00     0.027 C 
HETATM    2  C2  UNL     1     -33.546   6.138   5.586  1.00 20.00     0.014 C 
HETATM    3  C3  UNL     1     -34.550   6.728   3.262  1.00 20.00     0.018 A 
HETATM    4  C4  UNL     1     -35.044   4.279   6.359  1.00 20.00     0.167 C 
HETATM    5  C5  UNL     1     -34.348   4.275   4.091  1.00 20.00     0.177 C 
HETATM    6  C6  UNL     1     -33.140   6.277   2.992  1.00 20.00     0.011 A 
HETATM    7  C7  UNL     1     -33.900   5.713   4.180  1.00 20.00    -0.014 A 
HETATM    8  O9  UNL     1     -35.423   4.031   5.004  1.00 20.00    -0.390 OA
ENDROOT
BRANCH   6   9
HETATM    9  C8  UNL     1     -32.003   7.229   3.145  1.00 20.00     0.120 C 
HETATM   10 CL10 UNL     1     -31.917   8.360   1.766  1.00 20.00    -0.130 Cl
ENDBRANCH   6   9
TORSDOF 1
ENDMDL
MODEL 5
REMARK VINA RESULT:      -4.1     11.057     11.880
REMARK  1 active torsions:
REMARK  status: ('A' for Active; 'I' for Inactive)
REMARK    1  A    between atoms: C6_6  and  C8_8 
ROOT
HETATM    1  C1  UNL     1     -36.170  14.377  -4.334  1.00 20.00     0.027 C 
HETATM    2  C2  UNL     1     -35.782  15.339  -3.212  1.00 20.00     0.014 C 
HETATM    3  C3  UNL     1     -33.934  16.962  -4.053  1.00 20.00     0.018 A 
HETATM    4  C4  UNL     1     -35.199  13.205  -4.399  1.00 20.00     0.167 C 
HETATM    5  C5  UNL     1     -33.427  14.481  -3.473  1.00 20.00     0.177 C 
HETATM    6  C6  UNL     1     -33.751  16.878  -2.562  1.00 20.00     0.011 A 
HETATM    7  C7  UNL     1     -34.317  15.691  -3.324  1.00 20.00    -0.014 A 
HETATM    8  O9  UNL     1     -33.863  13.676  -4.573  1.00 20.00    -0.390 OA
ENDROOT
BRANCH   6   9
HETATM    9  C8  UNL     1     -34.582  17.717  -1.653  1.00 20.00     0.120 C 
HETATM   10 CL10 UNL     1     -34.764  16.950  -0.051  1.00 20.00    -0.130 Cl
ENDBRANCH   6   9
TORSDOF 1
ENDMDL
MODEL 6
REMARK VINA RESULT:      -4.0     11.702     12.471
REMARK  1 active torsions:
REMARK  status: ('A' for Active; 'I' for Inactive)
REMARK    1  A    between atoms: C6_6  and  C8_8 
ROOT
HETATM    1  C1  UNL     1     -34.563  16.571  -0.951  1.00 20.00     0.027 C 
HETATM    2  C2  UNL     1     -35.051  16.015  -2.287  1.00 20.00     0.014 C 
HETATM    3  C3  UNL     1     -33.015  15.546  -3.834  1.00 20.00     0.018 A 
HETATM    4  C4  UNL     1     -34.319  18.071  -1.049  1.00 20.00     0.167 C 
HETATM    5  C5  UNL     1     -33.869  17.956  -3.375  1.00 20.00     0.177 C 
HETATM    6  C6  UNL     1     -34.177  15.794  -4.758  1.00 20.00     0.011 A 
HETATM    7  C7  UNL     1     -34.133  16.470  -3.398  1.00 20.00    -0.014 A 
HETATM    8  O9  UNL     1     -33.383  18.355  -2.090  1.00 20.00    -0.390 OA
ENDROOT
BRANCH   6   9
HETATM    9  C8  UNL     1     -35.132  14.696  -5.077  1.00 20.00     0.120 C 
HETATM   10 CL10 UNL     1     -34.410  13.096  -4.748  1.00 20.00    -0.130 Cl
ENDBRANCH   6   9
TORSDOF 1
ENDMDL
MODEL 7
REMARK VINA RESULT:      -4.0     11.417     12.931
REMARK  1 active torsions:
REMARK  status: ('A' for Active; 'I' for Inactive)
REMARK    1  A    between atoms: C6_6  and  C8_8 
ROOT
HETATM    1  C1  UNL     1     -34.068  15.580  -6.800  1.00 20.00     0.027 C 
HETATM    2  C2  UNL     1     -34.055  16.098  -5.363  1.00 20.00     0.014 C 
HETATM    3  C3  UNL     1     -34.465  14.126  -3.720  1.00 20.00     0.018 A 
HETATM    4  C4  UNL     1     -35.495  15.471  -7.320  1.00 20.00     0.167 C 
HETATM    5  C5  UNL     1     -36.380  15.153  -5.143  1.00 20.00     0.177 C 
HETATM    6  C6  UNL     1     -34.947  15.359  -3.002  1.00 20.00     0.011 A 
HETATM    7  C7  UNL     1     -35.013  15.291  -4.518  1.00 20.00    -0.014 A 
HETATM    8  O9  UNL     1     -36.271  14.627  -6.469  1.00 20.00    -0.390 OA
ENDROOT
BRANCH   6   9
HETATM    9  C8  UNL     1     -33.981  16.234  -2.280  1.00 20.00     0.120 C 
HETATM   10 CL10 UNL     1     -34.576  16.642  -0.647  1.00 20.00    -0.130 Cl
ENDBRANCH   6   9
TORSDOF 1
ENDMDL
MODEL 8
REMARK VINA RESULT:      -3.9     10.032     11.219
REMARK  1 active torsions:
REMARK  status: ('A' for Active; 'I' for Inactive)
REMARK    1  A    between atoms: C6_6  and  C8_8 
ROOT
HETATM    1  C1  UNL     1     -41.006   5.706  -0.029  1.00 20.00     0.027 C 
HETATM    2  C2  UNL     1     -42.033   4.642  -0.410  1.00 20.00     0.014 C 
HETATM    3  C3  UNL     1     -41.256   3.409  -2.562  1.00 20.00     0.018 A 
HETATM    4  C4  UNL     1     -41.238   6.987  -0.821  1.00 20.00     0.167 C 
HETATM    5  C5  UNL     1     -42.229   5.817  -2.631  1.00 20.00     0.177 C 
HETATM    6  C6  UNL     1     -42.756   3.288  -2.545  1.00 20.00     0.011 A 
HETATM    7  C7  UNL     1     -42.087   4.496  -1.913  1.00 20.00    -0.014 A 
HETATM    8  O9  UNL     1     -41.195   6.718  -2.223  1.00 20.00    -0.390 OA
ENDROOT
BRANCH   6   9
HETATM    9  C8  UNL     1     -43.416   2.223  -1.738  1.00 20.00     0.120 C 
HETATM   10 CL10 UNL     1     -43.322   0.639  -2.559  1.00 20.00    -0.130 Cl
ENDBRANCH   6   9
TORSDOF 1
ENDMDL
MODEL 9
REMARK VINA RESULT:      -3.8     11.753     13.367
REMARK  1 active torsions:
REMARK  status: ('A' for Active; 'I' for Inactive)
REMARK    1  A    between atoms: C6_6  and  C8_8 
ROOT
HETATM    1  C1  UNL     1     -33.732  13.929  -4.117  1.00 20.00     0.027 C 
HETATM    2  C2  UNL     1     -34.990  14.328  -4.887  1.00 20.00     0.014 C 
HETATM    3  C3  UNL     1     -34.355  14.962  -7.327  1.00 20.00     0.018 A 
HETATM    4  C4  UNL     1     -33.012  15.162  -3.586  1.00 20.00     0.167 C 
HETATM    5  C5  UNL     1     -33.860  16.538  -5.322  1.00 20.00     0.177 C 
HETATM    6  C6  UNL     1     -35.621  15.719  -7.028  1.00 20.00     0.011 A 
HETATM    7  C7  UNL     1     -34.651  15.392  -5.905  1.00 20.00    -0.014 A 
HETATM    8  O9  UNL     1     -32.691  16.049  -4.658  1.00 20.00    -0.390 OA
ENDROOT
BRANCH   6   9
HETATM    9  C8  UNL     1     -36.946  15.051  -7.163  1.00 20.00     0.120 C 
HETATM   10 CL10 UNL     1     -38.201  15.912  -6.228  1.00 20.00    -0.130 Cl
ENDBRANCH   6   9
TORSDOF 1
ENDMDL
