MODEL 1
REMARK VINA RESULT:      -4.3      0.000      0.000
REMARK  0 active torsions:
REMARK  status: ('A' for Active; 'I' for Inactive)
ROOT
HETATM    1  C1  UNL     1     -35.946  14.804  -7.306  1.00 20.00     0.006 C 
HETATM    2  C2  UNL     1     -34.925  14.197  -6.328  1.00 20.00     0.038 C 
HETATM    3  C3  UNL     1     -36.724  15.318  -6.083  1.00 20.00     0.038 C 
HETATM    4  C4  UNL     1     -33.092  15.284  -3.785  1.00 20.00     0.042 C 
HETATM    5  C5  UNL     1     -35.592  14.748  -3.841  1.00 20.00     0.053 C 
HETATM    6  C6  UNL     1     -33.306  16.428  -4.776  1.00 20.00     0.170 C 
HETATM    7  C7  UNL     1     -34.343  14.959  -2.980  1.00 20.00     0.062 C 
HETATM    8  C8  UNL     1     -35.394  15.254  -5.275  1.00 20.00     0.062 C 
HETATM    9  O9  UNL     1     -34.646  16.494  -5.260  1.00 20.00    -0.380 OA
HETATM   10 BR10 UNL     1     -34.668  16.411  -1.689  1.00 20.00    -0.091 Br
ENDROOT
TORSDOF 0
ENDMDL
MODEL 2
REMARK VINA RESULT:      -4.3      1.822      2.580
REMARK  0 active torsions:
REMARK  status: ('A' for Active; 'I' for Inactive)
ROOT
HETATM    1  C1  UNL     1     -34.839  13.685  -5.517  1.00 20.00     0.006 C 
HETATM    2  C2  UNL     1     -34.572  15.193  -5.365  1.00 20.00     0.038 C 
HETATM    3  C3  UNL     1     -34.345  13.512  -4.071  1.00 20.00     0.038 C 
HETATM    4  C4  UNL     1     -35.435  17.584  -3.233  1.00 20.00     0.042 C 
HETATM    5  C5  UNL     1     -33.693  15.733  -2.943  1.00 20.00     0.053 C 
HETATM    6  C6  UNL     1     -36.548  16.539  -3.294  1.00 20.00     0.170 C 
HETATM    7  C7  UNL     1     -34.209  17.096  -2.471  1.00 20.00     0.062 C 
HETATM    8  C8  UNL     1     -34.718  15.003  -3.820  1.00 20.00     0.062 C 
HETATM    9  O9  UNL     1     -36.050  15.202  -3.289  1.00 20.00    -0.380 OA
HETATM   10 BR10 UNL     1     -34.641  17.012  -0.551  1.00 20.00    -0.091 Br
ENDROOT
TORSDOF 0
ENDMDL
MODEL 3
REMARK VINA RESULT:      -4.2      2.465      3.975
REMARK  0 active torsions:
REMARK  status: ('A' for Active; 'I' for Inactive)
ROOT
HETATM    1  C1  UNL     1     -34.275  18.017  -1.094  1.00 20.00     0.006 C 
HETATM    2  C2  UNL     1     -34.885  17.942  -2.505  1.00 20.00     0.038 C 
HETATM    3  C3  UNL     1     -34.600  16.521  -0.937  1.00 20.00     0.038 C 
HETATM    4  C4  UNL     1     -34.465  16.068  -5.209  1.00 20.00     0.042 C 
HETATM    5  C5  UNL     1     -35.681  15.488  -3.034  1.00 20.00     0.053 C 
HETATM    6  C6  UNL     1     -33.140  16.164  -4.453  1.00 20.00     0.170 C 
HETATM    7  C7  UNL     1     -35.475  15.161  -4.516  1.00 20.00     0.062 C 
HETATM    8  C8  UNL     1     -34.581  16.408  -2.491  1.00 20.00     0.062 C 
HETATM    9  O9  UNL     1     -33.299  16.021  -3.043  1.00 20.00    -0.380 OA
HETATM   10 BR10 UNL     1     -34.891  13.290  -4.706  1.00 20.00    -0.091 Br
ENDROOT
TORSDOF 0
ENDMDL
MODEL 4
REMARK VINA RESULT:      -4.1      2.443      3.880
REMARK  0 active torsions:
REMARK  status: ('A' for Active; 'I' for Inactive)
ROOT
HETATM    1  C1  UNL     1     -34.547  16.463  -1.481  1.00 20.00     0.006 C 
HETATM    2  C2  UNL     1     -33.781  15.886  -2.684  1.00 20.00     0.038 C 
HETATM    3  C3  UNL     1     -35.548  17.064  -2.482  1.00 20.00     0.038 C 
HETATM    4  C4  UNL     1     -34.509  14.011  -5.323  1.00 20.00     0.042 C 
HETATM    5  C5  UNL     1     -35.009  16.489  -4.934  1.00 20.00     0.053 C 
HETATM    6  C6  UNL     1     -35.434  13.633  -4.166  1.00 20.00     0.170 C 
HETATM    7  C7  UNL     1     -34.866  15.353  -5.950  1.00 20.00     0.062 C 
HETATM    8  C8  UNL     1     -35.115  15.965  -3.496  1.00 20.00     0.062 C 
HETATM    9  O9  UNL     1     -35.935  14.772  -3.467  1.00 20.00    -0.380 OA
HETATM   10 BR10 UNL     1     -36.542  15.158  -6.966  1.00 20.00    -0.091 Br
ENDROOT
TORSDOF 0
ENDMDL
MODEL 5
REMARK VINA RESULT:      -4.1      1.406      1.664
REMARK  0 active torsions:
REMARK  status: ('A' for Active; 'I' for Inactive)
ROOT
HETATM    1  C1  UNL     1     -34.427  16.340  -7.327  1.00 20.00     0.006 C 
HETATM    2  C2  UNL     1     -34.897  15.278  -6.317  1.00 20.00     0.038 C 
HETATM    3  C3  UNL     1     -34.732  17.405  -6.260  1.00 20.00     0.038 C 
HETATM    4  C4  UNL     1     -34.176  14.453  -3.186  1.00 20.00     0.042 C 
HETATM    5  C5  UNL     1     -35.582  16.411  -4.042  1.00 20.00     0.053 C 
HETATM    6  C6  UNL     1     -32.933  15.045  -3.849  1.00 20.00     0.170 C 
HETATM    7  C7  UNL     1     -35.227  15.506  -2.858  1.00 20.00     0.062 C 
HETATM    8  C8  UNL     1     -34.560  16.296  -5.179  1.00 20.00     0.062 C 
HETATM    9  O9  UNL     1     -33.223  16.202  -4.632  1.00 20.00    -0.380 OA
HETATM   10 BR10 UNL     1     -34.586  16.605  -1.354  1.00 20.00    -0.091 Br
ENDROOT
TORSDOF 0
ENDMDL
MODEL 6
REMARK VINA RESULT:      -4.0      2.456      4.168
REMARK  0 active torsions:
REMARK  status: ('A' for Active; 'I' for Inactive)
ROOT
HETATM    1  C1  UNL     1     -34.444  17.826  -1.018  1.00 20.00     0.006 C 
HETATM    2  C2  UNL     1     -34.544  16.324  -1.338  1.00 20.00     0.038 C 
HETATM    3  C3  UNL     1     -33.748  18.009  -2.377  1.00 20.00     0.038 C 
HETATM    4  C4  UNL     1     -35.706  14.470  -3.831  1.00 20.00     0.042 C 
HETATM    5  C5  UNL     1     -33.536  15.820  -3.718  1.00 20.00     0.053 C 
HETATM    6  C6  UNL     1     -36.523  15.758  -3.739  1.00 20.00     0.170 C 
HETATM    7  C7  UNL     1     -34.313  14.695  -4.407  1.00 20.00     0.062 C 
HETATM    8  C8  UNL     1     -34.447  16.701  -2.852  1.00 20.00     0.062 C 
HETATM    9  O9  UNL     1     -35.711  16.911  -3.526  1.00 20.00    -0.380 OA
HETATM   10 BR10 UNL     1     -34.471  15.082  -6.332  1.00 20.00    -0.091 Br
ENDROOT
TORSDOF 0
ENDMDL
MODEL 7
REMARK VINA RESULT:      -4.0      1.589      2.246
REMARK  0 active torsions:
REMARK  status: ('A' for Active; 'I' for Inactive)
ROOT
HETATM    1  C1  UNL     1     -35.117  14.761  -7.910  1.00 20.00     0.006 C 
HETATM    2  C2  UNL     1     -36.208  14.996  -6.851  1.00 20.00     0.038 C 
HETATM    3  C3  UNL     1     -34.188  15.651  -7.066  1.00 20.00     0.038 C 
HETATM    4  C4  UNL     1     -36.475  14.671  -3.560  1.00 20.00     0.042 C 
HETATM    5  C5  UNL     1     -35.286  16.500  -4.897  1.00 20.00     0.053 C 
HETATM    6  C6  UNL     1     -35.488  13.631  -4.091  1.00 20.00     0.170 C 
HETATM    7  C7  UNL     1     -35.899  16.081  -3.557  1.00 20.00     0.062 C 
HETATM    8  C8  UNL     1     -35.066  15.302  -5.828  1.00 20.00     0.062 C 
HETATM    9  O9  UNL     1     -34.593  14.166  -5.064  1.00 20.00    -0.380 OA
HETATM   10 BR10 UNL     1     -34.539  16.214  -2.137  1.00 20.00    -0.091 Br
ENDROOT
TORSDOF 0
ENDMDL
MODEL 8
REMARK VINA RESULT:      -3.9      1.871      3.019
REMARK  0 active torsions:
REMARK  status: ('A' for Active; 'I' for Inactive)
ROOT
HETATM    1  C1  UNL     1     -34.971  13.267  -4.426  1.00 20.00     0.006 C 
HETATM    2  C2  UNL     1     -34.650  14.192  -5.612  1.00 20.00     0.038 C 
HETATM    3  C3  UNL     1     -34.170  14.230  -3.533  1.00 20.00     0.038 C 
HETATM    4  C4  UNL     1     -34.970  17.423  -6.298  1.00 20.00     0.042 C 
HETATM    5  C5  UNL     1     -33.242  16.267  -4.807  1.00 20.00     0.053 C 
HETATM    6  C6  UNL     1     -36.088  16.997  -5.346  1.00 20.00     0.170 C 
HETATM    7  C7  UNL     1     -33.615  17.517  -5.609  1.00 20.00     0.062 C 
HETATM    8  C8  UNL     1     -34.450  15.349  -4.579  1.00 20.00     0.062 C 
HETATM    9  O9  UNL     1     -35.626  16.146  -4.299  1.00 20.00    -0.380 OA
HETATM   10 BR10 UNL     1     -33.608  19.090  -4.423  1.00 20.00    -0.091 Br
ENDROOT
TORSDOF 0
ENDMDL
MODEL 9
REMARK VINA RESULT:      -3.8      2.570      3.733
REMARK  0 active torsions:
REMARK  status: ('A' for Active; 'I' for Inactive)
ROOT
HETATM    1  C1  UNL     1     -33.499  13.814  -3.845  1.00 20.00     0.006 C 
HETATM    2  C2  UNL     1     -33.841  15.187  -4.452  1.00 20.00     0.038 C 
HETATM    3  C3  UNL     1     -34.979  13.434  -4.018  1.00 20.00     0.038 C 
HETATM    4  C4  UNL     1     -35.319  16.296  -7.207  1.00 20.00     0.042 C 
HETATM    5  C5  UNL     1     -36.388  15.292  -5.111  1.00 20.00     0.053 C 
HETATM    6  C6  UNL     1     -34.633  14.964  -7.506  1.00 20.00     0.170 C 
HETATM    7  C7  UNL     1     -36.585  16.134  -6.375  1.00 20.00     0.062 C 
HETATM    8  C8  UNL     1     -35.070  14.509  -5.142  1.00 20.00     0.062 C 
HETATM    9  O9  UNL     1     -34.833  13.997  -6.475  1.00 20.00    -0.380 OA
HETATM   10 BR10 UNL     1     -37.988  15.325  -7.497  1.00 20.00    -0.091 Br
ENDROOT
TORSDOF 0
ENDMDL
