MODEL 1
REMARK VINA RESULT:      -4.6      0.000      0.000
REMARK  2 active torsions:
REMARK  status: ('A' for Active; 'I' for Inactive)
REMARK    1  A    between atoms: C3_3  and  C6_6 
REMARK    2  A    between atoms: C7_7  and  C9_9 
ROOT
HETATM    1  C1  UNL     1     -34.365  13.902  -3.667  1.00 20.00     0.016 A 
HETATM    2  C2  UNL     1     -34.746  13.389  -4.941  1.00 20.00     0.015 A 
HETATM    3  C3  UNL     1     -34.189  15.269  -3.693  1.00 20.00    -0.013 A 
HETATM    4  C4  UNL     1     -34.846  14.381  -5.890  1.00 20.00    -0.021 A 
HETATM    5  C8  UNL     1     -35.217  14.256  -7.316  1.00 20.00     0.056 C 
HETATM    6  S10 UNL     1     -34.482  15.926  -5.247  1.00 20.00    -0.099 SA
ENDROOT
BRANCH   3   7
HETATM    7  C6  UNL     1     -33.787  16.095  -2.494  1.00 20.00     0.031 A 
HETATM    8  C5  UNL     1     -33.865  17.605  -2.549  1.00 20.00     0.016 A 
HETATM    9  C7  UNL     1     -34.841  16.843  -1.704  1.00 20.00     0.009 A 
BRANCH   9  10
HETATM   10  C9  UNL     1     -34.754  16.907  -0.217  1.00 20.00     0.120 C 
HETATM   11 CL11 UNL     1     -33.647  18.204   0.310  1.00 20.00    -0.130 Cl
ENDBRANCH   9  10
ENDBRANCH   3   7
TORSDOF 2
ENDMDL
MODEL 2
REMARK VINA RESULT:      -4.4      1.268      1.574
REMARK  2 active torsions:
REMARK  status: ('A' for Active; 'I' for Inactive)
REMARK    1  A    between atoms: C3_3  and  C6_6 
REMARK    2  A    between atoms: C7_7  and  C9_9 
ROOT
HETATM    1  C1  UNL     1     -34.422  14.917  -3.148  1.00 20.00     0.016 A 
HETATM    2  C2  UNL     1     -34.321  14.296  -4.427  1.00 20.00     0.015 A 
HETATM    3  C3  UNL     1     -34.601  16.280  -3.248  1.00 20.00    -0.013 A 
HETATM    4  C4  UNL     1     -34.427  15.207  -5.454  1.00 20.00    -0.021 A 
HETATM    5  C8  UNL     1     -34.377  14.960  -6.912  1.00 20.00     0.056 C 
HETATM    6  S10 UNL     1     -34.647  16.805  -4.878  1.00 20.00    -0.099 SA
ENDROOT
BRANCH   3   7
HETATM    7  C6  UNL     1     -34.744  17.207  -2.064  1.00 20.00     0.031 A 
HETATM    8  C5  UNL     1     -34.647  16.663  -0.655  1.00 20.00     0.016 A 
HETATM    9  C7  UNL     1     -33.540  17.516  -1.198  1.00 20.00     0.009 A 
BRANCH   9  10
HETATM   10  C9  UNL     1     -33.332  18.896  -0.674  1.00 20.00     0.120 C 
HETATM   11 CL11 UNL     1     -31.835  19.000   0.293  1.00 20.00    -0.130 Cl
ENDBRANCH   9  10
ENDBRANCH   3   7
TORSDOF 2
ENDMDL
MODEL 3
REMARK VINA RESULT:      -4.1      1.416      2.123
REMARK  2 active torsions:
REMARK  status: ('A' for Active; 'I' for Inactive)
REMARK    1  A    between atoms: C3_3  and  C6_6 
REMARK    2  A    between atoms: C7_7  and  C9_9 
ROOT
HETATM    1  C1  UNL     1     -34.548  14.566  -6.043  1.00 20.00     0.016 A 
HETATM    2  C2  UNL     1     -35.332  14.653  -7.229  1.00 20.00     0.015 A 
HETATM    3  C3  UNL     1     -35.279  14.875  -4.916  1.00 20.00    -0.013 A 
HETATM    4  C4  UNL     1     -36.632  15.023  -6.964  1.00 20.00    -0.021 A 
HETATM    5  C8  UNL     1     -37.746  15.217  -7.917  1.00 20.00     0.056 C 
HETATM    6  S10 UNL     1     -36.903  15.266  -5.290  1.00 20.00    -0.099 SA
ENDROOT
BRANCH   3   7
HETATM    7  C6  UNL     1     -34.719  14.868  -3.513  1.00 20.00     0.031 A 
HETATM    8  C5  UNL     1     -33.277  15.255  -3.265  1.00 20.00     0.016 A 
HETATM    9  C7  UNL     1     -34.378  16.175  -2.829  1.00 20.00     0.009 A 
BRANCH   9  10
HETATM   10  C9  UNL     1     -34.671  16.358  -1.379  1.00 20.00     0.120 C 
HETATM   11 CL11 UNL     1     -33.577  17.565  -0.646  1.00 20.00    -0.130 Cl
ENDBRANCH   9  10
ENDBRANCH   3   7
TORSDOF 2
ENDMDL
MODEL 4
REMARK VINA RESULT:      -4.1      1.687      2.334
REMARK  2 active torsions:
REMARK  status: ('A' for Active; 'I' for Inactive)
REMARK    1  A    between atoms: C3_3  and  C6_6 
REMARK    2  A    between atoms: C7_7  and  C9_9 
ROOT
HETATM    1  C1  UNL     1     -33.646  17.083  -4.216  1.00 20.00     0.016 A 
HETATM    2  C2  UNL     1     -33.687  16.008  -5.150  1.00 20.00     0.015 A 
HETATM    3  C3  UNL     1     -34.286  16.767  -3.037  1.00 20.00    -0.013 A 
HETATM    4  C4  UNL     1     -34.355  14.912  -4.650  1.00 20.00    -0.021 A 
HETATM    5  C8  UNL     1     -34.605  13.610  -5.304  1.00 20.00     0.056 C 
HETATM    6  S10 UNL     1     -34.931  15.181  -3.060  1.00 20.00    -0.099 SA
ENDROOT
BRANCH   3   7
HETATM    7  C6  UNL     1     -34.406  17.705  -1.859  1.00 20.00     0.031 A 
HETATM    8  C5  UNL     1     -34.566  17.153  -0.459  1.00 20.00     0.016 A 
HETATM    9  C7  UNL     1     -33.276  17.806  -0.855  1.00 20.00     0.009 A 
BRANCH   9  10
HETATM   10  C9  UNL     1     -32.900  19.131  -0.285  1.00 20.00     0.120 C 
HETATM   11 CL11 UNL     1     -31.687  18.954   1.013  1.00 20.00    -0.130 Cl
ENDBRANCH   9  10
ENDBRANCH   3   7
TORSDOF 2
ENDMDL
MODEL 5
REMARK VINA RESULT:      -4.1      2.896      5.306
REMARK  2 active torsions:
REMARK  status: ('A' for Active; 'I' for Inactive)
REMARK    1  A    between atoms: C3_3  and  C6_6 
REMARK    2  A    between atoms: C7_7  and  C9_9 
ROOT
HETATM    1  C1  UNL     1     -34.864  16.315  -1.658  1.00 20.00     0.016 A 
HETATM    2  C2  UNL     1     -34.565  16.890  -0.389  1.00 20.00     0.015 A 
HETATM    3  C3  UNL     1     -34.419  17.100  -2.699  1.00 20.00    -0.013 A 
HETATM    4  C4  UNL     1     -33.903  18.091  -0.508  1.00 20.00    -0.021 A 
HETATM    5  C8  UNL     1     -33.421  18.987   0.565  1.00 20.00     0.056 C 
HETATM    6  S10 UNL     1     -33.644  18.523  -2.145  1.00 20.00    -0.099 SA
ENDROOT
BRANCH   3   7
HETATM    7  C6  UNL     1     -34.589  16.751  -4.159  1.00 20.00     0.031 A 
HETATM    8  C5  UNL     1     -33.495  17.075  -5.153  1.00 20.00     0.016 A 
HETATM    9  C7  UNL     1     -33.754  15.647  -4.774  1.00 20.00     0.009 A 
BRANCH   9  10
HETATM   10  C9  UNL     1     -34.364  14.710  -5.760  1.00 20.00     0.120 C 
HETATM   11 CL11 UNL     1     -34.778  13.150  -4.997  1.00 20.00    -0.130 Cl
ENDBRANCH   9  10
ENDBRANCH   3   7
TORSDOF 2
ENDMDL
MODEL 6
REMARK VINA RESULT:      -4.0      1.671      2.020
REMARK  2 active torsions:
REMARK  status: ('A' for Active; 'I' for Inactive)
REMARK    1  A    between atoms: C3_3  and  C6_6 
REMARK    2  A    between atoms: C7_7  and  C9_9 
ROOT
HETATM    1  C1  UNL     1     -33.708  16.639  -3.594  1.00 20.00     0.016 A 
HETATM    2  C2  UNL     1     -34.109  16.208  -4.892  1.00 20.00     0.015 A 
HETATM    3  C3  UNL     1     -34.602  16.251  -2.621  1.00 20.00    -0.013 A 
HETATM    4  C4  UNL     1     -35.294  15.507  -4.860  1.00 20.00    -0.021 A 
HETATM    5  C8  UNL     1     -36.032  14.896  -5.987  1.00 20.00     0.056 C 
HETATM    6  S10 UNL     1     -35.918  15.370  -3.271  1.00 20.00    -0.099 SA
ENDROOT
BRANCH   3   7
HETATM    7  C6  UNL     1     -34.444  16.560  -1.150  1.00 20.00     0.031 A 
HETATM    8  C5  UNL     1     -33.558  17.702  -0.703  1.00 20.00     0.016 A 
HETATM    9  C7  UNL     1     -35.048  17.824  -0.575  1.00 20.00     0.009 A 
BRANCH   9  10
HETATM   10  C9  UNL     1     -35.688  17.801   0.771  1.00 20.00     0.120 C 
HETATM   11 CL11 UNL     1     -34.523  18.242   2.049  1.00 20.00    -0.130 Cl
ENDBRANCH   9  10
ENDBRANCH   3   7
TORSDOF 2
ENDMDL
MODEL 7
REMARK VINA RESULT:      -4.0     13.416     15.029
REMARK  2 active torsions:
REMARK  status: ('A' for Active; 'I' for Inactive)
REMARK    1  A    between atoms: C3_3  and  C6_6 
REMARK    2  A    between atoms: C7_7  and  C9_9 
ROOT
HETATM    1  C1  UNL     1     -40.915   4.154  -1.258  1.00 20.00     0.016 A 
HETATM    2  C2  UNL     1     -40.706   5.506  -0.860  1.00 20.00     0.015 A 
HETATM    3  C3  UNL     1     -41.991   4.026  -2.109  1.00 20.00    -0.013 A 
HETATM    4  C4  UNL     1     -41.630   6.359  -1.422  1.00 20.00    -0.021 A 
HETATM    5  C8  UNL     1     -41.746   7.825  -1.260  1.00 20.00     0.056 C 
HETATM    6  S10 UNL     1     -42.744   5.531  -2.425  1.00 20.00    -0.099 SA
ENDROOT
BRANCH   3   7
HETATM    7  C6  UNL     1     -42.455   2.715  -2.699  1.00 20.00     0.031 A 
HETATM    8  C5  UNL     1     -43.081   2.678  -4.077  1.00 20.00     0.016 A 
HETATM    9  C7  UNL     1     -41.710   2.107  -3.869  1.00 20.00     0.009 A 
BRANCH   9  10
HETATM   10  C9  UNL     1     -41.495   0.633  -3.934  1.00 20.00     0.120 C 
HETATM   11 CL11 UNL     1     -42.476  -0.107  -5.229  1.00 20.00    -0.130 Cl
ENDBRANCH   9  10
ENDBRANCH   3   7
TORSDOF 2
ENDMDL
MODEL 8
REMARK VINA RESULT:      -4.0      3.260      6.130
REMARK  2 active torsions:
REMARK  status: ('A' for Active; 'I' for Inactive)
REMARK    1  A    between atoms: C3_3  and  C6_6 
REMARK    2  A    between atoms: C7_7  and  C9_9 
ROOT
HETATM    1  C1  UNL     1     -35.178  17.515   0.670  1.00 20.00     0.016 A 
HETATM    2  C2  UNL     1     -34.547  18.036   1.837  1.00 20.00     0.015 A 
HETATM    3  C3  UNL     1     -34.420  17.720  -0.462  1.00 20.00    -0.013 A 
HETATM    4  C4  UNL     1     -33.332  18.619   1.552  1.00 20.00    -0.021 A 
HETATM    5  C8  UNL     1     -32.380  19.263   2.482  1.00 20.00     0.056 C 
HETATM    6  S10 UNL     1     -32.956  18.537  -0.117  1.00 20.00    -0.099 SA
ENDROOT
BRANCH   3   7
HETATM    7  C6  UNL     1     -34.828  17.277  -1.848  1.00 20.00     0.031 A 
HETATM    8  C5  UNL     1     -33.775  16.989  -2.896  1.00 20.00     0.016 A 
HETATM    9  C7  UNL     1     -34.554  15.856  -2.298  1.00 20.00     0.009 A 
BRANCH   9  10
HETATM   10  C9  UNL     1     -35.562  15.125  -3.117  1.00 20.00     0.120 C 
HETATM   11 CL11 UNL     1     -34.857  13.657  -3.848  1.00 20.00    -0.130 Cl
ENDBRANCH   9  10
ENDBRANCH   3   7
TORSDOF 2
ENDMDL
MODEL 9
REMARK VINA RESULT:      -4.0      3.868      7.036
REMARK  2 active torsions:
REMARK  status: ('A' for Active; 'I' for Inactive)
REMARK    1  A    between atoms: C3_3  and  C6_6 
REMARK    2  A    between atoms: C7_7  and  C9_9 
ROOT
HETATM    1  C1  UNL     1     -35.228  17.717   2.142  1.00 20.00     0.016 A 
HETATM    2  C2  UNL     1     -34.688  17.952   3.440  1.00 20.00     0.015 A 
HETATM    3  C3  UNL     1     -34.377  18.143   1.145  1.00 20.00    -0.013 A 
HETATM    4  C4  UNL     1     -33.447  18.546   3.385  1.00 20.00    -0.021 A 
HETATM    5  C8  UNL     1     -32.567  18.942   4.505  1.00 20.00     0.056 C 
HETATM    6  S10 UNL     1     -32.936  18.820   1.774  1.00 20.00    -0.099 SA
ENDROOT
BRANCH   3   7
HETATM    7  C6  UNL     1     -34.675  18.025  -0.332  1.00 20.00     0.031 A 
HETATM    8  C5  UNL     1     -33.552  18.096  -1.343  1.00 20.00     0.016 A 
HETATM    9  C7  UNL     1     -34.243  16.789  -1.094  1.00 20.00     0.009 A 
BRANCH   9  10
HETATM   10  C9  UNL     1     -35.135  16.203  -2.134  1.00 20.00     0.120 C 
HETATM   11 CL11 UNL     1     -34.303  14.914  -3.047  1.00 20.00    -0.130 Cl
ENDBRANCH   9  10
ENDBRANCH   3   7
TORSDOF 2
ENDMDL
