MODEL 1
REMARK VINA RESULT:      -4.7      0.000      0.000
REMARK  1 active torsions:
REMARK  status: ('A' for Active; 'I' for Inactive)
REMARK    1  A    between atoms: C5_5  and  C10_10 
ROOT
HETATM    1  C1  UNL     1     -33.524  16.627  -5.356  1.00 20.00     0.011 C 
HETATM    2  C2  UNL     1     -34.055  16.211  -6.729  1.00 20.00     0.009 C 
HETATM    3  C3  UNL     1     -32.690  14.866  -3.611  1.00 20.00     0.016 A 
HETATM    4  C4  UNL     1     -34.720  14.473  -5.205  1.00 20.00     0.018 C 
HETATM    5  C5  UNL     1     -33.864  15.545  -2.969  1.00 20.00     0.005 A 
HETATM    6  C6  UNL     1     -33.795  15.428  -4.480  1.00 20.00    -0.035 A 
HETATM    7  C7  UNL     1     -35.238  15.275  -6.419  1.00 20.00    -0.047 C 
HETATM    8  C8  UNL     1     -36.498  16.075  -6.047  1.00 20.00     0.015 C 
HETATM    9  C9  UNL     1     -35.550  14.363  -7.606  1.00 20.00     0.015 C 
ENDROOT
BRANCH   5  10
HETATM   10  C10 UNL     1     -33.674  16.844  -2.263  1.00 20.00     0.090 C 
HETATM   11 BR11 UNL     1     -34.719  16.883  -0.615  1.00 20.00    -0.096 Br
ENDBRANCH   5  10
TORSDOF 1
ENDMDL
MODEL 2
REMARK VINA RESULT:      -4.6      1.667      2.741
REMARK  1 active torsions:
REMARK  status: ('A' for Active; 'I' for Inactive)
REMARK    1  A    between atoms: C5_5  and  C10_10 
ROOT
HETATM    1  C1  UNL     1     -32.985  15.866  -3.034  1.00 20.00     0.011 C 
HETATM    2  C2  UNL     1     -33.240  14.524  -3.724  1.00 20.00     0.009 C 
HETATM    3  C3  UNL     1     -34.415  16.656  -0.992  1.00 20.00     0.016 A 
HETATM    4  C4  UNL     1     -35.393  15.324  -3.012  1.00 20.00     0.018 C 
HETATM    5  C5  UNL     1     -34.667  17.664  -2.075  1.00 20.00     0.005 A 
HETATM    6  C6  UNL     1     -34.324  16.232  -2.442  1.00 20.00    -0.035 A 
HETATM    7  C7  UNL     1     -34.705  14.600  -4.190  1.00 20.00    -0.047 C 
HETATM    8  C8  UNL     1     -34.836  15.420  -5.485  1.00 20.00     0.015 C 
HETATM    9  C9  UNL     1     -35.291  13.205  -4.413  1.00 20.00     0.015 C 
ENDROOT
BRANCH   5  10
HETATM   10  C10 UNL     1     -33.710  18.788  -2.280  1.00 20.00     0.090 C 
HETATM   11 BR11 UNL     1     -32.836  19.255  -0.599  1.00 20.00    -0.096 Br
ENDBRANCH   5  10
TORSDOF 1
ENDMDL
MODEL 3
REMARK VINA RESULT:      -4.5      2.504      4.396
REMARK  1 active torsions:
REMARK  status: ('A' for Active; 'I' for Inactive)
REMARK    1  A    between atoms: C5_5  and  C10_10 
ROOT
HETATM    1  C1  UNL     1     -36.164  15.554  -3.914  1.00 20.00     0.011 C 
HETATM    2  C2  UNL     1     -35.986  16.389  -2.645  1.00 20.00     0.009 C 
HETATM    3  C3  UNL     1     -34.935  13.267  -4.240  1.00 20.00     0.016 A 
HETATM    4  C4  UNL     1     -33.866  15.326  -3.043  1.00 20.00     0.018 C 
HETATM    5  C5  UNL     1     -34.417  14.162  -5.328  1.00 20.00     0.005 A 
HETATM    6  C6  UNL     1     -34.882  14.763  -4.014  1.00 20.00    -0.035 A 
HETATM    7  C7  UNL     1     -34.473  16.666  -2.573  1.00 20.00    -0.047 C 
HETATM    8  C8  UNL     1     -34.070  17.809  -3.519  1.00 20.00     0.015 C 
HETATM    9  C9  UNL     1     -34.039  17.013  -1.147  1.00 20.00     0.015 C 
ENDROOT
BRANCH   5  10
HETATM   10  C10 UNL     1     -35.192  14.318  -6.591  1.00 20.00     0.090 C 
HETATM   11 BR11 UNL     1     -34.788  16.032  -7.431  1.00 20.00    -0.096 Br
ENDBRANCH   5  10
TORSDOF 1
ENDMDL
MODEL 4
REMARK VINA RESULT:      -4.4      1.327      2.271
REMARK  1 active torsions:
REMARK  status: ('A' for Active; 'I' for Inactive)
REMARK    1  A    between atoms: C5_5  and  C10_10 
ROOT
HETATM    1  C1  UNL     1     -36.058  16.211  -3.570  1.00 20.00     0.011 C 
HETATM    2  C2  UNL     1     -36.257  15.542  -4.932  1.00 20.00     0.009 C 
HETATM    3  C3  UNL     1     -33.982  17.721  -3.068  1.00 20.00     0.016 A 
HETATM    4  C4  UNL     1     -33.883  15.571  -4.545  1.00 20.00     0.018 C 
HETATM    5  C5  UNL     1     -33.879  16.564  -2.118  1.00 20.00     0.005 A 
HETATM    6  C6  UNL     1     -34.563  16.378  -3.460  1.00 20.00    -0.035 A 
HETATM    7  C7  UNL     1     -35.000  14.674  -5.124  1.00 20.00    -0.047 C 
HETATM    8  C8  UNL     1     -35.105  13.358  -4.334  1.00 20.00     0.015 C 
HETATM    9  C9  UNL     1     -34.762  14.359  -6.602  1.00 20.00     0.015 C 
ENDROOT
BRANCH   5  10
HETATM   10  C10 UNL     1     -34.638  16.587  -0.835  1.00 20.00     0.090 C 
HETATM   11 BR11 UNL     1     -34.091  18.111   0.254  1.00 20.00    -0.096 Br
ENDBRANCH   5  10
TORSDOF 1
ENDMDL
MODEL 5
REMARK VINA RESULT:      -4.4      2.774      5.252
REMARK  1 active torsions:
REMARK  status: ('A' for Active; 'I' for Inactive)
REMARK    1  A    between atoms: C5_5  and  C10_10 
ROOT
HETATM    1  C1  UNL     1     -35.139  17.957  -2.683  1.00 20.00     0.011 C 
HETATM    2  C2  UNL     1     -35.566  18.527  -1.329  1.00 20.00     0.009 C 
HETATM    3  C3  UNL     1     -35.243  15.393  -3.190  1.00 20.00     0.016 A 
HETATM    4  C4  UNL     1     -34.584  16.381  -0.866  1.00 20.00     0.018 C 
HETATM    5  C5  UNL     1     -33.793  15.765  -3.290  1.00 20.00     0.005 A 
HETATM    6  C6  UNL     1     -34.710  16.545  -2.366  1.00 20.00    -0.035 A 
HETATM    7  C7  UNL     1     -34.657  17.820  -0.307  1.00 20.00    -0.047 C 
HETATM    8  C8  UNL     1     -33.260  18.460  -0.266  1.00 20.00     0.015 C 
HETATM    9  C9  UNL     1     -35.269  17.849   1.095  1.00 20.00     0.015 C 
ENDROOT
BRANCH   5  10
HETATM   10  C10 UNL     1     -33.261  16.344  -4.556  1.00 20.00     0.090 C 
HETATM   11 BR11 UNL     1     -34.284  15.693  -6.085  1.00 20.00    -0.096 Br
ENDBRANCH   5  10
TORSDOF 1
ENDMDL
MODEL 6
REMARK VINA RESULT:      -4.4     11.730     13.290
REMARK  1 active torsions:
REMARK  status: ('A' for Active; 'I' for Inactive)
REMARK    1  A    between atoms: C5_5  and  C10_10 
ROOT
HETATM    1  C1  UNL     1     -34.658   6.530   3.319  1.00 20.00     0.011 C 
HETATM    2  C2  UNL     1     -35.423   5.527   4.186  1.00 20.00     0.009 C 
HETATM    3  C3  UNL     1     -32.363   5.927   2.218  1.00 20.00     0.016 A 
HETATM    4  C4  UNL     1     -33.089   5.108   4.587  1.00 20.00     0.018 C 
HETATM    5  C5  UNL     1     -32.074   7.060   3.159  1.00 20.00     0.005 A 
HETATM    6  C6  UNL     1     -33.216   6.106   3.456  1.00 20.00    -0.035 A 
HETATM    7  C7  UNL     1     -34.446   5.174   5.322  1.00 20.00    -0.047 C 
HETATM    8  C8  UNL     1     -34.429   6.268   6.402  1.00 20.00     0.015 C 
HETATM    9  C9  UNL     1     -34.804   3.833   5.966  1.00 20.00     0.015 C 
ENDROOT
BRANCH   5  10
HETATM   10  C10 UNL     1     -32.306   8.466   2.722  1.00 20.00     0.090 C 
HETATM   11 BR11 UNL     1     -31.860   8.675   0.834  1.00 20.00    -0.096 Br
ENDBRANCH   5  10
TORSDOF 1
ENDMDL
MODEL 7
REMARK VINA RESULT:      -4.2      2.371      4.870
REMARK  1 active torsions:
REMARK  status: ('A' for Active; 'I' for Inactive)
REMARK    1  A    between atoms: C5_5  and  C10_10 
ROOT
HETATM    1  C1  UNL     1     -34.771  15.880  -1.842  1.00 20.00     0.011 C 
HETATM    2  C2  UNL     1     -34.523  16.850  -0.685  1.00 20.00     0.009 C 
HETATM    3  C3  UNL     1     -33.123  15.701  -3.865  1.00 20.00     0.016 A 
HETATM    4  C4  UNL     1     -33.694  17.945  -2.660  1.00 20.00     0.018 C 
HETATM    5  C5  UNL     1     -34.425  16.169  -4.446  1.00 20.00     0.005 A 
HETATM    6  C6  UNL     1     -34.069  16.521  -3.014  1.00 20.00    -0.035 A 
HETATM    7  C7  UNL     1     -34.459  18.237  -1.350  1.00 20.00    -0.047 C 
HETATM    8  C8  UNL     1     -35.868  18.776  -1.651  1.00 20.00     0.015 C 
HETATM    9  C9  UNL     1     -33.710  19.241  -0.472  1.00 20.00     0.015 C 
ENDROOT
BRANCH   5  10
HETATM   10  C10 UNL     1     -35.487  15.177  -4.779  1.00 20.00     0.090 C 
HETATM   11 BR11 UNL     1     -34.751  13.370  -4.797  1.00 20.00    -0.096 Br
ENDBRANCH   5  10
TORSDOF 1
ENDMDL
MODEL 8
REMARK VINA RESULT:      -4.1      2.624      4.367
REMARK  1 active torsions:
REMARK  status: ('A' for Active; 'I' for Inactive)
REMARK    1  A    between atoms: C5_5  and  C10_10 
ROOT
HETATM    1  C1  UNL     1     -33.217  15.945  -4.695  1.00 20.00     0.011 C 
HETATM    2  C2  UNL     1     -33.245  15.680  -3.189  1.00 20.00     0.009 C 
HETATM    3  C3  UNL     1     -33.600  18.338  -5.679  1.00 20.00     0.016 A 
HETATM    4  C4  UNL     1     -34.860  17.416  -3.588  1.00 20.00     0.018 C 
HETATM    5  C5  UNL     1     -34.728  17.501  -6.206  1.00 20.00     0.005 A 
HETATM    6  C6  UNL     1     -34.096  17.159  -4.869  1.00 20.00    -0.035 A 
HETATM    7  C7  UNL     1     -34.642  16.143  -2.739  1.00 20.00    -0.047 C 
HETATM    8  C8  UNL     1     -35.710  15.085  -3.061  1.00 20.00     0.015 C 
HETATM    9  C9  UNL     1     -34.671  16.452  -1.242  1.00 20.00     0.015 C 
ENDROOT
BRANCH   5  10
HETATM   10  C10 UNL     1     -34.523  16.660  -7.419  1.00 20.00     0.090 C 
HETATM   11 BR11 UNL     1     -35.768  15.157  -7.424  1.00 20.00    -0.096 Br
ENDBRANCH   5  10
TORSDOF 1
ENDMDL
MODEL 9
REMARK VINA RESULT:      -4.1      1.886      4.137
REMARK  1 active torsions:
REMARK  status: ('A' for Active; 'I' for Inactive)
REMARK    1  A    between atoms: C5_5  and  C10_10 
ROOT
HETATM    1  C1  UNL     1     -35.732  13.682  -4.557  1.00 20.00     0.011 C 
HETATM    2  C2  UNL     1     -34.417  13.491  -3.798  1.00 20.00     0.009 C 
HETATM    3  C3  UNL     1     -35.789  14.621  -6.998  1.00 20.00     0.016 A 
HETATM    4  C4  UNL     1     -34.115  15.442  -5.171  1.00 20.00     0.018 C 
HETATM    5  C5  UNL     1     -36.537  15.620  -6.165  1.00 20.00     0.005 A 
HETATM    6  C6  UNL     1     -35.432  14.790  -5.537  1.00 20.00    -0.035 A 
HETATM    7  C7  UNL     1     -33.782  14.893  -3.767  1.00 20.00    -0.047 C 
HETATM    8  C8  UNL     1     -34.418  15.769  -2.674  1.00 20.00     0.015 C 
HETATM    9  C9  UNL     1     -32.272  14.814  -3.536  1.00 20.00     0.015 C 
ENDROOT
BRANCH   5  10
HETATM   10  C10 UNL     1     -37.976  15.394  -5.850  1.00 20.00     0.090 C 
HETATM   11 BR11 UNL     1     -38.498  16.420  -4.275  1.00 20.00    -0.096 Br
ENDBRANCH   5  10
TORSDOF 1
ENDMDL
