MODEL 1
REMARK VINA RESULT:      -5.0      0.000      0.000
REMARK  2 active torsions:
REMARK  status: ('A' for Active; 'I' for Inactive)
REMARK    1  A    between atoms: C2_2  and  C6_6 
REMARK    2  A    between atoms: C3_3  and  C7_7 
ROOT
HETATM    1  C1  UNL     1     -34.419   5.119   2.880  1.00 20.00     0.011 A 
HETATM    2  C2  UNL     1     -33.556   6.344   3.032  1.00 20.00     0.004 A 
HETATM    3  C3  UNL     1     -34.544   5.974   4.114  1.00 20.00    -0.006 A 
ENDROOT
BRANCH   3   4
HETATM    4  C7  UNL     1     -34.118   5.447   5.440  1.00 20.00    -0.018 C 
HETATM    5  C4  UNL     1     -34.071   6.553   6.511  1.00 20.00     0.010 C 
HETATM    6  C5  UNL     1     -35.037   4.310   5.928  1.00 20.00     0.010 C 
ENDBRANCH   3   4
BRANCH   2   7
HETATM    7  C6  UNL     1     -32.084   6.209   3.215  1.00 20.00     0.119 C 
HETATM    8 CL8  UNL     1     -31.348   7.759   3.713  1.00 20.00    -0.130 Cl
ENDBRANCH   2   7
TORSDOF 2
ENDMDL
MODEL 2
REMARK VINA RESULT:      -4.2      1.832      2.822
REMARK  2 active torsions:
REMARK  status: ('A' for Active; 'I' for Inactive)
REMARK    1  A    between atoms: C2_2  and  C6_6 
REMARK    2  A    between atoms: C3_3  and  C7_7 
ROOT
HETATM    1  C1  UNL     1     -31.471   7.250   3.857  1.00 20.00     0.011 A 
HETATM    2  C2  UNL     1     -32.054   7.469   2.486  1.00 20.00     0.004 A 
HETATM    3  C3  UNL     1     -32.608   6.385   3.380  1.00 20.00    -0.006 A 
ENDROOT
BRANCH   3   4
HETATM    4  C7  UNL     1     -33.948   6.484   4.021  1.00 20.00    -0.018 C 
HETATM    5  C4  UNL     1     -34.902   5.377   3.533  1.00 20.00     0.010 C 
HETATM    6  C5  UNL     1     -33.855   6.428   5.559  1.00 20.00     0.010 C 
ENDBRANCH   3   4
BRANCH   2   7
HETATM    7  C6  UNL     1     -32.809   8.716   2.180  1.00 20.00     0.119 C 
HETATM    8 CL8  UNL     1     -32.317   9.402   0.606  1.00 20.00    -0.130 Cl
ENDBRANCH   2   7
TORSDOF 2
ENDMDL
MODEL 3
REMARK VINA RESULT:      -4.1      2.258      3.923
REMARK  2 active torsions:
REMARK  status: ('A' for Active; 'I' for Inactive)
REMARK    1  A    between atoms: C2_2  and  C6_6 
REMARK    2  A    between atoms: C3_3  and  C7_7 
ROOT
HETATM    1  C1  UNL     1     -33.345   6.979   6.387  1.00 20.00     0.011 A 
HETATM    2  C2  UNL     1     -34.470   5.997   6.188  1.00 20.00     0.004 A 
HETATM    3  C3  UNL     1     -33.922   6.771   5.011  1.00 20.00    -0.006 A 
ENDROOT
BRANCH   3   4
HETATM    4  C7  UNL     1     -33.107   6.131   3.942  1.00 20.00    -0.018 C 
HETATM    5  C4  UNL     1     -33.978   5.634   2.774  1.00 20.00     0.010 C 
HETATM    6  C5  UNL     1     -32.026   7.084   3.396  1.00 20.00     0.010 C 
ENDBRANCH   3   4
BRANCH   2   7
HETATM    7  C6  UNL     1     -34.234   4.537   6.363  1.00 20.00     0.119 C 
HETATM    8 CL8  UNL     1     -35.192   3.582   5.197  1.00 20.00    -0.130 Cl
ENDBRANCH   2   7
TORSDOF 2
ENDMDL
MODEL 4
REMARK VINA RESULT:      -3.8     11.530     12.421
REMARK  2 active torsions:
REMARK  status: ('A' for Active; 'I' for Inactive)
REMARK    1  A    between atoms: C2_2  and  C6_6 
REMARK    2  A    between atoms: C3_3  and  C7_7 
ROOT
HETATM    1  C1  UNL     1     -33.501  16.180  -4.400  1.00 20.00     0.011 A 
HETATM    2  C2  UNL     1     -32.902  14.984  -3.707  1.00 20.00     0.004 A 
HETATM    3  C3  UNL     1     -33.476  16.122  -2.895  1.00 20.00    -0.006 A 
ENDROOT
BRANCH   3   4
HETATM    4  C7  UNL     1     -34.745  15.995  -2.126  1.00 20.00    -0.018 C 
HETATM    5  C4  UNL     1     -34.645  16.652  -0.737  1.00 20.00     0.010 C 
HETATM    6  C5  UNL     1     -35.940  16.602  -2.887  1.00 20.00     0.010 C 
ENDBRANCH   3   4
BRANCH   2   7
HETATM    7  C6  UNL     1     -33.565  13.653  -3.797  1.00 20.00     0.119 C 
HETATM    8 CL8  UNL     1     -34.686  13.581  -5.186  1.00 20.00    -0.130 Cl
ENDBRANCH   2   7
TORSDOF 2
ENDMDL
MODEL 5
REMARK VINA RESULT:      -3.8      1.431      3.204
REMARK  2 active torsions:
REMARK  status: ('A' for Active; 'I' for Inactive)
REMARK    1  A    between atoms: C2_2  and  C6_6 
REMARK    2  A    between atoms: C3_3  and  C7_7 
ROOT
HETATM    1  C1  UNL     1     -35.239   4.397   5.472  1.00 20.00     0.011 A 
HETATM    2  C2  UNL     1     -34.219   5.156   6.280  1.00 20.00     0.004 A 
HETATM    3  C3  UNL     1     -33.951   4.839   4.826  1.00 20.00    -0.006 A 
ENDROOT
BRANCH   3   4
HETATM    4  C7  UNL     1     -33.962   5.883   3.765  1.00 20.00    -0.018 C 
HETATM    5  C4  UNL     1     -32.545   6.403   3.455  1.00 20.00     0.010 C 
HETATM    6  C5  UNL     1     -34.608   5.371   2.462  1.00 20.00     0.010 C 
ENDBRANCH   3   4
BRANCH   2   7
HETATM    7  C6  UNL     1     -34.512   6.537   6.755  1.00 20.00     0.119 C 
HETATM    8 CL8  UNL     1     -33.014   7.496   6.920  1.00 20.00    -0.130 Cl
ENDBRANCH   2   7
TORSDOF 2
ENDMDL
MODEL 6
REMARK VINA RESULT:      -3.7      2.294      3.768
REMARK  2 active torsions:
REMARK  status: ('A' for Active; 'I' for Inactive)
REMARK    1  A    between atoms: C2_2  and  C6_6 
REMARK    2  A    between atoms: C3_3  and  C7_7 
ROOT
HETATM    1  C1  UNL     1     -34.077   5.712   2.744  1.00 20.00     0.011 A 
HETATM    2  C2  UNL     1     -33.547   5.455   4.131  1.00 20.00     0.004 A 
HETATM    3  C3  UNL     1     -32.670   6.120   3.095  1.00 20.00    -0.006 A 
ENDROOT
BRANCH   3   4
HETATM    4  C7  UNL     1     -32.301   7.561   3.167  1.00 20.00    -0.018 C 
HETATM    5  C4  UNL     1     -31.048   7.792   4.032  1.00 20.00     0.010 C 
HETATM    6  C5  UNL     1     -32.066   8.163   1.767  1.00 20.00     0.010 C 
ENDBRANCH   3   4
BRANCH   2   7
HETATM    7  C6  UNL     1     -34.105   6.193   5.298  1.00 20.00     0.119 C 
HETATM    8 CL8  UNL     1     -34.936   5.085   6.426  1.00 20.00    -0.130 Cl
ENDBRANCH   2   7
TORSDOF 2
ENDMDL
MODEL 7
REMARK VINA RESULT:      -3.6      1.988      3.433
REMARK  2 active torsions:
REMARK  status: ('A' for Active; 'I' for Inactive)
REMARK    1  A    between atoms: C2_2  and  C6_6 
REMARK    2  A    between atoms: C3_3  and  C7_7 
ROOT
HETATM    1  C1  UNL     1     -35.713   5.716   3.964  1.00 20.00     0.011 A 
HETATM    2  C2  UNL     1     -35.033   4.462   4.452  1.00 20.00     0.004 A 
HETATM    3  C3  UNL     1     -34.385   5.308   3.380  1.00 20.00    -0.006 A 
ENDROOT
BRANCH   3   4
HETATM    4  C7  UNL     1     -33.168   6.128   3.635  1.00 20.00    -0.018 C 
HETATM    5  C4  UNL     1     -31.912   5.506   2.996  1.00 20.00     0.010 C 
HETATM    6  C5  UNL     1     -33.332   7.573   3.124  1.00 20.00     0.010 C 
ENDBRANCH   3   4
BRANCH   2   7
HETATM    7  C6  UNL     1     -34.501   4.387   5.841  1.00 20.00     0.119 C 
HETATM    8 CL8  UNL     1     -34.566   5.980   6.646  1.00 20.00    -0.130 Cl
ENDBRANCH   2   7
TORSDOF 2
ENDMDL
MODEL 8
REMARK VINA RESULT:      -3.6     11.643     13.083
REMARK  2 active torsions:
REMARK  status: ('A' for Active; 'I' for Inactive)
REMARK    1  A    between atoms: C2_2  and  C6_6 
REMARK    2  A    between atoms: C3_3  and  C7_7 
ROOT
HETATM    1  C1  UNL     1     -35.102  13.460  -3.987  1.00 20.00     0.011 A 
HETATM    2  C2  UNL     1     -33.683  13.959  -4.066  1.00 20.00     0.004 A 
HETATM    3  C3  UNL     1     -34.511  13.828  -5.324  1.00 20.00    -0.006 A 
ENDROOT
BRANCH   3   4
HETATM    4  C7  UNL     1     -35.021  15.009  -6.072  1.00 20.00    -0.018 C 
HETATM    5  C4  UNL     1     -34.679  14.932  -7.572  1.00 20.00     0.010 C 
HETATM    6  C5  UNL     1     -36.545  15.178  -5.909  1.00 20.00     0.010 C 
ENDBRANCH   3   4
BRANCH   2   7
HETATM    7  C6  UNL     1     -33.317  15.281  -3.485  1.00 20.00     0.119 C 
HETATM    8 CL8  UNL     1     -34.502  15.795  -2.251  1.00 20.00    -0.130 Cl
ENDBRANCH   2   7
TORSDOF 2
ENDMDL
MODEL 9
REMARK VINA RESULT:      -3.6     12.124     12.739
REMARK  2 active torsions:
REMARK  status: ('A' for Active; 'I' for Inactive)
REMARK    1  A    between atoms: C2_2  and  C6_6 
REMARK    2  A    between atoms: C3_3  and  C7_7 
ROOT
HETATM    1  C1  UNL     1     -34.831  13.331  -4.599  1.00 20.00     0.011 A 
HETATM    2  C2  UNL     1     -35.953  14.281  -4.928  1.00 20.00     0.004 A 
HETATM    3  C3  UNL     1     -35.205  14.416  -3.622  1.00 20.00    -0.006 A 
ENDROOT
BRANCH   3   4
HETATM    4  C7  UNL     1     -34.266  15.540  -3.351  1.00 20.00    -0.018 C 
HETATM    5  C4  UNL     1     -34.434  16.099  -1.926  1.00 20.00     0.010 C 
HETATM    6  C5  UNL     1     -32.796  15.123  -3.559  1.00 20.00     0.010 C 
ENDBRANCH   3   4
BRANCH   2   7
HETATM    7  C6  UNL     1     -35.805  15.263  -6.039  1.00 20.00     0.119 C 
HETATM    8 CL8  UNL     1     -34.397  14.872  -7.066  1.00 20.00    -0.130 Cl
ENDBRANCH   2   7
TORSDOF 2
ENDMDL
