MODEL 1
REMARK VINA RESULT:      -4.8      0.000      0.000
REMARK  1 active torsions:
REMARK  status: ('A' for Active; 'I' for Inactive)
REMARK    1  A    between atoms: C5_5  and  C7_7 
ROOT
HETATM    1  C1  UNL     1     -35.138   4.502   4.633  1.00 20.00     0.038 C 
HETATM    2  C2  UNL     1     -34.652   6.605   3.179  1.00 20.00     0.018 A 
HETATM    3  C3  UNL     1     -34.870   4.253   6.107  1.00 20.00     0.168 C 
HETATM    4  C4  UNL     1     -34.027   6.357   5.704  1.00 20.00     0.177 C 
HETATM    5  C5  UNL     1     -33.378   5.807   3.202  1.00 20.00     0.007 A 
HETATM    6  C6  UNL     1     -34.335   5.737   4.377  1.00 20.00    -0.012 A 
HETATM    7  O8  UNL     1     -34.729   5.562   6.680  1.00 20.00    -0.390 OA
ENDROOT
BRANCH   5   8
HETATM    8  C7  UNL     1     -32.067   6.511   3.285  1.00 20.00     0.090 C 
HETATM    9 BR9  UNL     1     -32.086   8.120   2.183  1.00 20.00    -0.096 Br
ENDBRANCH   5   8
TORSDOF 1
ENDMDL
MODEL 2
REMARK VINA RESULT:      -4.0     12.142     12.679
REMARK  1 active torsions:
REMARK  status: ('A' for Active; 'I' for Inactive)
REMARK    1  A    between atoms: C5_5  and  C7_7 
ROOT
HETATM    1  C1  UNL     1     -35.590  14.167  -3.793  1.00 20.00     0.038 C 
HETATM    2  C2  UNL     1     -34.770  15.892  -2.025  1.00 20.00     0.018 A 
HETATM    3  C3  UNL     1     -34.793  13.264  -4.717  1.00 20.00     0.168 C 
HETATM    4  C4  UNL     1     -33.208  14.486  -3.579  1.00 20.00     0.177 C 
HETATM    5  C5  UNL     1     -34.764  16.610  -3.345  1.00 20.00     0.007 A 
HETATM    6  C6  UNL     1     -34.540  15.110  -3.299  1.00 20.00    -0.012 A 
HETATM    7  O8  UNL     1     -33.493  13.178  -4.113  1.00 20.00    -0.390 OA
ENDROOT
BRANCH   5   8
HETATM    8  C7  UNL     1     -33.668  17.568  -3.660  1.00 20.00     0.090 C 
HETATM    9 BR9  UNL     1     -33.668  18.005  -5.561  1.00 20.00    -0.096 Br
ENDBRANCH   5   8
TORSDOF 1
ENDMDL
MODEL 3
REMARK VINA RESULT:      -4.0     11.728     12.524
REMARK  1 active torsions:
REMARK  status: ('A' for Active; 'I' for Inactive)
REMARK    1  A    between atoms: C5_5  and  C7_7 
ROOT
HETATM    1  C1  UNL     1     -33.031  15.106  -3.655  1.00 20.00     0.038 C 
HETATM    2  C2  UNL     1     -34.074  17.404  -3.021  1.00 20.00     0.018 A 
HETATM    3  C3  UNL     1     -33.688  13.745  -3.805  1.00 20.00     0.168 C 
HETATM    4  C4  UNL     1     -35.389  15.149  -3.146  1.00 20.00     0.177 C 
HETATM    5  C5  UNL     1     -33.790  16.701  -1.724  1.00 20.00     0.007 A 
HETATM    6  C6  UNL     1     -34.101  15.893  -2.969  1.00 20.00    -0.012 A 
HETATM    7  O8  UNL     1     -35.081  14.031  -4.001  1.00 20.00    -0.390 OA
ENDROOT
BRANCH   5   8
HETATM    8  C7  UNL     1     -34.752  16.821  -0.593  1.00 20.00     0.090 C 
HETATM    9 BR9  UNL     1     -34.179  18.215   0.646  1.00 20.00    -0.096 Br
ENDBRANCH   5   8
TORSDOF 1
ENDMDL
MODEL 4
REMARK VINA RESULT:      -3.9     12.547     13.252
REMARK  1 active torsions:
REMARK  status: ('A' for Active; 'I' for Inactive)
REMARK    1  A    between atoms: C5_5  and  C7_7 
ROOT
HETATM    1  C1  UNL     1     -34.555  13.696  -5.119  1.00 20.00     0.038 C 
HETATM    2  C2  UNL     1     -32.790  14.788  -3.550  1.00 20.00     0.018 A 
HETATM    3  C3  UNL     1     -35.195  14.230  -6.389  1.00 20.00     0.168 C 
HETATM    4  C4  UNL     1     -33.824  15.930  -5.661  1.00 20.00     0.177 C 
HETATM    5  C5  UNL     1     -34.126  15.315  -3.108  1.00 20.00     0.007 A 
HETATM    6  C6  UNL     1     -33.910  14.922  -4.557  1.00 20.00    -0.012 A 
HETATM    7  O8  UNL     1     -34.302  15.259  -6.843  1.00 20.00    -0.390 OA
ENDROOT
BRANCH   5   8
HETATM    8  C7  UNL     1     -34.255  16.736  -2.680  1.00 20.00     0.090 C 
HETATM    9 BR9  UNL     1     -34.598  16.842  -0.763  1.00 20.00    -0.096 Br
ENDBRANCH   5   8
TORSDOF 1
ENDMDL
MODEL 5
REMARK VINA RESULT:      -3.9     11.484     12.579
REMARK  1 active torsions:
REMARK  status: ('A' for Active; 'I' for Inactive)
REMARK    1  A    between atoms: C5_5  and  C7_7 
ROOT
HETATM    1  C1  UNL     1     -35.722  14.662  -5.457  1.00 20.00     0.038 C 
HETATM    2  C2  UNL     1     -36.204  15.627  -3.089  1.00 20.00     0.018 A 
HETATM    3  C3  UNL     1     -34.809  13.524  -5.879  1.00 20.00     0.168 C 
HETATM    4  C4  UNL     1     -34.519  13.697  -3.602  1.00 20.00     0.177 C 
HETATM    5  C5  UNL     1     -34.952  16.304  -3.570  1.00 20.00     0.007 A 
HETATM    6  C6  UNL     1     -35.286  14.903  -4.048  1.00 20.00    -0.012 A 
HETATM    7  O8  UNL     1     -34.612  12.751  -4.685  1.00 20.00    -0.390 OA
ENDROOT
BRANCH   5   8
HETATM    8  C7  UNL     1     -33.844  16.575  -2.613  1.00 20.00     0.090 C 
HETATM    9 BR9  UNL     1     -34.547  16.830  -0.811  1.00 20.00    -0.096 Br
ENDBRANCH   5   8
TORSDOF 1
ENDMDL
MODEL 6
REMARK VINA RESULT:      -3.8     12.186     12.831
REMARK  1 active torsions:
REMARK  status: ('A' for Active; 'I' for Inactive)
REMARK    1  A    between atoms: C5_5  and  C7_7 
ROOT
HETATM    1  C1  UNL     1     -34.603  16.580  -0.974  1.00 20.00     0.038 C 
HETATM    2  C2  UNL     1     -35.768  15.608  -3.088  1.00 20.00     0.018 A 
HETATM    3  C3  UNL     1     -33.553  17.671  -0.855  1.00 20.00     0.168 C 
HETATM    4  C4  UNL     1     -33.912  17.446  -3.118  1.00 20.00     0.177 C 
HETATM    5  C5  UNL     1     -34.468  14.868  -2.949  1.00 20.00     0.007 A 
HETATM    6  C6  UNL     1     -34.585  16.293  -2.441  1.00 20.00    -0.012 A 
HETATM    7  O8  UNL     1     -33.654  18.412  -2.080  1.00 20.00    -0.390 OA
ENDROOT
BRANCH   5   8
HETATM    8  C7  UNL     1     -33.683  14.519  -4.166  1.00 20.00     0.090 C 
HETATM    9 BR9  UNL     1     -34.871  14.242  -5.688  1.00 20.00    -0.096 Br
ENDBRANCH   5   8
TORSDOF 1
ENDMDL
MODEL 7
REMARK VINA RESULT:      -3.6     12.275     12.964
REMARK  1 active torsions:
REMARK  status: ('A' for Active; 'I' for Inactive)
REMARK    1  A    between atoms: C5_5  and  C7_7 
ROOT
HETATM    1  C1  UNL     1     -33.259  15.073  -3.469  1.00 20.00     0.038 C 
HETATM    2  C2  UNL     1     -34.541  13.198  -4.739  1.00 20.00     0.018 A 
HETATM    3  C3  UNL     1     -33.792  16.233  -2.646  1.00 20.00     0.168 C 
HETATM    4  C4  UNL     1     -35.670  15.164  -3.439  1.00 20.00     0.177 C 
HETATM    5  C5  UNL     1     -34.492  14.377  -5.670  1.00 20.00     0.007 A 
HETATM    6  C6  UNL     1     -34.491  14.598  -4.169  1.00 20.00    -0.012 A 
HETATM    7  O8  UNL     1     -35.128  15.847  -2.292  1.00 20.00    -0.390 OA
ENDROOT
BRANCH   5   8
HETATM    8  C7  UNL     1     -35.672  14.696  -6.521  1.00 20.00     0.090 C 
HETATM    9 BR9  UNL     1     -35.333  16.295  -7.585  1.00 20.00    -0.096 Br
ENDBRANCH   5   8
TORSDOF 1
ENDMDL
MODEL 8
REMARK VINA RESULT:      -3.6     12.287     13.092
REMARK  1 active torsions:
REMARK  status: ('A' for Active; 'I' for Inactive)
REMARK    1  A    between atoms: C5_5  and  C7_7 
ROOT
HETATM    1  C1  UNL     1     -34.469  16.561  -1.108  1.00 20.00     0.038 C 
HETATM    2  C2  UNL     1     -34.472  14.921  -3.128  1.00 20.00     0.018 A 
HETATM    3  C3  UNL     1     -35.264  17.836  -0.886  1.00 20.00     0.168 C 
HETATM    4  C4  UNL     1     -35.875  17.121  -2.987  1.00 20.00     0.177 C 
HETATM    5  C5  UNL     1     -33.521  16.028  -3.489  1.00 20.00     0.007 A 
HETATM    6  C6  UNL     1     -34.691  16.307  -2.564  1.00 20.00    -0.012 A 
HETATM    7  O8  UNL     1     -36.379  17.733  -1.784  1.00 20.00    -0.390 OA
ENDROOT
BRANCH   5   8
HETATM    8  C7  UNL     1     -33.474  16.535  -4.888  1.00 20.00     0.090 C 
HETATM    9 BR9  UNL     1     -34.387  15.301  -6.092  1.00 20.00    -0.096 Br
ENDBRANCH   5   8
TORSDOF 1
ENDMDL
MODEL 9
REMARK VINA RESULT:      -3.5     12.276     13.517
REMARK  1 active torsions:
REMARK  status: ('A' for Active; 'I' for Inactive)
REMARK    1  A    between atoms: C5_5  and  C7_7 
ROOT
HETATM    1  C1  UNL     1     -33.739  15.324  -4.554  1.00 20.00     0.038 C 
HETATM    2  C2  UNL     1     -34.306  15.081  -7.082  1.00 20.00     0.018 A 
HETATM    3  C3  UNL     1     -33.992  14.367  -3.402  1.00 20.00     0.168 C 
HETATM    4  C4  UNL     1     -34.910  13.328  -5.240  1.00 20.00     0.177 C 
HETATM    5  C5  UNL     1     -35.551  15.604  -6.422  1.00 20.00     0.007 A 
HETATM    6  C6  UNL     1     -34.586  14.735  -5.636  1.00 20.00    -0.012 A 
HETATM    7  O8  UNL     1     -34.176  13.086  -4.023  1.00 20.00    -0.390 OA
ENDROOT
BRANCH   5   8
HETATM    8  C7  UNL     1     -36.885  15.110  -6.865  1.00 20.00     0.090 C 
HETATM    9 BR9  UNL     1     -38.262  15.624  -5.582  1.00 20.00    -0.096 Br
ENDBRANCH   5   8
TORSDOF 1
ENDMDL
