MODEL 1
REMARK VINA RESULT:      -4.3      0.000      0.000
REMARK  1 active torsions:
REMARK  status: ('A' for Active; 'I' for Inactive)
REMARK    1  A    between atoms: C3_3  and  O10_10 
ROOT
HETATM    1  C1  UNL     1     -34.891  14.032  -4.528  1.00 20.00     0.143 C 
HETATM    2  C2  UNL     1     -35.202  14.970  -5.707  1.00 20.00     0.082 C 
HETATM    3  C3  UNL     1     -34.536  16.121  -4.891  1.00 20.00     0.146 C 
HETATM    4  C4  UNL     1     -34.092  15.121  -3.765  1.00 20.00     0.040 C 
HETATM    5  C5  UNL     1     -34.568  14.567  -7.027  1.00 20.00     0.020 C 
HETATM    6  C6  UNL     1     -32.597  14.818  -3.685  1.00 20.00     0.026 C 
HETATM    7  C7  UNL     1     -34.671  15.452  -2.391  1.00 20.00     0.026 C 
HETATM    8  O9  UNL     1     -35.163  12.872  -4.293  1.00 20.00    -0.297 OA
ENDROOT
BRANCH   3   9
HETATM    9  O10 UNL     1     -33.487  16.850  -5.556  1.00 20.00    -0.389 OA
HETATM   10  C8  UNL     1     -33.624  18.240  -5.336  1.00 20.00     0.202 C 
ENDBRANCH   3   9
TORSDOF 1
ENDMDL
MODEL 2
REMARK VINA RESULT:      -4.1      1.674      3.724
REMARK  1 active torsions:
REMARK  status: ('A' for Active; 'I' for Inactive)
REMARK    1  A    between atoms: C3_3  and  O10_10 
ROOT
HETATM    1  C1  UNL     1     -33.794  15.682  -4.384  1.00 20.00     0.143 C 
HETATM    2  C2  UNL     1     -34.929  16.275  -3.530  1.00 20.00     0.082 C 
HETATM    3  C3  UNL     1     -35.922  15.382  -4.335  1.00 20.00     0.146 C 
HETATM    4  C4  UNL     1     -34.740  14.676  -5.091  1.00 20.00     0.040 C 
HETATM    5  C5  UNL     1     -34.796  16.034  -2.036  1.00 20.00     0.020 C 
HETATM    6  C6  UNL     1     -34.465  13.225  -4.704  1.00 20.00     0.026 C 
HETATM    7  C7  UNL     1     -34.794  14.852  -6.606  1.00 20.00     0.026 C 
HETATM    8  O9  UNL     1     -32.604  15.912  -4.462  1.00 20.00    -0.297 OA
ENDROOT
BRANCH   3   9
HETATM    9  O10 UNL     1     -36.789  14.532  -3.558  1.00 20.00    -0.389 OA
HETATM   10  C8  UNL     1     -38.144  14.759  -3.892  1.00 20.00     0.202 C 
ENDBRANCH   3   9
TORSDOF 1
ENDMDL
MODEL 3
REMARK VINA RESULT:      -4.1      0.751      2.782
REMARK  1 active torsions:
REMARK  status: ('A' for Active; 'I' for Inactive)
REMARK    1  A    between atoms: C3_3  and  O10_10 
ROOT
HETATM    1  C1  UNL     1     -34.712  13.865  -4.799  1.00 20.00     0.143 C 
HETATM    2  C2  UNL     1     -33.724  14.870  -4.180  1.00 20.00     0.082 C 
HETATM    3  C3  UNL     1     -34.073  15.842  -5.349  1.00 20.00     0.146 C 
HETATM    4  C4  UNL     1     -35.187  14.871  -5.880  1.00 20.00     0.040 C 
HETATM    5  C5  UNL     1     -34.057  15.302  -2.763  1.00 20.00     0.020 C 
HETATM    6  C6  UNL     1     -36.631  15.328  -5.677  1.00 20.00     0.026 C 
HETATM    7  C7  UNL     1     -34.947  14.390  -7.309  1.00 20.00     0.026 C 
HETATM    8  O9  UNL     1     -35.012  12.720  -4.530  1.00 20.00    -0.297 OA
ENDROOT
BRANCH   3   9
HETATM    9  O10 UNL     1     -34.499  17.166  -4.970  1.00 20.00    -0.389 OA
HETATM   10  C8  UNL     1     -33.666  18.148  -5.557  1.00 20.00     0.202 C 
ENDBRANCH   3   9
TORSDOF 1
ENDMDL
MODEL 4
REMARK VINA RESULT:      -4.1      1.944      2.980
REMARK  1 active torsions:
REMARK  status: ('A' for Active; 'I' for Inactive)
REMARK    1  A    between atoms: C3_3  and  O10_10 
ROOT
HETATM    1  C1  UNL     1     -33.618  14.752  -3.536  1.00 20.00     0.143 C 
HETATM    2  C2  UNL     1     -34.730  13.766  -3.936  1.00 20.00     0.082 C 
HETATM    3  C3  UNL     1     -35.763  14.809  -3.409  1.00 20.00     0.146 C 
HETATM    4  C4  UNL     1     -34.629  15.863  -3.148  1.00 20.00     0.040 C 
HETATM    5  C5  UNL     1     -34.764  13.406  -5.411  1.00 20.00     0.020 C 
HETATM    6  C6  UNL     1     -34.592  17.060  -4.096  1.00 20.00     0.026 C 
HETATM    7  C7  UNL     1     -34.525  16.299  -1.689  1.00 20.00     0.026 C 
HETATM    8  O9  UNL     1     -32.406  14.684  -3.537  1.00 20.00    -0.297 OA
ENDROOT
BRANCH   3   9
HETATM    9  O10 UNL     1     -36.804  15.196  -4.327  1.00 20.00    -0.389 OA
HETATM   10  C8  UNL     1     -38.081  14.959  -3.767  1.00 20.00     0.202 C 
ENDBRANCH   3   9
TORSDOF 1
ENDMDL
MODEL 5
REMARK VINA RESULT:      -4.0      1.714      2.306
REMARK  1 active torsions:
REMARK  status: ('A' for Active; 'I' for Inactive)
REMARK    1  A    between atoms: C3_3  and  O10_10 
ROOT
HETATM    1  C1  UNL     1     -35.073  13.925  -4.127  1.00 20.00     0.143 C 
HETATM    2  C2  UNL     1     -36.173  14.761  -3.449  1.00 20.00     0.082 C 
HETATM    3  C3  UNL     1     -35.245  16.005  -3.610  1.00 20.00     0.146 C 
HETATM    4  C4  UNL     1     -34.201  15.172  -4.435  1.00 20.00     0.040 C 
HETATM    5  C5  UNL     1     -37.509  14.763  -4.171  1.00 20.00     0.020 C 
HETATM    6  C6  UNL     1     -34.116  15.487  -5.926  1.00 20.00     0.026 C 
HETATM    7  C7  UNL     1     -32.817  15.121  -3.792  1.00 20.00     0.026 C 
HETATM    8  O9  UNL     1     -34.945  12.738  -4.346  1.00 20.00    -0.297 OA
ENDROOT
BRANCH   3   9
HETATM    9  O10 UNL     1     -35.823  17.149  -4.269  1.00 20.00    -0.389 OA
HETATM   10  C8  UNL     1     -35.537  18.336  -3.556  1.00 20.00     0.202 C 
ENDBRANCH   3   9
TORSDOF 1
ENDMDL
MODEL 6
REMARK VINA RESULT:      -3.8      1.555      2.814
REMARK  1 active torsions:
REMARK  status: ('A' for Active; 'I' for Inactive)
REMARK    1  A    between atoms: C3_3  and  O10_10 
ROOT
HETATM    1  C1  UNL     1     -34.285  15.460  -5.426  1.00 20.00     0.143 C 
HETATM    2  C2  UNL     1     -34.604  16.789  -4.718  1.00 20.00     0.082 C 
HETATM    3  C3  UNL     1     -34.727  15.983  -3.388  1.00 20.00     0.146 C 
HETATM    4  C4  UNL     1     -34.251  14.664  -4.095  1.00 20.00     0.040 C 
HETATM    5  C5  UNL     1     -33.516  17.844  -4.821  1.00 20.00     0.020 C 
HETATM    6  C6  UNL     1     -32.852  14.172  -3.729  1.00 20.00     0.026 C 
HETATM    7  C7  UNL     1     -35.277  13.535  -4.033  1.00 20.00     0.026 C 
HETATM    8  O9  UNL     1     -34.113  15.156  -6.589  1.00 20.00    -0.297 OA
ENDROOT
BRANCH   3   9
HETATM    9  O10 UNL     1     -33.925  16.449  -2.285  1.00 20.00    -0.389 OA
HETATM   10  C8  UNL     1     -34.694  16.515  -1.099  1.00 20.00     0.202 C 
ENDBRANCH   3   9
TORSDOF 1
ENDMDL
MODEL 7
REMARK VINA RESULT:      -3.8      1.624      3.140
REMARK  1 active torsions:
REMARK  status: ('A' for Active; 'I' for Inactive)
REMARK    1  A    between atoms: C3_3  and  O10_10 
ROOT
HETATM    1  C1  UNL     1     -34.284  15.177  -5.862  1.00 20.00     0.143 C 
HETATM    2  C2  UNL     1     -34.072  14.381  -4.562  1.00 20.00     0.082 C 
HETATM    3  C3  UNL     1     -34.201  15.727  -3.785  1.00 20.00     0.146 C 
HETATM    4  C4  UNL     1     -34.567  16.500  -5.102  1.00 20.00     0.040 C 
HETATM    5  C5  UNL     1     -35.105  13.299  -4.300  1.00 20.00     0.020 C 
HETATM    6  C6  UNL     1     -36.017  16.963  -5.230  1.00 20.00     0.026 C 
HETATM    7  C7  UNL     1     -33.588  17.621  -5.444  1.00 20.00     0.026 C 
HETATM    8  O9  UNL     1     -34.252  14.875  -7.037  1.00 20.00    -0.297 OA
ENDROOT
BRANCH   3   9
HETATM    9  O10 UNL     1     -35.177  15.761  -2.725  1.00 20.00    -0.389 OA
HETATM   10  C8  UNL     1     -34.616  16.300  -1.544  1.00 20.00     0.202 C 
ENDBRANCH   3   9
TORSDOF 1
ENDMDL
MODEL 8
REMARK VINA RESULT:      -3.7      1.867      3.681
REMARK  1 active torsions:
REMARK  status: ('A' for Active; 'I' for Inactive)
REMARK    1  A    between atoms: C3_3  and  O10_10 
ROOT
HETATM    1  C1  UNL     1     -33.827  17.542  -3.204  1.00 20.00     0.143 C 
HETATM    2  C2  UNL     1     -33.384  16.415  -4.153  1.00 20.00     0.082 C 
HETATM    3  C3  UNL     1     -34.328  15.458  -3.362  1.00 20.00     0.146 C 
HETATM    4  C4  UNL     1     -34.884  16.648  -2.503  1.00 20.00     0.040 C 
HETATM    5  C5  UNL     1     -33.680  16.663  -5.622  1.00 20.00     0.020 C 
HETATM    6  C6  UNL     1     -36.319  17.078  -2.797  1.00 20.00     0.026 C 
HETATM    7  C7  UNL     1     -34.644  16.483  -1.004  1.00 20.00     0.026 C 
HETATM    8  O9  UNL     1     -33.484  18.699  -3.068  1.00 20.00    -0.297 OA
ENDROOT
BRANCH   3   9
HETATM    9  O10 UNL     1     -35.290  14.722  -4.143  1.00 20.00    -0.389 OA
HETATM   10  C8  UNL     1     -34.973  13.344  -4.161  1.00 20.00     0.202 C 
ENDBRANCH   3   9
TORSDOF 1
ENDMDL
MODEL 9
REMARK VINA RESULT:      -3.7      1.628      3.023
REMARK  1 active torsions:
REMARK  status: ('A' for Active; 'I' for Inactive)
REMARK    1  A    between atoms: C3_3  and  O10_10 
ROOT
HETATM    1  C1  UNL     1     -33.745  16.178  -3.295  1.00 20.00     0.143 C 
HETATM    2  C2  UNL     1     -33.553  16.935  -4.622  1.00 20.00     0.082 C 
HETATM    3  C3  UNL     1     -33.928  15.613  -5.361  1.00 20.00     0.146 C 
HETATM    4  C4  UNL     1     -34.267  14.901  -4.003  1.00 20.00     0.040 C 
HETATM    5  C5  UNL     1     -34.457  18.141  -4.805  1.00 20.00     0.020 C 
HETATM    6  C6  UNL     1     -35.747  14.632  -3.735  1.00 20.00     0.026 C 
HETATM    7  C7  UNL     1     -33.415  13.663  -3.735  1.00 20.00     0.026 C 
HETATM    8  O9  UNL     1     -33.564  16.478  -2.133  1.00 20.00    -0.297 OA
ENDROOT
BRANCH   3   9
HETATM    9  O10 UNL     1     -34.995  15.703  -6.326  1.00 20.00    -0.389 OA
HETATM   10  C8  UNL     1     -34.685  14.959  -7.488  1.00 20.00     0.202 C 
ENDBRANCH   3   9
TORSDOF 1
ENDMDL
