MODEL 1
REMARK VINA RESULT:      -4.8      0.000      0.000
REMARK  0 active torsions:
REMARK  status: ('A' for Active; 'I' for Inactive)
ROOT
HETATM    1  C1  UNL     1     -34.323  13.816  -4.462  1.00 20.00     0.068 C 
HETATM    2  C2  UNL     1     -34.213  15.981  -1.981  1.00 20.00     0.010 A 
HETATM    3  C3  UNL     1     -34.947  16.881  -1.207  1.00 20.00     0.019 A 
HETATM    4  C4  UNL     1     -35.974  17.828  -3.198  1.00 20.00     0.026 A 
HETATM    5  C5  UNL     1     -34.365  16.020  -3.359  1.00 20.00    -0.034 A 
HETATM    6  C6  UNL     1     -35.233  16.940  -3.961  1.00 20.00    -0.049 A 
HETATM    7  C7  UNL     1     -35.822  17.798  -1.811  1.00 20.00     0.011 A 
HETATM    8  C8  UNL     1     -35.253  16.766  -5.445  1.00 20.00     0.041 C 
HETATM    9  C9  UNL     1     -33.957  15.966  -5.669  1.00 20.00     0.028 C 
HETATM   10  C10 UNL     1     -33.704  15.146  -4.386  1.00 20.00     0.126 C 
HETATM   11  N11 UNL     1     -34.812  12.765  -4.523  1.00 20.00    -0.197 NA
HETATM   12 BR12 UNL     1     -36.810  18.996  -0.733  1.00 20.00    -0.051 Br
ENDROOT
TORSDOF 0
ENDMDL
MODEL 2
REMARK VINA RESULT:      -4.8      1.657      2.590
REMARK  0 active torsions:
REMARK  status: ('A' for Active; 'I' for Inactive)
ROOT
HETATM    1  C1  UNL     1     -34.938  14.959  -6.316  1.00 20.00     0.068 C 
HETATM    2  C2  UNL     1     -36.425  16.506  -3.817  1.00 20.00     0.010 A 
HETATM    3  C3  UNL     1     -36.242  17.305  -2.686  1.00 20.00     0.019 A 
HETATM    4  C4  UNL     1     -34.417  15.888  -1.925  1.00 20.00     0.026 A 
HETATM    5  C5  UNL     1     -35.603  15.402  -3.985  1.00 20.00    -0.034 A 
HETATM    6  C6  UNL     1     -34.613  15.094  -3.043  1.00 20.00    -0.049 A 
HETATM    7  C7  UNL     1     -35.245  16.998  -1.747  1.00 20.00     0.011 A 
HETATM    8  C8  UNL     1     -33.836  13.886  -3.458  1.00 20.00     0.041 C 
HETATM    9  C9  UNL     1     -34.787  13.263  -4.496  1.00 20.00     0.028 C 
HETATM   10  C10 UNL     1     -35.597  14.419  -5.120  1.00 20.00     0.126 C 
HETATM   11  N11 UNL     1     -34.417  15.385  -7.262  1.00 20.00    -0.197 NA
HETATM   12 BR12 UNL     1     -35.016  18.106  -0.232  1.00 20.00    -0.051 Br
ENDROOT
TORSDOF 0
ENDMDL
MODEL 3
REMARK VINA RESULT:      -4.7      3.848      5.508
REMARK  0 active torsions:
REMARK  status: ('A' for Active; 'I' for Inactive)
ROOT
HETATM    1  C1  UNL     1     -34.641  16.815  -1.446  1.00 20.00     0.068 C 
HETATM    2  C2  UNL     1     -32.457  18.905  -0.137  1.00 20.00     0.010 A 
HETATM    3  C3  UNL     1     -31.591  19.143   0.932  1.00 20.00     0.019 A 
HETATM    4  C4  UNL     1     -33.309  18.501   2.529  1.00 20.00     0.026 A 
HETATM    5  C5  UNL     1     -33.745  18.472   0.143  1.00 20.00    -0.034 A 
HETATM    6  C6  UNL     1     -34.167  18.278   1.464  1.00 20.00    -0.049 A 
HETATM    7  C7  UNL     1     -32.013  18.942   2.255  1.00 20.00     0.011 A 
HETATM    8  C8  UNL     1     -35.575  17.778   1.509  1.00 20.00     0.041 C 
HETATM    9  C9  UNL     1     -36.068  18.151   0.100  1.00 20.00     0.028 C 
HETATM   10  C10 UNL     1     -34.837  18.133  -0.831  1.00 20.00     0.126 C 
HETATM   11  N11 UNL     1     -34.486  15.772  -1.932  1.00 20.00    -0.197 NA
HETATM   12 BR12 UNL     1     -30.811  19.263   3.679  1.00 20.00    -0.051 Br
ENDROOT
TORSDOF 0
ENDMDL
MODEL 4
REMARK VINA RESULT:      -4.6      2.072      2.158
REMARK  0 active torsions:
REMARK  status: ('A' for Active; 'I' for Inactive)
ROOT
HETATM    1  C1  UNL     1     -37.281  14.462  -4.149  1.00 20.00     0.068 C 
HETATM    2  C2  UNL     1     -34.820  15.493  -2.216  1.00 20.00     0.010 A 
HETATM    3  C3  UNL     1     -34.228  16.596  -1.599  1.00 20.00     0.019 A 
HETATM    4  C4  UNL     1     -34.372  17.884  -3.657  1.00 20.00     0.026 A 
HETATM    5  C5  UNL     1     -35.177  15.599  -3.552  1.00 20.00    -0.034 A 
HETATM    6  C6  UNL     1     -34.949  16.781  -4.266  1.00 20.00    -0.049 A 
HETATM    7  C7  UNL     1     -34.006  17.783  -2.313  1.00 20.00     0.011 A 
HETATM    8  C8  UNL     1     -35.448  16.665  -5.670  1.00 20.00     0.041 C 
HETATM    9  C9  UNL     1     -35.560  15.138  -5.820  1.00 20.00     0.028 C 
HETATM   10  C10 UNL     1     -35.841  14.563  -4.415  1.00 20.00     0.126 C 
HETATM   11  N11 UNL     1     -38.420  14.381  -3.939  1.00 20.00    -0.197 NA
HETATM   12 BR12 UNL     1     -33.211  19.263  -1.445  1.00 20.00    -0.051 Br
ENDROOT
TORSDOF 0
ENDMDL
MODEL 5
REMARK VINA RESULT:      -4.6      1.933      2.124
REMARK  0 active torsions:
REMARK  status: ('A' for Active; 'I' for Inactive)
ROOT
HETATM    1  C1  UNL     1     -35.853  15.759  -5.040  1.00 20.00     0.068 C 
HETATM    2  C2  UNL     1     -34.733  15.860  -1.944  1.00 20.00     0.010 A 
HETATM    3  C3  UNL     1     -34.536  16.662  -0.818  1.00 20.00     0.019 A 
HETATM    4  C4  UNL     1     -33.590  18.435  -2.189  1.00 20.00     0.026 A 
HETATM    5  C5  UNL     1     -34.350  16.356  -3.181  1.00 20.00    -0.034 A 
HETATM    6  C6  UNL     1     -33.778  17.629  -3.300  1.00 20.00    -0.049 A 
HETATM    7  C7  UNL     1     -33.969  17.940  -0.939  1.00 20.00     0.011 A 
HETATM    8  C8  UNL     1     -33.483  17.953  -4.729  1.00 20.00     0.041 C 
HETATM    9  C9  UNL     1     -33.513  16.552  -5.364  1.00 20.00     0.028 C 
HETATM   10  C10 UNL     1     -34.481  15.693  -4.523  1.00 20.00     0.126 C 
HETATM   11  N11 UNL     1     -36.938  15.811  -5.450  1.00 20.00    -0.197 NA
HETATM   12 BR12 UNL     1     -33.725  19.005   0.604  1.00 20.00    -0.051 Br
ENDROOT
TORSDOF 0
ENDMDL
MODEL 6
REMARK VINA RESULT:      -4.6      2.067      2.271
REMARK  0 active torsions:
REMARK  status: ('A' for Active; 'I' for Inactive)
ROOT
HETATM    1  C1  UNL     1     -36.483  15.136  -6.061  1.00 20.00     0.068 C 
HETATM    2  C2  UNL     1     -35.027  15.113  -3.106  1.00 20.00     0.010 A 
HETATM    3  C3  UNL     1     -34.641  15.885  -2.008  1.00 20.00     0.019 A 
HETATM    4  C4  UNL     1     -33.703  17.584  -3.474  1.00 20.00     0.026 A 
HETATM    5  C5  UNL     1     -34.740  15.586  -4.378  1.00 20.00    -0.034 A 
HETATM    6  C6  UNL     1     -34.078  16.807  -4.558  1.00 20.00    -0.049 A 
HETATM    7  C7  UNL     1     -33.984  17.111  -2.191  1.00 20.00     0.011 A 
HETATM    8  C8  UNL     1     -33.915  17.118  -6.011  1.00 20.00     0.041 C 
HETATM    9  C9  UNL     1     -34.133  15.730  -6.639  1.00 20.00     0.028 C 
HETATM   10  C10 UNL     1     -35.073  14.949  -5.697  1.00 20.00     0.126 C 
HETATM   11  N11 UNL     1     -37.598  15.283  -6.349  1.00 20.00    -0.197 NA
HETATM   12 BR12 UNL     1     -33.483  18.137  -0.684  1.00 20.00    -0.051 Br
ENDROOT
TORSDOF 0
ENDMDL
MODEL 7
REMARK VINA RESULT:      -4.5      3.060      4.274
REMARK  0 active torsions:
REMARK  status: ('A' for Active; 'I' for Inactive)
ROOT
HETATM    1  C1  UNL     1     -33.934  16.330  -2.161  1.00 20.00     0.068 C 
HETATM    2  C2  UNL     1     -34.876  17.085  -5.226  1.00 20.00     0.010 A 
HETATM    3  C3  UNL     1     -35.819  16.852  -6.230  1.00 20.00     0.019 A 
HETATM    4  C4  UNL     1     -35.655  14.449  -5.891  1.00 20.00     0.026 A 
HETATM    5  C5  UNL     1     -34.329  15.992  -4.570  1.00 20.00    -0.034 A 
HETATM    6  C6  UNL     1     -34.712  14.687  -4.905  1.00 20.00    -0.049 A 
HETATM    7  C7  UNL     1     -36.206  15.544  -6.559  1.00 20.00     0.011 A 
HETATM    8  C8  UNL     1     -34.016  13.686  -4.040  1.00 20.00     0.041 C 
HETATM    9  C9  UNL     1     -32.848  14.526  -3.493  1.00 20.00     0.028 C 
HETATM   10  C10 UNL     1     -33.324  15.993  -3.453  1.00 20.00     0.126 C 
HETATM   11  N11 UNL     1     -34.415  16.597  -1.139  1.00 20.00    -0.197 NA
HETATM   12 BR12 UNL     1     -37.493  15.264  -7.916  1.00 20.00    -0.051 Br
ENDROOT
TORSDOF 0
ENDMDL
MODEL 8
REMARK VINA RESULT:      -4.5      3.229      4.485
REMARK  0 active torsions:
REMARK  status: ('A' for Active; 'I' for Inactive)
ROOT
HETATM    1  C1  UNL     1     -33.248  18.327  -1.051  1.00 20.00     0.068 C 
HETATM    2  C2  UNL     1     -33.353  15.631  -2.940  1.00 20.00     0.010 A 
HETATM    3  C3  UNL     1     -33.691  15.117  -4.194  1.00 20.00     0.019 A 
HETATM    4  C4  UNL     1     -35.825  16.282  -4.148  1.00 20.00     0.026 A 
HETATM    5  C5  UNL     1     -34.262  16.461  -2.302  1.00 20.00    -0.034 A 
HETATM    6  C6  UNL     1     -35.488  16.778  -2.899  1.00 20.00    -0.049 A 
HETATM    7  C7  UNL     1     -34.917  15.441  -4.794  1.00 20.00     0.011 A 
HETATM    8  C8  UNL     1     -36.277  17.713  -2.039  1.00 20.00     0.041 C 
HETATM    9  C9  UNL     1     -35.579  17.527  -0.680  1.00 20.00     0.028 C 
HETATM   10  C10 UNL     1     -34.113  17.143  -0.972  1.00 20.00     0.126 C 
HETATM   11  N11 UNL     1     -32.564  19.263  -1.112  1.00 20.00    -0.197 NA
HETATM   12 BR12 UNL     1     -35.340  14.738  -6.498  1.00 20.00    -0.051 Br
ENDROOT
TORSDOF 0
ENDMDL
MODEL 9
REMARK VINA RESULT:      -4.5      4.260      5.679
REMARK  0 active torsions:
REMARK  status: ('A' for Active; 'I' for Inactive)
ROOT
HETATM    1  C1  UNL     1     -35.999  18.477  -1.038  1.00 20.00     0.068 C 
HETATM    2  C2  UNL     1     -35.460  17.613   2.094  1.00 20.00     0.010 A 
HETATM    3  C3  UNL     1     -34.918  18.007   3.319  1.00 20.00     0.019 A 
HETATM    4  C4  UNL     1     -32.889  18.783   2.224  1.00 20.00     0.026 A 
HETATM    5  C5  UNL     1     -34.704  17.804   0.947  1.00 20.00    -0.034 A 
HETATM    6  C6  UNL     1     -33.428  18.378   1.014  1.00 20.00    -0.049 A 
HETATM    7  C7  UNL     1     -33.642  18.588   3.384  1.00 20.00     0.011 A 
HETATM    8  C8  UNL     1     -32.829  18.512  -0.348  1.00 20.00     0.041 C 
HETATM    9  C9  UNL     1     -33.697  17.530  -1.154  1.00 20.00     0.028 C 
HETATM   10  C10 UNL     1     -35.081  17.482  -0.471  1.00 20.00     0.126 C 
HETATM   11  N11 UNL     1     -36.726  19.263  -1.488  1.00 20.00    -0.197 NA
HETATM   12 BR12 UNL     1     -32.942  19.122   5.057  1.00 20.00    -0.051 Br
ENDROOT
TORSDOF 0
ENDMDL
