MODEL 1
REMARK VINA RESULT:      -4.2      0.000      0.000
REMARK  0 active torsions:
REMARK  status: ('A' for Active; 'I' for Inactive)
ROOT
HETATM    1  C1  UNL     1     -32.776  14.742  -3.691  1.00 20.00     0.007 C 
HETATM    2  C2  UNL     1     -33.268  16.018  -4.389  1.00 20.00     0.027 C 
HETATM    3  C3  UNL     1     -34.491  13.377  -4.893  1.00 20.00     0.027 C 
HETATM    4  C4  UNL     1     -35.105  15.022  -3.261  1.00 20.00     0.032 C 
HETATM    5  C5  UNL     1     -34.067  13.924  -3.514  1.00 20.00    -0.011 C 
HETATM    6  C6  UNL     1     -35.054  14.625  -5.596  1.00 20.00     0.106 C 
HETATM    7  C7  UNL     1     -34.774  15.746  -4.570  1.00 20.00     0.054 C 
HETATM    8 CL8  UNL     1     -34.340  14.890  -7.197  1.00 20.00    -0.123 Cl
HETATM    9 CL9  UNL     1     -35.713  17.205  -4.847  1.00 20.00    -0.118 Cl
ENDROOT
TORSDOF 0
ENDMDL
MODEL 2
REMARK VINA RESULT:      -4.2     12.142     13.083
REMARK  0 active torsions:
REMARK  status: ('A' for Active; 'I' for Inactive)
ROOT
HETATM    1  C1  UNL     1     -42.325   5.365   0.588  1.00 20.00     0.007 C 
HETATM    2  C2  UNL     1     -42.866   4.407  -0.483  1.00 20.00     0.027 C 
HETATM    3  C3  UNL     1     -41.357   6.851  -1.174  1.00 20.00     0.027 C 
HETATM    4  C4  UNL     1     -40.523   4.635  -0.793  1.00 20.00     0.032 C 
HETATM    5  C5  UNL     1     -41.012   5.872  -0.032  1.00 20.00    -0.011 C 
HETATM    6  C6  UNL     1     -41.840   5.910  -2.293  1.00 20.00     0.106 C 
HETATM    7  C7  UNL     1     -41.816   4.526  -1.606  1.00 20.00     0.054 C 
HETATM    8 CL8  UNL     1     -43.417   6.384  -2.951  1.00 20.00    -0.123 Cl
HETATM    9 CL9  UNL     1     -41.852   3.179  -2.732  1.00 20.00    -0.118 Cl
ENDROOT
TORSDOF 0
ENDMDL
MODEL 3
REMARK VINA RESULT:      -4.1      1.033      2.627
REMARK  0 active torsions:
REMARK  status: ('A' for Active; 'I' for Inactive)
ROOT
HETATM    1  C1  UNL     1     -35.840  15.036  -3.503  1.00 20.00     0.007 C 
HETATM    2  C2  UNL     1     -35.846  15.485  -4.972  1.00 20.00     0.027 C 
HETATM    3  C3  UNL     1     -33.388  15.493  -3.333  1.00 20.00     0.027 C 
HETATM    4  C4  UNL     1     -34.253  13.743  -4.725  1.00 20.00     0.032 C 
HETATM    5  C5  UNL     1     -34.457  14.380  -3.347  1.00 20.00    -0.011 C 
HETATM    6  C6  UNL     1     -33.322  15.919  -4.811  1.00 20.00     0.106 C 
HETATM    7  C7  UNL     1     -34.443  15.074  -5.458  1.00 20.00     0.054 C 
HETATM    8 CL8  UNL     1     -33.495  17.670  -5.027  1.00 20.00    -0.123 Cl
HETATM    9 CL9  UNL     1     -34.322  14.962  -7.207  1.00 20.00    -0.118 Cl
ENDROOT
TORSDOF 0
ENDMDL
MODEL 4
REMARK VINA RESULT:      -4.1      1.571      2.755
REMARK  0 active torsions:
REMARK  status: ('A' for Active; 'I' for Inactive)
ROOT
HETATM    1  C1  UNL     1     -36.379  14.358  -4.266  1.00 20.00     0.007 C 
HETATM    2  C2  UNL     1     -35.954  15.804  -4.557  1.00 20.00     0.027 C 
HETATM    3  C3  UNL     1     -34.058  13.781  -3.538  1.00 20.00     0.027 C 
HETATM    4  C4  UNL     1     -34.563  14.346  -5.812  1.00 20.00     0.032 C 
HETATM    5  C5  UNL     1     -35.123  13.548  -4.630  1.00 20.00    -0.011 C 
HETATM    6  C6  UNL     1     -33.562  15.205  -3.845  1.00 20.00     0.106 C 
HETATM    7  C7  UNL     1     -34.487  15.643  -5.002  1.00 20.00     0.054 C 
HETATM    8 CL8  UNL     1     -33.599  16.265  -2.424  1.00 20.00    -0.123 Cl
HETATM    9 CL9  UNL     1     -33.883  17.025  -5.904  1.00 20.00    -0.118 Cl
ENDROOT
TORSDOF 0
ENDMDL
MODEL 5
REMARK VINA RESULT:      -4.1     12.432     13.299
REMARK  0 active torsions:
REMARK  status: ('A' for Active; 'I' for Inactive)
ROOT
HETATM    1  C1  UNL     1     -40.643   6.210  -0.233  1.00 20.00     0.007 C 
HETATM    2  C2  UNL     1     -40.678   4.785  -0.805  1.00 20.00     0.027 C 
HETATM    3  C3  UNL     1     -43.142   6.305  -0.215  1.00 20.00     0.027 C 
HETATM    4  C4  UNL     1     -41.897   6.209  -2.262  1.00 20.00     0.032 C 
HETATM    5  C5  UNL     1     -41.871   6.873  -0.881  1.00 20.00    -0.011 C 
HETATM    6  C6  UNL     1     -43.242   4.894  -0.823  1.00 20.00     0.106 C 
HETATM    7  C7  UNL     1     -41.953   4.798  -1.670  1.00 20.00     0.054 C 
HETATM    8 CL8  UNL     1     -43.416   3.629   0.407  1.00 20.00    -0.123 Cl
HETATM    9 CL9  UNL     1     -41.990   3.512  -2.867  1.00 20.00    -0.118 Cl
ENDROOT
TORSDOF 0
ENDMDL
MODEL 6
REMARK VINA RESULT:      -4.0      1.302      2.510
REMARK  0 active torsions:
REMARK  status: ('A' for Active; 'I' for Inactive)
ROOT
HETATM    1  C1  UNL     1     -33.390  13.784  -3.793  1.00 20.00     0.007 C 
HETATM    2  C2  UNL     1     -34.361  13.864  -4.980  1.00 20.00     0.027 C 
HETATM    3  C3  UNL     1     -34.583  15.655  -2.641  1.00 20.00     0.027 C 
HETATM    4  C4  UNL     1     -33.365  15.999  -4.678  1.00 20.00     0.032 C 
HETATM    5  C5  UNL     1     -33.270  15.251  -3.344  1.00 20.00    -0.011 C 
HETATM    6  C6  UNL     1     -35.564  15.811  -3.818  1.00 20.00     0.106 C 
HETATM    7  C7  UNL     1     -34.714  15.364  -5.028  1.00 20.00     0.054 C 
HETATM    8 CL8  UNL     1     -37.063  14.893  -3.585  1.00 20.00    -0.123 Cl
HETATM    9 CL9  UNL     1     -35.372  15.870  -6.577  1.00 20.00    -0.118 Cl
ENDROOT
TORSDOF 0
ENDMDL
MODEL 7
REMARK VINA RESULT:      -4.0      1.429      1.701
REMARK  0 active torsions:
REMARK  status: ('A' for Active; 'I' for Inactive)
ROOT
HETATM    1  C1  UNL     1     -33.761  13.639  -3.816  1.00 20.00     0.007 C 
HETATM    2  C2  UNL     1     -34.063  14.999  -3.170  1.00 20.00     0.027 C 
HETATM    3  C3  UNL     1     -34.584  14.465  -6.028  1.00 20.00     0.027 C 
HETATM    4  C4  UNL     1     -36.059  14.178  -4.160  1.00 20.00     0.032 C 
HETATM    5  C5  UNL     1     -34.880  13.497  -4.863  1.00 20.00    -0.011 C 
HETATM    6  C6  UNL     1     -34.943  15.837  -5.430  1.00 20.00     0.106 C 
HETATM    7  C7  UNL     1     -35.289  15.488  -3.965  1.00 20.00     0.054 C 
HETATM    8 CL8  UNL     1     -33.645  17.029  -5.621  1.00 20.00    -0.123 Cl
HETATM    9 CL9  UNL     1     -36.196  16.743  -3.136  1.00 20.00    -0.118 Cl
ENDROOT
TORSDOF 0
ENDMDL
MODEL 8
REMARK VINA RESULT:      -3.9      1.579      2.075
REMARK  0 active torsions:
REMARK  status: ('A' for Active; 'I' for Inactive)
ROOT
HETATM    1  C1  UNL     1     -33.686  16.669  -4.320  1.00 20.00     0.007 C 
HETATM    2  C2  UNL     1     -35.127  16.297  -4.699  1.00 20.00     0.027 C 
HETATM    3  C3  UNL     1     -33.246  14.334  -3.544  1.00 20.00     0.027 C 
HETATM    4  C4  UNL     1     -34.792  15.771  -2.408  1.00 20.00     0.032 C 
HETATM    5  C5  UNL     1     -33.417  15.796  -3.082  1.00 20.00    -0.011 C 
HETATM    6  C6  UNL     1     -34.689  13.909  -3.868  1.00 20.00     0.106 C 
HETATM    7  C7  UNL     1     -35.483  15.218  -3.658  1.00 20.00     0.054 C 
HETATM    8 CL8  UNL     1     -34.847  13.198  -5.485  1.00 20.00    -0.123 Cl
HETATM    9 CL9  UNL     1     -37.213  14.972  -3.481  1.00 20.00    -0.118 Cl
ENDROOT
TORSDOF 0
ENDMDL
MODEL 9
REMARK VINA RESULT:      -3.9      1.984      3.031
REMARK  0 active torsions:
REMARK  status: ('A' for Active; 'I' for Inactive)
ROOT
HETATM    1  C1  UNL     1     -34.277  15.305  -7.055  1.00 20.00     0.007 C 
HETATM    2  C2  UNL     1     -35.099  14.289  -6.248  1.00 20.00     0.027 C 
HETATM    3  C3  UNL     1     -33.243  16.191  -4.959  1.00 20.00     0.027 C 
HETATM    4  C4  UNL     1     -35.578  16.465  -5.427  1.00 20.00     0.032 C 
HETATM    5  C5  UNL     1     -34.210  16.521  -6.115  1.00 20.00    -0.011 C 
HETATM    6  C6  UNL     1     -34.067  15.222  -4.091  1.00 20.00     0.106 C 
HETATM    7  C7  UNL     1     -35.355  15.035  -4.924  1.00 20.00     0.054 C 
HETATM    8 CL8  UNL     1     -33.196  13.722  -3.726  1.00 20.00    -0.123 Cl
HETATM    9 CL9  UNL     1     -36.698  14.373  -4.006  1.00 20.00    -0.118 Cl
ENDROOT
TORSDOF 0
ENDMDL
