MODEL 1
REMARK VINA RESULT:      -4.2      0.000      0.000
REMARK  1 active torsions:
REMARK  status: ('A' for Active; 'I' for Inactive)
REMARK       I    between atoms: C1_1  and  N5_5 
REMARK    1  A    between atoms: C4_4  and  N5_5 
ROOT
HETATM    1  C1  UNL     1     -33.284   6.177   3.464  1.00 20.00     0.314 C 
HETATM    2  N5  UNL     1     -33.797   6.151   4.760  1.00 20.00    -0.343 N 
HETATM    3  O6  UNL     1     -33.765   5.526   2.539  1.00 20.00    -0.254 OA
HETATM    4 CL7  UNL     1     -31.900   7.230   3.317  1.00 20.00    -0.020 Cl
HETATM    5  H13 UNL     1     -33.338   6.722   5.474  1.00 20.00     0.164 HD
ENDROOT
BRANCH   2   6
HETATM    6  C4  UNL     1     -34.920   5.373   5.143  1.00 20.00     0.085 A 
HETATM    7  C2  UNL     1     -34.806   3.889   5.351  1.00 20.00     0.027 A 
HETATM    8  C3  UNL     1     -35.033   4.793   6.526  1.00 20.00     0.027 A 
ENDBRANCH   2   6
TORSDOF 1
ENDMDL
MODEL 2
REMARK VINA RESULT:      -3.9      1.173      1.415
REMARK  1 active torsions:
REMARK  status: ('A' for Active; 'I' for Inactive)
REMARK       I    between atoms: C1_1  and  N5_5 
REMARK    1  A    between atoms: C4_4  and  N5_5 
ROOT
HETATM    1  C1  UNL     1     -32.530   6.562   3.188  1.00 20.00     0.314 C 
HETATM    2  N5  UNL     1     -33.555   6.531   4.132  1.00 20.00    -0.343 N 
HETATM    3  O6  UNL     1     -31.830   5.586   2.926  1.00 20.00    -0.254 OA
HETATM    4 CL7  UNL     1     -32.364   8.128   2.437  1.00 20.00    -0.020 Cl
HETATM    5  H13 UNL     1     -34.092   7.387   4.292  1.00 20.00     0.164 HD
ENDROOT
BRANCH   2   6
HETATM    6  C4  UNL     1     -33.894   5.375   4.883  1.00 20.00     0.085 A 
HETATM    7  C2  UNL     1     -34.697   5.478   6.150  1.00 20.00     0.027 A 
HETATM    8  C3  UNL     1     -35.306   4.860   4.926  1.00 20.00     0.027 A 
ENDBRANCH   2   6
TORSDOF 1
ENDMDL
MODEL 3
REMARK VINA RESULT:      -3.9      2.390      3.650
REMARK  1 active torsions:
REMARK  status: ('A' for Active; 'I' for Inactive)
REMARK       I    between atoms: C1_1  and  N5_5 
REMARK    1  A    between atoms: C4_4  and  N5_5 
ROOT
HETATM    1  C1  UNL     1     -34.974   5.183   4.793  1.00 20.00     0.314 C 
HETATM    2  N5  UNL     1     -33.730   5.809   4.721  1.00 20.00    -0.343 N 
HETATM    3  O6  UNL     1     -35.815   5.259   3.901  1.00 20.00    -0.254 OA
HETATM    4 CL7  UNL     1     -35.186   4.293   6.279  1.00 20.00    -0.020 Cl
HETATM    5  H13 UNL     1     -33.085   5.697   5.507  1.00 20.00     0.164 HD
ENDROOT
BRANCH   2   6
HETATM    6  C4  UNL     1     -33.311   6.594   3.616  1.00 20.00     0.085 A 
HETATM    7  C2  UNL     1     -31.952   7.238   3.589  1.00 20.00     0.027 A 
HETATM    8  C3  UNL     1     -32.259   6.099   2.662  1.00 20.00     0.027 A 
ENDBRANCH   2   6
TORSDOF 1
ENDMDL
MODEL 4
REMARK VINA RESULT:      -3.4     12.605     12.801
REMARK  1 active torsions:
REMARK  status: ('A' for Active; 'I' for Inactive)
REMARK       I    between atoms: C1_1  and  N5_5 
REMARK    1  A    between atoms: C4_4  and  N5_5 
ROOT
HETATM    1  C1  UNL     1     -34.926  13.840  -5.153  1.00 20.00     0.314 C 
HETATM    2  N5  UNL     1     -34.717  15.031  -4.460  1.00 20.00    -0.343 N 
HETATM    3  O6  UNL     1     -34.852  12.734  -4.623  1.00 20.00    -0.254 OA
HETATM    4 CL7  UNL     1     -35.301  14.105  -6.837  1.00 20.00    -0.020 Cl
HETATM    5  H13 UNL     1     -34.797  15.911  -4.976  1.00 20.00     0.164 HD
ENDROOT
BRANCH   2   6
HETATM    6  C4  UNL     1     -34.397  15.089  -3.079  1.00 20.00     0.085 A 
HETATM    7  C2  UNL     1     -33.658  16.262  -2.499  1.00 20.00     0.027 A 
HETATM    8  C3  UNL     1     -35.102  16.043  -2.155  1.00 20.00     0.027 A 
ENDBRANCH   2   6
TORSDOF 1
ENDMDL
MODEL 5
REMARK VINA RESULT:      -3.4      2.955      4.705
REMARK  1 active torsions:
REMARK  status: ('A' for Active; 'I' for Inactive)
REMARK       I    between atoms: C1_1  and  N5_5 
REMARK    1  A    between atoms: C4_4  and  N5_5 
ROOT
HETATM    1  C1  UNL     1     -32.961   6.283   3.179  1.00 20.00     0.314 C 
HETATM    2  N5  UNL     1     -33.153   7.560   2.653  1.00 20.00    -0.343 N 
HETATM    3  O6  UNL     1     -31.852   5.766   3.294  1.00 20.00    -0.254 OA
HETATM    4 CL7  UNL     1     -34.460   5.522   3.646  1.00 20.00    -0.020 Cl
HETATM    5  H13 UNL     1     -34.110   7.918   2.590  1.00 20.00     0.164 HD
ENDROOT
BRANCH   2   6
HETATM    6  C4  UNL     1     -32.095   8.388   2.198  1.00 20.00     0.085 A 
HETATM    7  C2  UNL     1     -31.807   8.550   0.732  1.00 20.00     0.027 A 
HETATM    8  C3  UNL     1     -32.369   9.700   1.515  1.00 20.00     0.027 A 
ENDBRANCH   2   6
TORSDOF 1
ENDMDL
MODEL 6
REMARK VINA RESULT:      -3.3     12.230     12.491
REMARK  1 active torsions:
REMARK  status: ('A' for Active; 'I' for Inactive)
REMARK       I    between atoms: C1_1  and  N5_5 
REMARK    1  A    between atoms: C4_4  and  N5_5 
ROOT
HETATM    1  C1  UNL     1     -34.287  16.561  -1.884  1.00 20.00     0.314 C 
HETATM    2  N5  UNL     1     -34.774  15.343  -2.357  1.00 20.00    -0.343 N 
HETATM    3  O6  UNL     1     -33.585  17.310  -2.559  1.00 20.00    -0.254 OA
HETATM    4 CL7  UNL     1     -34.788  16.887  -0.244  1.00 20.00    -0.020 Cl
HETATM    5  H13 UNL     1     -35.353  14.778  -1.731  1.00 20.00     0.164 HD
ENDROOT
BRANCH   2   6
HETATM    6  C4  UNL     1     -34.510  14.846  -3.659  1.00 20.00     0.085 A 
HETATM    7  C2  UNL     1     -33.525  13.732  -3.883  1.00 20.00     0.027 A 
HETATM    8  C3  UNL     1     -34.992  13.488  -4.089  1.00 20.00     0.027 A 
ENDBRANCH   2   6
TORSDOF 1
ENDMDL
MODEL 7
REMARK VINA RESULT:      -3.3     12.198     12.552
REMARK  1 active torsions:
REMARK  status: ('A' for Active; 'I' for Inactive)
REMARK       I    between atoms: C1_1  and  N5_5 
REMARK    1  A    between atoms: C4_4  and  N5_5 
ROOT
HETATM    1  C1  UNL     1     -34.481  14.889  -3.205  1.00 20.00     0.314 C 
HETATM    2  N5  UNL     1     -33.724  15.869  -2.565  1.00 20.00    -0.343 N 
HETATM    3  O6  UNL     1     -35.709  14.907  -3.242  1.00 20.00    -0.254 OA
HETATM    4 CL7  UNL     1     -33.489  13.654  -3.938  1.00 20.00    -0.020 Cl
HETATM    5  H13 UNL     1     -32.705  15.781  -2.581  1.00 20.00     0.164 HD
ENDROOT
BRANCH   2   6
HETATM    6  C4  UNL     1     -34.291  16.983  -1.893  1.00 20.00     0.085 A 
HETATM    7  C2  UNL     1     -34.704  16.894  -0.450  1.00 20.00     0.027 A 
HETATM    8  C3  UNL     1     -33.523  17.732  -0.840  1.00 20.00     0.027 A 
ENDBRANCH   2   6
TORSDOF 1
ENDMDL
MODEL 8
REMARK VINA RESULT:      -3.3     10.545     10.696
REMARK  1 active torsions:
REMARK  status: ('A' for Active; 'I' for Inactive)
REMARK       I    between atoms: C1_1  and  N5_5 
REMARK    1  A    between atoms: C4_4  and  N5_5 
ROOT
HETATM    1  C1  UNL     1     -42.477   7.273  -3.477  1.00 20.00     0.314 C 
HETATM    2  N5  UNL     1     -41.728   7.337  -2.304  1.00 20.00    -0.343 N 
HETATM    3  O6  UNL     1     -43.310   6.395  -3.694  1.00 20.00    -0.254 OA
HETATM    4 CL7  UNL     1     -42.096   8.568  -4.583  1.00 20.00    -0.020 Cl
HETATM    5  H13 UNL     1     -41.054   8.101  -2.201  1.00 20.00     0.164 HD
ENDROOT
BRANCH   2   6
HETATM    6  C4  UNL     1     -41.848   6.402  -1.244  1.00 20.00     0.085 A 
HETATM    7  C2  UNL     1     -41.033   5.138  -1.224  1.00 20.00     0.027 A 
HETATM    8  C3  UNL     1     -40.752   6.227  -0.230  1.00 20.00     0.027 A 
ENDBRANCH   2   6
TORSDOF 1
ENDMDL
MODEL 9
REMARK VINA RESULT:      -3.2     12.196     13.439
REMARK  1 active torsions:
REMARK  status: ('A' for Active; 'I' for Inactive)
REMARK       I    between atoms: C1_1  and  N5_5 
REMARK    1  A    between atoms: C4_4  and  N5_5 
ROOT
HETATM    1  C1  UNL     1     -34.524  14.489  -3.534  1.00 20.00     0.314 C 
HETATM    2  N5  UNL     1     -34.919  15.036  -4.754  1.00 20.00    -0.343 N 
HETATM    3  O6  UNL     1     -34.119  13.335  -3.417  1.00 20.00    -0.254 OA
HETATM    4 CL7  UNL     1     -34.672  15.624  -2.217  1.00 20.00    -0.020 Cl
HETATM    5  H13 UNL     1     -35.245  16.006  -4.767  1.00 20.00     0.164 HD
ENDROOT
BRANCH   2   6
HETATM    6  C4  UNL     1     -34.895  14.320  -5.979  1.00 20.00     0.085 A 
HETATM    7  C2  UNL     1     -35.856  14.642  -7.089  1.00 20.00     0.027 A 
HETATM    8  C3  UNL     1     -34.398  14.958  -7.247  1.00 20.00     0.027 A 
ENDBRANCH   2   6
TORSDOF 1
ENDMDL
