MODEL 1
REMARK VINA RESULT:      -4.5      0.000      0.000
REMARK  1 active torsions:
REMARK  status: ('A' for Active; 'I' for Inactive)
REMARK    1  A    between atoms: C1_1  and  C5_5 
ROOT
HETATM    1  C1  UNL     1     -34.150   5.869   4.090  1.00 20.00    -0.089 C 
HETATM    2  C2  UNL     1     -33.328   6.526   3.513  1.00 20.00    -0.023 C 
HETATM    3 BR6  UNL     1     -32.025   7.567   2.601  1.00 20.00     0.010 Br
ENDROOT
BRANCH   1   4
HETATM    4  C5  UNL     1     -35.133   5.086   4.778  1.00 20.00     0.066 A 
HETATM    5  C3  UNL     1     -35.053   4.974   6.277  1.00 20.00     0.018 A 
HETATM    6  C4  UNL     1     -34.709   3.792   5.421  1.00 20.00     0.018 A 
ENDBRANCH   1   4
TORSDOF 1
ENDMDL
MODEL 2
REMARK VINA RESULT:      -3.6      2.582      4.246
REMARK  1 active torsions:
REMARK  status: ('A' for Active; 'I' for Inactive)
REMARK    1  A    between atoms: C1_1  and  C5_5 
ROOT
HETATM    1  C1  UNL     1     -33.129   6.049   3.836  1.00 20.00    -0.089 C 
HETATM    2  C2  UNL     1     -33.890   5.567   4.629  1.00 20.00    -0.023 C 
HETATM    3 BR6  UNL     1     -35.094   4.804   5.886  1.00 20.00     0.010 Br
ENDROOT
BRANCH   1   4
HETATM    4  C5  UNL     1     -32.220   6.623   2.889  1.00 20.00     0.066 A 
HETATM    5  C3  UNL     1     -31.345   7.769   3.323  1.00 20.00     0.018 A 
HETATM    6  C4  UNL     1     -32.486   8.016   2.381  1.00 20.00     0.018 A 
ENDBRANCH   1   4
TORSDOF 1
ENDMDL
MODEL 3
REMARK VINA RESULT:      -3.5      2.873      4.973
REMARK  1 active torsions:
REMARK  status: ('A' for Active; 'I' for Inactive)
REMARK    1  A    between atoms: C1_1  and  C5_5 
ROOT
HETATM    1  C1  UNL     1     -32.665   7.342   2.890  1.00 20.00    -0.089 C 
HETATM    2  C2  UNL     1     -33.385   6.557   3.443  1.00 20.00    -0.023 C 
HETATM    3 BR6  UNL     1     -34.526   5.314   4.317  1.00 20.00     0.010 Br
ENDROOT
BRANCH   1   4
HETATM    4  C5  UNL     1     -31.805   8.280   2.231  1.00 20.00     0.066 A 
HETATM    5  C3  UNL     1     -32.405   9.535   1.656  1.00 20.00     0.018 A 
HETATM    6  C4  UNL     1     -31.924   8.449   0.740  1.00 20.00     0.018 A 
ENDBRANCH   1   4
TORSDOF 1
ENDMDL
MODEL 4
REMARK VINA RESULT:      -3.3     11.880     12.304
REMARK  1 active torsions:
REMARK  status: ('A' for Active; 'I' for Inactive)
REMARK    1  A    between atoms: C1_1  and  C5_5 
ROOT
HETATM    1  C1  UNL     1     -34.410  15.695  -2.587  1.00 20.00    -0.089 C 
HETATM    2  C2  UNL     1     -34.581  16.321  -1.577  1.00 20.00    -0.023 C 
HETATM    3 BR6  UNL     1     -34.853  17.311   0.023  1.00 20.00     0.010 Br
ENDROOT
BRANCH   1   4
HETATM    4  C5  UNL     1     -34.206  14.949  -3.793  1.00 20.00     0.066 A 
HETATM    5  C3  UNL     1     -34.835  13.588  -3.919  1.00 20.00     0.018 A 
HETATM    6  C4  UNL     1     -33.351  13.711  -3.744  1.00 20.00     0.018 A 
ENDBRANCH   1   4
TORSDOF 1
ENDMDL
MODEL 5
REMARK VINA RESULT:      -3.1      9.487      9.996
REMARK  1 active torsions:
REMARK  status: ('A' for Active; 'I' for Inactive)
REMARK    1  A    between atoms: C1_1  and  C5_5 
ROOT
HETATM    1  C1  UNL     1     -41.094   4.314  -1.630  1.00 20.00    -0.089 C 
HETATM    2  C2  UNL     1     -41.369   3.425  -2.388  1.00 20.00    -0.023 C 
HETATM    3 BR6  UNL     1     -41.804   2.017  -3.588  1.00 20.00     0.010 Br
ENDROOT
BRANCH   1   4
HETATM    4  C5  UNL     1     -40.767   5.375  -0.724  1.00 20.00     0.066 A 
HETATM    5  C3  UNL     1     -41.884   6.096  -0.017  1.00 20.00     0.018 A 
HETATM    6  C4  UNL     1     -41.119   6.789  -1.106  1.00 20.00     0.018 A 
ENDBRANCH   1   4
TORSDOF 1
ENDMDL
MODEL 6
REMARK VINA RESULT:      -3.1     12.151     12.618
REMARK  1 active torsions:
REMARK  status: ('A' for Active; 'I' for Inactive)
REMARK    1  A    between atoms: C1_1  and  C5_5 
ROOT
HETATM    1  C1  UNL     1     -34.607  16.059  -2.350  1.00 20.00    -0.089 C 
HETATM    2  C2  UNL     1     -34.468  15.085  -3.037  1.00 20.00    -0.023 C 
HETATM    3 BR6  UNL     1     -34.248  13.543  -4.126  1.00 20.00     0.010 Br
ENDROOT
BRANCH   1   4
HETATM    4  C5  UNL     1     -34.772  17.222  -1.529  1.00 20.00     0.066 A 
HETATM    5  C3  UNL     1     -33.600  17.712  -0.720  1.00 20.00     0.018 A 
HETATM    6  C4  UNL     1     -34.763  17.061  -0.032  1.00 20.00     0.018 A 
ENDBRANCH   1   4
TORSDOF 1
ENDMDL
MODEL 7
REMARK VINA RESULT:      -3.1     12.480     12.873
REMARK  1 active torsions:
REMARK  status: ('A' for Active; 'I' for Inactive)
REMARK    1  A    between atoms: C1_1  and  C5_5 
ROOT
HETATM    1  C1  UNL     1     -34.470  16.050  -1.983  1.00 20.00    -0.089 C 
HETATM    2  C2  UNL     1     -34.671  16.643  -0.959  1.00 20.00    -0.023 C 
HETATM    3 BR6  UNL     1     -34.990  17.582   0.662  1.00 20.00     0.010 Br
ENDROOT
BRANCH   1   4
HETATM    4  C5  UNL     1     -34.230  15.342  -3.205  1.00 20.00     0.066 A 
HETATM    5  C3  UNL     1     -32.821  14.937  -3.545  1.00 20.00     0.018 A 
HETATM    6  C4  UNL     1     -33.488  16.038  -4.314  1.00 20.00     0.018 A 
ENDBRANCH   1   4
TORSDOF 1
ENDMDL
MODEL 8
REMARK VINA RESULT:      -3.0     12.167     12.575
REMARK  1 active torsions:
REMARK  status: ('A' for Active; 'I' for Inactive)
REMARK    1  A    between atoms: C1_1  and  C5_5 
ROOT
HETATM    1  C1  UNL     1     -35.149  15.031  -3.141  1.00 20.00    -0.089 C 
HETATM    2  C2  UNL     1     -34.882  15.790  -2.250  1.00 20.00    -0.023 C 
HETATM    3 BR6  UNL     1     -34.459  16.991  -0.839  1.00 20.00     0.010 Br
ENDROOT
BRANCH   1   4
HETATM    4  C5  UNL     1     -35.469  14.125  -4.204  1.00 20.00     0.066 A 
HETATM    5  C3  UNL     1     -34.398  13.200  -4.717  1.00 20.00     0.018 A 
HETATM    6  C4  UNL     1     -34.855  14.352  -5.560  1.00 20.00     0.018 A 
ENDBRANCH   1   4
TORSDOF 1
ENDMDL
MODEL 9
REMARK VINA RESULT:      -3.0      9.700     10.067
REMARK  1 active torsions:
REMARK  status: ('A' for Active; 'I' for Inactive)
REMARK    1  A    between atoms: C1_1  and  C5_5 
ROOT
HETATM    1  C1  UNL     1     -41.575   6.836  -1.918  1.00 20.00    -0.089 C 
HETATM    2  C2  UNL     1     -42.131   7.369  -2.839  1.00 20.00    -0.023 C 
HETATM    3 BR6  UNL     1     -43.013   8.212  -4.296  1.00 20.00     0.010 Br
ENDROOT
BRANCH   1   4
HETATM    4  C5  UNL     1     -40.911   6.201  -0.818  1.00 20.00     0.066 A 
HETATM    5  C3  UNL     1     -40.718   4.709  -0.851  1.00 20.00     0.018 A 
HETATM    6  C4  UNL     1     -41.711   5.313   0.096  1.00 20.00     0.018 A 
ENDBRANCH   1   4
TORSDOF 1
ENDMDL
