MODEL 1
REMARK VINA RESULT:      -4.0      0.000      0.000
REMARK  1 active torsions:
REMARK  status: ('A' for Active; 'I' for Inactive)
REMARK    1  A    between atoms: C2_2  and  C3_3 
ROOT
HETATM    1  C1  UNL     1     -33.190   5.508   3.967  1.00 20.00     0.060 C 
HETATM    2  C2  UNL     1     -34.427   5.548   4.860  1.00 20.00     0.206 C 
HETATM    3 CL7  UNL     1     -34.200   6.807   6.116  1.00 20.00    -0.092 Cl
HETATM    4 CL8  UNL     1     -35.851   5.991   3.866  1.00 20.00    -0.092 Cl
ENDROOT
BRANCH   2   5
HETATM    5  C3  UNL     1     -34.675   4.204   5.529  1.00 20.00     0.422 C 
HETATM    6  F4  UNL     1     -33.550   3.725   6.106  1.00 20.00    -0.168 F 
HETATM    7  F5  UNL     1     -35.611   4.303   6.500  1.00 20.00    -0.168 F 
HETATM    8  F6  UNL     1     -35.104   3.275   4.645  1.00 20.00    -0.168 F 
ENDBRANCH   2   5
TORSDOF 1
ENDMDL
MODEL 2
REMARK VINA RESULT:      -4.0      1.183      2.169
REMARK  1 active torsions:
REMARK  status: ('A' for Active; 'I' for Inactive)
REMARK    1  A    between atoms: C2_2  and  C3_3 
ROOT
HETATM    1  C1  UNL     1     -35.576   6.027   4.056  1.00 20.00     0.060 C 
HETATM    2  C2  UNL     1     -34.402   5.570   4.919  1.00 20.00     0.206 C 
HETATM    3 CL7  UNL     1     -32.931   5.475   3.900  1.00 20.00    -0.092 Cl
HETATM    4 CL8  UNL     1     -34.119   6.780   6.210  1.00 20.00    -0.092 Cl
ENDROOT
BRANCH   2   5
HETATM    5  C3  UNL     1     -34.670   4.210   5.549  1.00 20.00     0.422 C 
HETATM    6  F4  UNL     1     -35.622   4.289   6.506  1.00 20.00    -0.168 F 
HETATM    7  F5  UNL     1     -35.101   3.318   4.629  1.00 20.00    -0.168 F 
HETATM    8  F6  UNL     1     -33.559   3.696   6.123  1.00 20.00    -0.168 F 
ENDBRANCH   2   5
TORSDOF 1
ENDMDL
MODEL 3
REMARK VINA RESULT:      -3.9      1.174      2.177
REMARK  1 active torsions:
REMARK  status: ('A' for Active; 'I' for Inactive)
REMARK    1  A    between atoms: C2_2  and  C3_3 
ROOT
HETATM    1  C1  UNL     1     -34.232   6.652   5.884  1.00 20.00     0.060 C 
HETATM    2  C2  UNL     1     -34.429   5.533   4.865  1.00 20.00     0.206 C 
HETATM    3 CL7  UNL     1     -35.852   5.917   3.844  1.00 20.00    -0.092 Cl
HETATM    4 CL8  UNL     1     -32.984   5.441   3.810  1.00 20.00    -0.092 Cl
ENDROOT
BRANCH   2   5
HETATM    5  C3  UNL     1     -34.645   4.190   5.547  1.00 20.00     0.422 C 
HETATM    6  F4  UNL     1     -35.621   4.261   6.480  1.00 20.00    -0.168 F 
HETATM    7  F5  UNL     1     -35.011   3.239   4.658  1.00 20.00    -0.168 F 
HETATM    8  F6  UNL     1     -33.524   3.756   6.166  1.00 20.00    -0.168 F 
ENDBRANCH   2   5
TORSDOF 1
ENDMDL
MODEL 4
REMARK VINA RESULT:      -3.7      2.314      3.253
REMARK  1 active torsions:
REMARK  status: ('A' for Active; 'I' for Inactive)
REMARK    1  A    between atoms: C2_2  and  C3_3 
ROOT
HETATM    1  C1  UNL     1     -34.402   4.008   4.902  1.00 20.00     0.060 C 
HETATM    2  C2  UNL     1     -34.505   5.483   4.522  1.00 20.00     0.206 C 
HETATM    3 CL7  UNL     1     -36.149   5.809   3.887  1.00 20.00    -0.092 Cl
HETATM    4 CL8  UNL     1     -34.256   6.483   5.988  1.00 20.00    -0.092 Cl
ENDROOT
BRANCH   2   5
HETATM    5  C3  UNL     1     -33.472   5.861   3.470  1.00 20.00     0.422 C 
HETATM    6  F4  UNL     1     -33.746   5.281   2.279  1.00 20.00    -0.168 F 
HETATM    7  F5  UNL     1     -33.443   7.197   3.266  1.00 20.00    -0.168 F 
HETATM    8  F6  UNL     1     -32.226   5.479   3.830  1.00 20.00    -0.168 F 
ENDBRANCH   2   5
TORSDOF 1
ENDMDL
MODEL 5
REMARK VINA RESULT:      -3.7      2.005      2.746
REMARK  1 active torsions:
REMARK  status: ('A' for Active; 'I' for Inactive)
REMARK    1  A    between atoms: C2_2  and  C3_3 
ROOT
HETATM    1  C1  UNL     1     -35.739   5.806   4.025  1.00 20.00     0.060 C 
HETATM    2  C2  UNL     1     -34.535   5.190   4.732  1.00 20.00     0.206 C 
HETATM    3 CL7  UNL     1     -34.620   3.406   4.584  1.00 20.00    -0.092 Cl
HETATM    4 CL8  UNL     1     -33.034   5.753   3.931  1.00 20.00    -0.092 Cl
ENDROOT
BRANCH   2   5
HETATM    5  C3  UNL     1     -34.498   5.574   6.205  1.00 20.00     0.422 C 
HETATM    6  F4  UNL     1     -35.690   5.351   6.803  1.00 20.00    -0.168 F 
HETATM    7  F5  UNL     1     -33.572   4.854   6.878  1.00 20.00    -0.168 F 
HETATM    8  F6  UNL     1     -34.197   6.881   6.375  1.00 20.00    -0.168 F 
ENDBRANCH   2   5
TORSDOF 1
ENDMDL
MODEL 6
REMARK VINA RESULT:      -3.6     13.247     13.860
REMARK  1 active torsions:
REMARK  status: ('A' for Active; 'I' for Inactive)
REMARK    1  A    between atoms: C2_2  and  C3_3 
ROOT
HETATM    1  C1  UNL     1     -33.176  16.322  -4.820  1.00 20.00     0.060 C 
HETATM    2  C2  UNL     1     -34.210  15.203  -4.915  1.00 20.00     0.206 C 
HETATM    3 CL7  UNL     1     -35.781  15.806  -4.296  1.00 20.00    -0.092 Cl
HETATM    4 CL8  UNL     1     -34.419  14.745  -6.635  1.00 20.00    -0.092 Cl
ENDROOT
BRANCH   2   5
HETATM    5  C3  UNL     1     -33.785  13.982  -4.113  1.00 20.00     0.422 C 
HETATM    6  F4  UNL     1     -34.537  13.838  -2.998  1.00 20.00    -0.168 F 
HETATM    7  F5  UNL     1     -33.921  12.847  -4.836  1.00 20.00    -0.168 F 
HETATM    8  F6  UNL     1     -32.493  14.063  -3.723  1.00 20.00    -0.168 F 
ENDBRANCH   2   5
TORSDOF 1
ENDMDL
MODEL 7
REMARK VINA RESULT:      -3.6     13.417     14.009
REMARK  1 active torsions:
REMARK  status: ('A' for Active; 'I' for Inactive)
REMARK    1  A    between atoms: C2_2  and  C3_3 
ROOT
HETATM    1  C1  UNL     1     -34.996  13.292  -4.306  1.00 20.00     0.060 C 
HETATM    2  C2  UNL     1     -34.573  14.735  -4.569  1.00 20.00     0.206 C 
HETATM    3 CL7  UNL     1     -34.317  14.957  -6.330  1.00 20.00    -0.092 Cl
HETATM    4 CL8  UNL     1     -35.888  15.834  -4.046  1.00 20.00    -0.092 Cl
ENDROOT
BRANCH   2   5
HETATM    5  C3  UNL     1     -33.293  15.086  -3.824  1.00 20.00     0.422 C 
HETATM    6  F4  UNL     1     -32.523  13.992  -3.626  1.00 20.00    -0.168 F 
HETATM    7  F5  UNL     1     -32.550  15.979  -4.515  1.00 20.00    -0.168 F 
HETATM    8  F6  UNL     1     -33.551  15.625  -2.611  1.00 20.00    -0.168 F 
ENDBRANCH   2   5
TORSDOF 1
ENDMDL
MODEL 8
REMARK VINA RESULT:      -3.6     13.304     13.959
REMARK  1 active torsions:
REMARK  status: ('A' for Active; 'I' for Inactive)
REMARK    1  A    between atoms: C2_2  and  C3_3 
ROOT
HETATM    1  C1  UNL     1     -35.691  15.651  -4.593  1.00 20.00     0.060 C 
HETATM    2  C2  UNL     1     -34.350  15.075  -5.041  1.00 20.00     0.206 C 
HETATM    3 CL7  UNL     1     -34.438  14.684  -6.789  1.00 20.00    -0.092 Cl
HETATM    4 CL8  UNL     1     -33.073  16.308  -4.801  1.00 20.00    -0.092 Cl
ENDROOT
BRANCH   2   5
HETATM    5  C3  UNL     1     -33.995  13.818  -4.259  1.00 20.00     0.422 C 
HETATM    6  F4  UNL     1     -34.765  13.690  -3.155  1.00 20.00    -0.168 F 
HETATM    7  F5  UNL     1     -34.178  12.706  -5.006  1.00 20.00    -0.168 F 
HETATM    8  F6  UNL     1     -32.704  13.828  -3.855  1.00 20.00    -0.168 F 
ENDBRANCH   2   5
TORSDOF 1
ENDMDL
MODEL 9
REMARK VINA RESULT:      -3.6      2.603      3.160
REMARK  1 active torsions:
REMARK  status: ('A' for Active; 'I' for Inactive)
REMARK    1  A    between atoms: C2_2  and  C3_3 
ROOT
HETATM    1  C1  UNL     1     -35.856   5.680   4.054  1.00 20.00     0.060 C 
HETATM    2  C2  UNL     1     -34.425   5.521   4.560  1.00 20.00     0.206 C 
HETATM    3 CL7  UNL     1     -34.184   6.594   5.977  1.00 20.00    -0.092 Cl
HETATM    4 CL8  UNL     1     -34.175   3.826   5.086  1.00 20.00    -0.092 Cl
ENDROOT
BRANCH   2   5
HETATM    5  C3  UNL     1     -33.410   5.872   3.482  1.00 20.00     0.422 C 
HETATM    6  F4  UNL     1     -33.704   5.262   2.311  1.00 20.00    -0.168 F 
HETATM    7  F5  UNL     1     -33.385   7.203   3.244  1.00 20.00    -0.168 F 
HETATM    8  F6  UNL     1     -32.158   5.499   3.831  1.00 20.00    -0.168 F 
ENDBRANCH   2   5
TORSDOF 1
ENDMDL
