MODEL 1
REMARK VINA RESULT:      -5.4      0.000      0.000
REMARK  2 active torsions:
REMARK  status: ('A' for Active; 'I' for Inactive)
REMARK    1  A    between atoms: C1_1  and  C3_3 
REMARK    2  A    between atoms: C2_2  and  C5_5 
ROOT
HETATM    1  C1  UNL     1     -34.169   6.025   3.203  1.00 20.00     0.005 C 
HETATM    2  C2  UNL     1     -35.165   5.411   3.854  1.00 20.00     0.068 C 
ENDROOT
BRANCH   1   3
HETATM    3  C3  UNL     1     -32.819   6.086   3.721  1.00 20.00    -0.004 C 
HETATM    4  C4  UNL     1     -31.911   6.979   3.301  1.00 20.00    -0.031 C 
HETATM    5  C6  UNL     1     -32.186   8.009   2.253  1.00 20.00     0.036 C 
ENDBRANCH   1   3
BRANCH   2   6
HETATM    6  C5  UNL     1     -34.927   4.748   5.172  1.00 20.00     0.241 C 
HETATM    7  O7  UNL     1     -34.978   3.525   5.274  1.00 20.00    -0.275 OA
HETATM    8 CL8  UNL     1     -34.582   5.826   6.509  1.00 20.00    -0.039 Cl
ENDBRANCH   2   6
TORSDOF 2
ENDMDL
MODEL 2
REMARK VINA RESULT:      -4.8      3.056      4.306
REMARK  2 active torsions:
REMARK  status: ('A' for Active; 'I' for Inactive)
REMARK    1  A    between atoms: C1_1  and  C3_3 
REMARK    2  A    between atoms: C2_2  and  C5_5 
ROOT
HETATM    1  C1  UNL     1     -33.631   5.735   3.705  1.00 20.00     0.005 C 
HETATM    2  C2  UNL     1     -32.784   6.207   2.782  1.00 20.00     0.068 C 
ENDROOT
BRANCH   1   3
HETATM    3  C3  UNL     1     -33.860   6.403   4.968  1.00 20.00    -0.004 C 
HETATM    4  C4  UNL     1     -34.435   5.805   6.022  1.00 20.00    -0.031 C 
HETATM    5  C6  UNL     1     -34.906   4.387   6.013  1.00 20.00     0.036 C 
ENDBRANCH   1   3
BRANCH   2   6
HETATM    6  C5  UNL     1     -32.019   7.469   3.015  1.00 20.00     0.241 C 
HETATM    7  O7  UNL     1     -31.234   7.559   3.955  1.00 20.00    -0.275 OA
HETATM    8 CL8  UNL     1     -32.328   8.762   1.875  1.00 20.00    -0.039 Cl
ENDBRANCH   2   6
TORSDOF 2
ENDMDL
MODEL 3
REMARK VINA RESULT:      -4.3     11.532     12.163
REMARK  2 active torsions:
REMARK  status: ('A' for Active; 'I' for Inactive)
REMARK    1  A    between atoms: C1_1  and  C3_3 
REMARK    2  A    between atoms: C2_2  and  C5_5 
ROOT
HETATM    1  C1  UNL     1     -33.751  16.265  -3.120  1.00 20.00     0.005 C 
HETATM    2  C2  UNL     1     -33.364  15.346  -4.015  1.00 20.00     0.068 C 
ENDROOT
BRANCH   1   3
HETATM    3  C3  UNL     1     -34.599  15.946  -1.992  1.00 20.00    -0.004 C 
HETATM    4  C4  UNL     1     -34.580  16.634  -0.841  1.00 20.00    -0.031 C 
HETATM    5  C6  UNL     1     -33.683  17.804  -0.591  1.00 20.00     0.036 C 
ENDBRANCH   1   3
BRANCH   2   6
HETATM    6  C5  UNL     1     -33.796  13.922  -3.889  1.00 20.00     0.241 C 
HETATM    7  O7  UNL     1     -33.007  13.060  -3.512  1.00 20.00    -0.275 OA
HETATM    8 CL8  UNL     1     -35.466  13.599  -4.309  1.00 20.00    -0.039 Cl
ENDBRANCH   2   6
TORSDOF 2
ENDMDL
MODEL 4
REMARK VINA RESULT:      -4.3      2.708      4.183
REMARK  2 active torsions:
REMARK  status: ('A' for Active; 'I' for Inactive)
REMARK    1  A    between atoms: C1_1  and  C3_3 
REMARK    2  A    between atoms: C2_2  and  C5_5 
ROOT
HETATM    1  C1  UNL     1     -33.839   6.575   4.894  1.00 20.00     0.005 C 
HETATM    2  C2  UNL     1     -32.692   7.075   4.418  1.00 20.00     0.068 C 
ENDROOT
BRANCH   1   3
HETATM    3  C3  UNL     1     -34.716   5.741   4.102  1.00 20.00    -0.004 C 
HETATM    4  C4  UNL     1     -35.242   4.592   4.552  1.00 20.00    -0.031 C 
HETATM    5  C6  UNL     1     -34.985   4.043   5.918  1.00 20.00     0.036 C 
ENDBRANCH   1   3
BRANCH   2   6
HETATM    6  C5  UNL     1     -32.253   6.790   3.018  1.00 20.00     0.241 C 
HETATM    7  O7  UNL     1     -32.021   5.639   2.657  1.00 20.00    -0.275 OA
HETATM    8 CL8  UNL     1     -32.105   8.189   1.974  1.00 20.00    -0.039 Cl
ENDBRANCH   2   6
TORSDOF 2
ENDMDL
MODEL 5
REMARK VINA RESULT:      -4.2      1.504      1.624
REMARK  2 active torsions:
REMARK  status: ('A' for Active; 'I' for Inactive)
REMARK    1  A    between atoms: C1_1  and  C3_3 
REMARK    2  A    between atoms: C2_2  and  C5_5 
ROOT
HETATM    1  C1  UNL     1     -33.091   6.706   4.581  1.00 20.00     0.005 C 
HETATM    2  C2  UNL     1     -34.190   6.327   5.245  1.00 20.00     0.068 C 
ENDROOT
BRANCH   1   3
HETATM    3  C3  UNL     1     -32.669   6.077   3.348  1.00 20.00    -0.004 C 
HETATM    4  C4  UNL     1     -32.234   6.766   2.283  1.00 20.00    -0.031 C 
HETATM    5  C6  UNL     1     -32.136   8.256   2.245  1.00 20.00     0.036 C 
ENDBRANCH   1   3
BRANCH   2   6
HETATM    6  C5  UNL     1     -35.049   5.215   4.737  1.00 20.00     0.241 C 
HETATM    7  O7  UNL     1     -35.834   5.405   3.811  1.00 20.00    -0.275 OA
HETATM    8 CL8  UNL     1     -34.849   3.675   5.547  1.00 20.00    -0.039 Cl
ENDBRANCH   2   6
TORSDOF 2
ENDMDL
MODEL 6
REMARK VINA RESULT:      -4.2     12.304     12.381
REMARK  2 active torsions:
REMARK  status: ('A' for Active; 'I' for Inactive)
REMARK    1  A    between atoms: C1_1  and  C3_3 
REMARK    2  A    between atoms: C2_2  and  C5_5 
ROOT
HETATM    1  C1  UNL     1     -35.771  15.398  -3.132  1.00 20.00     0.005 C 
HETATM    2  C2  UNL     1     -36.173  14.423  -3.958  1.00 20.00     0.068 C 
ENDROOT
BRANCH   1   3
HETATM    3  C3  UNL     1     -34.388  15.807  -3.022  1.00 20.00    -0.004 C 
HETATM    4  C4  UNL     1     -33.889  16.428  -1.943  1.00 20.00    -0.031 C 
HETATM    5  C6  UNL     1     -34.700  16.768  -0.735  1.00 20.00     0.036 C 
ENDBRANCH   1   3
BRANCH   2   6
HETATM    6  C5  UNL     1     -35.193  13.696  -4.821  1.00 20.00     0.241 C 
HETATM    7  O7  UNL     1     -34.739  12.610  -4.472  1.00 20.00    -0.275 OA
HETATM    8 CL8  UNL     1     -34.765  14.498  -6.318  1.00 20.00    -0.039 Cl
ENDBRANCH   2   6
TORSDOF 2
ENDMDL
MODEL 7
REMARK VINA RESULT:      -4.2      3.345      4.641
REMARK  2 active torsions:
REMARK  status: ('A' for Active; 'I' for Inactive)
REMARK    1  A    between atoms: C1_1  and  C3_3 
REMARK    2  A    between atoms: C2_2  and  C5_5 
ROOT
HETATM    1  C1  UNL     1     -32.451   6.626   3.661  1.00 20.00     0.005 C 
HETATM    2  C2  UNL     1     -31.703   7.653   3.237  1.00 20.00     0.068 C 
ENDROOT
BRANCH   1   3
HETATM    3  C3  UNL     1     -33.616   6.160   2.941  1.00 20.00    -0.004 C 
HETATM    4  C4  UNL     1     -34.636   5.519   3.531  1.00 20.00    -0.031 C 
HETATM    5  C6  UNL     1     -34.688   5.214   4.992  1.00 20.00     0.036 C 
ENDBRANCH   1   3
BRANCH   2   6
HETATM    6  C5  UNL     1     -32.043   8.381   1.977  1.00 20.00     0.241 C 
HETATM    7  O7  UNL     1     -31.678   7.948   0.887  1.00 20.00    -0.275 OA
HETATM    8 CL8  UNL     1     -32.971   9.852   2.181  1.00 20.00    -0.039 Cl
ENDBRANCH   2   6
TORSDOF 2
ENDMDL
MODEL 8
REMARK VINA RESULT:      -4.0      1.425      2.185
REMARK  2 active torsions:
REMARK  status: ('A' for Active; 'I' for Inactive)
REMARK    1  A    between atoms: C1_1  and  C3_3 
REMARK    2  A    between atoms: C2_2  and  C5_5 
ROOT
HETATM    1  C1  UNL     1     -32.085   6.756   2.866  1.00 20.00     0.005 C 
HETATM    2  C2  UNL     1     -32.734   5.736   3.443  1.00 20.00     0.068 C 
ENDROOT
BRANCH   1   3
HETATM    3  C3  UNL     1     -32.586   8.113   2.891  1.00 20.00    -0.004 C 
HETATM    4  C4  UNL     1     -32.405   8.981   1.885  1.00 20.00    -0.031 C 
HETATM    5  C6  UNL     1     -31.669   8.650   0.627  1.00 20.00     0.036 C 
ENDBRANCH   1   3
BRANCH   2   6
HETATM    6  C5  UNL     1     -34.030   5.954   4.153  1.00 20.00     0.241 C 
HETATM    7  O7  UNL     1     -35.098   5.768   3.575  1.00 20.00    -0.275 OA
HETATM    8 CL8  UNL     1     -33.900   6.480   5.818  1.00 20.00    -0.039 Cl
ENDBRANCH   2   6
TORSDOF 2
ENDMDL
MODEL 9
REMARK VINA RESULT:      -4.0      2.354      3.413
REMARK  2 active torsions:
REMARK  status: ('A' for Active; 'I' for Inactive)
REMARK    1  A    between atoms: C1_1  and  C3_3 
REMARK    2  A    between atoms: C2_2  and  C5_5 
ROOT
HETATM    1  C1  UNL     1     -35.655   5.205   4.400  1.00 20.00     0.005 C 
HETATM    2  C2  UNL     1     -35.186   5.758   3.274  1.00 20.00     0.068 C 
ENDROOT
BRANCH   1   3
HETATM    3  C3  UNL     1     -34.826   4.416   5.286  1.00 20.00    -0.004 C 
HETATM    4  C4  UNL     1     -34.157   4.936   6.324  1.00 20.00    -0.031 C 
HETATM    5  C6  UNL     1     -34.187   6.386   6.686  1.00 20.00     0.036 C 
ENDBRANCH   1   3
BRANCH   2   6
HETATM    6  C5  UNL     1     -33.758   5.583   2.870  1.00 20.00     0.241 C 
HETATM    7  O7  UNL     1     -33.432   4.679   2.105  1.00 20.00    -0.275 OA
HETATM    8 CL8  UNL     1     -32.633   6.737   3.555  1.00 20.00    -0.039 Cl
ENDBRANCH   2   6
TORSDOF 2
ENDMDL
