MODEL 1
REMARK VINA RESULT:      -4.8      0.000      0.000
REMARK  0 active torsions:
REMARK  status: ('A' for Active; 'I' for Inactive)
ROOT
HETATM    1  C1  UNL     1     -33.422  13.877  -3.754  1.00 20.00     0.005 C 
HETATM    2  C2  UNL     1     -33.561  15.917  -5.274  1.00 20.00     0.005 C 
HETATM    3  C3  UNL     1     -33.633  16.206  -2.744  1.00 20.00     0.005 C 
HETATM    4  C4  UNL     1     -34.746  13.415  -4.348  1.00 20.00     0.006 C 
HETATM    5  C5  UNL     1     -34.980  16.469  -5.322  1.00 20.00     0.006 C 
HETATM    6  C6  UNL     1     -34.983  15.779  -2.182  1.00 20.00     0.006 C 
HETATM    7  C7  UNL     1     -33.106  15.369  -3.916  1.00 20.00    -0.014 C 
HETATM    8  C8  UNL     1     -35.948  14.269  -4.119  1.00 20.00    -0.006 A 
HETATM    9  C9  UNL     1     -36.054  15.686  -4.645  1.00 20.00    -0.006 A 
HETATM   10  C10 UNL     1     -36.062  15.429  -3.151  1.00 20.00    -0.006 A 
ENDROOT
TORSDOF 0
ENDMDL
MODEL 2
REMARK VINA RESULT:      -4.8      0.037      2.395
REMARK  0 active torsions:
REMARK  status: ('A' for Active; 'I' for Inactive)
ROOT
HETATM    1  C1  UNL     1     -33.647  16.233  -2.730  1.00 20.00     0.005 C 
HETATM    2  C2  UNL     1     -33.381  13.909  -3.740  1.00 20.00     0.005 C 
HETATM    3  C3  UNL     1     -33.544  15.947  -5.260  1.00 20.00     0.005 C 
HETATM    4  C4  UNL     1     -34.993  15.779  -2.182  1.00 20.00     0.006 C 
HETATM    5  C5  UNL     1     -34.692  13.423  -4.346  1.00 20.00     0.006 C 
HETATM    6  C6  UNL     1     -34.972  16.473  -5.321  1.00 20.00     0.006 C 
HETATM    7  C7  UNL     1     -33.092  15.407  -3.897  1.00 20.00    -0.014 C 
HETATM    8  C8  UNL     1     -36.057  15.412  -3.162  1.00 20.00    -0.006 A 
HETATM    9  C9  UNL     1     -35.911  14.254  -4.129  1.00 20.00    -0.006 A 
HETATM   10  C10 UNL     1     -36.039  15.671  -4.655  1.00 20.00    -0.006 A 
ENDROOT
TORSDOF 0
ENDMDL
MODEL 3
REMARK VINA RESULT:      -4.8      0.109      2.414
REMARK  0 active torsions:
REMARK  status: ('A' for Active; 'I' for Inactive)
ROOT
HETATM    1  C1  UNL     1     -33.462  15.996  -5.168  1.00 20.00     0.005 C 
HETATM    2  C2  UNL     1     -33.635  16.212  -2.635  1.00 20.00     0.005 C 
HETATM    3  C3  UNL     1     -33.342  13.916  -3.700  1.00 20.00     0.005 C 
HETATM    4  C4  UNL     1     -34.888  16.524  -5.253  1.00 20.00     0.006 C 
HETATM    5  C5  UNL     1     -34.997  15.744  -2.137  1.00 20.00     0.006 C 
HETATM    6  C6  UNL     1     -34.634  13.447  -4.356  1.00 20.00     0.006 C 
HETATM    7  C7  UNL     1     -33.048  15.418  -3.809  1.00 20.00    -0.014 C 
HETATM    8  C8  UNL     1     -35.973  15.703  -4.641  1.00 20.00    -0.006 A 
HETATM    9  C9  UNL     1     -36.031  15.404  -3.156  1.00 20.00    -0.006 A 
HETATM   10  C10 UNL     1     -35.859  14.274  -4.152  1.00 20.00    -0.006 A 
ENDROOT
TORSDOF 0
ENDMDL
MODEL 4
REMARK VINA RESULT:      -4.8      0.814      2.922
REMARK  0 active torsions:
REMARK  status: ('A' for Active; 'I' for Inactive)
ROOT
HETATM    1  C1  UNL     1     -34.470  13.344  -4.789  1.00 20.00     0.005 C 
HETATM    2  C2  UNL     1     -36.018  14.879  -3.472  1.00 20.00     0.005 C 
HETATM    3  C3  UNL     1     -35.339  15.491  -5.850  1.00 20.00     0.005 C 
HETATM    4  C4  UNL     1     -33.390  13.641  -3.757  1.00 20.00     0.006 C 
HETATM    5  C5  UNL     1     -35.281  16.127  -3.000  1.00 20.00     0.006 C 
HETATM    6  C6  UNL     1     -33.899  15.984  -5.899  1.00 20.00     0.006 C 
HETATM    7  C7  UNL     1     -35.620  14.356  -4.857  1.00 20.00    -0.014 C 
HETATM    8  C8  UNL     1     -32.905  15.047  -3.640  1.00 20.00    -0.006 A 
HETATM    9  C9  UNL     1     -33.807  16.189  -3.220  1.00 20.00    -0.006 A 
HETATM   10  C10 UNL     1     -33.186  16.183  -4.603  1.00 20.00    -0.006 A 
ENDROOT
TORSDOF 0
ENDMDL
MODEL 5
REMARK VINA RESULT:      -4.8      0.779      2.861
REMARK  0 active torsions:
REMARK  status: ('A' for Active; 'I' for Inactive)
ROOT
HETATM    1  C1  UNL     1     -36.027  14.865  -3.462  1.00 20.00     0.005 C 
HETATM    2  C2  UNL     1     -35.321  15.592  -5.800  1.00 20.00     0.005 C 
HETATM    3  C3  UNL     1     -34.515  13.365  -4.861  1.00 20.00     0.005 C 
HETATM    4  C4  UNL     1     -35.258  16.063  -2.919  1.00 20.00     0.006 C 
HETATM    5  C5  UNL     1     -33.867  16.047  -5.816  1.00 20.00     0.006 C 
HETATM    6  C6  UNL     1     -33.431  13.573  -3.811  1.00 20.00     0.006 C 
HETATM    7  C7  UNL     1     -35.637  14.411  -4.874  1.00 20.00    -0.014 C 
HETATM    8  C8  UNL     1     -33.781  16.098  -3.131  1.00 20.00    -0.006 A 
HETATM    9  C9  UNL     1     -33.156  16.153  -4.510  1.00 20.00    -0.006 A 
HETATM   10  C10 UNL     1     -32.910  14.956  -3.612  1.00 20.00    -0.006 A 
ENDROOT
TORSDOF 0
ENDMDL
MODEL 6
REMARK VINA RESULT:      -4.8      0.821      2.947
REMARK  0 active torsions:
REMARK  status: ('A' for Active; 'I' for Inactive)
ROOT
HETATM    1  C1  UNL     1     -35.355  15.539  -5.893  1.00 20.00     0.005 C 
HETATM    2  C2  UNL     1     -34.531  13.360  -4.862  1.00 20.00     0.005 C 
HETATM    3  C3  UNL     1     -36.085  14.887  -3.541  1.00 20.00     0.005 C 
HETATM    4  C4  UNL     1     -33.908  16.015  -5.905  1.00 20.00     0.006 C 
HETATM    5  C5  UNL     1     -33.466  13.624  -3.804  1.00 20.00     0.006 C 
HETATM    6  C6  UNL     1     -35.344  16.115  -3.030  1.00 20.00     0.006 C 
HETATM    7  C7  UNL     1     -35.668  14.388  -4.930  1.00 20.00    -0.014 C 
HETATM    8  C8  UNL     1     -33.218  16.180  -4.593  1.00 20.00    -0.006 A 
HETATM    9  C9  UNL     1     -32.968  15.021  -3.650  1.00 20.00    -0.006 A 
HETATM   10  C10 UNL     1     -33.865  16.167  -3.223  1.00 20.00    -0.006 A 
ENDROOT
TORSDOF 0
ENDMDL
MODEL 7
REMARK VINA RESULT:      -4.7      0.974      2.904
REMARK  0 active torsions:
REMARK  status: ('A' for Active; 'I' for Inactive)
ROOT
HETATM    1  C1  UNL     1     -35.914  16.251  -4.341  1.00 20.00     0.005 C 
HETATM    2  C2  UNL     1     -33.476  16.203  -3.601  1.00 20.00     0.005 C 
HETATM    3  C3  UNL     1     -34.062  15.997  -6.072  1.00 20.00     0.005 C 
HETATM    4  C4  UNL     1     -36.116  14.958  -3.562  1.00 20.00     0.006 C 
HETATM    5  C5  UNL     1     -32.909  14.791  -3.676  1.00 20.00     0.006 C 
HETATM    6  C6  UNL     1     -34.624  14.617  -6.389  1.00 20.00     0.006 C 
HETATM    7  C7  UNL     1     -34.463  16.582  -4.712  1.00 20.00    -0.014 C 
HETATM    8  C8  UNL     1     -35.364  13.750  -4.009  1.00 20.00    -0.006 A 
HETATM    9  C9  UNL     1     -33.850  13.678  -3.992  1.00 20.00    -0.006 A 
HETATM   10  C10 UNL     1     -34.600  13.590  -5.307  1.00 20.00    -0.006 A 
ENDROOT
TORSDOF 0
ENDMDL
MODEL 8
REMARK VINA RESULT:      -4.7      0.973      2.405
REMARK  0 active torsions:
REMARK  status: ('A' for Active; 'I' for Inactive)
ROOT
HETATM    1  C1  UNL     1     -34.046  16.002  -6.045  1.00 20.00     0.005 C 
HETATM    2  C2  UNL     1     -35.917  16.258  -4.335  1.00 20.00     0.005 C 
HETATM    3  C3  UNL     1     -33.490  16.167  -3.564  1.00 20.00     0.005 C 
HETATM    4  C4  UNL     1     -34.623  14.635  -6.388  1.00 20.00     0.006 C 
HETATM    5  C5  UNL     1     -36.147  14.956  -3.577  1.00 20.00     0.006 C 
HETATM    6  C6  UNL     1     -32.940  14.749  -3.651  1.00 20.00     0.006 C 
HETATM    7  C7  UNL     1     -34.457  16.574  -4.683  1.00 20.00    -0.014 C 
HETATM    8  C8  UNL     1     -34.624  13.592  -5.321  1.00 20.00    -0.006 A 
HETATM    9  C9  UNL     1     -35.404  13.745  -4.031  1.00 20.00    -0.006 A 
HETATM   10  C10 UNL     1     -33.891  13.652  -3.996  1.00 20.00    -0.006 A 
ENDROOT
TORSDOF 0
ENDMDL
MODEL 9
REMARK VINA RESULT:      -4.7      0.988      2.166
REMARK  0 active torsions:
REMARK  status: ('A' for Active; 'I' for Inactive)
ROOT
HETATM    1  C1  UNL     1     -33.468  16.108  -3.564  1.00 20.00     0.005 C 
HETATM    2  C2  UNL     1     -34.034  15.974  -6.044  1.00 20.00     0.005 C 
HETATM    3  C3  UNL     1     -35.895  16.242  -4.326  1.00 20.00     0.005 C 
HETATM    4  C4  UNL     1     -32.940  14.683  -3.665  1.00 20.00     0.006 C 
HETATM    5  C5  UNL     1     -34.632  14.618  -6.397  1.00 20.00     0.006 C 
HETATM    6  C6  UNL     1     -36.144  14.938  -3.579  1.00 20.00     0.006 C 
HETATM    7  C7  UNL     1     -34.432  16.540  -4.676  1.00 20.00    -0.014 C 
HETATM    8  C8  UNL     1     -33.909  13.604  -4.016  1.00 20.00    -0.006 A 
HETATM    9  C9  UNL     1     -34.646  13.567  -5.339  1.00 20.00    -0.006 A 
HETATM   10  C10 UNL     1     -35.419  13.720  -4.044  1.00 20.00    -0.006 A 
ENDROOT
TORSDOF 0
ENDMDL
