MODEL 1
REMARK VINA RESULT:      -5.3      0.000      0.000
REMARK  4 active torsions:
REMARK  status: ('A' for Active; 'I' for Inactive)
REMARK    1  A    between atoms: C2_2  and  C4_4 
REMARK    2  A    between atoms: C3_3  and  C7_7 
REMARK    3  A    between atoms: C6_6  and  O10_10 
REMARK    4  A    between atoms: C7_7  and  O10_10 
ROOT
HETATM    1  C2  UNL     1     -34.025   6.323   3.794  1.00 20.00     0.006 C 
HETATM    2  C3  UNL     1     -32.772   6.143   3.354  1.00 20.00     0.082 C 
ENDROOT
BRANCH   2   3
HETATM    3  C7  UNL     1     -31.859   7.304   3.233  1.00 20.00     0.287 C 
HETATM    4  O9  UNL     1     -31.220   7.788   4.154  1.00 20.00    -0.260 OA
BRANCH   3   5
HETATM    5  O10 UNL     1     -31.892   7.706   1.927  1.00 20.00    -0.289 OA
BRANCH   5   6
HETATM    6  C6  UNL     1     -32.221   9.037   1.760  1.00 20.00     0.135 C 
HETATM    7  C1  UNL     1     -32.430   9.632   0.583  1.00 20.00     0.038 C 
ENDBRANCH   5   6
ENDBRANCH   3   5
ENDBRANCH   2   3
BRANCH   1   8
HETATM    8  C4  UNL     1     -34.968   5.234   3.934  1.00 20.00    -0.004 C 
HETATM    9  C5  UNL     1     -35.229   4.635   5.104  1.00 20.00    -0.031 C 
HETATM   10  C8  UNL     1     -34.579   5.018   6.394  1.00 20.00     0.036 C 
ENDBRANCH   1   8
TORSDOF 4
ENDMDL
MODEL 2
REMARK VINA RESULT:      -4.7      2.233      5.023
REMARK  4 active torsions:
REMARK  status: ('A' for Active; 'I' for Inactive)
REMARK    1  A    between atoms: C2_2  and  C4_4 
REMARK    2  A    between atoms: C3_3  and  C7_7 
REMARK    3  A    between atoms: C6_6  and  O10_10 
REMARK    4  A    between atoms: C7_7  and  O10_10 
ROOT
HETATM    1  C2  UNL     1     -32.958   6.888   3.327  1.00 20.00     0.006 C 
HETATM    2  C3  UNL     1     -33.626   5.748   3.106  1.00 20.00     0.082 C 
ENDROOT
BRANCH   2   3
HETATM    3  C7  UNL     1     -34.779   5.390   3.964  1.00 20.00     0.287 C 
HETATM    4  O9  UNL     1     -35.947   5.635   3.703  1.00 20.00    -0.260 OA
BRANCH   3   5
HETATM    5  O10 UNL     1     -34.277   4.764   5.071  1.00 20.00    -0.289 OA
BRANCH   5   6
HETATM    6  C6  UNL     1     -34.598   5.388   6.261  1.00 20.00     0.135 C 
HETATM    7  C1  UNL     1     -34.043   6.517   6.707  1.00 20.00     0.038 C 
ENDBRANCH   5   6
ENDBRANCH   3   5
ENDBRANCH   2   3
BRANCH   1   8
HETATM    8  C4  UNL     1     -31.823   7.296   2.528  1.00 20.00    -0.004 C 
HETATM    9  C5  UNL     1     -31.790   8.440   1.830  1.00 20.00    -0.031 C 
HETATM   10  C8  UNL     1     -32.916   9.422   1.795  1.00 20.00     0.036 C 
ENDBRANCH   1   8
TORSDOF 4
ENDMDL
MODEL 3
REMARK VINA RESULT:      -4.6      1.096      1.586
REMARK  4 active torsions:
REMARK  status: ('A' for Active; 'I' for Inactive)
REMARK    1  A    between atoms: C2_2  and  C4_4 
REMARK    2  A    between atoms: C3_3  and  C7_7 
REMARK    3  A    between atoms: C6_6  and  O10_10 
REMARK    4  A    between atoms: C7_7  and  O10_10 
ROOT
HETATM    1  C2  UNL     1     -33.405   6.321   5.314  1.00 20.00     0.006 C 
HETATM    2  C3  UNL     1     -33.722   6.531   4.029  1.00 20.00     0.082 C 
ENDROOT
BRANCH   2   3
HETATM    3  C7  UNL     1     -32.649   6.751   3.031  1.00 20.00     0.287 C 
HETATM    4  O9  UNL     1     -31.956   5.871   2.544  1.00 20.00    -0.260 OA
BRANCH   3   5
HETATM    5  O10 UNL     1     -32.596   8.096   2.789  1.00 20.00    -0.289 OA
BRANCH   5   6
HETATM    6  C6  UNL     1     -31.885   8.433   1.654  1.00 20.00     0.135 C 
HETATM    7  C1  UNL     1     -32.306   9.276   0.709  1.00 20.00     0.038 C 
ENDBRANCH   5   6
ENDBRANCH   3   5
ENDBRANCH   2   3
BRANCH   1   8
HETATM    8  C4  UNL     1     -34.402   6.101   6.338  1.00 20.00    -0.004 C 
HETATM    9  C5  UNL     1     -35.110   4.967   6.442  1.00 20.00    -0.031 C 
HETATM   10  C8  UNL     1     -34.954   3.805   5.516  1.00 20.00     0.036 C 
ENDBRANCH   1   8
TORSDOF 4
ENDMDL
MODEL 4
REMARK VINA RESULT:      -4.4      1.906      5.184
REMARK  4 active torsions:
REMARK  status: ('A' for Active; 'I' for Inactive)
REMARK    1  A    between atoms: C2_2  and  C4_4 
REMARK    2  A    between atoms: C3_3  and  C7_7 
REMARK    3  A    between atoms: C6_6  and  O10_10 
REMARK    4  A    between atoms: C7_7  and  O10_10 
ROOT
HETATM    1  C2  UNL     1     -32.548   7.483   3.028  1.00 20.00     0.006 C 
HETATM    2  C3  UNL     1     -33.167   6.331   3.319  1.00 20.00     0.082 C 
ENDROOT
BRANCH   2   3
HETATM    3  C7  UNL     1     -33.978   6.221   4.554  1.00 20.00     0.287 C 
HETATM    4  O9  UNL     1     -33.648   6.654   5.647  1.00 20.00    -0.260 OA
BRANCH   3   5
HETATM    5  O10 UNL     1     -35.123   5.550   4.224  1.00 20.00    -0.289 OA
BRANCH   5   6
HETATM    6  C6  UNL     1     -35.187   4.269   4.736  1.00 20.00     0.135 C 
HETATM    7  C1  UNL     1     -34.860   3.926   5.984  1.00 20.00     0.038 C 
ENDBRANCH   5   6
ENDBRANCH   3   5
ENDBRANCH   2   3
BRANCH   1   8
HETATM    8  C4  UNL     1     -31.740   7.657   1.841  1.00 20.00    -0.004 C 
HETATM    9  C5  UNL     1     -31.744   8.781   1.109  1.00 20.00    -0.031 C 
HETATM   10  C8  UNL     1     -32.580   9.976   1.431  1.00 20.00     0.036 C 
ENDBRANCH   1   8
TORSDOF 4
ENDMDL
MODEL 5
REMARK VINA RESULT:      -4.3     10.305     11.457
REMARK  4 active torsions:
REMARK  status: ('A' for Active; 'I' for Inactive)
REMARK    1  A    between atoms: C2_2  and  C4_4 
REMARK    2  A    between atoms: C3_3  and  C7_7 
REMARK    3  A    between atoms: C6_6  and  O10_10 
REMARK    4  A    between atoms: C7_7  and  O10_10 
ROOT
HETATM    1  C2  UNL     1     -33.845  16.735  -1.596  1.00 20.00     0.006 C 
HETATM    2  C3  UNL     1     -34.247  16.005  -2.646  1.00 20.00     0.082 C 
ENDROOT
BRANCH   2   3
HETATM    3  C7  UNL     1     -33.318  15.768  -3.777  1.00 20.00     0.287 C 
HETATM    4  O9  UNL     1     -32.950  16.621  -4.569  1.00 20.00    -0.260 OA
BRANCH   3   5
HETATM    5  O10 UNL     1     -32.984  14.442  -3.750  1.00 20.00    -0.289 OA
BRANCH   5   6
HETATM    6  C6  UNL     1     -34.071  13.591  -3.791  1.00 20.00     0.135 C 
HETATM    7  C1  UNL     1     -34.688  13.191  -4.905  1.00 20.00     0.038 C 
ENDBRANCH   5   6
ENDBRANCH   3   5
ENDBRANCH   2   3
BRANCH   1   8
HETATM    8  C4  UNL     1     -34.700  17.006  -0.461  1.00 20.00    -0.004 C 
HETATM    9  C5  UNL     1     -34.381  17.878   0.506  1.00 20.00    -0.031 C 
HETATM   10  C8  UNL     1     -33.112  18.665   0.526  1.00 20.00     0.036 C 
ENDBRANCH   1   8
TORSDOF 4
ENDMDL
MODEL 6
REMARK VINA RESULT:      -4.3     10.505     11.866
REMARK  4 active torsions:
REMARK  status: ('A' for Active; 'I' for Inactive)
REMARK    1  A    between atoms: C2_2  and  C4_4 
REMARK    2  A    between atoms: C3_3  and  C7_7 
REMARK    3  A    between atoms: C6_6  and  O10_10 
REMARK    4  A    between atoms: C7_7  and  O10_10 
ROOT
HETATM    1  C2  UNL     1     -35.004  15.510  -2.718  1.00 20.00     0.006 C 
HETATM    2  C3  UNL     1     -34.388  14.445  -3.248  1.00 20.00     0.082 C 
ENDROOT
BRANCH   2   3
HETATM    3  C7  UNL     1     -35.007  13.727  -4.386  1.00 20.00     0.287 C 
HETATM    4  O9  UNL     1     -34.921  12.524  -4.584  1.00 20.00    -0.260 OA
BRANCH   3   5
HETATM    5  O10 UNL     1     -35.659  14.660  -5.143  1.00 20.00    -0.289 OA
BRANCH   5   6
HETATM    6  C6  UNL     1     -35.434  14.536  -6.500  1.00 20.00     0.135 C 
HETATM    7  C1  UNL     1     -34.399  15.065  -7.156  1.00 20.00     0.038 C 
ENDBRANCH   5   6
ENDBRANCH   3   5
ENDBRANCH   2   3
BRANCH   1   8
HETATM    8  C4  UNL     1     -34.457  16.256  -1.605  1.00 20.00    -0.004 C 
HETATM    9  C5  UNL     1     -33.897  17.467  -1.737  1.00 20.00    -0.031 C 
HETATM   10  C8  UNL     1     -33.772  18.183  -3.042  1.00 20.00     0.036 C 
ENDBRANCH   1   8
TORSDOF 4
ENDMDL
MODEL 7
REMARK VINA RESULT:      -4.2     10.515     11.463
REMARK  4 active torsions:
REMARK  status: ('A' for Active; 'I' for Inactive)
REMARK    1  A    between atoms: C2_2  and  C4_4 
REMARK    2  A    between atoms: C3_3  and  C7_7 
REMARK    3  A    between atoms: C6_6  and  O10_10 
REMARK    4  A    between atoms: C7_7  and  O10_10 
ROOT
HETATM    1  C2  UNL     1     -34.249  16.151  -2.084  1.00 20.00     0.006 C 
HETATM    2  C3  UNL     1     -33.744  15.505  -3.144  1.00 20.00     0.082 C 
ENDROOT
BRANCH   2   3
HETATM    3  C7  UNL     1     -34.443  14.316  -3.684  1.00 20.00     0.287 C 
HETATM    4  O9  UNL     1     -34.173  13.158  -3.404  1.00 20.00    -0.260 OA
BRANCH   3   5
HETATM    5  O10 UNL     1     -35.410  14.773  -4.537  1.00 20.00    -0.289 OA
BRANCH   5   6
HETATM    6  C6  UNL     1     -35.264  14.328  -5.837  1.00 20.00     0.135 C 
HETATM    7  C1  UNL     1     -34.487  14.901  -6.759  1.00 20.00     0.038 C 
ENDBRANCH   5   6
ENDBRANCH   3   5
ENDBRANCH   2   3
BRANCH   1   8
HETATM    8  C4  UNL     1     -33.617  17.316  -1.505  1.00 20.00    -0.004 C 
HETATM    9  C5  UNL     1     -33.988  17.845  -0.330  1.00 20.00    -0.031 C 
HETATM   10  C8  UNL     1     -35.093  17.298   0.512  1.00 20.00     0.036 C 
ENDBRANCH   1   8
TORSDOF 4
ENDMDL
MODEL 8
REMARK VINA RESULT:      -4.1     10.560     11.389
REMARK  4 active torsions:
REMARK  status: ('A' for Active; 'I' for Inactive)
REMARK    1  A    between atoms: C2_2  and  C4_4 
REMARK    2  A    between atoms: C3_3  and  C7_7 
REMARK    3  A    between atoms: C6_6  and  O10_10 
REMARK    4  A    between atoms: C7_7  and  O10_10 
ROOT
HETATM    1  C2  UNL     1     -34.254  16.271  -1.942  1.00 20.00     0.006 C 
HETATM    2  C3  UNL     1     -33.734  15.616  -2.989  1.00 20.00     0.082 C 
ENDROOT
BRANCH   2   3
HETATM    3  C7  UNL     1     -34.464  14.468  -3.577  1.00 20.00     0.287 C 
HETATM    4  O9  UNL     1     -34.169  13.294  -3.413  1.00 20.00    -0.260 OA
BRANCH   3   5
HETATM    5  O10 UNL     1     -35.489  14.983  -4.320  1.00 20.00    -0.289 OA
BRANCH   5   6
HETATM    6  C6  UNL     1     -36.714  14.399  -4.063  1.00 20.00     0.135 C 
HETATM    7  C1  UNL     1     -37.821  15.060  -3.716  1.00 20.00     0.038 C 
ENDBRANCH   5   6
ENDBRANCH   3   5
ENDBRANCH   2   3
BRANCH   1   8
HETATM    8  C4  UNL     1     -33.594  17.398  -1.319  1.00 20.00    -0.004 C 
HETATM    9  C5  UNL     1     -33.972  17.910  -0.139  1.00 20.00    -0.031 C 
HETATM   10  C8  UNL     1     -35.115  17.380   0.665  1.00 20.00     0.036 C 
ENDBRANCH   1   8
TORSDOF 4
ENDMDL
MODEL 9
REMARK VINA RESULT:      -4.1     10.750     11.664
REMARK  4 active torsions:
REMARK  status: ('A' for Active; 'I' for Inactive)
REMARK    1  A    between atoms: C2_2  and  C4_4 
REMARK    2  A    between atoms: C3_3  and  C7_7 
REMARK    3  A    between atoms: C6_6  and  O10_10 
REMARK    4  A    between atoms: C7_7  and  O10_10 
ROOT
HETATM    1  C2  UNL     1     -34.457  15.454  -2.663  1.00 20.00     0.006 C 
HETATM    2  C3  UNL     1     -34.563  15.014  -3.925  1.00 20.00     0.082 C 
ENDROOT
BRANCH   2   3
HETATM    3  C7  UNL     1     -35.444  13.863  -4.232  1.00 20.00     0.287 C 
HETATM    4  O9  UNL     1     -35.070  12.705  -4.338  1.00 20.00    -0.260 OA
BRANCH   3   5
HETATM    5  O10 UNL     1     -36.712  14.355  -4.375  1.00 20.00    -0.289 OA
BRANCH   5   6
HETATM    6  C6  UNL     1     -36.831  15.311  -5.365  1.00 20.00     0.135 C 
HETATM    7  C1  UNL     1     -36.905  15.054  -6.673  1.00 20.00     0.038 C 
ENDBRANCH   5   6
ENDBRANCH   3   5
ENDBRANCH   2   3
BRANCH   1   8
HETATM    8  C4  UNL     1     -33.614  16.571  -2.294  1.00 20.00    -0.004 C 
HETATM    9  C5  UNL     1     -33.784  17.278  -1.167  1.00 20.00    -0.031 C 
HETATM   10  C8  UNL     1     -34.859  16.997  -0.168  1.00 20.00     0.036 C 
ENDBRANCH   1   8
TORSDOF 4
ENDMDL
