MODEL 1
REMARK VINA RESULT:      -5.0      0.000      0.000
REMARK  1 active torsions:
REMARK  status: ('A' for Active; 'I' for Inactive)
REMARK    1  A    between atoms: C8_8  and  C11_11 
ROOT
HETATM    1  C1  UNL     1     -34.347  15.614  -2.643  1.00 20.00    -0.076 C 
HETATM    2  C2  UNL     1     -36.260  14.357  -4.170  1.00 20.00     0.136 C 
HETATM    3  C3  UNL     1     -34.744  16.228  -1.531  1.00 20.00     0.015 C 
HETATM    4  C4  UNL     1     -33.072  15.683  -3.537  1.00 20.00     0.045 C 
HETATM    5  C5  UNL     1     -35.971  14.127  -5.656  1.00 20.00     0.080 C 
HETATM    6  C6  UNL     1     -34.430  14.416  -5.766  1.00 20.00     0.018 C 
HETATM    7  C7  UNL     1     -34.892  14.562  -3.541  1.00 20.00     0.092 C 
HETATM    8  C8  UNL     1     -34.155  15.449  -4.659  1.00 20.00    -0.019 C 
HETATM    9  O12 UNL     1     -37.370  14.350  -3.663  1.00 20.00    -0.297 OA
ENDROOT
BRANCH   8  10
HETATM   10  C11 UNL     1     -34.652  16.839  -5.143  1.00 20.00    -0.013 C 
HETATM   11  C9  UNL     1     -33.605  17.893  -4.830  1.00 20.00     0.010 C 
HETATM   12  C10 UNL     1     -34.960  16.782  -6.627  1.00 20.00     0.010 C 
ENDBRANCH   8  10
TORSDOF 1
ENDMDL
MODEL 2
REMARK VINA RESULT:      -4.9      1.109      1.204
REMARK  1 active torsions:
REMARK  status: ('A' for Active; 'I' for Inactive)
REMARK    1  A    between atoms: C8_8  and  C11_11 
ROOT
HETATM    1  C1  UNL     1     -35.281  16.562  -2.595  1.00 20.00    -0.076 C 
HETATM    2  C2  UNL     1     -36.218  14.265  -3.783  1.00 20.00     0.136 C 
HETATM    3  C3  UNL     1     -36.167  17.499  -2.267  1.00 20.00     0.015 C 
HETATM    4  C4  UNL     1     -33.735  16.538  -2.792  1.00 20.00     0.045 C 
HETATM    5  C5  UNL     1     -35.252  13.442  -4.641  1.00 20.00     0.080 C 
HETATM    6  C6  UNL     1     -33.849  14.049  -4.275  1.00 20.00     0.018 C 
HETATM    7  C7  UNL     1     -35.319  15.107  -2.895  1.00 20.00     0.092 C 
HETATM    8  C8  UNL     1     -34.148  15.514  -3.917  1.00 20.00    -0.019 C 
HETATM    9  O12 UNL     1     -37.435  14.200  -3.842  1.00 20.00    -0.297 OA
ENDROOT
BRANCH   8  10
HETATM   10  C11 UNL     1     -34.371  16.311  -5.232  1.00 20.00    -0.013 C 
HETATM   11  C9  UNL     1     -33.467  17.530  -5.250  1.00 20.00     0.010 C 
HETATM   12  C10 UNL     1     -34.116  15.409  -6.425  1.00 20.00     0.010 C 
ENDBRANCH   8  10
TORSDOF 1
ENDMDL
MODEL 3
REMARK VINA RESULT:      -4.7      1.613      2.695
REMARK  1 active torsions:
REMARK  status: ('A' for Active; 'I' for Inactive)
REMARK    1  A    between atoms: C8_8  and  C11_11 
ROOT
HETATM    1  C1  UNL     1     -36.913  15.151  -3.872  1.00 20.00    -0.076 C 
HETATM    2  C2  UNL     1     -34.657  13.597  -4.125  1.00 20.00     0.136 C 
HETATM    3  C3  UNL     1     -37.995  14.793  -4.559  1.00 20.00     0.015 C 
HETATM    4  C4  UNL     1     -36.446  16.462  -3.170  1.00 20.00     0.045 C 
HETATM    5  C5  UNL     1     -33.297  14.233  -3.820  1.00 20.00     0.080 C 
HETATM    6  C6  UNL     1     -33.686  15.573  -3.097  1.00 20.00     0.018 C 
HETATM    7  C7  UNL     1     -35.663  14.488  -3.417  1.00 20.00     0.092 C 
HETATM    8  C8  UNL     1     -35.052  15.947  -3.697  1.00 20.00    -0.019 C 
HETATM    9  O12 UNL     1     -34.824  12.587  -4.788  1.00 20.00    -0.297 OA
ENDROOT
BRANCH   8  10
HETATM   10  C11 UNL     1     -34.825  16.545  -5.114  1.00 20.00    -0.013 C 
HETATM   11  C9  UNL     1     -35.650  17.809  -5.273  1.00 20.00     0.010 C 
HETATM   12  C10 UNL     1     -33.347  16.814  -5.323  1.00 20.00     0.010 C 
ENDBRANCH   8  10
TORSDOF 1
ENDMDL
MODEL 4
REMARK VINA RESULT:      -4.7      1.998      3.880
REMARK  1 active torsions:
REMARK  status: ('A' for Active; 'I' for Inactive)
REMARK    1  A    between atoms: C8_8  and  C11_11 
ROOT
HETATM    1  C1  UNL     1     -34.710  14.353  -5.433  1.00 20.00    -0.076 C 
HETATM    2  C2  UNL     1     -33.511  16.592  -4.375  1.00 20.00     0.136 C 
HETATM    3  C3  UNL     1     -34.851  14.289  -6.754  1.00 20.00     0.015 C 
HETATM    4  C4  UNL     1     -35.357  13.612  -4.225  1.00 20.00     0.045 C 
HETATM    5  C5  UNL     1     -33.806  16.957  -2.917  1.00 20.00     0.080 C 
HETATM    6  C6  UNL     1     -34.495  15.659  -2.360  1.00 20.00     0.018 C 
HETATM    7  C7  UNL     1     -33.863  15.118  -4.480  1.00 20.00     0.092 C 
HETATM    8  C8  UNL     1     -35.194  15.043  -3.584  1.00 20.00    -0.019 C 
HETATM    9  O12 UNL     1     -33.074  17.363  -5.215  1.00 20.00    -0.297 OA
ENDROOT
BRANCH   8  10
HETATM   10  C11 UNL     1     -36.492  15.848  -3.872  1.00 20.00    -0.013 C 
HETATM   11  C9  UNL     1     -37.686  14.911  -3.866  1.00 20.00     0.010 C 
HETATM   12  C10 UNL     1     -36.645  16.953  -2.845  1.00 20.00     0.010 C 
ENDBRANCH   8  10
TORSDOF 1
ENDMDL
MODEL 5
REMARK VINA RESULT:      -4.5      2.122      4.008
REMARK  1 active torsions:
REMARK  status: ('A' for Active; 'I' for Inactive)
REMARK    1  A    between atoms: C8_8  and  C11_11 
ROOT
HETATM    1  C1  UNL     1     -34.840  15.864  -7.351  1.00 20.00    -0.076 C 
HETATM    2  C2  UNL     1     -33.566  15.568  -4.930  1.00 20.00     0.136 C 
HETATM    3  C3  UNL     1     -34.827  17.067  -7.918  1.00 20.00     0.015 C 
HETATM    4  C4  UNL     1     -35.696  14.575  -7.537  1.00 20.00     0.045 C 
HETATM    5  C5  UNL     1     -33.999  14.418  -4.015  1.00 20.00     0.080 C 
HETATM    6  C6  UNL     1     -34.871  13.520  -4.964  1.00 20.00     0.018 C 
HETATM    7  C7  UNL     1     -34.044  15.158  -6.312  1.00 20.00     0.092 C 
HETATM    8  C8  UNL     1     -35.474  14.508  -5.977  1.00 20.00    -0.019 C 
HETATM    9  O12 UNL     1     -32.961  16.563  -4.565  1.00 20.00    -0.297 OA
ENDROOT
BRANCH   8  10
HETATM   10  C11 UNL     1     -36.644  15.268  -5.293  1.00 20.00    -0.013 C 
HETATM   11  C9  UNL     1     -37.829  15.340  -6.240  1.00 20.00     0.010 C 
HETATM   12  C10 UNL     1     -37.010  14.578  -3.993  1.00 20.00     0.010 C 
ENDBRANCH   8  10
TORSDOF 1
ENDMDL
MODEL 6
REMARK VINA RESULT:      -4.5      1.899      2.798
REMARK  1 active torsions:
REMARK  status: ('A' for Active; 'I' for Inactive)
REMARK    1  A    between atoms: C8_8  and  C11_11 
ROOT
HETATM    1  C1  UNL     1     -33.910  14.453  -3.749  1.00 20.00    -0.076 C 
HETATM    2  C2  UNL     1     -35.818  16.238  -2.889  1.00 20.00     0.136 C 
HETATM    3  C3  UNL     1     -32.635  14.833  -3.701  1.00 20.00     0.015 C 
HETATM    4  C4  UNL     1     -34.690  13.329  -4.497  1.00 20.00     0.045 C 
HETATM    5  C5  UNL     1     -37.250  16.082  -3.411  1.00 20.00     0.080 C 
HETATM    6  C6  UNL     1     -37.234  14.653  -4.065  1.00 20.00     0.018 C 
HETATM    7  C7  UNL     1     -35.181  14.876  -3.105  1.00 20.00     0.092 C 
HETATM    8  C8  UNL     1     -35.782  14.465  -4.537  1.00 20.00    -0.019 C 
HETATM    9  O12 UNL     1     -35.358  17.258  -2.403  1.00 20.00    -0.297 OA
ENDROOT
BRANCH   8  10
HETATM   10  C11 UNL     1     -35.575  15.283  -5.842  1.00 20.00    -0.013 C 
HETATM   11  C9  UNL     1     -34.811  14.447  -6.853  1.00 20.00     0.010 C 
HETATM   12  C10 UNL     1     -36.920  15.725  -6.387  1.00 20.00     0.010 C 
ENDBRANCH   8  10
TORSDOF 1
ENDMDL
MODEL 7
REMARK VINA RESULT:      -4.5      1.529      2.985
REMARK  1 active torsions:
REMARK  status: ('A' for Active; 'I' for Inactive)
REMARK    1  A    between atoms: C8_8  and  C11_11 
ROOT
HETATM    1  C1  UNL     1     -34.183  14.365  -4.435  1.00 20.00    -0.076 C 
HETATM    2  C2  UNL     1     -35.140  16.221  -6.227  1.00 20.00     0.136 C 
HETATM    3  C3  UNL     1     -34.906  13.267  -4.231  1.00 20.00     0.015 C 
HETATM    4  C4  UNL     1     -33.035  15.080  -3.661  1.00 20.00     0.045 C 
HETATM    5  C5  UNL     1     -34.667  17.672  -6.096  1.00 20.00     0.080 C 
HETATM    6  C6  UNL     1     -33.450  17.559  -5.108  1.00 20.00     0.018 C 
HETATM    7  C7  UNL     1     -34.089  15.407  -5.491  1.00 20.00     0.092 C 
HETATM    8  C8  UNL     1     -33.787  16.346  -4.224  1.00 20.00    -0.019 C 
HETATM    9  O12 UNL     1     -36.145  15.863  -6.820  1.00 20.00    -0.297 OA
ENDROOT
BRANCH   8  10
HETATM   10  C11 UNL     1     -34.852  16.776  -3.177  1.00 20.00    -0.013 C 
HETATM   11  C9  UNL     1     -34.482  16.219  -1.814  1.00 20.00     0.010 C 
HETATM   12  C10 UNL     1     -34.960  18.289  -3.151  1.00 20.00     0.010 C 
ENDBRANCH   8  10
TORSDOF 1
ENDMDL
MODEL 8
REMARK VINA RESULT:      -4.5      1.544      3.284
REMARK  1 active torsions:
REMARK  status: ('A' for Active; 'I' for Inactive)
REMARK    1  A    between atoms: C8_8  and  C11_11 
ROOT
HETATM    1  C1  UNL     1     -35.874  15.055  -6.722  1.00 20.00    -0.076 C 
HETATM    2  C2  UNL     1     -35.070  13.639  -4.504  1.00 20.00     0.136 C 
HETATM    3  C3  UNL     1     -35.662  14.511  -7.918  1.00 20.00     0.015 C 
HETATM    4  C4  UNL     1     -36.183  16.495  -6.214  1.00 20.00     0.045 C 
HETATM    5  C5  UNL     1     -34.793  14.409  -3.209  1.00 20.00     0.080 C 
HETATM    6  C6  UNL     1     -35.414  15.823  -3.499  1.00 20.00     0.018 C 
HETATM    7  C7  UNL     1     -35.953  14.567  -5.320  1.00 20.00     0.092 C 
HETATM    8  C8  UNL     1     -35.281  15.995  -5.022  1.00 20.00    -0.019 C 
HETATM    9  O12 UNL     1     -34.652  12.521  -4.757  1.00 20.00    -0.297 OA
ENDROOT
BRANCH   8  10
HETATM   10  C11 UNL     1     -33.805  16.355  -5.353  1.00 20.00    -0.013 C 
HETATM   11  C9  UNL     1     -33.707  17.828  -5.705  1.00 20.00     0.010 C 
HETATM   12  C10 UNL     1     -32.918  16.003  -4.175  1.00 20.00     0.010 C 
ENDBRANCH   8  10
TORSDOF 1
ENDMDL
MODEL 9
REMARK VINA RESULT:      -4.4      1.824      3.584
REMARK  1 active torsions:
REMARK  status: ('A' for Active; 'I' for Inactive)
REMARK    1  A    between atoms: C8_8  and  C11_11 
ROOT
HETATM    1  C1  UNL     1     -33.949  16.896  -6.205  1.00 20.00    -0.076 C 
HETATM    2  C2  UNL     1     -33.713  16.530  -3.489  1.00 20.00     0.136 C 
HETATM    3  C3  UNL     1     -34.131  18.136  -6.653  1.00 20.00     0.015 C 
HETATM    4  C4  UNL     1     -34.161  15.473  -6.805  1.00 20.00     0.045 C 
HETATM    5  C5  UNL     1     -34.044  15.152  -2.908  1.00 20.00     0.080 C 
HETATM    6  C6  UNL     1     -34.105  14.236  -4.183  1.00 20.00     0.018 C 
HETATM    7  C7  UNL     1     -33.435  16.269  -4.959  1.00 20.00     0.092 C 
HETATM    8  C8  UNL     1     -34.562  15.179  -5.309  1.00 20.00    -0.019 C 
HETATM    9  O12 UNL     1     -33.683  17.570  -2.851  1.00 20.00    -0.297 OA
ENDROOT
BRANCH   8  10
HETATM   10  C11 UNL     1     -36.090  15.420  -5.166  1.00 20.00    -0.013 C 
HETATM   11  C9  UNL     1     -36.768  15.213  -6.507  1.00 20.00     0.010 C 
HETATM   12  C10 UNL     1     -36.655  14.493  -4.106  1.00 20.00     0.010 C 
ENDBRANCH   8  10
TORSDOF 1
ENDMDL
