MODEL 1
REMARK VINA RESULT:      -5.1      0.000      0.000
REMARK  0 active torsions:
REMARK  status: ('A' for Active; 'I' for Inactive)
ROOT
HETATM    1  C1  UNL     1     -34.413  13.709  -4.897  1.00 20.00     0.198 C 
HETATM    2  C2  UNL     1     -33.456  14.235  -3.849  1.00 20.00     0.085 C 
HETATM    3  C3  UNL     1     -34.131  15.238  -2.922  1.00 20.00     0.008 C 
HETATM    4  C4  UNL     1     -33.784  16.701  -3.196  1.00 20.00     0.000 C 
HETATM    5  C5  UNL     1     -33.727  17.150  -4.654  1.00 20.00     0.000 C 
HETATM    6  C6  UNL     1     -35.037  17.104  -5.431  1.00 20.00     0.006 C 
HETATM    7  C7  UNL     1     -35.702  15.749  -5.682  1.00 20.00     0.087 C 
HETATM    8  C8  UNL     1     -34.787  14.591  -6.071  1.00 20.00     0.302 C 
HETATM    9  O9  UNL     1     -34.897  12.580  -4.785  1.00 20.00    -0.291 OA
HETATM   10  F10 UNL     1     -35.473  13.834  -6.982  1.00 20.00    -0.198 F 
HETATM   11  F11 UNL     1     -33.695  15.041  -6.739  1.00 20.00    -0.198 F 
ENDROOT
TORSDOF 0
ENDMDL
MODEL 2
REMARK VINA RESULT:      -5.0      1.921      2.959
REMARK  0 active torsions:
REMARK  status: ('A' for Active; 'I' for Inactive)
ROOT
HETATM    1  C1  UNL     1     -34.886  13.800  -5.035  1.00 20.00     0.198 C 
HETATM    2  C2  UNL     1     -35.495  14.324  -6.317  1.00 20.00     0.085 C 
HETATM    3  C3  UNL     1     -34.444  14.945  -7.228  1.00 20.00     0.008 C 
HETATM    4  C4  UNL     1     -34.430  16.474  -7.244  1.00 20.00     0.000 C 
HETATM    5  C5  UNL     1     -34.592  17.194  -5.908  1.00 20.00     0.000 C 
HETATM    6  C6  UNL     1     -33.477  16.992  -4.888  1.00 20.00     0.006 C 
HETATM    7  C7  UNL     1     -33.242  15.593  -4.315  1.00 20.00     0.087 C 
HETATM    8  C8  UNL     1     -34.478  14.777  -3.951  1.00 20.00     0.302 C 
HETATM    9  O9  UNL     1     -34.706  12.588  -4.883  1.00 20.00    -0.291 OA
HETATM   10  F10 UNL     1     -34.168  14.069  -2.822  1.00 20.00    -0.198 F 
HETATM   11  F11 UNL     1     -35.503  15.589  -3.586  1.00 20.00    -0.198 F 
ENDROOT
TORSDOF 0
ENDMDL
MODEL 3
REMARK VINA RESULT:      -5.0      2.516      3.185
REMARK  0 active torsions:
REMARK  status: ('A' for Active; 'I' for Inactive)
ROOT
HETATM    1  C1  UNL     1     -36.524  14.684  -3.935  1.00 20.00     0.198 C 
HETATM    2  C2  UNL     1     -35.452  13.922  -4.682  1.00 20.00     0.085 C 
HETATM    3  C3  UNL     1     -34.385  13.381  -3.739  1.00 20.00     0.008 C 
HETATM    4  C4  UNL     1     -33.071  14.163  -3.739  1.00 20.00     0.000 C 
HETATM    5  C5  UNL     1     -33.158  15.687  -3.762  1.00 20.00     0.000 C 
HETATM    6  C6  UNL     1     -33.788  16.350  -2.543  1.00 20.00     0.006 C 
HETATM    7  C7  UNL     1     -35.264  16.086  -2.237  1.00 20.00     0.087 C 
HETATM    8  C8  UNL     1     -36.226  16.078  -3.421  1.00 20.00     0.302 C 
HETATM    9  O9  UNL     1     -37.626  14.166  -3.730  1.00 20.00    -0.291 OA
HETATM   10  F10 UNL     1     -37.395  16.640  -2.986  1.00 20.00    -0.198 F 
HETATM   11  F11 UNL     1     -35.786  16.901  -4.407  1.00 20.00    -0.198 F 
ENDROOT
TORSDOF 0
ENDMDL
MODEL 4
REMARK VINA RESULT:      -5.0      2.611      3.981
REMARK  0 active torsions:
REMARK  status: ('A' for Active; 'I' for Inactive)
ROOT
HETATM    1  C1  UNL     1     -33.577  16.836  -4.305  1.00 20.00     0.198 C 
HETATM    2  C2  UNL     1     -33.567  16.423  -5.761  1.00 20.00     0.085 C 
HETATM    3  C3  UNL     1     -34.940  15.949  -6.222  1.00 20.00     0.008 C 
HETATM    4  C4  UNL     1     -35.085  14.432  -6.352  1.00 20.00     0.000 C 
HETATM    5  C5  UNL     1     -34.470  13.569  -5.254  1.00 20.00     0.000 C 
HETATM    6  C6  UNL     1     -35.072  13.710  -3.860  1.00 20.00     0.006 C 
HETATM    7  C7  UNL     1     -34.947  15.051  -3.133  1.00 20.00     0.087 C 
HETATM    8  C8  UNL     1     -33.604  15.768  -3.230  1.00 20.00     0.302 C 
HETATM    9  O9  UNL     1     -33.583  18.031  -3.999  1.00 20.00    -0.291 OA
HETATM   10  F10 UNL     1     -33.386  16.367  -2.019  1.00 20.00    -0.198 F 
HETATM   11  F11 UNL     1     -32.589  14.879  -3.371  1.00 20.00    -0.198 F 
ENDROOT
TORSDOF 0
ENDMDL
MODEL 5
REMARK VINA RESULT:      -5.0      2.014      2.811
REMARK  0 active torsions:
REMARK  status: ('A' for Active; 'I' for Inactive)
ROOT
HETATM    1  C1  UNL     1     -34.989  13.745  -4.189  1.00 20.00     0.198 C 
HETATM    2  C2  UNL     1     -36.359  14.388  -4.192  1.00 20.00     0.085 C 
HETATM    3  C3  UNL     1     -36.515  15.375  -5.342  1.00 20.00     0.008 C 
HETATM    4  C4  UNL     1     -36.419  16.847  -4.942  1.00 20.00     0.000 C 
HETATM    5  C5  UNL     1     -35.336  17.235  -3.939  1.00 20.00     0.000 C 
HETATM    6  C6  UNL     1     -33.892  17.055  -4.394  1.00 20.00     0.006 C 
HETATM    7  C7  UNL     1     -33.378  15.642  -4.682  1.00 20.00     0.087 C 
HETATM    8  C8  UNL     1     -33.794  14.543  -3.709  1.00 20.00     0.302 C 
HETATM    9  O9  UNL     1     -34.845  12.587  -4.592  1.00 20.00    -0.291 OA
HETATM   10  F10 UNL     1     -32.725  13.696  -3.589  1.00 20.00    -0.198 F 
HETATM   11  F11 UNL     1     -33.985  15.046  -2.463  1.00 20.00    -0.198 F 
ENDROOT
TORSDOF 0
ENDMDL
MODEL 6
REMARK VINA RESULT:      -4.7      2.342      3.515
REMARK  0 active torsions:
REMARK  status: ('A' for Active; 'I' for Inactive)
ROOT
HETATM    1  C1  UNL     1     -34.141  16.252  -6.228  1.00 20.00     0.198 C 
HETATM    2  C2  UNL     1     -34.449  14.789  -6.462  1.00 20.00     0.085 C 
HETATM    3  C3  UNL     1     -35.685  14.343  -5.692  1.00 20.00     0.008 C 
HETATM    4  C4  UNL     1     -35.396  13.524  -4.433  1.00 20.00     0.000 C 
HETATM    5  C5  UNL     1     -34.247  13.986  -3.541  1.00 20.00     0.000 C 
HETATM    6  C6  UNL     1     -34.413  15.343  -2.866  1.00 20.00     0.006 C 
HETATM    7  C7  UNL     1     -34.485  16.598  -3.738  1.00 20.00     0.087 C 
HETATM    8  C8  UNL     1     -33.517  16.680  -4.915  1.00 20.00     0.302 C 
HETATM    9  O9  UNL     1     -34.415  17.091  -7.091  1.00 20.00    -0.291 OA
HETATM   10  F10 UNL     1     -33.134  17.990  -5.022  1.00 20.00    -0.198 F 
HETATM   11  F11 UNL     1     -32.374  16.000  -4.649  1.00 20.00    -0.198 F 
ENDROOT
TORSDOF 0
ENDMDL
MODEL 7
REMARK VINA RESULT:      -4.6      2.233      3.211
REMARK  0 active torsions:
REMARK  status: ('A' for Active; 'I' for Inactive)
ROOT
HETATM    1  C1  UNL     1     -33.917  16.989  -4.695  1.00 20.00     0.198 C 
HETATM    2  C2  UNL     1     -33.632  16.214  -3.427  1.00 20.00     0.085 C 
HETATM    3  C3  UNL     1     -32.779  14.981  -3.701  1.00 20.00     0.008 C 
HETATM    4  C4  UNL     1     -33.544  13.657  -3.696  1.00 20.00     0.000 C 
HETATM    5  C5  UNL     1     -34.907  13.629  -4.382  1.00 20.00     0.000 C 
HETATM    6  C6  UNL     1     -34.915  13.861  -5.889  1.00 20.00     0.006 C 
HETATM    7  C7  UNL     1     -34.465  15.220  -6.430  1.00 20.00     0.087 C 
HETATM    8  C8  UNL     1     -34.943  16.457  -5.677  1.00 20.00     0.302 C 
HETATM    9  O9  UNL     1     -33.306  18.034  -4.936  1.00 20.00    -0.291 OA
HETATM   10  F10 UNL     1     -35.186  17.423  -6.616  1.00 20.00    -0.198 F 
HETATM   11  F11 UNL     1     -36.143  16.231  -5.086  1.00 20.00    -0.198 F 
ENDROOT
TORSDOF 0
ENDMDL
MODEL 8
REMARK VINA RESULT:      -4.5      2.256      2.751
REMARK  0 active torsions:
REMARK  status: ('A' for Active; 'I' for Inactive)
ROOT
HETATM    1  C1  UNL     1     -36.457  14.832  -3.672  1.00 20.00     0.198 C 
HETATM    2  C2  UNL     1     -36.570  16.280  -3.248  1.00 20.00     0.085 C 
HETATM    3  C3  UNL     1     -36.368  17.229  -4.423  1.00 20.00     0.008 C 
HETATM    4  C4  UNL     1     -35.001  17.911  -4.470  1.00 20.00     0.000 C 
HETATM    5  C5  UNL     1     -33.776  17.058  -4.149  1.00 20.00     0.000 C 
HETATM    6  C6  UNL     1     -33.468  15.920  -5.116  1.00 20.00     0.006 C 
HETATM    7  C7  UNL     1     -34.467  14.768  -5.245  1.00 20.00     0.087 C 
HETATM    8  C8  UNL     1     -35.089  14.244  -3.954  1.00 20.00     0.302 C 
HETATM    9  O9  UNL     1     -37.472  14.143  -3.806  1.00 20.00    -0.291 OA
HETATM   10  F10 UNL     1     -35.220  12.889  -4.099  1.00 20.00    -0.198 F 
HETATM   11  F11 UNL     1     -34.241  14.405  -2.908  1.00 20.00    -0.198 F 
ENDROOT
TORSDOF 0
ENDMDL
MODEL 9
REMARK VINA RESULT:      -4.5     12.116     13.269
REMARK  0 active torsions:
REMARK  status: ('A' for Active; 'I' for Inactive)
ROOT
HETATM    1  C1  UNL     1     -43.057   4.902  -2.711  1.00 20.00     0.198 C 
HETATM    2  C2  UNL     1     -43.245   6.361  -2.359  1.00 20.00     0.085 C 
HETATM    3  C3  UNL     1     -41.935   7.135  -2.442  1.00 20.00     0.008 C 
HETATM    4  C4  UNL     1     -41.289   7.450  -1.093  1.00 20.00     0.000 C 
HETATM    5  C5  UNL     1     -41.289   6.348  -0.037  1.00 20.00     0.000 C 
HETATM    6  C6  UNL     1     -40.480   5.097  -0.361  1.00 20.00     0.006 C 
HETATM    7  C7  UNL     1     -40.911   4.222  -1.540  1.00 20.00     0.087 C 
HETATM    8  C8  UNL     1     -42.407   3.972  -1.706  1.00 20.00     0.302 C 
HETATM    9  O9  UNL     1     -43.412   4.478  -3.815  1.00 20.00    -0.291 OA
HETATM   10  F10 UNL     1     -42.547   2.685  -2.151  1.00 20.00    -0.198 F 
HETATM   11  F11 UNL     1     -43.039   3.999  -0.506  1.00 20.00    -0.198 F 
ENDROOT
TORSDOF 0
ENDMDL
