MODEL 1
REMARK VINA RESULT:      -4.1      0.000      0.000
REMARK  3 active torsions:
REMARK  status: ('A' for Active; 'I' for Inactive)
REMARK    1  A    between atoms: C3_3  and  C5_5 
REMARK    2  A    between atoms: C4_4  and  C5_5 
REMARK    3  A    between atoms: C5_5  and  O6_6 
ROOT
HETATM    1  C5  UNL     1     -33.978   6.372   3.860  1.00 20.00     0.132 C 
ENDROOT
BRANCH   1   2
HETATM    2  C3  UNL     1     -32.606   6.441   3.285  1.00 20.00     0.015 A 
HETATM    3  C1  UNL     1     -32.205   7.603   2.418  1.00 20.00     0.007 A 
HETATM    4  C2  UNL     1     -31.621   7.456   3.796  1.00 20.00     0.007 A 
ENDBRANCH   1   2
BRANCH   1   5
HETATM    5  C4  UNL     1     -33.938   6.160   5.371  1.00 20.00     0.117 C 
HETATM    6 BR7  UNL     1     -34.834   4.495   5.855  1.00 20.00    -0.094 Br
ENDBRANCH   1   5
BRANCH   1   7
HETATM    7  O6  UNL     1     -34.684   5.275   3.272  1.00 20.00    -0.394 OA
HETATM    8  H16 UNL     1     -35.438   5.660   2.804  1.00 20.00     0.210 HD
ENDBRANCH   1   7
TORSDOF 3
ENDMDL
MODEL 2
REMARK VINA RESULT:      -4.1      2.288      3.548
REMARK  3 active torsions:
REMARK  status: ('A' for Active; 'I' for Inactive)
REMARK    1  A    between atoms: C3_3  and  C5_5 
REMARK    2  A    between atoms: C4_4  and  C5_5 
REMARK    3  A    between atoms: C5_5  and  O6_6 
ROOT
HETATM    1  C5  UNL     1     -34.865   5.382   3.854  1.00 20.00     0.132 C 
ENDROOT
BRANCH   1   2
HETATM    2  C3  UNL     1     -35.295   4.831   5.168  1.00 20.00     0.015 A 
HETATM    3  C1  UNL     1     -34.379   3.930   5.948  1.00 20.00     0.007 A 
HETATM    4  C2  UNL     1     -34.660   5.323   6.440  1.00 20.00     0.007 A 
ENDBRANCH   1   2
BRANCH   1   5
HETATM    5  C4  UNL     1     -33.923   6.570   4.028  1.00 20.00     0.117 C 
HETATM    6 BR7  UNL     1     -32.239   6.254   3.093  1.00 20.00    -0.094 Br
ENDBRANCH   1   5
BRANCH   1   7
HETATM    7  O6  UNL     1     -36.015   5.825   3.126  1.00 20.00    -0.394 OA
HETATM    8  H16 UNL     1     -36.364   5.045   2.671  1.00 20.00     0.210 HD
ENDBRANCH   1   7
TORSDOF 3
ENDMDL
MODEL 3
REMARK VINA RESULT:      -4.0      2.355      3.613
REMARK  3 active torsions:
REMARK  status: ('A' for Active; 'I' for Inactive)
REMARK    1  A    between atoms: C3_3  and  C5_5 
REMARK    2  A    between atoms: C4_4  and  C5_5 
REMARK    3  A    between atoms: C5_5  and  O6_6 
ROOT
HETATM    1  C5  UNL     1     -33.740   5.454   3.959  1.00 20.00     0.132 C 
ENDROOT
BRANCH   1   2
HETATM    2  C3  UNL     1     -34.880   5.212   4.885  1.00 20.00     0.015 A 
HETATM    3  C1  UNL     1     -34.875   4.019   5.799  1.00 20.00     0.007 A 
HETATM    4  C2  UNL     1     -34.706   5.401   6.366  1.00 20.00     0.007 A 
ENDBRANCH   1   2
BRANCH   1   5
HETATM    5  C4  UNL     1     -33.098   6.815   4.210  1.00 20.00     0.117 C 
HETATM    6 BR7  UNL     1     -32.155   7.435   2.617  1.00 20.00    -0.094 Br
ENDBRANCH   1   5
BRANCH   1   7
HETATM    7  O6  UNL     1     -34.211   5.422   2.607  1.00 20.00    -0.394 OA
HETATM    8  H16 UNL     1     -34.970   6.020   2.573  1.00 20.00     0.210 HD
ENDBRANCH   1   7
TORSDOF 3
ENDMDL
MODEL 4
REMARK VINA RESULT:      -3.9      2.593      3.828
REMARK  3 active torsions:
REMARK  status: ('A' for Active; 'I' for Inactive)
REMARK    1  A    between atoms: C3_3  and  C5_5 
REMARK    2  A    between atoms: C4_4  and  C5_5 
REMARK    3  A    between atoms: C5_5  and  O6_6 
ROOT
HETATM    1  C5  UNL     1     -34.389   6.208   4.384  1.00 20.00     0.132 C 
ENDROOT
BRANCH   1   2
HETATM    2  C3  UNL     1     -35.236   5.060   4.809  1.00 20.00     0.015 A 
HETATM    3  C1  UNL     1     -34.615   3.717   5.077  1.00 20.00     0.007 A 
HETATM    4  C2  UNL     1     -35.154   4.537   6.217  1.00 20.00     0.007 A 
ENDBRANCH   1   2
BRANCH   1   5
HETATM    5  C4  UNL     1     -33.500   5.836   3.201  1.00 20.00     0.117 C 
HETATM    6 BR7  UNL     1     -32.119   7.189   2.929  1.00 20.00    -0.094 Br
ENDBRANCH   1   5
BRANCH   1   7
HETATM    7  O6  UNL     1     -33.547   6.604   5.472  1.00 20.00    -0.394 OA
HETATM    8  H16 UNL     1     -32.878   5.910   5.562  1.00 20.00     0.210 HD
ENDBRANCH   1   7
TORSDOF 3
ENDMDL
MODEL 5
REMARK VINA RESULT:      -3.8     11.628     12.128
REMARK  3 active torsions:
REMARK  status: ('A' for Active; 'I' for Inactive)
REMARK    1  A    between atoms: C3_3  and  C5_5 
REMARK    2  A    between atoms: C4_4  and  C5_5 
REMARK    3  A    between atoms: C5_5  and  O6_6 
ROOT
HETATM    1  C5  UNL     1     -34.522  13.517  -4.743  1.00 20.00     0.132 C 
ENDROOT
BRANCH   1   2
HETATM    2  C3  UNL     1     -33.716  14.144  -3.659  1.00 20.00     0.015 A 
HETATM    3  C1  UNL     1     -33.062  15.480  -3.876  1.00 20.00     0.007 A 
HETATM    4  C2  UNL     1     -34.231  15.359  -2.938  1.00 20.00     0.007 A 
ENDBRANCH   1   2
BRANCH   1   5
HETATM    5  C4  UNL     1     -35.391  14.548  -5.458  1.00 20.00     0.117 C 
HETATM    6 BR7  UNL     1     -34.693  14.917  -7.243  1.00 20.00    -0.094 Br
ENDBRANCH   1   5
BRANCH   1   7
HETATM    7  O6  UNL     1     -35.380  12.519  -4.181  1.00 20.00    -0.394 OA
HETATM    8  H16 UNL     1     -35.394  11.788  -4.815  1.00 20.00     0.210 HD
ENDBRANCH   1   7
TORSDOF 3
ENDMDL
MODEL 6
REMARK VINA RESULT:      -3.7      2.014      2.524
REMARK  3 active torsions:
REMARK  status: ('A' for Active; 'I' for Inactive)
REMARK    1  A    between atoms: C3_3  and  C5_5 
REMARK    2  A    between atoms: C4_4  and  C5_5 
REMARK    3  A    between atoms: C5_5  and  O6_6 
ROOT
HETATM    1  C5  UNL     1     -35.223   5.043   5.103  1.00 20.00     0.132 C 
ENDROOT
BRANCH   1   2
HETATM    2  C3  UNL     1     -34.687   5.875   3.991  1.00 20.00     0.015 A 
HETATM    3  C1  UNL     1     -33.254   5.733   3.559  1.00 20.00     0.007 A 
HETATM    4  C2  UNL     1     -34.362   5.248   2.663  1.00 20.00     0.007 A 
ENDBRANCH   1   2
BRANCH   1   5
HETATM    5  C4  UNL     1     -34.346   5.145   6.348  1.00 20.00     0.117 C 
HETATM    6 BR7  UNL     1     -33.780   6.991   6.639  1.00 20.00    -0.094 Br
ENDBRANCH   1   5
BRANCH   1   7
HETATM    7  O6  UNL     1     -35.261   3.672   4.693  1.00 20.00    -0.394 OA
HETATM    8  H16 UNL     1     -35.608   3.175   5.447  1.00 20.00     0.210 HD
ENDBRANCH   1   7
TORSDOF 3
ENDMDL
MODEL 7
REMARK VINA RESULT:      -3.7     11.567     12.043
REMARK  3 active torsions:
REMARK  status: ('A' for Active; 'I' for Inactive)
REMARK    1  A    between atoms: C3_3  and  C5_5 
REMARK    2  A    between atoms: C4_4  and  C5_5 
REMARK    3  A    between atoms: C5_5  and  O6_6 
ROOT
HETATM    1  C5  UNL     1     -33.191  15.198  -3.643  1.00 20.00     0.132 C 
ENDROOT
BRANCH   1   2
HETATM    2  C3  UNL     1     -33.756  13.876  -4.029  1.00 20.00     0.015 A 
HETATM    3  C1  UNL     1     -35.241  13.646  -3.990  1.00 20.00     0.007 A 
HETATM    4  C2  UNL     1     -34.528  13.728  -5.311  1.00 20.00     0.007 A 
ENDBRANCH   1   2
BRANCH   1   5
HETATM    5  C4  UNL     1     -34.293  16.222  -3.387  1.00 20.00     0.117 C 
HETATM    6 BR7  UNL     1     -34.564  16.475  -1.470  1.00 20.00    -0.094 Br
ENDBRANCH   1   5
BRANCH   1   7
HETATM    7  O6  UNL     1     -32.361  15.688  -4.702  1.00 20.00    -0.394 OA
HETATM    8  H16 UNL     1     -31.729  14.982  -4.898  1.00 20.00     0.210 HD
ENDBRANCH   1   7
TORSDOF 3
ENDMDL
MODEL 8
REMARK VINA RESULT:      -3.6     11.380     12.329
REMARK  3 active torsions:
REMARK  status: ('A' for Active; 'I' for Inactive)
REMARK    1  A    between atoms: C3_3  and  C5_5 
REMARK    2  A    between atoms: C4_4  and  C5_5 
REMARK    3  A    between atoms: C5_5  and  O6_6 
ROOT
HETATM    1  C5  UNL     1     -35.060  13.874  -4.484  1.00 20.00     0.132 C 
ENDROOT
BRANCH   1   2
HETATM    2  C3  UNL     1     -34.932  13.959  -5.965  1.00 20.00     0.015 A 
HETATM    3  C1  UNL     1     -35.840  14.863  -6.753  1.00 20.00     0.007 A 
HETATM    4  C2  UNL     1     -34.382  15.203  -6.607  1.00 20.00     0.007 A 
ENDBRANCH   1   2
BRANCH   1   5
HETATM    5  C4  UNL     1     -33.763  14.279  -3.789  1.00 20.00     0.117 C 
HETATM    6 BR7  UNL     1     -34.011  15.934  -2.784  1.00 20.00    -0.094 Br
ENDBRANCH   1   5
BRANCH   1   7
HETATM    7  O6  UNL     1     -35.367  12.526  -4.112  1.00 20.00    -0.394 OA
HETATM    8  H16 UNL     1     -34.989  12.397  -3.230  1.00 20.00     0.210 HD
ENDBRANCH   1   7
TORSDOF 3
ENDMDL
MODEL 9
REMARK VINA RESULT:      -3.5     11.902     12.412
REMARK  3 active torsions:
REMARK  status: ('A' for Active; 'I' for Inactive)
REMARK    1  A    between atoms: C3_3  and  C5_5 
REMARK    2  A    between atoms: C4_4  and  C5_5 
REMARK    3  A    between atoms: C5_5  and  O6_6 
ROOT
HETATM    1  C5  UNL     1     -33.742  16.228  -4.170  1.00 20.00     0.132 C 
ENDROOT
BRANCH   1   2
HETATM    2  C3  UNL     1     -33.641  15.969  -2.707  1.00 20.00     0.015 A 
HETATM    3  C1  UNL     1     -33.722  17.108  -1.729  1.00 20.00     0.007 A 
HETATM    4  C2  UNL     1     -34.850  16.118  -1.826  1.00 20.00     0.007 A 
ENDBRANCH   1   2
BRANCH   1   5
HETATM    5  C4  UNL     1     -34.848  15.392  -4.808  1.00 20.00     0.117 C 
HETATM    6 BR7  UNL     1     -34.490  13.487  -4.577  1.00 20.00    -0.094 Br
ENDBRANCH   1   5
BRANCH   1   7
HETATM    7  O6  UNL     1     -32.502  15.887  -4.800  1.00 20.00    -0.394 OA
HETATM    8  H16 UNL     1     -31.819  15.992  -4.123  1.00 20.00     0.210 HD
ENDBRANCH   1   7
TORSDOF 3
ENDMDL
