MODEL 1
REMARK VINA RESULT:      -5.7      0.000      0.000
REMARK  0 active torsions:
REMARK  status: ('A' for Active; 'I' for Inactive)
ROOT
HETATM    1  C1  UNL     1     -34.136   6.023   6.256  1.00 20.00     0.047 C 
HETATM    2  C2  UNL     1     -33.472   6.672   5.292  1.00 20.00    -0.014 C 
HETATM    3  C3  UNL     1     -34.955   4.837   5.893  1.00 20.00     0.149 C 
HETATM    4  C4  UNL     1     -34.944   4.353   4.452  1.00 20.00     0.084 C 
HETATM    5  C5  UNL     1     -34.718   5.493   3.463  1.00 20.00     0.021 C 
HETATM    6  C6  UNL     1     -32.912   7.252   2.855  1.00 20.00     0.014 A 
HETATM    7  C7  UNL     1     -32.179   5.989   3.199  1.00 20.00     0.014 A 
HETATM    8  C8  UNL     1     -33.503   6.295   3.865  1.00 20.00    -0.022 A 
HETATM    9  O9  UNL     1     -35.575   4.235   6.768  1.00 20.00    -0.293 OA
ENDROOT
TORSDOF 0
ENDMDL
MODEL 2
REMARK VINA RESULT:      -4.9     11.901     12.628
REMARK  0 active torsions:
REMARK  status: ('A' for Active; 'I' for Inactive)
ROOT
HETATM    1  C1  UNL     1     -36.015  14.367  -3.954  1.00 20.00     0.047 C 
HETATM    2  C2  UNL     1     -35.914  15.521  -3.281  1.00 20.00    -0.014 C 
HETATM    3  C3  UNL     1     -34.788  13.564  -4.194  1.00 20.00     0.149 C 
HETATM    4  C4  UNL     1     -33.474  14.039  -3.596  1.00 20.00     0.084 C 
HETATM    5  C5  UNL     1     -33.415  15.558  -3.469  1.00 20.00     0.021 C 
HETATM    6  C6  UNL     1     -34.636  17.488  -2.240  1.00 20.00     0.014 A 
HETATM    7  C7  UNL     1     -34.568  16.342  -1.274  1.00 20.00     0.014 A 
HETATM    8  C8  UNL     1     -34.647  16.068  -2.760  1.00 20.00    -0.022 A 
HETATM    9  O9  UNL     1     -34.866  12.506  -4.816  1.00 20.00    -0.293 OA
ENDROOT
TORSDOF 0
ENDMDL
MODEL 3
REMARK VINA RESULT:      -4.7      2.206      3.850
REMARK  0 active torsions:
REMARK  status: ('A' for Active; 'I' for Inactive)
ROOT
HETATM    1  C1  UNL     1     -34.114   5.722   2.911  1.00 20.00     0.047 C 
HETATM    2  C2  UNL     1     -34.750   5.050   3.880  1.00 20.00    -0.014 C 
HETATM    3  C3  UNL     1     -33.057   6.697   3.286  1.00 20.00     0.149 C 
HETATM    4  C4  UNL     1     -32.678   6.839   4.750  1.00 20.00     0.084 C 
HETATM    5  C5  UNL     1     -33.851   6.545   5.681  1.00 20.00     0.021 C 
HETATM    6  C6  UNL     1     -35.432   4.589   6.311  1.00 20.00     0.014 A 
HETATM    7  C7  UNL     1     -34.073   3.989   6.100  1.00 20.00     0.014 A 
HETATM    8  C8  UNL     1     -34.479   5.220   5.321  1.00 20.00    -0.022 A 
HETATM    9  O9  UNL     1     -32.470   7.324   2.406  1.00 20.00    -0.293 OA
ENDROOT
TORSDOF 0
ENDMDL
MODEL 4
REMARK VINA RESULT:      -4.6     11.933     12.686
REMARK  0 active torsions:
REMARK  status: ('A' for Active; 'I' for Inactive)
ROOT
HETATM    1  C1  UNL     1     -33.356  13.959  -3.833  1.00 20.00     0.047 C 
HETATM    2  C2  UNL     1     -33.085  15.141  -3.265  1.00 20.00    -0.014 C 
HETATM    3  C3  UNL     1     -34.772  13.601  -4.110  1.00 20.00     0.149 C 
HETATM    4  C4  UNL     1     -35.856  14.624  -3.814  1.00 20.00     0.084 C 
HETATM    5  C5  UNL     1     -35.483  15.540  -2.652  1.00 20.00     0.021 C 
HETATM    6  C6  UNL     1     -33.690  17.305  -2.025  1.00 20.00     0.014 A 
HETATM    7  C7  UNL     1     -34.003  17.513  -3.478  1.00 20.00     0.014 A 
HETATM    8  C8  UNL     1     -34.110  16.129  -2.877  1.00 20.00    -0.022 A 
HETATM    9  O9  UNL     1     -35.035  12.516  -4.626  1.00 20.00    -0.293 OA
ENDROOT
TORSDOF 0
ENDMDL
MODEL 5
REMARK VINA RESULT:      -4.3     12.286     12.693
REMARK  0 active torsions:
REMARK  status: ('A' for Active; 'I' for Inactive)
ROOT
HETATM    1  C1  UNL     1     -35.748  13.561  -4.468  1.00 20.00     0.047 C 
HETATM    2  C2  UNL     1     -34.438  13.835  -4.432  1.00 20.00    -0.014 C 
HETATM    3  C3  UNL     1     -36.694  14.476  -3.776  1.00 20.00     0.149 C 
HETATM    4  C4  UNL     1     -36.148  15.734  -3.121  1.00 20.00     0.084 C 
HETATM    5  C5  UNL     1     -34.716  15.550  -2.626  1.00 20.00     0.021 C 
HETATM    6  C6  UNL     1     -32.350  15.048  -3.562  1.00 20.00     0.014 A 
HETATM    7  C7  UNL     1     -33.019  15.953  -4.554  1.00 20.00     0.014 A 
HETATM    8  C8  UNL     1     -33.852  14.994  -3.732  1.00 20.00    -0.022 A 
HETATM    9  O9  UNL     1     -37.899  14.233  -3.797  1.00 20.00    -0.293 OA
ENDROOT
TORSDOF 0
ENDMDL
MODEL 6
REMARK VINA RESULT:      -4.3     12.152     13.835
REMARK  0 active torsions:
REMARK  status: ('A' for Active; 'I' for Inactive)
ROOT
HETATM    1  C1  UNL     1     -34.777  14.377  -6.003  1.00 20.00     0.047 C 
HETATM    2  C2  UNL     1     -34.470  15.674  -6.128  1.00 20.00    -0.014 C 
HETATM    3  C3  UNL     1     -34.615  13.724  -4.677  1.00 20.00     0.149 C 
HETATM    4  C4  UNL     1     -34.185  14.571  -3.492  1.00 20.00     0.084 C 
HETATM    5  C5  UNL     1     -33.303  15.744  -3.911  1.00 20.00     0.021 C 
HETATM    6  C6  UNL     1     -33.426  17.890  -5.362  1.00 20.00     0.014 A 
HETATM    7  C7  UNL     1     -34.757  17.757  -4.681  1.00 20.00     0.014 A 
HETATM    8  C8  UNL     1     -33.963  16.517  -5.028  1.00 20.00    -0.022 A 
HETATM    9  O9  UNL     1     -34.886  12.531  -4.550  1.00 20.00    -0.293 OA
ENDROOT
TORSDOF 0
ENDMDL
MODEL 7
REMARK VINA RESULT:      -4.2     12.259     13.561
REMARK  0 active torsions:
REMARK  status: ('A' for Active; 'I' for Inactive)
ROOT
HETATM    1  C1  UNL     1     -33.629  17.165  -4.607  1.00 20.00     0.047 C 
HETATM    2  C2  UNL     1     -33.844  15.868  -4.859  1.00 20.00    -0.014 C 
HETATM    3  C3  UNL     1     -33.722  17.651  -3.205  1.00 20.00     0.149 C 
HETATM    4  C4  UNL     1     -33.979  16.643  -2.097  1.00 20.00     0.084 C 
HETATM    5  C5  UNL     1     -34.802  15.452  -2.580  1.00 20.00     0.021 C 
HETATM    6  C6  UNL     1     -34.642  13.499  -4.278  1.00 20.00     0.014 A 
HETATM    7  C7  UNL     1     -33.271  13.670  -3.694  1.00 20.00     0.014 A 
HETATM    8  C8  UNL     1     -34.185  14.868  -3.829  1.00 20.00    -0.022 A 
HETATM    9  O9  UNL     1     -33.533  18.841  -2.960  1.00 20.00    -0.293 OA
ENDROOT
TORSDOF 0
ENDMDL
MODEL 8
REMARK VINA RESULT:      -4.1     12.195     12.844
REMARK  0 active torsions:
REMARK  status: ('A' for Active; 'I' for Inactive)
ROOT
HETATM    1  C1  UNL     1     -34.176  15.624  -2.852  1.00 20.00     0.047 C 
HETATM    2  C2  UNL     1     -35.506  15.658  -2.999  1.00 20.00    -0.014 C 
HETATM    3  C3  UNL     1     -33.387  14.650  -3.651  1.00 20.00     0.149 C 
HETATM    4  C4  UNL     1     -34.110  13.782  -4.668  1.00 20.00     0.084 C 
HETATM    5  C5  UNL     1     -35.550  13.488  -4.254  1.00 20.00     0.021 C 
HETATM    6  C6  UNL     1     -37.770  14.746  -3.794  1.00 20.00     0.014 A 
HETATM    7  C7  UNL     1     -37.124  15.433  -4.961  1.00 20.00     0.014 A 
HETATM    8  C8  UNL     1     -36.262  14.773  -3.907  1.00 20.00    -0.022 A 
HETATM    9  O9  UNL     1     -32.165  14.605  -3.521  1.00 20.00    -0.293 OA
ENDROOT
TORSDOF 0
ENDMDL
MODEL 9
REMARK VINA RESULT:      -4.1      9.625     10.831
REMARK  0 active torsions:
REMARK  status: ('A' for Active; 'I' for Inactive)
ROOT
HETATM    1  C1  UNL     1     -43.080   5.543  -3.087  1.00 20.00     0.047 C 
HETATM    2  C2  UNL     1     -42.456   6.188  -2.093  1.00 20.00    -0.014 C 
HETATM    3  C3  UNL     1     -42.854   4.083  -3.252  1.00 20.00     0.149 C 
HETATM    4  C4  UNL     1     -41.985   3.358  -2.238  1.00 20.00     0.084 C 
HETATM    5  C5  UNL     1     -40.910   4.266  -1.646  1.00 20.00     0.021 C 
HETATM    6  C6  UNL     1     -40.710   6.427  -0.227  1.00 20.00     0.014 A 
HETATM    7  C7  UNL     1     -41.869   5.655   0.333  1.00 20.00     0.014 A 
HETATM    8  C8  UNL     1     -41.533   5.545  -1.138  1.00 20.00    -0.022 A 
HETATM    9  O9  UNL     1     -43.416   3.480  -4.164  1.00 20.00    -0.293 OA
ENDROOT
TORSDOF 0
ENDMDL
