MODEL 1
REMARK VINA RESULT:      -4.6      0.000      0.000
REMARK  0 active torsions:
REMARK  status: ('A' for Active; 'I' for Inactive)
ROOT
HETATM    1  C1  UNL     1     -33.094   6.857   4.845  1.00 20.00     0.078 C 
HETATM    2  C2  UNL     1     -34.774   5.150   5.018  1.00 20.00     0.152 C 
HETATM    3  C3  UNL     1     -34.041   6.286   5.588  1.00 20.00     0.134 C 
HETATM    4  C4  UNL     1     -34.115   5.729   2.842  1.00 20.00     0.213 C 
HETATM    5  C5  UNL     1     -32.863   6.379   3.445  1.00 20.00     0.217 C 
HETATM    6  N6  UNL     1     -34.808   4.819   3.774  1.00 20.00    -0.294 NA
HETATM    7  F7  UNL     1     -34.280   6.601   6.871  1.00 20.00    -0.205 F 
HETATM    8  F8  UNL     1     -31.861   5.454   3.438  1.00 20.00    -0.219 F 
HETATM    9 CL9  UNL     1     -32.352   7.744   2.414  1.00 20.00    -0.076 Cl
ENDROOT
TORSDOF 0
ENDMDL
MODEL 2
REMARK VINA RESULT:      -4.5      2.333      2.738
REMARK  0 active torsions:
REMARK  status: ('A' for Active; 'I' for Inactive)
ROOT
HETATM    1  C1  UNL     1     -35.144   4.545   4.575  1.00 20.00     0.078 C 
HETATM    2  C2  UNL     1     -34.442   5.824   6.482  1.00 20.00     0.152 C 
HETATM    3  C3  UNL     1     -35.042   4.617   5.901  1.00 20.00     0.134 C 
HETATM    4  C4  UNL     1     -33.450   6.398   4.435  1.00 20.00     0.213 C 
HETATM    5  C5  UNL     1     -34.583   5.645   3.728  1.00 20.00     0.217 C 
HETATM    6  N6  UNL     1     -33.742   6.699   5.850  1.00 20.00    -0.294 NA
HETATM    7  F7  UNL     1     -35.567   3.714   6.744  1.00 20.00    -0.205 F 
HETATM    8  F8  UNL     1     -35.569   6.541   3.434  1.00 20.00    -0.219 F 
HETATM    9 CL9  UNL     1     -33.976   4.977   2.188  1.00 20.00    -0.076 Cl
ENDROOT
TORSDOF 0
ENDMDL
MODEL 3
REMARK VINA RESULT:      -4.0     12.000     12.772
REMARK  0 active torsions:
REMARK  status: ('A' for Active; 'I' for Inactive)
ROOT
HETATM    1  C1  UNL     1     -34.380  15.693  -5.004  1.00 20.00     0.078 C 
HETATM    2  C2  UNL     1     -34.801  13.430  -5.689  1.00 20.00     0.152 C 
HETATM    3  C3  UNL     1     -34.421  14.812  -6.003  1.00 20.00     0.134 C 
HETATM    4  C4  UNL     1     -34.333  13.747  -3.412  1.00 20.00     0.213 C 
HETATM    5  C5  UNL     1     -34.646  15.236  -3.603  1.00 20.00     0.217 C 
HETATM    6  N6  UNL     1     -34.825  12.900  -4.516  1.00 20.00    -0.294 NA
HETATM    7  F7  UNL     1     -34.259  15.135  -7.296  1.00 20.00    -0.205 F 
HETATM    8  F8  UNL     1     -35.960  15.436  -3.300  1.00 20.00    -0.219 F 
HETATM    9 CL9  UNL     1     -33.670  16.196  -2.457  1.00 20.00    -0.076 Cl
ENDROOT
TORSDOF 0
ENDMDL
MODEL 4
REMARK VINA RESULT:      -4.0     11.740     12.195
REMARK  0 active torsions:
REMARK  status: ('A' for Active; 'I' for Inactive)
ROOT
HETATM    1  C1  UNL     1     -35.611  14.960  -3.217  1.00 20.00     0.078 C 
HETATM    2  C2  UNL     1     -33.485  14.042  -3.852  1.00 20.00     0.152 C 
HETATM    3  C3  UNL     1     -34.950  13.975  -3.823  1.00 20.00     0.134 C 
HETATM    4  C4  UNL     1     -33.513  16.338  -3.374  1.00 20.00     0.213 C 
HETATM    5  C5  UNL     1     -34.853  16.125  -2.660  1.00 20.00     0.217 C 
HETATM    6  N6  UNL     1     -32.771  15.085  -3.610  1.00 20.00    -0.294 NA
HETATM    7  F7  UNL     1     -35.533  12.862  -4.298  1.00 20.00    -0.205 F 
HETATM    8  F8  UNL     1     -34.599  15.913  -1.337  1.00 20.00    -0.219 F 
HETATM    9 CL9  UNL     1     -35.837  17.609  -2.795  1.00 20.00    -0.076 Cl
ENDROOT
TORSDOF 0
ENDMDL
MODEL 5
REMARK VINA RESULT:      -4.0     11.921     12.632
REMARK  0 active torsions:
REMARK  status: ('A' for Active; 'I' for Inactive)
ROOT
HETATM    1  C1  UNL     1     -34.424  14.168  -3.524  1.00 20.00     0.078 C 
HETATM    2  C2  UNL     1     -34.377  14.827  -5.833  1.00 20.00     0.152 C 
HETATM    3  C3  UNL     1     -34.622  13.820  -4.795  1.00 20.00     0.134 C 
HETATM    4  C4  UNL     1     -34.501  16.570  -4.267  1.00 20.00     0.213 C 
HETATM    5  C5  UNL     1     -34.036  15.577  -3.196  1.00 20.00     0.217 C 
HETATM    6  N6  UNL     1     -34.265  16.095  -5.645  1.00 20.00    -0.294 NA
HETATM    7  F7  UNL     1     -34.910  12.571  -5.194  1.00 20.00    -0.205 F 
HETATM    8  F8  UNL     1     -32.678  15.664  -3.097  1.00 20.00    -0.219 F 
HETATM    9 CL9  UNL     1     -34.728  16.044  -1.617  1.00 20.00    -0.076 Cl
ENDROOT
TORSDOF 0
ENDMDL
MODEL 6
REMARK VINA RESULT:      -4.0     11.754     12.412
REMARK  0 active torsions:
REMARK  status: ('A' for Active; 'I' for Inactive)
ROOT
HETATM    1  C1  UNL     1     -34.008  15.636  -4.038  1.00 20.00     0.078 C 
HETATM    2  C2  UNL     1     -33.793  13.247  -4.139  1.00 20.00     0.152 C 
HETATM    3  C3  UNL     1     -33.242  14.568  -3.820  1.00 20.00     0.134 C 
HETATM    4  C4  UNL     1     -35.985  14.084  -4.130  1.00 20.00     0.213 C 
HETATM    5  C5  UNL     1     -35.413  15.452  -4.521  1.00 20.00     0.217 C 
HETATM    6  N6  UNL     1     -35.035  12.973  -4.337  1.00 20.00    -0.294 NA
HETATM    7  F7  UNL     1     -31.953  14.634  -3.448  1.00 20.00    -0.205 F 
HETATM    8  F8  UNL     1     -35.444  15.551  -5.881  1.00 20.00    -0.219 F 
HETATM    9 CL9  UNL     1     -36.457  16.739  -3.857  1.00 20.00    -0.076 Cl
ENDROOT
TORSDOF 0
ENDMDL
MODEL 7
REMARK VINA RESULT:      -3.9     12.207     12.803
REMARK  0 active torsions:
REMARK  status: ('A' for Active; 'I' for Inactive)
ROOT
HETATM    1  C1  UNL     1     -34.186  15.758  -4.892  1.00 20.00     0.078 C 
HETATM    2  C2  UNL     1     -33.634  13.651  -3.880  1.00 20.00     0.152 C 
HETATM    3  C3  UNL     1     -33.652  15.117  -3.852  1.00 20.00     0.134 C 
HETATM    4  C4  UNL     1     -35.296  13.594  -5.534  1.00 20.00     0.213 C 
HETATM    5  C5  UNL     1     -34.811  14.972  -6.003  1.00 20.00     0.217 C 
HETATM    6  N6  UNL     1     -34.331  12.901  -4.660  1.00 20.00    -0.294 NA
HETATM    7  F7  UNL     1     -33.015  15.730  -2.842  1.00 20.00    -0.205 F 
HETATM    8  F8  UNL     1     -33.898  14.784  -6.998  1.00 20.00    -0.219 F 
HETATM    9 CL9  UNL     1     -36.187  15.880  -6.689  1.00 20.00    -0.076 Cl
ENDROOT
TORSDOF 0
ENDMDL
MODEL 8
REMARK VINA RESULT:      -3.9      9.579     10.181
REMARK  0 active torsions:
REMARK  status: ('A' for Active; 'I' for Inactive)
ROOT
HETATM    1  C1  UNL     1     -41.048   4.852  -0.724  1.00 20.00     0.078 C 
HETATM    2  C2  UNL     1     -41.703   7.154  -0.923  1.00 20.00     0.152 C 
HETATM    3  C3  UNL     1     -40.850   6.113  -0.339  1.00 20.00     0.134 C 
HETATM    4  C4  UNL     1     -42.314   5.752  -2.702  1.00 20.00     0.213 C 
HETATM    5  C5  UNL     1     -42.067   4.552  -1.779  1.00 20.00     0.217 C 
HETATM    6  N6  UNL     1     -42.431   7.032  -1.977  1.00 20.00    -0.294 NA
HETATM    7  F7  UNL     1     -40.007   6.474   0.641  1.00 20.00    -0.205 F 
HETATM    8  F8  UNL     1     -43.250   4.220  -1.189  1.00 20.00    -0.219 F 
HETATM    9 CL9  UNL     1     -41.534   3.156  -2.757  1.00 20.00    -0.076 Cl
ENDROOT
TORSDOF 0
ENDMDL
MODEL 9
REMARK VINA RESULT:      -3.9     12.209     12.666
REMARK  0 active torsions:
REMARK  status: ('A' for Active; 'I' for Inactive)
ROOT
HETATM    1  C1  UNL     1     -34.806  15.069  -2.817  1.00 20.00     0.078 C 
HETATM    2  C2  UNL     1     -33.915  17.299  -2.832  1.00 20.00     0.152 C 
HETATM    3  C3  UNL     1     -34.423  16.129  -2.107  1.00 20.00     0.134 C 
HETATM    4  C4  UNL     1     -33.514  16.017  -4.755  1.00 20.00     0.213 C 
HETATM    5  C5  UNL     1     -34.638  15.076  -4.305  1.00 20.00     0.217 C 
HETATM    6  N6  UNL     1     -33.527  17.318  -4.059  1.00 20.00    -0.294 NA
HETATM    7  F7  UNL     1     -34.591  16.243  -0.780  1.00 20.00    -0.205 F 
HETATM    8  F8  UNL     1     -35.797  15.488  -4.893  1.00 20.00    -0.219 F 
HETATM    9 CL9  UNL     1     -34.290  13.423  -4.884  1.00 20.00    -0.076 Cl
ENDROOT
TORSDOF 0
ENDMDL
