MODEL 1
REMARK VINA RESULT:      -4.0      0.000      0.000
REMARK  3 active torsions:
REMARK  status: ('A' for Active; 'I' for Inactive)
REMARK    1  A    between atoms: C5_5  and  C8_8 
REMARK    2  A    between atoms: C6_6  and  C7_7 
REMARK    3  A    between atoms: C6_6  and  C8_8 
ROOT
HETATM    1  C4  UNL     1     -34.912  13.373  -4.174  1.00 20.00     0.032 C 
HETATM    2  C8  UNL     1     -34.221  14.746  -4.097  1.00 20.00     0.033 C 
HETATM    3 CL9  UNL     1     -32.515  14.408  -3.592  1.00 20.00    -0.120 Cl
ENDROOT
BRANCH   2   4
HETATM    4  C5  UNL     1     -34.170  15.411  -5.491  1.00 20.00     0.021 C 
HETATM    5  C1  UNL     1     -34.859  14.631  -6.606  1.00 20.00     0.007 C 
ENDBRANCH   2   4
BRANCH   2   6
HETATM    6  C6  UNL     1     -34.931  15.599  -3.011  1.00 20.00     0.029 C 
BRANCH   6   7
HETATM    7  C7  UNL     1     -34.077  16.453  -2.042  1.00 20.00    -0.021 C 
HETATM    8  C2  UNL     1     -33.791  17.813  -2.694  1.00 20.00     0.009 C 
HETATM    9  C3  UNL     1     -34.715  16.683  -0.674  1.00 20.00     0.009 C 
ENDBRANCH   6   7
ENDBRANCH   2   6
TORSDOF 3
ENDMDL
MODEL 2
REMARK VINA RESULT:      -3.9     10.773     11.891
REMARK  3 active torsions:
REMARK  status: ('A' for Active; 'I' for Inactive)
REMARK    1  A    between atoms: C5_5  and  C8_8 
REMARK    2  A    between atoms: C6_6  and  C7_7 
REMARK    3  A    between atoms: C6_6  and  C8_8 
ROOT
HETATM    1  C4  UNL     1     -32.068   5.626   2.988  1.00 20.00     0.032 C 
HETATM    2  C8  UNL     1     -32.506   7.019   3.475  1.00 20.00     0.033 C 
HETATM    3 CL9  UNL     1     -31.026   7.774   4.195  1.00 20.00    -0.120 Cl
ENDROOT
BRANCH   2   4
HETATM    4  C5  UNL     1     -32.945   7.900   2.284  1.00 20.00     0.021 C 
HETATM    5  C1  UNL     1     -31.805   8.486   1.457  1.00 20.00     0.007 C 
ENDBRANCH   2   4
BRANCH   2   6
HETATM    6  C6  UNL     1     -33.592   6.843   4.570  1.00 20.00     0.029 C 
BRANCH   6   7
HETATM    7  C7  UNL     1     -34.238   5.451   4.777  1.00 20.00    -0.021 C 
HETATM    8  C2  UNL     1     -34.528   5.252   6.271  1.00 20.00     0.009 C 
HETATM    9  C3  UNL     1     -35.526   5.229   3.987  1.00 20.00     0.009 C 
ENDBRANCH   6   7
ENDBRANCH   2   6
TORSDOF 3
ENDMDL
MODEL 3
REMARK VINA RESULT:      -3.8      1.850      2.515
REMARK  3 active torsions:
REMARK  status: ('A' for Active; 'I' for Inactive)
REMARK    1  A    between atoms: C5_5  and  C8_8 
REMARK    2  A    between atoms: C6_6  and  C7_7 
REMARK    3  A    between atoms: C6_6  and  C8_8 
ROOT
HETATM    1  C4  UNL     1     -33.541  17.020  -5.371  1.00 20.00     0.032 C 
HETATM    2  C8  UNL     1     -33.875  16.401  -4.002  1.00 20.00     0.033 C 
HETATM    3 CL9  UNL     1     -35.545  15.722  -4.165  1.00 20.00    -0.120 Cl
ENDROOT
BRANCH   2   4
HETATM    4  C5  UNL     1     -32.923  15.225  -3.688  1.00 20.00     0.021 C 
HETATM    5  C1  UNL     1     -33.569  13.844  -3.716  1.00 20.00     0.007 C 
ENDBRANCH   2   4
BRANCH   2   6
HETATM    6  C6  UNL     1     -33.867  17.528  -2.933  1.00 20.00     0.029 C 
BRANCH   6   7
HETATM    7  C7  UNL     1     -33.597  17.163  -1.453  1.00 20.00    -0.021 C 
HETATM    8  C2  UNL     1     -33.071  18.405  -0.720  1.00 20.00     0.009 C 
HETATM    9  C3  UNL     1     -34.813  16.622  -0.704  1.00 20.00     0.009 C 
ENDBRANCH   6   7
ENDBRANCH   2   6
TORSDOF 3
ENDMDL
MODEL 4
REMARK VINA RESULT:      -3.7      1.593      2.178
REMARK  3 active torsions:
REMARK  status: ('A' for Active; 'I' for Inactive)
REMARK    1  A    between atoms: C5_5  and  C8_8 
REMARK    2  A    between atoms: C6_6  and  C7_7 
REMARK    3  A    between atoms: C6_6  and  C8_8 
ROOT
HETATM    1  C4  UNL     1     -32.573  14.467  -3.535  1.00 20.00     0.032 C 
HETATM    2  C8  UNL     1     -33.704  15.502  -3.674  1.00 20.00     0.033 C 
HETATM    3 CL9  UNL     1     -33.299  16.477  -5.145  1.00 20.00    -0.120 Cl
ENDROOT
BRANCH   2   4
HETATM    4  C5  UNL     1     -35.055  14.800  -3.939  1.00 20.00     0.021 C 
HETATM    5  C1  UNL     1     -34.959  13.318  -4.286  1.00 20.00     0.007 C 
ENDBRANCH   2   4
BRANCH   2   6
HETATM    6  C6  UNL     1     -33.698  16.416  -2.419  1.00 20.00     0.029 C 
BRANCH   6   7
HETATM    7  C7  UNL     1     -35.031  16.705  -1.687  1.00 20.00    -0.021 C 
HETATM    8  C2  UNL     1     -34.739  16.979  -0.206  1.00 20.00     0.009 C 
HETATM    9  C3  UNL     1     -35.826  17.876  -2.262  1.00 20.00     0.009 C 
ENDBRANCH   6   7
ENDBRANCH   2   6
TORSDOF 3
ENDMDL
MODEL 5
REMARK VINA RESULT:      -3.7      1.452      4.028
REMARK  3 active torsions:
REMARK  status: ('A' for Active; 'I' for Inactive)
REMARK    1  A    between atoms: C5_5  and  C8_8 
REMARK    2  A    between atoms: C6_6  and  C7_7 
REMARK    3  A    between atoms: C6_6  and  C8_8 
ROOT
HETATM    1  C4  UNL     1     -32.949  15.335  -3.783  1.00 20.00     0.032 C 
HETATM    2  C8  UNL     1     -34.483  15.212  -3.755  1.00 20.00     0.033 C 
HETATM    3 CL9  UNL     1     -34.836  13.441  -3.887  1.00 20.00    -0.120 Cl
ENDROOT
BRANCH   2   4
HETATM    4  C5  UNL     1     -35.045  15.699  -2.400  1.00 20.00     0.021 C 
HETATM    5  C1  UNL     1     -34.134  16.642  -1.623  1.00 20.00     0.007 C 
ENDBRANCH   2   4
BRANCH   2   6
HETATM    6  C6  UNL     1     -35.063  15.957  -4.989  1.00 20.00     0.029 C 
BRANCH   6   7
HETATM    7  C7  UNL     1     -34.185  16.122  -6.253  1.00 20.00    -0.021 C 
HETATM    8  C2  UNL     1     -34.474  14.962  -7.216  1.00 20.00     0.009 C 
HETATM    9  C3  UNL     1     -34.386  17.443  -6.993  1.00 20.00     0.009 C 
ENDBRANCH   6   7
ENDBRANCH   2   6
TORSDOF 3
ENDMDL
MODEL 6
REMARK VINA RESULT:      -3.7      1.548      4.124
REMARK  3 active torsions:
REMARK  status: ('A' for Active; 'I' for Inactive)
REMARK    1  A    between atoms: C5_5  and  C8_8 
REMARK    2  A    between atoms: C6_6  and  C7_7 
REMARK    3  A    between atoms: C6_6  and  C8_8 
ROOT
HETATM    1  C4  UNL     1     -35.949  17.440  -2.967  1.00 20.00     0.032 C 
HETATM    2  C8  UNL     1     -34.615  16.679  -2.867  1.00 20.00     0.033 C 
HETATM    3 CL9  UNL     1     -33.601  17.286  -4.239  1.00 20.00    -0.120 Cl
ENDROOT
BRANCH   2   4
HETATM    4  C5  UNL     1     -33.881  17.034  -1.555  1.00 20.00     0.021 C 
HETATM    5  C1  UNL     1     -34.733  16.947  -0.292  1.00 20.00     0.007 C 
ENDBRANCH   2   4
BRANCH   2   6
HETATM    6  C6  UNL     1     -34.894  15.162  -3.050  1.00 20.00     0.029 C 
BRANCH   6   7
HETATM    7  C7  UNL     1     -34.107  14.374  -4.126  1.00 20.00    -0.021 C 
HETATM    8  C2  UNL     1     -32.833  13.798  -3.492  1.00 20.00     0.009 C 
HETATM    9  C3  UNL     1     -34.894  13.239  -4.777  1.00 20.00     0.009 C 
ENDBRANCH   6   7
ENDBRANCH   2   6
TORSDOF 3
ENDMDL
MODEL 7
REMARK VINA RESULT:      -3.7      1.612      4.005
REMARK  3 active torsions:
REMARK  status: ('A' for Active; 'I' for Inactive)
REMARK    1  A    between atoms: C5_5  and  C8_8 
REMARK    2  A    between atoms: C6_6  and  C7_7 
REMARK    3  A    between atoms: C6_6  and  C8_8 
ROOT
HETATM    1  C4  UNL     1     -33.338  13.931  -3.748  1.00 20.00     0.032 C 
HETATM    2  C8  UNL     1     -34.003  15.318  -3.795  1.00 20.00     0.033 C 
HETATM    3 CL9  UNL     1     -35.786  15.009  -3.749  1.00 20.00    -0.120 Cl
ENDROOT
BRANCH   2   4
HETATM    4  C5  UNL     1     -33.641  16.140  -2.538  1.00 20.00     0.021 C 
HETATM    5  C1  UNL     1     -34.768  16.303  -1.523  1.00 20.00     0.007 C 
ENDBRANCH   2   4
BRANCH   2   6
HETATM    6  C6  UNL     1     -33.624  16.005  -5.135  1.00 20.00     0.029 C 
BRANCH   6   7
HETATM    7  C7  UNL     1     -34.652  16.024  -6.292  1.00 20.00    -0.021 C 
HETATM    8  C2  UNL     1     -34.511  17.343  -7.065  1.00 20.00     0.009 C 
HETATM    9  C3  UNL     1     -34.522  14.859  -7.271  1.00 20.00     0.009 C 
ENDBRANCH   6   7
ENDBRANCH   2   6
TORSDOF 3
ENDMDL
MODEL 8
REMARK VINA RESULT:      -3.6     10.985     12.163
REMARK  3 active torsions:
REMARK  status: ('A' for Active; 'I' for Inactive)
REMARK    1  A    between atoms: C5_5  and  C8_8 
REMARK    2  A    between atoms: C6_6  and  C7_7 
REMARK    3  A    between atoms: C6_6  and  C8_8 
ROOT
HETATM    1  C4  UNL     1     -33.839   4.832   2.725  1.00 20.00     0.032 C 
HETATM    2  C8  UNL     1     -34.428   5.752   3.810  1.00 20.00     0.033 C 
HETATM    3 CL9  UNL     1     -36.172   5.967   3.376  1.00 20.00    -0.120 Cl
ENDROOT
BRANCH   2   4
HETATM    4  C5  UNL     1     -34.374   5.066   5.194  1.00 20.00     0.021 C 
HETATM    5  C1  UNL     1     -34.283   6.015   6.384  1.00 20.00     0.007 C 
ENDBRANCH   2   4
BRANCH   2   6
HETATM    6  C6  UNL     1     -33.698   7.121   3.749  1.00 20.00     0.029 C 
BRANCH   6   7
HETATM    7  C7  UNL     1     -32.289   7.199   3.113  1.00 20.00    -0.021 C 
HETATM    8  C2  UNL     1     -32.313   8.220   1.967  1.00 20.00     0.009 C 
HETATM    9  C3  UNL     1     -31.176   7.576   4.090  1.00 20.00     0.009 C 
ENDBRANCH   6   7
ENDBRANCH   2   6
TORSDOF 3
ENDMDL
MODEL 9
REMARK VINA RESULT:      -3.6      1.537      3.227
REMARK  3 active torsions:
REMARK  status: ('A' for Active; 'I' for Inactive)
REMARK    1  A    between atoms: C5_5  and  C8_8 
REMARK    2  A    between atoms: C6_6  and  C7_7 
REMARK    3  A    between atoms: C6_6  and  C8_8 
ROOT
HETATM    1  C4  UNL     1     -34.679  16.011  -2.031  1.00 20.00     0.032 C 
HETATM    2  C8  UNL     1     -34.490  15.541  -3.485  1.00 20.00     0.033 C 
HETATM    3 CL9  UNL     1     -32.757  15.033  -3.614  1.00 20.00    -0.120 Cl
ENDROOT
BRANCH   2   4
HETATM    4  C5  UNL     1     -35.362  14.298  -3.773  1.00 20.00     0.021 C 
HETATM    5  C1  UNL     1     -34.702  13.230  -4.639  1.00 20.00     0.007 C 
ENDBRANCH   2   4
BRANCH   2   6
HETATM    6  C6  UNL     1     -34.759  16.740  -4.434  1.00 20.00     0.029 C 
BRANCH   6   7
HETATM    7  C7  UNL     1     -33.791  17.002  -5.614  1.00 20.00    -0.021 C 
HETATM    8  C2  UNL     1     -34.278  16.219  -6.841  1.00 20.00     0.009 C 
HETATM    9  C3  UNL     1     -33.640  18.474  -5.991  1.00 20.00     0.009 C 
ENDBRANCH   6   7
ENDBRANCH   2   6
TORSDOF 3
ENDMDL
