MODEL 1
REMARK VINA RESULT:      -5.0      0.000      0.000
REMARK  0 active torsions:
REMARK  status: ('A' for Active; 'I' for Inactive)
ROOT
HETATM    1  C1  UNL     1     -34.030   6.388   4.679  1.00 20.00     0.078 C 
HETATM    2  C2  UNL     1     -34.787   5.196   6.620  1.00 20.00     0.152 C 
HETATM    3  C3  UNL     1     -34.014   6.282   6.007  1.00 20.00     0.134 C 
HETATM    4  C4  UNL     1     -34.880   4.024   4.590  1.00 20.00     0.213 C 
HETATM    5  C5  UNL     1     -34.764   5.370   3.864  1.00 20.00     0.217 C 
HETATM    6  N6  UNL     1     -35.250   4.159   6.013  1.00 20.00    -0.294 NA
HETATM    7  F7  UNL     1     -33.438   7.176   6.825  1.00 20.00    -0.205 F 
HETATM    8  F8  UNL     1     -36.024   5.819   3.599  1.00 20.00    -0.219 F 
HETATM    9 CL9  UNL     1     -33.931   5.127   2.302  1.00 20.00    -0.076 Cl
ENDROOT
TORSDOF 0
ENDMDL
MODEL 2
REMARK VINA RESULT:      -4.3     12.784     13.612
REMARK  0 active torsions:
REMARK  status: ('A' for Active; 'I' for Inactive)
ROOT
HETATM    1  C1  UNL     1     -33.802  15.612  -5.014  1.00 20.00     0.078 C 
HETATM    2  C2  UNL     1     -34.721  13.490  -5.659  1.00 20.00     0.152 C 
HETATM    3  C3  UNL     1     -34.399  14.889  -5.961  1.00 20.00     0.134 C 
HETATM    4  C4  UNL     1     -34.536  13.873  -3.352  1.00 20.00     0.213 C 
HETATM    5  C5  UNL     1     -33.550  15.005  -3.669  1.00 20.00     0.217 C 
HETATM    6  N6  UNL     1     -34.754  12.956  -4.488  1.00 20.00    -0.294 NA
HETATM    7  F7  UNL     1     -34.612  15.323  -7.213  1.00 20.00    -0.205 F 
HETATM    8  F8  UNL     1     -32.288  14.491  -3.630  1.00 20.00    -0.219 F 
HETATM    9 CL9  UNL     1     -33.668  16.261  -2.404  1.00 20.00    -0.076 Cl
ENDROOT
TORSDOF 0
ENDMDL
MODEL 3
REMARK VINA RESULT:      -4.1      1.985      2.245
REMARK  0 active torsions:
REMARK  status: ('A' for Active; 'I' for Inactive)
ROOT
HETATM    1  C1  UNL     1     -33.629   6.470   5.329  1.00 20.00     0.078 C 
HETATM    2  C2  UNL     1     -35.307   4.874   4.695  1.00 20.00     0.152 C 
HETATM    3  C3  UNL     1     -34.505   5.546   5.723  1.00 20.00     0.134 C 
HETATM    4  C4  UNL     1     -33.810   5.520   3.008  1.00 20.00     0.213 C 
HETATM    5  C5  UNL     1     -33.441   6.736   3.868  1.00 20.00     0.217 C 
HETATM    6  N6  UNL     1     -35.064   4.867   3.430  1.00 20.00    -0.294 NA
HETATM    7  F7  UNL     1     -34.787   5.280   7.008  1.00 20.00    -0.205 F 
HETATM    8  F8  UNL     1     -34.233   7.779   3.489  1.00 20.00    -0.219 F 
HETATM    9 CL9  UNL     1     -31.745   7.193   3.547  1.00 20.00    -0.076 Cl
ENDROOT
TORSDOF 0
ENDMDL
MODEL 4
REMARK VINA RESULT:      -4.0     12.436     12.976
REMARK  0 active torsions:
REMARK  status: ('A' for Active; 'I' for Inactive)
ROOT
HETATM    1  C1  UNL     1     -34.006  15.617  -3.677  1.00 20.00     0.078 C 
HETATM    2  C2  UNL     1     -33.761  13.239  -3.894  1.00 20.00     0.152 C 
HETATM    3  C3  UNL     1     -33.179  14.573  -3.714  1.00 20.00     0.134 C 
HETATM    4  C4  UNL     1     -35.760  14.147  -4.718  1.00 20.00     0.213 C 
HETATM    5  C5  UNL     1     -35.472  15.407  -3.890  1.00 20.00     0.217 C 
HETATM    6  N6  UNL     1     -34.953  12.982  -4.306  1.00 20.00    -0.294 NA
HETATM    7  F7  UNL     1     -31.860  14.653  -3.475  1.00 20.00    -0.205 F 
HETATM    8  F8  UNL     1     -36.094  15.272  -2.684  1.00 20.00    -0.219 F 
HETATM    9 CL9  UNL     1     -36.177  16.827  -4.712  1.00 20.00    -0.076 Cl
ENDROOT
TORSDOF 0
ENDMDL
MODEL 5
REMARK VINA RESULT:      -4.0     12.843     13.424
REMARK  0 active torsions:
REMARK  status: ('A' for Active; 'I' for Inactive)
ROOT
HETATM    1  C1  UNL     1     -34.073  15.535  -5.063  1.00 20.00     0.078 C 
HETATM    2  C2  UNL     1     -34.275  13.790  -3.427  1.00 20.00     0.152 C 
HETATM    3  C3  UNL     1     -33.721  15.076  -3.863  1.00 20.00     0.134 C 
HETATM    4  C4  UNL     1     -34.831  13.207  -5.631  1.00 20.00     0.213 C 
HETATM    5  C5  UNL     1     -34.949  14.703  -5.945  1.00 20.00     0.217 C 
HETATM    6  N6  UNL     1     -34.838  12.913  -4.184  1.00 20.00    -0.294 NA
HETATM    7  F7  UNL     1     -32.990  15.773  -2.978  1.00 20.00    -0.205 F 
HETATM    8  F8  UNL     1     -36.251  15.071  -5.772  1.00 20.00    -0.219 F 
HETATM    9 CL9  UNL     1     -34.526  14.981  -7.658  1.00 20.00    -0.076 Cl
ENDROOT
TORSDOF 0
ENDMDL
MODEL 6
REMARK VINA RESULT:      -3.9      2.133      3.047
REMARK  0 active torsions:
REMARK  status: ('A' for Active; 'I' for Inactive)
ROOT
HETATM    1  C1  UNL     1     -34.100   5.840   3.219  1.00 20.00     0.078 C 
HETATM    2  C2  UNL     1     -34.459   5.622   5.583  1.00 20.00     0.152 C 
HETATM    3  C3  UNL     1     -34.914   5.448   4.199  1.00 20.00     0.134 C 
HETATM    4  C4  UNL     1     -32.844   7.191   4.926  1.00 20.00     0.213 C 
HETATM    5  C5  UNL     1     -32.802   6.503   3.556  1.00 20.00     0.217 C 
HETATM    6  N6  UNL     1     -33.487   6.371   5.971  1.00 20.00    -0.294 NA
HETATM    7  F7  UNL     1     -36.068   4.792   3.998  1.00 20.00    -0.205 F 
HETATM    8  F8  UNL     1     -31.807   5.570   3.581  1.00 20.00    -0.219 F 
HETATM    9 CL9  UNL     1     -32.390   7.707   2.303  1.00 20.00    -0.076 Cl
ENDROOT
TORSDOF 0
ENDMDL
MODEL 7
REMARK VINA RESULT:      -3.9     13.069     13.715
REMARK  0 active torsions:
REMARK  status: ('A' for Active; 'I' for Inactive)
ROOT
HETATM    1  C1  UNL     1     -34.205  15.351  -2.729  1.00 20.00     0.078 C 
HETATM    2  C2  UNL     1     -33.892  17.682  -2.247  1.00 20.00     0.152 C 
HETATM    3  C3  UNL     1     -34.361  16.348  -1.858  1.00 20.00     0.134 C 
HETATM    4  C4  UNL     1     -33.869  17.087  -4.516  1.00 20.00     0.213 C 
HETATM    5  C5  UNL     1     -33.634  15.635  -4.082  1.00 20.00     0.217 C 
HETATM    6  N6  UNL     1     -33.605  18.065  -3.442  1.00 20.00    -0.294 NA
HETATM    7  F7  UNL     1     -34.807  16.184  -0.602  1.00 20.00    -0.205 F 
HETATM    8  F8  UNL     1     -32.289  15.409  -4.066  1.00 20.00    -0.219 F 
HETATM    9 CL9  UNL     1     -34.357  14.535  -5.290  1.00 20.00    -0.076 Cl
ENDROOT
TORSDOF 0
ENDMDL
MODEL 8
REMARK VINA RESULT:      -3.9     12.702     13.086
REMARK  0 active torsions:
REMARK  status: ('A' for Active; 'I' for Inactive)
ROOT
HETATM    1  C1  UNL     1     -33.582  15.259  -3.063  1.00 20.00     0.078 C 
HETATM    2  C2  UNL     1     -35.545  14.108  -3.828  1.00 20.00     0.152 C 
HETATM    3  C3  UNL     1     -34.086  14.238  -3.756  1.00 20.00     0.134 C 
HETATM    4  C4  UNL     1     -35.844  16.347  -3.197  1.00 20.00     0.213 C 
HETATM    5  C5  UNL     1     -34.506  16.265  -2.452  1.00 20.00     0.217 C 
HETATM    6  N6  UNL     1     -36.402  15.024  -3.540  1.00 20.00    -0.294 NA
HETATM    7  F7  UNL     1     -33.344  13.254  -4.288  1.00 20.00    -0.205 F 
HETATM    8  F8  UNL     1     -34.761  15.923  -1.157  1.00 20.00    -0.219 F 
HETATM    9 CL9  UNL     1     -33.733  17.876  -2.448  1.00 20.00    -0.076 Cl
ENDROOT
TORSDOF 0
ENDMDL
MODEL 9
REMARK VINA RESULT:      -3.9     12.581     13.117
REMARK  0 active torsions:
REMARK  status: ('A' for Active; 'I' for Inactive)
ROOT
HETATM    1  C1  UNL     1     -35.589  15.461  -3.505  1.00 20.00     0.078 C 
HETATM    2  C2  UNL     1     -35.271  13.305  -4.513  1.00 20.00     0.152 C 
HETATM    3  C3  UNL     1     -36.150  14.340  -3.957  1.00 20.00     0.134 C 
HETATM    4  C4  UNL     1     -33.395  14.234  -3.455  1.00 20.00     0.213 C 
HETATM    5  C5  UNL     1     -34.099  15.597  -3.510  1.00 20.00     0.217 C 
HETATM    6  N6  UNL     1     -33.995  13.231  -4.356  1.00 20.00    -0.294 NA
HETATM    7  F7  UNL     1     -37.476  14.149  -4.049  1.00 20.00    -0.205 F 
HETATM    8  F8  UNL     1     -33.703  16.232  -4.650  1.00 20.00    -0.219 F 
HETATM    9 CL9  UNL     1     -33.574  16.589  -2.121  1.00 20.00    -0.076 Cl
ENDROOT
TORSDOF 0
ENDMDL
