MODEL 1
REMARK VINA RESULT:      -5.4      0.000      0.000
REMARK  1 active torsions:
REMARK  status: ('A' for Active; 'I' for Inactive)
REMARK    1  A    between atoms: C6_6  and  C11_11 
ROOT
HETATM    1  C1  UNL     1     -34.589  13.286  -4.247  1.00 20.00    -0.004 C 
HETATM    2  C2  UNL     1     -33.308  13.747  -3.777  1.00 20.00    -0.003 C 
HETATM    3  C3  UNL     1     -35.681  14.056  -4.145  1.00 20.00    -0.025 C 
HETATM    4  C4  UNL     1     -33.110  15.028  -3.435  1.00 20.00    -0.013 C 
HETATM    5  C7  UNL     1     -35.629  15.434  -3.544  1.00 20.00     0.044 C 
HETATM    6  C11 UNL     1     -34.207  16.078  -3.505  1.00 20.00    -0.000 C 
HETATM    7  C12 UNL     1     -33.977  16.914  -4.778  1.00 20.00     0.025 C 
ENDROOT
BRANCH   6   8
HETATM    8  C6  UNL     1     -34.126  17.003  -2.315  1.00 20.00    -0.071 C 
HETATM    9  C5  UNL     1     -33.671  18.261  -2.301  1.00 20.00    -0.023 C 
HETATM   10  C8  UNL     1     -33.782  18.878  -0.948  1.00 20.00     0.027 C 
HETATM   11  C10 UNL     1     -34.074  17.678  -0.050  1.00 20.00     0.008 C 
HETATM   12  C9  UNL     1     -34.612  16.578  -0.966  1.00 20.00     0.035 C 
ENDBRANCH   6   8
TORSDOF 1
ENDMDL
MODEL 2
REMARK VINA RESULT:      -5.2      0.846      4.524
REMARK  1 active torsions:
REMARK  status: ('A' for Active; 'I' for Inactive)
REMARK    1  A    between atoms: C6_6  and  C11_11 
ROOT
HETATM    1  C1  UNL     1     -33.605  18.739  -0.450  1.00 20.00    -0.004 C 
HETATM    2  C2  UNL     1     -34.192  17.515   0.031  1.00 20.00    -0.003 C 
HETATM    3  C3  UNL     1     -33.399  18.938  -1.759  1.00 20.00    -0.025 C 
HETATM    4  C4  UNL     1     -34.761  16.636  -0.806  1.00 20.00    -0.013 C 
HETATM    5  C7  UNL     1     -33.773  17.908  -2.790  1.00 20.00     0.044 C 
HETATM    6  C11 UNL     1     -34.821  16.853  -2.311  1.00 20.00    -0.000 C 
HETATM    7  C12 UNL     1     -36.242  17.331  -2.661  1.00 20.00     0.025 C 
ENDROOT
BRANCH   6   8
HETATM    8  C6  UNL     1     -34.570  15.555  -3.039  1.00 20.00    -0.071 C 
HETATM    9  C5  UNL     1     -35.485  14.663  -3.435  1.00 20.00    -0.023 C 
HETATM   10  C8  UNL     1     -34.866  13.517  -4.163  1.00 20.00     0.027 C 
HETATM   11  C10 UNL     1     -33.378  13.684  -3.859  1.00 20.00     0.008 C 
HETATM   12  C9  UNL     1     -33.189  15.142  -3.438  1.00 20.00     0.035 C 
ENDBRANCH   6   8
TORSDOF 1
ENDMDL
MODEL 3
REMARK VINA RESULT:      -5.2      1.128      1.738
REMARK  1 active torsions:
REMARK  status: ('A' for Active; 'I' for Inactive)
REMARK    1  A    between atoms: C6_6  and  C11_11 
ROOT
HETATM    1  C1  UNL     1     -35.141  13.990  -5.917  1.00 20.00    -0.004 C 
HETATM    2  C2  UNL     1     -35.405  13.646  -4.543  1.00 20.00    -0.003 C 
HETATM    3  C3  UNL     1     -34.458  15.099  -6.232  1.00 20.00    -0.025 C 
HETATM    4  C4  UNL     1     -34.794  14.282  -3.534  1.00 20.00    -0.013 C 
HETATM    5  C7  UNL     1     -33.929  16.035  -5.179  1.00 20.00     0.044 C 
HETATM    6  C11 UNL     1     -33.796  15.409  -3.755  1.00 20.00    -0.000 C 
HETATM    7  C12 UNL     1     -32.382  14.828  -3.570  1.00 20.00     0.025 C 
ENDROOT
BRANCH   6   8
HETATM    8  C6  UNL     1     -33.995  16.496  -2.727  1.00 20.00    -0.071 C 
HETATM    9  C5  UNL     1     -33.700  17.794  -2.859  1.00 20.00    -0.023 C 
HETATM   10  C8  UNL     1     -34.074  18.576  -1.645  1.00 20.00     0.027 C 
HETATM   11  C10 UNL     1     -34.343  17.487  -0.608  1.00 20.00     0.008 C 
HETATM   12  C9  UNL     1     -34.611  16.204  -1.396  1.00 20.00     0.035 C 
ENDBRANCH   6   8
TORSDOF 1
ENDMDL
MODEL 4
REMARK VINA RESULT:      -5.2      1.173      2.079
REMARK  1 active torsions:
REMARK  status: ('A' for Active; 'I' for Inactive)
REMARK    1  A    between atoms: C6_6  and  C11_11 
ROOT
HETATM    1  C1  UNL     1     -35.042  13.912  -5.951  1.00 20.00    -0.004 C 
HETATM    2  C2  UNL     1     -35.264  13.491  -4.592  1.00 20.00    -0.003 C 
HETATM    3  C3  UNL     1     -34.457  15.086  -6.224  1.00 20.00    -0.025 C 
HETATM    4  C4  UNL     1     -34.699  14.133  -3.560  1.00 20.00    -0.013 C 
HETATM    5  C7  UNL     1     -33.998  16.019  -5.135  1.00 20.00     0.044 C 
HETATM    6  C11 UNL     1     -33.800  15.347  -3.739  1.00 20.00    -0.000 C 
HETATM    7  C12 UNL     1     -32.341  14.879  -3.587  1.00 20.00     0.025 C 
ENDROOT
BRANCH   6   8
HETATM    8  C6  UNL     1     -34.079  16.370  -2.665  1.00 20.00    -0.071 C 
HETATM    9  C5  UNL     1     -34.598  16.145  -1.453  1.00 20.00    -0.023 C 
HETATM   10  C8  UNL     1     -34.691  17.397  -0.646  1.00 20.00     0.027 C 
HETATM   11  C10 UNL     1     -34.452  18.490  -1.687  1.00 20.00     0.008 C 
HETATM   12  C9  UNL     1     -33.746  17.815  -2.862  1.00 20.00     0.035 C 
ENDBRANCH   6   8
TORSDOF 1
ENDMDL
MODEL 5
REMARK VINA RESULT:      -5.0      1.190      2.240
REMARK  1 active torsions:
REMARK  status: ('A' for Active; 'I' for Inactive)
REMARK    1  A    between atoms: C6_6  and  C11_11 
ROOT
HETATM    1  C1  UNL     1     -34.726  13.841  -6.007  1.00 20.00    -0.004 C 
HETATM    2  C2  UNL     1     -34.943  15.259  -6.128  1.00 20.00    -0.003 C 
HETATM    3  C3  UNL     1     -34.553  13.268  -4.808  1.00 20.00    -0.025 C 
HETATM    4  C4  UNL     1     -35.206  16.020  -5.057  1.00 20.00    -0.013 C 
HETATM    5  C7  UNL     1     -34.580  14.068  -3.533  1.00 20.00     0.044 C 
HETATM    6  C11 UNL     1     -35.286  15.456  -3.646  1.00 20.00    -0.000 C 
HETATM    7  C12 UNL     1     -36.775  15.317  -3.278  1.00 20.00     0.025 C 
ENDROOT
BRANCH   6   8
HETATM    8  C6  UNL     1     -34.647  16.407  -2.664  1.00 20.00    -0.071 C 
HETATM    9  C5  UNL     1     -34.702  16.344  -1.328  1.00 20.00    -0.023 C 
HETATM   10  C8  UNL     1     -33.914  17.434  -0.686  1.00 20.00     0.027 C 
HETATM   11  C10 UNL     1     -33.633  18.383  -1.852  1.00 20.00     0.008 C 
HETATM   12  C9  UNL     1     -33.811  17.558  -3.126  1.00 20.00     0.035 C 
ENDBRANCH   6   8
TORSDOF 1
ENDMDL
MODEL 6
REMARK VINA RESULT:      -4.9     11.936     14.769
REMARK  1 active torsions:
REMARK  status: ('A' for Active; 'I' for Inactive)
REMARK    1  A    between atoms: C6_6  and  C11_11 
ROOT
HETATM    1  C1  UNL     1     -41.293   7.183  -0.976  1.00 20.00    -0.004 C 
HETATM    2  C2  UNL     1     -40.558   5.979  -0.686  1.00 20.00    -0.003 C 
HETATM    3  C3  UNL     1     -42.366   7.162  -1.779  1.00 20.00    -0.025 C 
HETATM    4  C4  UNL     1     -41.040   4.771  -1.012  1.00 20.00    -0.013 C 
HETATM    5  C7  UNL     1     -42.861   5.889  -2.412  1.00 20.00     0.044 C 
HETATM    6  C11 UNL     1     -42.376   4.579  -1.714  1.00 20.00    -0.000 C 
HETATM    7  C12 UNL     1     -43.404   4.140  -0.655  1.00 20.00     0.025 C 
ENDROOT
BRANCH   6   8
HETATM    8  C6  UNL     1     -42.273   3.487  -2.750  1.00 20.00    -0.071 C 
HETATM    9  C5  UNL     1     -41.236   2.668  -2.958  1.00 20.00    -0.023 C 
HETATM   10  C8  UNL     1     -41.512   1.685  -4.046  1.00 20.00     0.027 C 
HETATM   11  C10 UNL     1     -42.771   2.251  -4.703  1.00 20.00     0.008 C 
HETATM   12  C9  UNL     1     -43.410   3.182  -3.673  1.00 20.00     0.035 C 
ENDBRANCH   6   8
TORSDOF 1
ENDMDL
MODEL 7
REMARK VINA RESULT:      -4.9      1.299      4.534
REMARK  1 active torsions:
REMARK  status: ('A' for Active; 'I' for Inactive)
REMARK    1  A    between atoms: C6_6  and  C11_11 
ROOT
HETATM    1  C1  UNL     1     -36.205  18.271  -0.212  1.00 20.00    -0.004 C 
HETATM    2  C2  UNL     1     -36.757  18.145  -1.536  1.00 20.00    -0.003 C 
HETATM    3  C3  UNL     1     -35.119  17.577   0.153  1.00 20.00    -0.025 C 
HETATM    4  C4  UNL     1     -36.089  17.518  -2.514  1.00 20.00    -0.013 C 
HETATM    5  C7  UNL     1     -34.418  16.640  -0.793  1.00 20.00     0.044 C 
HETATM    6  C11 UNL     1     -34.720  16.890  -2.305  1.00 20.00    -0.000 C 
HETATM    7  C12 UNL     1     -33.668  17.847  -2.896  1.00 20.00     0.025 C 
ENDROOT
BRANCH   6   8
HETATM    8  C6  UNL     1     -34.626  15.576  -3.042  1.00 20.00    -0.071 C 
HETATM    9  C5  UNL     1     -35.640  14.796  -3.432  1.00 20.00    -0.023 C 
HETATM   10  C8  UNL     1     -35.164  13.592  -4.172  1.00 20.00     0.027 C 
HETATM   11  C10 UNL     1     -33.663  13.587  -3.883  1.00 20.00     0.008 C 
HETATM   12  C9  UNL     1     -33.305  15.011  -3.458  1.00 20.00     0.035 C 
ENDBRANCH   6   8
TORSDOF 1
ENDMDL
MODEL 8
REMARK VINA RESULT:      -4.9      1.653      4.525
REMARK  1 active torsions:
REMARK  status: ('A' for Active; 'I' for Inactive)
REMARK    1  A    between atoms: C6_6  and  C11_11 
ROOT
HETATM    1  C1  UNL     1     -34.134  17.585  -1.503  1.00 20.00    -0.004 C 
HETATM    2  C2  UNL     1     -33.733  18.058  -2.803  1.00 20.00    -0.003 C 
HETATM    3  C3  UNL     1     -34.686  16.374  -1.349  1.00 20.00    -0.025 C 
HETATM    4  C4  UNL     1     -33.681  17.236  -3.860  1.00 20.00    -0.013 C 
HETATM    5  C7  UNL     1     -34.911  15.448  -2.513  1.00 20.00     0.044 C 
HETATM    6  C11 UNL     1     -34.048  15.762  -3.776  1.00 20.00    -0.000 C 
HETATM    7  C12 UNL     1     -32.738  14.954  -3.728  1.00 20.00     0.025 C 
ENDROOT
BRANCH   6   8
HETATM    8  C6  UNL     1     -34.815  15.340  -5.005  1.00 20.00    -0.071 C 
HETATM    9  C5  UNL     1     -34.305  14.950  -6.179  1.00 20.00    -0.023 C 
HETATM   10  C8  UNL     1     -35.372  14.568  -7.149  1.00 20.00     0.027 C 
HETATM   11  C10 UNL     1     -36.641  15.106  -6.489  1.00 20.00     0.008 C 
HETATM   12  C9  UNL     1     -36.310  15.284  -5.007  1.00 20.00     0.035 C 
ENDBRANCH   6   8
TORSDOF 1
ENDMDL
MODEL 9
REMARK VINA RESULT:      -4.8      1.650      2.850
REMARK  1 active torsions:
REMARK  status: ('A' for Active; 'I' for Inactive)
REMARK    1  A    between atoms: C6_6  and  C11_11 
ROOT
HETATM    1  C1  UNL     1     -35.761  15.012  -7.070  1.00 20.00    -0.004 C 
HETATM    2  C2  UNL     1     -36.683  15.158  -5.974  1.00 20.00    -0.003 C 
HETATM    3  C3  UNL     1     -34.440  15.139  -6.884  1.00 20.00    -0.025 C 
HETATM    4  C4  UNL     1     -36.257  15.196  -4.703  1.00 20.00    -0.013 C 
HETATM    5  C7  UNL     1     -33.852  15.433  -5.531  1.00 20.00     0.044 C 
HETATM    6  C11 UNL     1     -34.787  15.101  -4.324  1.00 20.00    -0.000 C 
HETATM    7  C12 UNL     1     -34.519  13.666  -3.835  1.00 20.00     0.025 C 
ENDROOT
BRANCH   6   8
HETATM    8  C6  UNL     1     -34.473  16.049  -3.193  1.00 20.00    -0.071 C 
HETATM    9  C5  UNL     1     -34.761  15.881  -1.897  1.00 20.00    -0.023 C 
HETATM   10  C8  UNL     1     -34.259  17.012  -1.064  1.00 20.00     0.027 C 
HETATM   11  C10 UNL     1     -33.906  18.071  -2.107  1.00 20.00     0.008 C 
HETATM   12  C9  UNL     1     -33.735  17.327  -3.432  1.00 20.00     0.035 C 
ENDBRANCH   6   8
TORSDOF 1
ENDMDL
