MODEL 1
REMARK VINA RESULT:      -5.0      0.000      0.000
REMARK  1 active torsions:
REMARK  status: ('A' for Active; 'I' for Inactive)
REMARK    1  A    between atoms: C2_2  and  C4_4 
ROOT
HETATM    1  C1  UNL     1     -33.065   6.462   3.794  1.00 20.00    -0.102 C 
HETATM    2  C2  UNL     1     -33.776   5.875   4.564  1.00 20.00     0.008 C 
HETATM    3  C3  UNL     1     -32.199   7.178   2.858  1.00 20.00     0.112 C 
ENDROOT
BRANCH   2   4
HETATM    4  C4  UNL     1     -34.634   5.165   5.493  1.00 20.00     0.459 C 
HETATM    5  F5  UNL     1     -34.864   5.908   6.599  1.00 20.00    -0.159 F 
HETATM    6  F6  UNL     1     -34.066   4.002   5.882  1.00 20.00    -0.159 F 
HETATM    7  F7  UNL     1     -35.827   4.878   4.926  1.00 20.00    -0.159 F 
ENDBRANCH   2   4
TORSDOF 1
ENDMDL
MODEL 2
REMARK VINA RESULT:      -5.0      0.014      1.431
REMARK  1 active torsions:
REMARK  status: ('A' for Active; 'I' for Inactive)
REMARK    1  A    between atoms: C2_2  and  C4_4 
ROOT
HETATM    1  C1  UNL     1     -33.057   6.463   3.786  1.00 20.00    -0.102 C 
HETATM    2  C2  UNL     1     -33.770   5.881   4.558  1.00 20.00     0.008 C 
HETATM    3  C3  UNL     1     -32.190   7.173   2.847  1.00 20.00     0.112 C 
ENDROOT
BRANCH   2   4
HETATM    4  C4  UNL     1     -34.629   5.177   5.491  1.00 20.00     0.459 C 
HETATM    5  F5  UNL     1     -35.825   4.896   4.925  1.00 20.00    -0.159 F 
HETATM    6  F6  UNL     1     -34.854   5.923   6.595  1.00 20.00    -0.159 F 
HETATM    7  F7  UNL     1     -34.067   4.012   5.880  1.00 20.00    -0.159 F 
ENDBRANCH   2   4
TORSDOF 1
ENDMDL
MODEL 3
REMARK VINA RESULT:      -5.0      0.017      1.433
REMARK  1 active torsions:
REMARK  status: ('A' for Active; 'I' for Inactive)
REMARK    1  A    between atoms: C2_2  and  C4_4 
ROOT
HETATM    1  C1  UNL     1     -33.054   6.462   3.783  1.00 20.00    -0.102 C 
HETATM    2  C2  UNL     1     -33.767   5.880   4.555  1.00 20.00     0.008 C 
HETATM    3  C3  UNL     1     -32.185   7.171   2.844  1.00 20.00     0.112 C 
ENDROOT
BRANCH   2   4
HETATM    4  C4  UNL     1     -34.628   5.177   5.487  1.00 20.00     0.459 C 
HETATM    5  F5  UNL     1     -34.064   4.011   5.877  1.00 20.00    -0.159 F 
HETATM    6  F6  UNL     1     -35.822   4.894   4.920  1.00 20.00    -0.159 F 
HETATM    7  F7  UNL     1     -34.855   5.922   6.590  1.00 20.00    -0.159 F 
ENDBRANCH   2   4
TORSDOF 1
ENDMDL
MODEL 4
REMARK VINA RESULT:      -4.6      2.125      2.787
REMARK  1 active torsions:
REMARK  status: ('A' for Active; 'I' for Inactive)
REMARK    1  A    between atoms: C2_2  and  C4_4 
ROOT
HETATM    1  C1  UNL     1     -33.962   6.523   6.005  1.00 20.00    -0.102 C 
HETATM    2  C2  UNL     1     -34.458   5.821   5.166  1.00 20.00     0.008 C 
HETATM    3  C3  UNL     1     -33.356   7.375   7.027  1.00 20.00     0.112 C 
ENDROOT
BRANCH   2   4
HETATM    4  C4  UNL     1     -35.058   4.975   4.151  1.00 20.00     0.459 C 
HETATM    5  F5  UNL     1     -34.302   4.959   3.030  1.00 20.00    -0.159 F 
HETATM    6  F6  UNL     1     -36.290   5.420   3.819  1.00 20.00    -0.159 F 
HETATM    7  F7  UNL     1     -35.178   3.704   4.593  1.00 20.00    -0.159 F 
ENDBRANCH   2   4
TORSDOF 1
ENDMDL
MODEL 5
REMARK VINA RESULT:      -4.5      2.967      3.888
REMARK  1 active torsions:
REMARK  status: ('A' for Active; 'I' for Inactive)
REMARK    1  A    between atoms: C2_2  and  C4_4 
ROOT
HETATM    1  C1  UNL     1     -34.154   5.607   5.075  1.00 20.00    -0.102 C 
HETATM    2  C2  UNL     1     -33.394   6.137   4.311  1.00 20.00     0.008 C 
HETATM    3  C3  UNL     1     -35.080   4.962   6.004  1.00 20.00     0.112 C 
ENDROOT
BRANCH   2   4
HETATM    4  C4  UNL     1     -32.476   6.777   3.387  1.00 20.00     0.459 C 
HETATM    5  F5  UNL     1     -31.486   7.413   4.055  1.00 20.00    -0.159 F 
HETATM    6  F6  UNL     1     -33.118   7.689   2.624  1.00 20.00    -0.159 F 
HETATM    7  F7  UNL     1     -31.908   5.868   2.564  1.00 20.00    -0.159 F 
ENDBRANCH   2   4
TORSDOF 1
ENDMDL
MODEL 6
REMARK VINA RESULT:      -4.5      2.965      3.888
REMARK  1 active torsions:
REMARK  status: ('A' for Active; 'I' for Inactive)
REMARK    1  A    between atoms: C2_2  and  C4_4 
ROOT
HETATM    1  C1  UNL     1     -34.154   5.603   5.075  1.00 20.00    -0.102 C 
HETATM    2  C2  UNL     1     -33.394   6.136   4.311  1.00 20.00     0.008 C 
HETATM    3  C3  UNL     1     -35.079   4.955   6.003  1.00 20.00     0.112 C 
ENDROOT
BRANCH   2   4
HETATM    4  C4  UNL     1     -32.477   6.778   3.389  1.00 20.00     0.459 C 
HETATM    5  F5  UNL     1     -31.904   5.869   2.569  1.00 20.00    -0.159 F 
HETATM    6  F6  UNL     1     -31.491   7.417   4.058  1.00 20.00    -0.159 F 
HETATM    7  F7  UNL     1     -33.119   7.686   2.623  1.00 20.00    -0.159 F 
ENDBRANCH   2   4
TORSDOF 1
ENDMDL
MODEL 7
REMARK VINA RESULT:      -4.2      2.511      3.396
REMARK  1 active torsions:
REMARK  status: ('A' for Active; 'I' for Inactive)
REMARK    1  A    between atoms: C2_2  and  C4_4 
ROOT
HETATM    1  C1  UNL     1     -32.334   8.468   1.886  1.00 20.00    -0.102 C 
HETATM    2  C2  UNL     1     -32.499   7.489   2.562  1.00 20.00     0.008 C 
HETATM    3  C3  UNL     1     -32.133   9.660   1.064  1.00 20.00     0.112 C 
ENDROOT
BRANCH   2   4
HETATM    4  C4  UNL     1     -32.698   6.306   3.379  1.00 20.00     0.459 C 
HETATM    5  F5  UNL     1     -33.733   5.570   2.916  1.00 20.00    -0.159 F 
HETATM    6  F6  UNL     1     -32.966   6.645   4.660  1.00 20.00    -0.159 F 
HETATM    7  F7  UNL     1     -31.594   5.527   3.375  1.00 20.00    -0.159 F 
ENDBRANCH   2   4
TORSDOF 1
ENDMDL
MODEL 8
REMARK VINA RESULT:      -4.0      4.937      5.761
REMARK  1 active torsions:
REMARK  status: ('A' for Active; 'I' for Inactive)
REMARK    1  A    between atoms: C2_2  and  C4_4 
ROOT
HETATM    1  C1  UNL     1     -32.594   7.200   2.880  1.00 20.00    -0.102 C 
HETATM    2  C2  UNL     1     -32.337   8.024   2.044  1.00 20.00     0.008 C 
HETATM    3  C3  UNL     1     -32.907   6.197   3.897  1.00 20.00     0.112 C 
ENDROOT
BRANCH   2   4
HETATM    4  C4  UNL     1     -32.028   9.019   1.035  1.00 20.00     0.459 C 
HETATM    5  F5  UNL     1     -32.805   8.853  -0.059  1.00 20.00    -0.159 F 
HETATM    6  F6  UNL     1     -30.737   8.928   0.648  1.00 20.00    -0.159 F 
HETATM    7  F7  UNL     1     -32.235  10.268   1.509  1.00 20.00    -0.159 F 
ENDBRANCH   2   4
TORSDOF 1
ENDMDL
MODEL 9
REMARK VINA RESULT:      -3.8     11.977     12.504
REMARK  1 active torsions:
REMARK  status: ('A' for Active; 'I' for Inactive)
REMARK    1  A    between atoms: C2_2  and  C4_4 
ROOT
HETATM    1  C1  UNL     1     -34.489  15.778  -2.189  1.00 20.00    -0.102 C 
HETATM    2  C2  UNL     1     -34.297  14.927  -3.014  1.00 20.00     0.008 C 
HETATM    3  C3  UNL     1     -34.722  16.814  -1.183  1.00 20.00     0.112 C 
ENDROOT
BRANCH   2   4
HETATM    4  C4  UNL     1     -34.065  13.900  -4.012  1.00 20.00     0.459 C 
HETATM    5  F5  UNL     1     -34.032  14.434  -5.254  1.00 20.00    -0.159 F 
HETATM    6  F6  UNL     1     -35.046  12.970  -3.983  1.00 20.00    -0.159 F 
HETATM    7  F7  UNL     1     -32.888  13.273  -3.794  1.00 20.00    -0.159 F 
ENDBRANCH   2   4
TORSDOF 1
ENDMDL
