MODEL 1
REMARK VINA RESULT:      -4.7      0.000      0.000
REMARK  0 active torsions:
REMARK  status: ('A' for Active; 'I' for Inactive)
ROOT
HETATM    1  C1  UNL     1     -35.579   5.017   3.966  1.00 20.00     0.008 C 
HETATM    2  C2  UNL     1     -34.526   5.537   2.986  1.00 20.00     0.030 C 
HETATM    3  C3  UNL     1     -34.953   4.263   5.134  1.00 20.00     0.081 C 
HETATM    4  C4  UNL     1     -33.656   6.680   3.505  1.00 20.00     0.270 C 
HETATM    5  C5  UNL     1     -33.791   6.464   5.913  1.00 20.00     0.348 C 
HETATM    6  C6  UNL     1     -34.474   5.153   6.269  1.00 20.00     0.269 C 
HETATM    7  N7  UNL     1     -32.922   6.384   4.738  1.00 20.00     0.089 N 
HETATM    8  F8  UNL     1     -33.641   4.419   7.059  1.00 20.00    -0.204 F 
HETATM    9  F9  UNL     1     -35.550   5.454   7.054  1.00 20.00    -0.204 F 
HETATM   10  H20 UNL     1     -32.477   5.469   4.681  1.00 20.00     0.316 HD
ENDROOT
TORSDOF 0
ENDMDL
MODEL 2
REMARK VINA RESULT:      -4.6      1.161      2.283
REMARK  0 active torsions:
REMARK  status: ('A' for Active; 'I' for Inactive)
ROOT
HETATM    1  C1  UNL     1     -33.019   6.396   4.755  1.00 20.00     0.008 C 
HETATM    2  C2  UNL     1     -33.801   6.560   3.452  1.00 20.00     0.030 C 
HETATM    3  C3  UNL     1     -33.929   6.425   5.979  1.00 20.00     0.081 C 
HETATM    4  C4  UNL     1     -34.680   5.373   3.062  1.00 20.00     0.270 C 
HETATM    5  C5  UNL     1     -35.074   4.230   5.160  1.00 20.00     0.348 C 
HETATM    6  C6  UNL     1     -34.575   5.090   6.310  1.00 20.00     0.269 C 
HETATM    7  N7  UNL     1     -35.678   4.990   4.065  1.00 20.00     0.089 N 
HETATM    8  F8  UNL     1     -35.605   5.321   7.171  1.00 20.00    -0.204 F 
HETATM    9  F9  UNL     1     -33.671   4.345   7.013  1.00 20.00    -0.204 F 
HETATM   10  H20 UNL     1     -36.163   5.813   4.422  1.00 20.00     0.316 HD
ENDROOT
TORSDOF 0
ENDMDL
MODEL 3
REMARK VINA RESULT:      -4.5     12.745     13.612
REMARK  0 active torsions:
REMARK  status: ('A' for Active; 'I' for Inactive)
ROOT
HETATM    1  C1  UNL     1     -35.225  13.767  -4.571  1.00 20.00     0.008 C 
HETATM    2  C2  UNL     1     -35.168  14.013  -6.078  1.00 20.00     0.030 C 
HETATM    3  C3  UNL     1     -33.834  13.649  -3.955  1.00 20.00     0.081 C 
HETATM    4  C4  UNL     1     -34.657  15.390  -6.499  1.00 20.00     0.270 C 
HETATM    5  C5  UNL     1     -33.356  16.131  -4.596  1.00 20.00     0.348 C 
HETATM    6  C6  UNL     1     -33.184  14.981  -3.617  1.00 20.00     0.269 C 
HETATM    7  N7  UNL     1     -33.320  15.729  -6.002  1.00 20.00     0.089 N 
HETATM    8  F8  UNL     1     -31.854  14.763  -3.418  1.00 20.00    -0.204 F 
HETATM    9  F9  UNL     1     -33.671  15.396  -2.410  1.00 20.00    -0.204 F 
HETATM   10  H20 UNL     1     -32.678  14.949  -6.138  1.00 20.00     0.316 HD
ENDROOT
TORSDOF 0
ENDMDL
MODEL 4
REMARK VINA RESULT:      -4.4      2.302      3.181
REMARK  0 active torsions:
REMARK  status: ('A' for Active; 'I' for Inactive)
ROOT
HETATM    1  C1  UNL     1     -34.939   4.101   4.455  1.00 20.00     0.008 C 
HETATM    2  C2  UNL     1     -35.284   4.295   5.931  1.00 20.00     0.030 C 
HETATM    3  C3  UNL     1     -35.089   5.391   3.655  1.00 20.00     0.081 C 
HETATM    4  C4  UNL     1     -34.289   5.131   6.733  1.00 20.00     0.270 C 
HETATM    5  C5  UNL     1     -33.164   6.461   5.052  1.00 20.00     0.348 C 
HETATM    6  C6  UNL     1     -33.880   6.311   3.719  1.00 20.00     0.269 C 
HETATM    7  N7  UNL     1     -34.057   6.481   6.211  1.00 20.00     0.089 N 
HETATM    8  F8  UNL     1     -34.263   7.542   3.280  1.00 20.00    -0.204 F 
HETATM    9  F9  UNL     1     -32.962   5.867   2.811  1.00 20.00    -0.204 F 
HETATM   10  H20 UNL     1     -34.941   6.932   5.978  1.00 20.00     0.316 HD
ENDROOT
TORSDOF 0
ENDMDL
MODEL 5
REMARK VINA RESULT:      -4.4     12.681     13.632
REMARK  0 active torsions:
REMARK  status: ('A' for Active; 'I' for Inactive)
ROOT
HETATM    1  C1  UNL     1     -35.485  14.383  -5.759  1.00 20.00     0.008 C 
HETATM    2  C2  UNL     1     -34.830  15.335  -6.759  1.00 20.00     0.030 C 
HETATM    3  C3  UNL     1     -34.467  13.470  -5.083  1.00 20.00     0.081 C 
HETATM    4  C4  UNL     1     -33.965  16.437  -6.147  1.00 20.00     0.270 C 
HETATM    5  C5  UNL     1     -33.356  15.554  -3.976  1.00 20.00     0.348 C 
HETATM    6  C6  UNL     1     -33.765  14.092  -3.887  1.00 20.00     0.269 C 
HETATM    7  N7  UNL     1     -32.871  15.958  -5.297  1.00 20.00     0.089 N 
HETATM    8  F8  UNL     1     -32.665  13.340  -3.605  1.00 20.00    -0.204 F 
HETATM    9  F9  UNL     1     -34.584  13.964  -2.802  1.00 20.00    -0.204 F 
HETATM   10  H20 UNL     1     -32.373  15.193  -5.748  1.00 20.00     0.316 HD
ENDROOT
TORSDOF 0
ENDMDL
MODEL 6
REMARK VINA RESULT:      -4.3      2.417      3.524
REMARK  0 active torsions:
REMARK  status: ('A' for Active; 'I' for Inactive)
ROOT
HETATM    1  C1  UNL     1     -34.063   6.415   6.276  1.00 20.00     0.008 C 
HETATM    2  C2  UNL     1     -34.379   4.982   6.704  1.00 20.00     0.030 C 
HETATM    3  C3  UNL     1     -33.185   6.462   5.030  1.00 20.00     0.081 C 
HETATM    4  C4  UNL     1     -35.322   4.214   5.779  1.00 20.00     0.270 C 
HETATM    5  C5  UNL     1     -35.104   5.355   3.654  1.00 20.00     0.348 C 
HETATM    6  C6  UNL     1     -33.948   6.340   3.721  1.00 20.00     0.269 C 
HETATM    7  N7  UNL     1     -34.871   4.111   4.388  1.00 20.00     0.089 N 
HETATM    8  F8  UNL     1     -33.054   6.043   2.737  1.00 20.00    -0.204 F 
HETATM    9  F9  UNL     1     -34.444   7.572   3.404  1.00 20.00    -0.204 F 
HETATM   10  H20 UNL     1     -33.887   3.847   4.349  1.00 20.00     0.316 HD
ENDROOT
TORSDOF 0
ENDMDL
MODEL 7
REMARK VINA RESULT:      -4.2     12.487     13.290
REMARK  0 active torsions:
REMARK  status: ('A' for Active; 'I' for Inactive)
ROOT
HETATM    1  C1  UNL     1     -33.251  15.580  -3.488  1.00 20.00     0.008 C 
HETATM    2  C2  UNL     1     -33.991  16.271  -2.343  1.00 20.00     0.030 C 
HETATM    3  C3  UNL     1     -33.674  14.123  -3.648  1.00 20.00     0.081 C 
HETATM    4  C4  UNL     1     -35.477  16.533  -2.586  1.00 20.00     0.270 C 
HETATM    5  C5  UNL     1     -36.080  14.909  -4.278  1.00 20.00     0.348 C 
HETATM    6  C6  UNL     1     -34.936  13.926  -4.472  1.00 20.00     0.269 C 
HETATM    7  N7  UNL     1     -36.269  15.338  -2.892  1.00 20.00     0.089 N 
HETATM    8  F8  UNL     1     -35.394  12.663  -4.247  1.00 20.00    -0.204 F 
HETATM    9  F9  UNL     1     -34.590  13.960  -5.793  1.00 20.00    -0.204 F 
HETATM   10  H20 UNL     1     -36.044  14.583  -2.246  1.00 20.00     0.316 HD
ENDROOT
TORSDOF 0
ENDMDL
MODEL 8
REMARK VINA RESULT:      -4.1     12.651     13.483
REMARK  0 active torsions:
REMARK  status: ('A' for Active; 'I' for Inactive)
ROOT
HETATM    1  C1  UNL     1     -33.500  13.811  -3.594  1.00 20.00     0.008 C 
HETATM    2  C2  UNL     1     -34.644  13.406  -4.522  1.00 20.00     0.030 C 
HETATM    3  C3  UNL     1     -33.039  15.244  -3.841  1.00 20.00     0.081 C 
HETATM    4  C4  UNL     1     -35.984  14.086  -4.246  1.00 20.00     0.270 C 
HETATM    5  C5  UNL     1     -35.373  16.111  -3.069  1.00 20.00     0.348 C 
HETATM    6  C6  UNL     1     -33.865  16.300  -3.125  1.00 20.00     0.269 C 
HETATM    7  N7  UNL     1     -35.951  15.551  -4.290  1.00 20.00     0.089 N 
HETATM    8  F8  UNL     1     -33.590  17.507  -3.692  1.00 20.00    -0.204 F 
HETATM    9  F9  UNL     1     -33.417  16.389  -1.839  1.00 20.00    -0.204 F 
HETATM   10  H20 UNL     1     -35.442  15.874  -5.112  1.00 20.00     0.316 HD
ENDROOT
TORSDOF 0
ENDMDL
MODEL 9
REMARK VINA RESULT:      -4.0      9.324     10.176
REMARK  0 active torsions:
REMARK  status: ('A' for Active; 'I' for Inactive)
ROOT
HETATM    1  C1  UNL     1     -43.253   5.209  -2.604  1.00 20.00     0.008 C 
HETATM    2  C2  UNL     1     -42.945   6.550  -3.270  1.00 20.00     0.030 C 
HETATM    3  C3  UNL     1     -41.986   4.423  -2.282  1.00 20.00     0.081 C 
HETATM    4  C4  UNL     1     -42.298   7.598  -2.366  1.00 20.00     0.270 C 
HETATM    5  C5  UNL     1     -41.275   6.289  -0.605  1.00 20.00     0.348 C 
HETATM    6  C6  UNL     1     -41.324   4.814  -0.971  1.00 20.00     0.269 C 
HETATM    7  N7  UNL     1     -41.040   7.179  -1.743  1.00 20.00     0.089 N 
HETATM    8  F8  UNL     1     -40.057   4.315  -0.973  1.00 20.00    -0.204 F 
HETATM    9  F9  UNL     1     -41.971   4.165   0.041  1.00 20.00    -0.204 F 
HETATM   10  H20 UNL     1     -40.429   6.736  -2.428  1.00 20.00     0.316 HD
ENDROOT
TORSDOF 0
ENDMDL
