MODEL 1
REMARK VINA RESULT:      -4.8      0.000      0.000
REMARK  3 active torsions:
REMARK  status: ('A' for Active; 'I' for Inactive)
REMARK    1  A    between atoms: C3_3  and  C8_8 
REMARK    2  A    between atoms: C6_6  and  C7_7 
REMARK    3  A    between atoms: C7_7  and  C8_8 
ROOT
HETATM    1  C5  UNL     1     -34.308   5.096   2.589  1.00 20.00     0.010 C 
HETATM    2  C8  UNL     1     -33.755   5.581   3.930  1.00 20.00    -0.014 C 
ENDROOT
BRANCH   2   3
HETATM    3  C3  UNL     1     -34.839   5.468   5.005  1.00 20.00    -0.011 A 
HETATM    4  C1  UNL     1     -35.048   4.171   5.737  1.00 20.00     0.005 A 
HETATM    5  C2  UNL     1     -34.457   5.352   6.455  1.00 20.00     0.005 A 
ENDBRANCH   2   3
BRANCH   2   6
HETATM    6  C7  UNL     1     -33.236   7.029   3.862  1.00 20.00     0.004 C 
BRANCH   6   7
HETATM    7  C6  UNL     1     -31.947   7.178   3.050  1.00 20.00    -0.004 C 
HETATM    8  C4  UNL     1     -32.077   8.265   1.994  1.00 20.00     0.005 C 
ENDBRANCH   6   7
ENDBRANCH   2   6
TORSDOF 3
ENDMDL
MODEL 2
REMARK VINA RESULT:      -4.8      1.123      1.935
REMARK  3 active torsions:
REMARK  status: ('A' for Active; 'I' for Inactive)
REMARK    1  A    between atoms: C3_3  and  C8_8 
REMARK    2  A    between atoms: C6_6  and  C7_7 
REMARK    3  A    between atoms: C7_7  and  C8_8 
ROOT
HETATM    1  C5  UNL     1     -33.738   6.938   6.591  1.00 20.00     0.010 C 
HETATM    2  C8  UNL     1     -33.811   6.595   5.103  1.00 20.00    -0.014 C 
ENDROOT
BRANCH   2   3
HETATM    3  C3  UNL     1     -34.108   5.103   4.931  1.00 20.00    -0.011 A 
HETATM    4  C1  UNL     1     -35.064   4.409   5.862  1.00 20.00     0.005 A 
HETATM    5  C2  UNL     1     -35.452   4.651   4.430  1.00 20.00     0.005 A 
ENDBRANCH   2   3
BRANCH   2   6
HETATM    6  C7  UNL     1     -32.517   6.959   4.352  1.00 20.00     0.004 C 
BRANCH   6   7
HETATM    7  C6  UNL     1     -32.626   6.798   2.834  1.00 20.00    -0.004 C 
HETATM    8  C4  UNL     1     -32.091   8.023   2.106  1.00 20.00     0.005 C 
ENDBRANCH   6   7
ENDBRANCH   2   6
TORSDOF 3
ENDMDL
MODEL 3
REMARK VINA RESULT:      -4.6      0.930      4.025
REMARK  3 active torsions:
REMARK  status: ('A' for Active; 'I' for Inactive)
REMARK    1  A    between atoms: C3_3  and  C8_8 
REMARK    2  A    between atoms: C6_6  and  C7_7 
REMARK    3  A    between atoms: C7_7  and  C8_8 
ROOT
HETATM    1  C5  UNL     1     -34.836   5.532   3.258  1.00 20.00     0.010 C 
HETATM    2  C8  UNL     1     -33.952   6.525   4.012  1.00 20.00    -0.014 C 
ENDROOT
BRANCH   2   3
HETATM    3  C3  UNL     1     -32.544   6.521   3.411  1.00 20.00    -0.011 A 
HETATM    4  C1  UNL     1     -32.158   7.542   2.377  1.00 20.00     0.005 A 
HETATM    5  C2  UNL     1     -31.569   7.613   3.758  1.00 20.00     0.005 A 
ENDBRANCH   2   3
BRANCH   2   6
HETATM    6  C7  UNL     1     -33.877   6.218   5.519  1.00 20.00     0.004 C 
BRANCH   6   7
HETATM    7  C6  UNL     1     -34.954   5.241   5.997  1.00 20.00    -0.004 C 
HETATM    8  C4  UNL     1     -34.425   3.815   6.054  1.00 20.00     0.005 C 
ENDBRANCH   6   7
ENDBRANCH   2   6
TORSDOF 3
ENDMDL
MODEL 4
REMARK VINA RESULT:      -4.6      1.022      3.699
REMARK  3 active torsions:
REMARK  status: ('A' for Active; 'I' for Inactive)
REMARK    1  A    between atoms: C3_3  and  C8_8 
REMARK    2  A    between atoms: C6_6  and  C7_7 
REMARK    3  A    between atoms: C7_7  and  C8_8 
ROOT
HETATM    1  C5  UNL     1     -35.223   5.776   2.954  1.00 20.00     0.010 C 
HETATM    2  C8  UNL     1     -34.146   6.106   3.988  1.00 20.00    -0.014 C 
ENDROOT
BRANCH   2   3
HETATM    3  C3  UNL     1     -32.778   6.175   3.304  1.00 20.00    -0.011 A 
HETATM    4  C1  UNL     1     -32.445   7.323   2.392  1.00 20.00     0.005 A 
HETATM    5  C2  UNL     1     -31.770   7.207   3.730  1.00 20.00     0.005 A 
ENDBRANCH   2   3
BRANCH   2   6
HETATM    6  C7  UNL     1     -34.103   5.083   5.138  1.00 20.00     0.004 C 
BRANCH   6   7
HETATM    7  C6  UNL     1     -34.499   5.672   6.494  1.00 20.00    -0.004 C 
HETATM    8  C4  UNL     1     -33.810   7.005   6.743  1.00 20.00     0.005 C 
ENDBRANCH   6   7
ENDBRANCH   2   6
TORSDOF 3
ENDMDL
MODEL 5
REMARK VINA RESULT:      -4.2      1.349      4.217
REMARK  3 active torsions:
REMARK  status: ('A' for Active; 'I' for Inactive)
REMARK    1  A    between atoms: C3_3  and  C8_8 
REMARK    2  A    between atoms: C6_6  and  C7_7 
REMARK    3  A    between atoms: C7_7  and  C8_8 
ROOT
HETATM    1  C5  UNL     1     -33.723   7.043   6.137  1.00 20.00     0.010 C 
HETATM    2  C8  UNL     1     -33.739   6.107   4.928  1.00 20.00    -0.014 C 
ENDROOT
BRANCH   2   3
HETATM    3  C3  UNL     1     -33.188   6.839   3.702  1.00 20.00    -0.011 A 
HETATM    4  C1  UNL     1     -31.769   7.338   3.693  1.00 20.00     0.005 A 
HETATM    5  C2  UNL     1     -32.162   6.178   2.823  1.00 20.00     0.005 A 
ENDBRANCH   2   3
BRANCH   2   6
HETATM    6  C7  UNL     1     -35.148   5.566   4.623  1.00 20.00     0.004 C 
BRANCH   6   7
HETATM    7  C6  UNL     1     -35.341   4.102   5.026  1.00 20.00    -0.004 C 
HETATM    8  C4  UNL     1     -34.309   3.671   6.059  1.00 20.00     0.005 C 
ENDBRANCH   6   7
ENDBRANCH   2   6
TORSDOF 3
ENDMDL
MODEL 6
REMARK VINA RESULT:      -4.1      1.447      4.747
REMARK  3 active torsions:
REMARK  status: ('A' for Active; 'I' for Inactive)
REMARK    1  A    between atoms: C3_3  and  C8_8 
REMARK    2  A    between atoms: C6_6  and  C7_7 
REMARK    3  A    between atoms: C7_7  and  C8_8 
ROOT
HETATM    1  C5  UNL     1     -31.455   7.999   4.073  1.00 20.00     0.010 C 
HETATM    2  C8  UNL     1     -31.885   7.255   2.808  1.00 20.00    -0.014 C 
ENDROOT
BRANCH   2   3
HETATM    3  C3  UNL     1     -32.657   8.205   1.889  1.00 20.00    -0.011 A 
HETATM    4  C1  UNL     1     -32.366   9.681   1.908  1.00 20.00     0.005 A 
HETATM    5  C2  UNL     1     -31.970   8.851   0.718  1.00 20.00     0.005 A 
ENDBRANCH   2   3
BRANCH   2   6
HETATM    6  C7  UNL     1     -32.745   6.016   3.119  1.00 20.00     0.004 C 
BRANCH   6   7
HETATM    7  C6  UNL     1     -33.845   6.279   4.151  1.00 20.00    -0.004 C 
HETATM    8  C4  UNL     1     -35.034   5.354   3.942  1.00 20.00     0.005 C 
ENDBRANCH   6   7
ENDBRANCH   2   6
TORSDOF 3
ENDMDL
MODEL 7
REMARK VINA RESULT:      -4.0     11.086     12.512
REMARK  3 active torsions:
REMARK  status: ('A' for Active; 'I' for Inactive)
REMARK    1  A    between atoms: C3_3  and  C8_8 
REMARK    2  A    between atoms: C6_6  and  C7_7 
REMARK    3  A    between atoms: C7_7  and  C8_8 
ROOT
HETATM    1  C5  UNL     1     -33.337  16.732  -5.068  1.00 20.00     0.010 C 
HETATM    2  C8  UNL     1     -33.304  16.005  -3.724  1.00 20.00    -0.014 C 
ENDROOT
BRANCH   2   3
HETATM    3  C3  UNL     1     -34.236  14.791  -3.771  1.00 20.00    -0.011 A 
HETATM    4  C1  UNL     1     -34.402  14.012  -5.047  1.00 20.00     0.005 A 
HETATM    5  C2  UNL     1     -33.668  13.404  -3.884  1.00 20.00     0.005 A 
ENDBRANCH   2   3
BRANCH   2   6
HETATM    6  C7  UNL     1     -33.699  16.920  -2.550  1.00 20.00     0.004 C 
BRANCH   6   7
HETATM    7  C6  UNL     1     -34.679  16.269  -1.571  1.00 20.00    -0.004 C 
HETATM    8  C4  UNL     1     -34.744  17.035  -0.258  1.00 20.00     0.005 C 
ENDBRANCH   6   7
ENDBRANCH   2   6
TORSDOF 3
ENDMDL
MODEL 8
REMARK VINA RESULT:      -3.9     11.203     12.517
REMARK  3 active torsions:
REMARK  status: ('A' for Active; 'I' for Inactive)
REMARK    1  A    between atoms: C3_3  and  C8_8 
REMARK    2  A    between atoms: C6_6  and  C7_7 
REMARK    3  A    between atoms: C7_7  and  C8_8 
ROOT
HETATM    1  C5  UNL     1     -33.746  17.413  -4.368  1.00 20.00     0.010 C 
HETATM    2  C8  UNL     1     -33.858  16.228  -3.408  1.00 20.00    -0.014 C 
ENDROOT
BRANCH   2   3
HETATM    3  C3  UNL     1     -33.644  16.708  -1.970  1.00 20.00    -0.011 A 
HETATM    4  C1  UNL     1     -34.394  17.904  -1.451  1.00 20.00     0.005 A 
HETATM    5  C2  UNL     1     -34.729  16.530  -0.943  1.00 20.00     0.005 A 
ENDBRANCH   2   3
BRANCH   2   6
HETATM    6  C7  UNL     1     -32.855  15.108  -3.738  1.00 20.00     0.004 C 
BRANCH   6   7
HETATM    7  C6  UNL     1     -33.483  13.712  -3.753  1.00 20.00    -0.004 C 
HETATM    8  C4  UNL     1     -34.987  13.782  -3.972  1.00 20.00     0.005 C 
ENDBRANCH   6   7
ENDBRANCH   2   6
TORSDOF 3
ENDMDL
MODEL 9
REMARK VINA RESULT:      -3.9     11.259     12.286
REMARK  3 active torsions:
REMARK  status: ('A' for Active; 'I' for Inactive)
REMARK    1  A    between atoms: C3_3  and  C8_8 
REMARK    2  A    between atoms: C6_6  and  C7_7 
REMARK    3  A    between atoms: C7_7  and  C8_8 
ROOT
HETATM    1  C5  UNL     1     -35.372  16.878  -3.899  1.00 20.00     0.010 C 
HETATM    2  C8  UNL     1     -34.132  16.220  -3.294  1.00 20.00    -0.014 C 
ENDROOT
BRANCH   2   3
HETATM    3  C3  UNL     1     -34.384  14.722  -3.105  1.00 20.00    -0.011 A 
HETATM    4  C1  UNL     1     -34.974  13.906  -4.222  1.00 20.00     0.005 A 
HETATM    5  C2  UNL     1     -33.536  13.714  -3.831  1.00 20.00     0.005 A 
ENDBRANCH   2   3
BRANCH   2   6
HETATM    6  C7  UNL     1     -33.726  16.854  -1.951  1.00 20.00     0.004 C 
BRANCH   6   7
HETATM    7  C6  UNL     1     -34.707  16.554  -0.814  1.00 20.00    -0.004 C 
HETATM    8  C4  UNL     1     -34.635  17.614   0.275  1.00 20.00     0.005 C 
ENDBRANCH   6   7
ENDBRANCH   2   6
TORSDOF 3
ENDMDL
