MODEL 1
REMARK VINA RESULT:      -4.3      0.000      0.000
REMARK  1 active torsions:
REMARK  status: ('A' for Active; 'I' for Inactive)
REMARK    1  A    between atoms: C5_5  and  C7_7 
ROOT
HETATM    1  C1  UNL     1     -36.310  16.657  -3.173  1.00 20.00     0.019 C 
HETATM    2  C2  UNL     1     -33.280  15.877  -4.535  1.00 20.00     0.292 C 
HETATM    3  C3  UNL     1     -33.598  13.958  -3.776  1.00 20.00     0.292 C 
HETATM    4  C4  UNL     1     -37.088  15.860  -4.206  1.00 20.00     0.075 C 
HETATM    5  C5  UNL     1     -35.215  15.732  -2.641  1.00 20.00     0.037 C 
HETATM    6  C6  UNL     1     -34.521  15.195  -3.892  1.00 20.00     0.066 C 
HETATM    7  N8  UNL     1     -32.438  14.872  -3.850  1.00 20.00     0.086 N 
HETATM    8  S10 UNL     1     -35.846  14.953  -5.178  1.00 20.00    -0.155 SA
HETATM    9  H22 UNL     1     -31.653  14.524  -4.397  1.00 20.00     0.316 HD
ENDROOT
BRANCH   5  10
HETATM   10  C7  UNL     1     -34.291  16.446  -1.666  1.00 20.00     0.228 C 
HETATM   11  F9  UNL     1     -34.775  16.267  -0.412  1.00 20.00    -0.255 F 
ENDBRANCH   5  10
TORSDOF 1
ENDMDL
MODEL 2
REMARK VINA RESULT:      -4.1      2.270      2.700
REMARK  1 active torsions:
REMARK  status: ('A' for Active; 'I' for Inactive)
REMARK    1  A    between atoms: C5_5  and  C7_7 
ROOT
HETATM    1  C1  UNL     1     -34.056  16.291  -2.318  1.00 20.00     0.019 C 
HETATM    2  C2  UNL     1     -33.806  16.449  -5.718  1.00 20.00     0.292 C 
HETATM    3  C3  UNL     1     -35.110  14.819  -5.742  1.00 20.00     0.292 C 
HETATM    4  C4  UNL     1     -35.480  16.821  -2.302  1.00 20.00     0.075 C 
HETATM    5  C5  UNL     1     -34.024  15.157  -3.344  1.00 20.00     0.037 C 
HETATM    6  C6  UNL     1     -34.644  15.759  -4.604  1.00 20.00     0.066 C 
HETATM    7  N8  UNL     1     -33.889  15.190  -6.489  1.00 20.00     0.086 N 
HETATM    8  S10 UNL     1     -36.006  16.896  -4.042  1.00 20.00    -0.155 SA
HETATM    9  H22 UNL     1     -34.019  15.308  -7.492  1.00 20.00     0.316 HD
ENDROOT
BRANCH   5  10
HETATM   10  C7  UNL     1     -32.620  14.604  -3.535  1.00 20.00     0.228 C 
HETATM   11  F9  UNL     1     -32.706  13.257  -3.664  1.00 20.00    -0.255 F 
ENDBRANCH   5  10
TORSDOF 1
ENDMDL
MODEL 3
REMARK VINA RESULT:      -4.1      3.227      3.869
REMARK  1 active torsions:
REMARK  status: ('A' for Active; 'I' for Inactive)
REMARK    1  A    between atoms: C5_5  and  C7_7 
ROOT
HETATM    1  C1  UNL     1     -34.502  17.012  -5.555  1.00 20.00     0.019 C 
HETATM    2  C2  UNL     1     -35.568  14.311  -3.761  1.00 20.00     0.292 C 
HETATM    3  C3  UNL     1     -33.594  13.642  -3.877  1.00 20.00     0.292 C 
HETATM    4  C4  UNL     1     -33.731  17.604  -4.387  1.00 20.00     0.075 C 
HETATM    5  C5  UNL     1     -34.078  15.547  -5.661  1.00 20.00     0.037 C 
HETATM    6  C6  UNL     1     -34.256  14.990  -4.249  1.00 20.00     0.066 C 
HETATM    7  N8  UNL     1     -34.922  13.004  -4.008  1.00 20.00     0.086 N 
HETATM    8  S10 UNL     1     -33.772  16.348  -3.071  1.00 20.00    -0.155 SA
HETATM    9  H22 UNL     1     -35.123  12.287  -3.312  1.00 20.00     0.316 HD
ENDROOT
BRANCH   5  10
HETATM   10  C7  UNL     1     -34.861  14.805  -6.734  1.00 20.00     0.228 C 
HETATM   11  F9  UNL     1     -34.087  14.721  -7.844  1.00 20.00    -0.255 F 
ENDBRANCH   5  10
TORSDOF 1
ENDMDL
MODEL 4
REMARK VINA RESULT:      -4.0      1.680      2.236
REMARK  1 active torsions:
REMARK  status: ('A' for Active; 'I' for Inactive)
REMARK    1  A    between atoms: C5_5  and  C7_7 
ROOT
HETATM    1  C1  UNL     1     -33.672  17.252  -3.783  1.00 20.00     0.019 C 
HETATM    2  C2  UNL     1     -33.623  13.850  -4.050  1.00 20.00     0.292 C 
HETATM    3  C3  UNL     1     -35.627  14.013  -4.610  1.00 20.00     0.292 C 
HETATM    4  C4  UNL     1     -33.730  17.466  -5.287  1.00 20.00     0.075 C 
HETATM    5  C5  UNL     1     -34.762  16.235  -3.444  1.00 20.00     0.037 C 
HETATM    6  C6  UNL     1     -34.518  15.072  -4.404  1.00 20.00     0.066 C 
HETATM    7  N8  UNL     1     -34.858  13.102  -3.734  1.00 20.00     0.086 N 
HETATM    8  S10 UNL     1     -33.963  15.816  -6.018  1.00 20.00    -0.155 SA
HETATM    9  H22 UNL     1     -34.856  12.126  -4.027  1.00 20.00     0.316 HD
ENDROOT
BRANCH   5  10
HETATM   10  C7  UNL     1     -34.743  15.852  -1.972  1.00 20.00     0.228 C 
HETATM   11  F9  UNL     1     -33.784  16.584  -1.353  1.00 20.00    -0.255 F 
ENDBRANCH   5  10
TORSDOF 1
ENDMDL
MODEL 5
REMARK VINA RESULT:      -4.0      1.829      2.663
REMARK  1 active torsions:
REMARK  status: ('A' for Active; 'I' for Inactive)
REMARK    1  A    between atoms: C5_5  and  C7_7 
ROOT
HETATM    1  C1  UNL     1     -34.417  14.058  -3.448  1.00 20.00     0.019 C 
HETATM    2  C2  UNL     1     -35.575  16.964  -4.812  1.00 20.00     0.292 C 
HETATM    3  C3  UNL     1     -33.654  17.189  -5.596  1.00 20.00     0.292 C 
HETATM    4  C4  UNL     1     -34.363  13.339  -4.785  1.00 20.00     0.075 C 
HETATM    5  C5  UNL     1     -33.700  15.395  -3.641  1.00 20.00     0.037 C 
HETATM    6  C6  UNL     1     -34.351  16.007  -4.880  1.00 20.00     0.066 C 
HETATM    7  N8  UNL     1     -34.634  18.095  -4.961  1.00 20.00     0.086 N 
HETATM    8  S10 UNL     1     -34.710  14.603  -6.047  1.00 20.00    -0.155 SA
HETATM    9  H22 UNL     1     -34.965  18.854  -5.555  1.00 20.00     0.316 HD
ENDROOT
BRANCH   5  10
HETATM   10  C7  UNL     1     -33.773  16.264  -2.394  1.00 20.00     0.228 C 
HETATM   11  F9  UNL     1     -34.721  15.751  -1.572  1.00 20.00    -0.255 F 
ENDBRANCH   5  10
TORSDOF 1
ENDMDL
MODEL 6
REMARK VINA RESULT:      -4.0      2.511      3.509
REMARK  1 active torsions:
REMARK  status: ('A' for Active; 'I' for Inactive)
REMARK    1  A    between atoms: C5_5  and  C7_7 
ROOT
HETATM    1  C1  UNL     1     -33.782  16.127  -5.399  1.00 20.00     0.019 C 
HETATM    2  C2  UNL     1     -35.583  16.558  -2.533  1.00 20.00     0.292 C 
HETATM    3  C3  UNL     1     -33.753  16.977  -1.621  1.00 20.00     0.292 C 
HETATM    4  C4  UNL     1     -33.499  17.611  -5.559  1.00 20.00     0.075 C 
HETATM    5  C5  UNL     1     -33.417  15.766  -3.959  1.00 20.00     0.037 C 
HETATM    6  C6  UNL     1     -34.156  16.794  -3.104  1.00 20.00     0.066 C 
HETATM    7  N8  UNL     1     -34.953  16.198  -1.245  1.00 20.00     0.086 N 
HETATM    8  S10 UNL     1     -34.107  18.404  -4.038  1.00 20.00    -0.155 SA
HETATM    9  H22 UNL     1     -35.442  16.536  -0.418  1.00 20.00     0.316 HD
ENDROOT
BRANCH   5  10
HETATM   10  C7  UNL     1     -33.753  14.318  -3.634  1.00 20.00     0.228 C 
HETATM   11  F9  UNL     1     -32.599  13.606  -3.618  1.00 20.00    -0.255 F 
ENDBRANCH   5  10
TORSDOF 1
ENDMDL
MODEL 7
REMARK VINA RESULT:      -3.9      2.311      2.593
REMARK  1 active torsions:
REMARK  status: ('A' for Active; 'I' for Inactive)
REMARK    1  A    between atoms: C5_5  and  C7_7 
ROOT
HETATM    1  C1  UNL     1     -35.504  15.564  -2.940  1.00 20.00     0.019 C 
HETATM    2  C2  UNL     1     -34.475  16.196  -6.132  1.00 20.00     0.292 C 
HETATM    3  C3  UNL     1     -35.026  14.225  -6.543  1.00 20.00     0.292 C 
HETATM    4  C4  UNL     1     -36.977  15.550  -3.316  1.00 20.00     0.075 C 
HETATM    5  C5  UNL     1     -34.792  14.643  -3.932  1.00 20.00     0.037 C 
HETATM    6  C6  UNL     1     -35.249  15.129  -5.307  1.00 20.00     0.066 C 
HETATM    7  N8  UNL     1     -33.884  15.089  -6.913  1.00 20.00     0.086 N 
HETATM    8  S10 UNL     1     -37.032  15.636  -5.132  1.00 20.00    -0.155 SA
HETATM    9  H22 UNL     1     -33.788  15.270  -7.911  1.00 20.00     0.316 HD
ENDROOT
BRANCH   5  10
HETATM   10  C7  UNL     1     -33.284  14.649  -3.730  1.00 20.00     0.228 C 
HETATM   11  F9  UNL     1     -32.851  13.364  -3.723  1.00 20.00    -0.255 F 
ENDBRANCH   5  10
TORSDOF 1
ENDMDL
MODEL 8
REMARK VINA RESULT:      -3.9      2.877      3.497
REMARK  1 active torsions:
REMARK  status: ('A' for Active; 'I' for Inactive)
REMARK    1  A    between atoms: C5_5  and  C7_7 
ROOT
HETATM    1  C1  UNL     1     -36.433  15.969  -5.805  1.00 20.00     0.019 C 
HETATM    2  C2  UNL     1     -34.978  13.299  -4.255  1.00 20.00     0.292 C 
HETATM    3  C3  UNL     1     -33.414  14.605  -3.799  1.00 20.00     0.292 C 
HETATM    4  C4  UNL     1     -36.765  16.670  -4.499  1.00 20.00     0.075 C 
HETATM    5  C5  UNL     1     -34.957  15.576  -5.728  1.00 20.00     0.037 C 
HETATM    6  C6  UNL     1     -34.823  14.841  -4.395  1.00 20.00     0.066 C 
HETATM    7  N8  UNL     1     -33.503  13.202  -4.259  1.00 20.00     0.086 N 
HETATM    8  S10 UNL     1     -35.950  15.702  -3.190  1.00 20.00    -0.155 SA
HETATM    9  H22 UNL     1     -33.116  12.514  -3.614  1.00 20.00     0.316 HD
ENDROOT
BRANCH   5  10
HETATM   10  C7  UNL     1     -34.521  14.768  -6.941  1.00 20.00     0.228 C 
HETATM   11  F9  UNL     1     -35.602  14.111  -7.427  1.00 20.00    -0.255 F 
ENDBRANCH   5  10
TORSDOF 1
ENDMDL
MODEL 9
REMARK VINA RESULT:      -3.9      2.363      3.278
REMARK  1 active torsions:
REMARK  status: ('A' for Active; 'I' for Inactive)
REMARK    1  A    between atoms: C5_5  and  C7_7 
ROOT
HETATM    1  C1  UNL     1     -34.468  14.849  -5.993  1.00 20.00     0.019 C 
HETATM    2  C2  UNL     1     -35.936  15.861  -3.082  1.00 20.00     0.292 C 
HETATM    3  C3  UNL     1     -34.093  16.731  -2.628  1.00 20.00     0.292 C 
HETATM    4  C4  UNL     1     -34.446  16.250  -6.581  1.00 20.00     0.075 C 
HETATM    5  C5  UNL     1     -33.871  14.955  -4.589  1.00 20.00     0.037 C 
HETATM    6  C6  UNL     1     -34.648  16.091  -3.924  1.00 20.00     0.066 C 
HETATM    7  N8  UNL     1     -35.098  15.956  -1.868  1.00 20.00     0.086 N 
HETATM    8  S10 UNL     1     -34.972  17.364  -5.242  1.00 20.00    -0.155 SA
HETATM    9  H22 UNL     1     -35.524  16.456  -1.089  1.00 20.00     0.316 HD
ENDROOT
BRANCH   5  10
HETATM   10  C7  UNL     1     -33.931  13.630  -3.845  1.00 20.00     0.228 C 
HETATM   11  F9  UNL     1     -32.667  13.269  -3.514  1.00 20.00    -0.255 F 
ENDBRANCH   5  10
TORSDOF 1
ENDMDL
