MODEL 1
REMARK VINA RESULT:      -4.2      0.000      0.000
REMARK  3 active torsions:
REMARK  status: ('A' for Active; 'I' for Inactive)
REMARK    1  A    between atoms: C1_1  and  C3_3 
REMARK    2  A    between atoms: C2_2  and  C9_9 
REMARK    3  A    between atoms: C3_3  and  O11_11 
ROOT
HETATM    1  C1  UNL     1     -36.279  15.832  -3.048  1.00 20.00     0.085 C 
HETATM    2  C2  UNL     1     -34.942  15.638  -3.060  1.00 20.00    -0.070 C 
HETATM    3  C4  UNL     1     -34.026  16.333  -2.074  1.00 20.00     0.044 C 
ENDROOT
BRANCH   2   4
HETATM    4  C9  UNL     1     -34.252  14.680  -4.067  1.00 20.00    -0.028 C 
HETATM    5  C5  UNL     1     -34.238  15.312  -5.477  1.00 20.00     0.019 C 
HETATM    6  C6  UNL     1     -34.948  13.305  -4.208  1.00 20.00     0.019 C 
HETATM    7  C7  UNL     1     -32.801  14.409  -3.619  1.00 20.00     0.019 C 
ENDBRANCH   2   4
BRANCH   1   8
HETATM    8  C3  UNL     1     -37.244  15.192  -3.976  1.00 20.00     0.282 C 
HETATM    9  O10 UNL     1     -37.859  14.159  -3.767  1.00 20.00    -0.260 OA
BRANCH   8  10
HETATM   10  O11 UNL     1     -37.330  15.982  -5.081  1.00 20.00    -0.323 OA
HETATM   11  C8  UNL     1     -37.958  15.383  -6.218  1.00 20.00     0.213 C 
ENDBRANCH   8  10
ENDBRANCH   1   8
TORSDOF 3
ENDMDL
MODEL 2
REMARK VINA RESULT:      -4.1      1.531      2.646
REMARK  3 active torsions:
REMARK  status: ('A' for Active; 'I' for Inactive)
REMARK    1  A    between atoms: C1_1  and  C3_3 
REMARK    2  A    between atoms: C2_2  and  C9_9 
REMARK    3  A    between atoms: C3_3  and  O11_11 
ROOT
HETATM    1  C1  UNL     1     -35.679  14.964  -5.259  1.00 20.00     0.085 C 
HETATM    2  C2  UNL     1     -34.900  16.029  -4.970  1.00 20.00    -0.070 C 
HETATM    3  C4  UNL     1     -34.748  17.191  -5.929  1.00 20.00     0.044 C 
ENDROOT
BRANCH   2   4
HETATM    4  C9  UNL     1     -34.120  16.149  -3.633  1.00 20.00    -0.028 C 
HETATM    5  C5  UNL     1     -32.910  15.189  -3.636  1.00 20.00     0.019 C 
HETATM    6  C6  UNL     1     -34.959  15.796  -2.381  1.00 20.00     0.019 C 
HETATM    7  C7  UNL     1     -33.619  17.596  -3.449  1.00 20.00     0.019 C 
ENDBRANCH   2   4
BRANCH   1   8
HETATM    8  C3  UNL     1     -35.881  13.788  -4.376  1.00 20.00     0.282 C 
HETATM    9  O10 UNL     1     -35.119  12.842  -4.260  1.00 20.00    -0.260 OA
BRANCH   8  10
HETATM   10  O11 UNL     1     -37.052  13.978  -3.709  1.00 20.00    -0.323 OA
HETATM   11  C8  UNL     1     -38.034  14.756  -4.402  1.00 20.00     0.213 C 
ENDBRANCH   8  10
ENDBRANCH   1   8
TORSDOF 3
ENDMDL
MODEL 3
REMARK VINA RESULT:      -4.1      2.017      2.599
REMARK  3 active torsions:
REMARK  status: ('A' for Active; 'I' for Inactive)
REMARK    1  A    between atoms: C1_1  and  C3_3 
REMARK    2  A    between atoms: C2_2  and  C9_9 
REMARK    3  A    between atoms: C3_3  and  O11_11 
ROOT
HETATM    1  C1  UNL     1     -35.856  14.606  -4.563  1.00 20.00     0.085 C 
HETATM    2  C2  UNL     1     -35.437  15.610  -3.762  1.00 20.00    -0.070 C 
HETATM    3  C4  UNL     1     -36.412  16.507  -3.029  1.00 20.00     0.044 C 
ENDROOT
BRANCH   2   4
HETATM    4  C9  UNL     1     -33.932  15.905  -3.520  1.00 20.00    -0.028 C 
HETATM    5  C5  UNL     1     -33.370  16.773  -4.668  1.00 20.00     0.019 C 
HETATM    6  C6  UNL     1     -33.045  14.639  -3.451  1.00 20.00     0.019 C 
HETATM    7  C7  UNL     1     -33.756  16.655  -2.184  1.00 20.00     0.019 C 
ENDBRANCH   2   4
BRANCH   1   8
HETATM    8  C3  UNL     1     -34.968  13.684  -5.315  1.00 20.00     0.282 C 
HETATM    9  O10 UNL     1     -34.653  12.557  -4.971  1.00 20.00    -0.260 OA
BRANCH   8  10
HETATM   10  O11 UNL     1     -34.598  14.321  -6.459  1.00 20.00    -0.323 OA
HETATM   11  C8  UNL     1     -35.621  14.446  -7.452  1.00 20.00     0.213 C 
ENDBRANCH   8  10
ENDBRANCH   1   8
TORSDOF 3
ENDMDL
MODEL 4
REMARK VINA RESULT:      -4.0      1.816      3.001
REMARK  3 active torsions:
REMARK  status: ('A' for Active; 'I' for Inactive)
REMARK    1  A    between atoms: C1_1  and  C3_3 
REMARK    2  A    between atoms: C2_2  and  C9_9 
REMARK    3  A    between atoms: C3_3  and  O11_11 
ROOT
HETATM    1  C1  UNL     1     -34.184  14.610  -3.242  1.00 20.00     0.085 C 
HETATM    2  C2  UNL     1     -34.860  15.678  -2.765  1.00 20.00    -0.070 C 
HETATM    3  C4  UNL     1     -34.358  16.477  -1.581  1.00 20.00     0.044 C 
ENDROOT
BRANCH   2   4
HETATM    4  C9  UNL     1     -36.187  16.173  -3.403  1.00 20.00    -0.028 C 
HETATM    5  C5  UNL     1     -36.883  17.184  -2.464  1.00 20.00     0.019 C 
HETATM    6  C6  UNL     1     -37.213  15.047  -3.676  1.00 20.00     0.019 C 
HETATM    7  C7  UNL     1     -35.893  16.855  -4.755  1.00 20.00     0.019 C 
ENDBRANCH   2   4
BRANCH   1   8
HETATM    8  C3  UNL     1     -34.607  13.776  -4.395  1.00 20.00     0.282 C 
HETATM    9  O10 UNL     1     -35.209  12.717  -4.329  1.00 20.00    -0.260 OA
BRANCH   8  10
HETATM   10  O11 UNL     1     -34.220  14.424  -5.528  1.00 20.00    -0.323 OA
HETATM   11  C8  UNL     1     -34.994  14.135  -6.697  1.00 20.00     0.213 C 
ENDBRANCH   8  10
ENDBRANCH   1   8
TORSDOF 3
ENDMDL
MODEL 5
REMARK VINA RESULT:      -4.0     11.500     12.830
REMARK  3 active torsions:
REMARK  status: ('A' for Active; 'I' for Inactive)
REMARK    1  A    between atoms: C1_1  and  C3_3 
REMARK    2  A    between atoms: C2_2  and  C9_9 
REMARK    3  A    between atoms: C3_3  and  O11_11 
ROOT
HETATM    1  C1  UNL     1     -42.760   4.608  -3.060  1.00 20.00     0.085 C 
HETATM    2  C2  UNL     1     -42.394   5.776  -2.489  1.00 20.00    -0.070 C 
HETATM    3  C4  UNL     1     -42.610   7.106  -3.181  1.00 20.00     0.044 C 
ENDROOT
BRANCH   2   4
HETATM    4  C9  UNL     1     -41.744   5.843  -1.080  1.00 20.00    -0.028 C 
HETATM    5  C5  UNL     1     -41.122   7.238  -0.848  1.00 20.00     0.019 C 
HETATM    6  C6  UNL     1     -40.610   4.813  -0.861  1.00 20.00     0.019 C 
HETATM    7  C7  UNL     1     -42.812   5.578   0.001  1.00 20.00     0.019 C 
ENDBRANCH   2   4
BRANCH   1   8
HETATM    8  C3  UNL     1     -42.584   3.266  -2.451  1.00 20.00     0.282 C 
HETATM    9  O10 UNL     1     -43.334   2.744  -1.643  1.00 20.00    -0.260 OA
BRANCH   8  10
HETATM   10  O11 UNL     1     -41.452   2.726  -2.979  1.00 20.00    -0.323 OA
HETATM   11  C8  UNL     1     -41.644   1.552  -3.775  1.00 20.00     0.213 C 
ENDBRANCH   8  10
ENDBRANCH   1   8
TORSDOF 3
ENDMDL
MODEL 6
REMARK VINA RESULT:      -3.9      2.358      3.744
REMARK  3 active torsions:
REMARK  status: ('A' for Active; 'I' for Inactive)
REMARK    1  A    between atoms: C1_1  and  C3_3 
REMARK    2  A    between atoms: C2_2  and  C9_9 
REMARK    3  A    between atoms: C3_3  and  O11_11 
ROOT
HETATM    1  C1  UNL     1     -35.438  16.409  -2.935  1.00 20.00     0.085 C 
HETATM    2  C2  UNL     1     -35.569  15.302  -3.699  1.00 20.00    -0.070 C 
HETATM    3  C4  UNL     1     -36.899  14.594  -3.856  1.00 20.00     0.044 C 
ENDROOT
BRANCH   2   4
HETATM    4  C9  UNL     1     -34.378  14.688  -4.482  1.00 20.00    -0.028 C 
HETATM    5  C5  UNL     1     -34.731  13.259  -4.953  1.00 20.00     0.019 C 
HETATM    6  C6  UNL     1     -33.075  14.569  -3.655  1.00 20.00     0.019 C 
HETATM    7  C7  UNL     1     -34.055  15.562  -5.712  1.00 20.00     0.019 C 
ENDBRANCH   2   4
BRANCH   1   8
HETATM    8  C3  UNL     1     -34.174  17.160  -2.730  1.00 20.00     0.282 C 
HETATM    9  O10 UNL     1     -33.671  17.942  -3.520  1.00 20.00    -0.260 OA
BRANCH   8  10
HETATM   10  O11 UNL     1     -33.704  16.833  -1.495  1.00 20.00    -0.323 OA
HETATM   11  C8  UNL     1     -34.659  16.913  -0.433  1.00 20.00     0.213 C 
ENDBRANCH   8  10
ENDBRANCH   1   8
TORSDOF 3
ENDMDL
MODEL 7
REMARK VINA RESULT:      -3.9      2.399      3.895
REMARK  3 active torsions:
REMARK  status: ('A' for Active; 'I' for Inactive)
REMARK    1  A    between atoms: C1_1  and  C3_3 
REMARK    2  A    between atoms: C2_2  and  C9_9 
REMARK    3  A    between atoms: C3_3  and  O11_11 
ROOT
HETATM    1  C1  UNL     1     -33.785  15.741  -2.873  1.00 20.00     0.085 C 
HETATM    2  C2  UNL     1     -34.428  16.723  -2.205  1.00 20.00    -0.070 C 
HETATM    3  C4  UNL     1     -34.605  16.682  -0.701  1.00 20.00     0.044 C 
ENDROOT
BRANCH   2   4
HETATM    4  C9  UNL     1     -35.014  17.969  -2.922  1.00 20.00    -0.028 C 
HETATM    5  C5  UNL     1     -35.910  18.769  -1.950  1.00 20.00     0.019 C 
HETATM    6  C6  UNL     1     -35.890  17.633  -4.153  1.00 20.00     0.019 C 
HETATM    7  C7  UNL     1     -33.867  18.874  -3.416  1.00 20.00     0.019 C 
ENDBRANCH   2   4
BRANCH   1   8
HETATM    8  C3  UNL     1     -33.569  15.706  -4.342  1.00 20.00     0.282 C 
HETATM    9  O10 UNL     1     -32.734  16.348  -4.956  1.00 20.00    -0.260 OA
BRANCH   8  10
HETATM   10  O11 UNL     1     -34.454  14.811  -4.860  1.00 20.00    -0.323 OA
HETATM   11  C8  UNL     1     -34.498  13.540  -4.205  1.00 20.00     0.213 C 
ENDBRANCH   8  10
ENDBRANCH   1   8
TORSDOF 3
ENDMDL
MODEL 8
REMARK VINA RESULT:      -3.9      2.082      3.737
REMARK  3 active torsions:
REMARK  status: ('A' for Active; 'I' for Inactive)
REMARK    1  A    between atoms: C1_1  and  C3_3 
REMARK    2  A    between atoms: C2_2  and  C9_9 
REMARK    3  A    between atoms: C3_3  and  O11_11 
ROOT
HETATM    1  C1  UNL     1     -34.765  14.888  -3.054  1.00 20.00     0.085 C 
HETATM    2  C2  UNL     1     -34.603  14.610  -4.366  1.00 20.00    -0.070 C 
HETATM    3  C4  UNL     1     -34.506  13.187  -4.874  1.00 20.00     0.044 C 
ENDROOT
BRANCH   2   4
HETATM    4  C9  UNL     1     -34.522  15.722  -5.446  1.00 20.00    -0.028 C 
HETATM    5  C5  UNL     1     -33.313  16.644  -5.171  1.00 20.00     0.019 C 
HETATM    6  C6  UNL     1     -35.769  16.638  -5.503  1.00 20.00     0.019 C 
HETATM    7  C7  UNL     1     -34.365  15.083  -6.842  1.00 20.00     0.019 C 
ENDBRANCH   2   4
BRANCH   1   8
HETATM    8  C3  UNL     1     -34.869  16.251  -2.475  1.00 20.00     0.282 C 
HETATM    9  O10 UNL     1     -35.879  16.933  -2.428  1.00 20.00    -0.260 OA
BRANCH   8  10
HETATM   10  O11 UNL     1     -33.640  16.581  -1.991  1.00 20.00    -0.323 OA
HETATM   11  C8  UNL     1     -33.631  17.579  -0.965  1.00 20.00     0.213 C 
ENDBRANCH   8  10
ENDBRANCH   1   8
TORSDOF 3
ENDMDL
MODEL 9
REMARK VINA RESULT:      -3.8      1.198      2.309
REMARK  3 active torsions:
REMARK  status: ('A' for Active; 'I' for Inactive)
REMARK    1  A    between atoms: C1_1  and  C3_3 
REMARK    2  A    between atoms: C2_2  and  C9_9 
REMARK    3  A    between atoms: C3_3  and  O11_11 
ROOT
HETATM    1  C1  UNL     1     -36.494  15.637  -5.178  1.00 20.00     0.085 C 
HETATM    2  C2  UNL     1     -35.146  15.579  -5.118  1.00 20.00    -0.070 C 
HETATM    3  C4  UNL     1     -34.276  16.003  -6.282  1.00 20.00     0.044 C 
ENDROOT
BRANCH   2   4
HETATM    4  C9  UNL     1     -34.392  15.092  -3.851  1.00 20.00    -0.028 C 
HETATM    5  C5  UNL     1     -34.528  13.560  -3.708  1.00 20.00     0.019 C 
HETATM    6  C6  UNL     1     -34.918  15.706  -2.531  1.00 20.00     0.019 C 
HETATM    7  C7  UNL     1     -32.899  15.462  -3.959  1.00 20.00     0.019 C 
ENDBRANCH   2   4
BRANCH   1   8
HETATM    8  C3  UNL     1     -37.417  15.242  -4.085  1.00 20.00     0.282 C 
HETATM    9  O10 UNL     1     -37.706  14.099  -3.772  1.00 20.00    -0.260 OA
BRANCH   8  10
HETATM   10  O11 UNL     1     -37.853  16.385  -3.489  1.00 20.00    -0.323 OA
HETATM   11  C8  UNL     1     -39.223  16.379  -3.075  1.00 20.00     0.213 C 
ENDBRANCH   8  10
ENDBRANCH   1   8
TORSDOF 3
ENDMDL
