MODEL 1
REMARK VINA RESULT:      -4.6      0.000      0.000
REMARK  1 active torsions:
REMARK  status: ('A' for Active; 'I' for Inactive)
REMARK    1  A    between atoms: C1_1  and  C4_4 
ROOT
HETATM    1  C2  UNL     1     -34.378   5.659   6.361  1.00 20.00     0.173 C 
HETATM    2  C3  UNL     1     -35.228   4.369   4.618  1.00 20.00     0.173 C 
HETATM    3  C4  UNL     1     -33.215   5.930   4.036  1.00 20.00     0.060 A 
HETATM    4  C5  UNL     1     -34.150   6.431   5.109  1.00 20.00     0.027 A 
HETATM    5  C6  UNL     1     -34.690   5.613   4.004  1.00 20.00     0.027 A 
HETATM    6  O8  UNL     1     -34.721   4.317   5.965  1.00 20.00    -0.390 OA
ENDROOT
BRANCH   3   7
HETATM    7  C1  UNL     1     -32.670   6.883   3.063  1.00 20.00     0.236 C 
HETATM    8  O7  UNL     1     -31.645   7.530   3.252  1.00 20.00    -0.306 OA
ENDBRANCH   3   7
TORSDOF 1
ENDMDL
MODEL 2
REMARK VINA RESULT:      -3.8     11.635     12.155
REMARK  1 active torsions:
REMARK  status: ('A' for Active; 'I' for Inactive)
REMARK    1  A    between atoms: C1_1  and  C4_4 
ROOT
HETATM    1  C2  UNL     1     -35.948  13.992  -4.301  1.00 20.00     0.173 C 
HETATM    2  C3  UNL     1     -33.677  13.545  -4.038  1.00 20.00     0.173 C 
HETATM    3  C4  UNL     1     -34.729  15.250  -2.361  1.00 20.00     0.060 A 
HETATM    4  C5  UNL     1     -35.332  15.228  -3.744  1.00 20.00     0.027 A 
HETATM    5  C6  UNL     1     -33.892  14.944  -3.578  1.00 20.00     0.027 A 
HETATM    6  O8  UNL     1     -34.980  12.938  -4.145  1.00 20.00    -0.390 OA
ENDROOT
BRANCH   3   7
HETATM    7  C1  UNL     1     -34.552  16.538  -1.680  1.00 20.00     0.236 C 
HETATM    8  O7  UNL     1     -34.653  16.679  -0.466  1.00 20.00    -0.306 OA
ENDBRANCH   3   7
TORSDOF 1
ENDMDL
MODEL 3
REMARK VINA RESULT:      -3.8     11.868     12.700
REMARK  1 active torsions:
REMARK  status: ('A' for Active; 'I' for Inactive)
REMARK    1  A    between atoms: C1_1  and  C4_4 
ROOT
HETATM    1  C2  UNL     1     -33.688  17.035  -3.532  1.00 20.00     0.173 C 
HETATM    2  C3  UNL     1     -34.716  16.331  -1.564  1.00 20.00     0.173 C 
HETATM    3  C4  UNL     1     -34.571  14.575  -3.493  1.00 20.00     0.060 A 
HETATM    4  C5  UNL     1     -34.701  16.016  -3.921  1.00 20.00     0.027 A 
HETATM    5  C6  UNL     1     -35.353  15.570  -2.673  1.00 20.00     0.027 A 
HETATM    6  O8  UNL     1     -33.526  16.936  -2.105  1.00 20.00    -0.390 OA
ENDROOT
BRANCH   3   7
HETATM    7  C1  UNL     1     -35.295  13.540  -4.239  1.00 20.00     0.236 C 
HETATM    8  O7  UNL     1     -34.745  12.584  -4.775  1.00 20.00    -0.306 OA
ENDBRANCH   3   7
TORSDOF 1
ENDMDL
MODEL 4
REMARK VINA RESULT:      -3.7     11.892     13.211
REMARK  1 active torsions:
REMARK  status: ('A' for Active; 'I' for Inactive)
REMARK    1  A    between atoms: C1_1  and  C4_4 
ROOT
HETATM    1  C2  UNL     1     -33.903  16.757  -2.277  1.00 20.00     0.173 C 
HETATM    2  C3  UNL     1     -33.620  17.402  -4.498  1.00 20.00     0.173 C 
HETATM    3  C4  UNL     1     -34.361  14.930  -4.089  1.00 20.00     0.060 A 
HETATM    4  C5  UNL     1     -33.483  15.540  -3.025  1.00 20.00     0.027 A 
HETATM    5  C6  UNL     1     -33.303  15.949  -4.433  1.00 20.00     0.027 A 
HETATM    6  O8  UNL     1     -34.277  17.740  -3.261  1.00 20.00    -0.390 OA
ENDROOT
BRANCH   3   7
HETATM    7  C1  UNL     1     -34.151  13.529  -4.471  1.00 20.00     0.236 C 
HETATM    8  O7  UNL     1     -35.023  12.669  -4.392  1.00 20.00    -0.306 OA
ENDBRANCH   3   7
TORSDOF 1
ENDMDL
MODEL 5
REMARK VINA RESULT:      -3.6     11.750     12.887
REMARK  1 active torsions:
REMARK  status: ('A' for Active; 'I' for Inactive)
REMARK    1  A    between atoms: C1_1  and  C4_4 
ROOT
HETATM    1  C2  UNL     1     -33.348  13.668  -3.772  1.00 20.00     0.173 C 
HETATM    2  C3  UNL     1     -33.385  15.889  -4.475  1.00 20.00     0.173 C 
HETATM    3  C4  UNL     1     -35.695  14.812  -3.897  1.00 20.00     0.060 A 
HETATM    4  C5  UNL     1     -34.653  13.876  -4.458  1.00 20.00     0.027 A 
HETATM    5  C6  UNL     1     -34.676  15.284  -4.904  1.00 20.00     0.027 A 
HETATM    6  O8  UNL     1     -32.791  14.974  -3.534  1.00 20.00    -0.390 OA
ENDROOT
BRANCH   3   7
HETATM    7  C1  UNL     1     -37.092  14.658  -4.317  1.00 20.00     0.236 C 
HETATM    8  O7  UNL     1     -37.980  14.253  -3.573  1.00 20.00    -0.306 OA
ENDBRANCH   3   7
TORSDOF 1
ENDMDL
MODEL 6
REMARK VINA RESULT:      -3.6     12.302     13.239
REMARK  1 active torsions:
REMARK  status: ('A' for Active; 'I' for Inactive)
REMARK    1  A    between atoms: C1_1  and  C4_4 
ROOT
HETATM    1  C2  UNL     1     -33.165  15.016  -3.828  1.00 20.00     0.173 C 
HETATM    2  C3  UNL     1     -33.759  17.181  -4.451  1.00 20.00     0.173 C 
HETATM    3  C4  UNL     1     -33.880  16.629  -1.900  1.00 20.00     0.060 A 
HETATM    4  C5  UNL     1     -34.173  15.484  -2.837  1.00 20.00     0.027 A 
HETATM    5  C6  UNL     1     -34.550  16.856  -3.232  1.00 20.00     0.027 A 
HETATM    6  O8  UNL     1     -32.730  16.179  -4.558  1.00 20.00    -0.390 OA
ENDROOT
BRANCH   3   7
HETATM    7  C1  UNL     1     -34.671  16.766  -0.672  1.00 20.00     0.236 C 
HETATM    8  O7  UNL     1     -34.354  17.500   0.258  1.00 20.00    -0.306 OA
ENDBRANCH   3   7
TORSDOF 1
ENDMDL
MODEL 7
REMARK VINA RESULT:      -3.5     11.955     12.712
REMARK  1 active torsions:
REMARK  status: ('A' for Active; 'I' for Inactive)
REMARK    1  A    between atoms: C1_1  and  C4_4 
ROOT
HETATM    1  C2  UNL     1     -33.569  16.085  -2.868  1.00 20.00     0.173 C 
HETATM    2  C3  UNL     1     -33.481  14.031  -3.964  1.00 20.00     0.173 C 
HETATM    3  C4  UNL     1     -35.752  15.317  -4.082  1.00 20.00     0.060 A 
HETATM    4  C5  UNL     1     -34.945  15.519  -2.824  1.00 20.00     0.027 A 
HETATM    5  C6  UNL     1     -34.889  14.217  -3.518  1.00 20.00     0.027 A 
HETATM    6  O8  UNL     1     -32.832  15.310  -3.833  1.00 20.00    -0.390 OA
ENDROOT
BRANCH   3   7
HETATM    7  C1  UNL     1     -37.211  15.200  -3.983  1.00 20.00     0.236 C 
HETATM    8  O7  UNL     1     -37.792  14.137  -3.792  1.00 20.00    -0.306 OA
ENDBRANCH   3   7
TORSDOF 1
ENDMDL
MODEL 8
REMARK VINA RESULT:      -3.5      1.183      3.715
REMARK  1 active torsions:
REMARK  status: ('A' for Active; 'I' for Inactive)
REMARK    1  A    between atoms: C1_1  and  C4_4 
ROOT
HETATM    1  C2  UNL     1     -34.019   5.392   2.516  1.00 20.00     0.173 C 
HETATM    2  C3  UNL     1     -32.559   6.791   3.673  1.00 20.00     0.173 C 
HETATM    3  C4  UNL     1     -34.046   5.205   5.122  1.00 20.00     0.060 A 
HETATM    4  C5  UNL     1     -34.657   5.682   3.829  1.00 20.00     0.027 A 
HETATM    5  C6  UNL     1     -33.732   6.570   4.562  1.00 20.00     0.027 A 
HETATM    6  O8  UNL     1     -32.645   5.811   2.620  1.00 20.00    -0.390 OA
ENDROOT
BRANCH   3   7
HETATM    7  C1  UNL     1     -34.892   5.102   6.317  1.00 20.00     0.236 C 
HETATM    8  O7  UNL     1     -35.522   4.093   6.614  1.00 20.00    -0.306 OA
ENDBRANCH   3   7
TORSDOF 1
ENDMDL
MODEL 9
REMARK VINA RESULT:      -3.5      1.231      2.038
REMARK  1 active torsions:
REMARK  status: ('A' for Active; 'I' for Inactive)
REMARK    1  A    between atoms: C1_1  and  C4_4 
ROOT
HETATM    1  C2  UNL     1     -34.901   5.181   3.511  1.00 20.00     0.173 C 
HETATM    2  C3  UNL     1     -33.974   6.075   5.452  1.00 20.00     0.173 C 
HETATM    3  C4  UNL     1     -33.253   7.185   3.200  1.00 20.00     0.060 A 
HETATM    4  C5  UNL     1     -33.560   5.710   3.138  1.00 20.00     0.027 A 
HETATM    5  C6  UNL     1     -32.972   6.276   4.369  1.00 20.00     0.027 A 
HETATM    6  O8  UNL     1     -35.213   5.718   4.810  1.00 20.00    -0.390 OA
ENDROOT
BRANCH   3   7
HETATM    7  C1  UNL     1     -32.127   7.713   2.421  1.00 20.00     0.236 C 
HETATM    8  O7  UNL     1     -32.177   8.760   1.784  1.00 20.00    -0.306 OA
ENDBRANCH   3   7
TORSDOF 1
ENDMDL
