MODEL 1
REMARK VINA RESULT:      -3.9      0.000      0.000
REMARK  1 active torsions:
REMARK  status: ('A' for Active; 'I' for Inactive)
REMARK    1  A    between atoms: C5_5  and  C6_6 
ROOT
HETATM    1  C1  UNL     1     -34.718  13.453  -5.134  1.00 20.00     0.011 C 
HETATM    2  C2  UNL     1     -35.901  14.418  -5.237  1.00 20.00     0.011 C 
HETATM    3  C3  UNL     1     -33.753  13.615  -3.965  1.00 20.00     0.075 C 
HETATM    4  C4  UNL     1     -36.627  14.710  -3.927  1.00 20.00     0.075 C 
HETATM    5  C5  UNL     1     -34.511  15.783  -2.414  1.00 20.00     0.122 C 
HETATM    6  S7  UNL     1     -33.241  15.327  -3.641  1.00 20.00    -0.152 SA
HETATM    7  S8  UNL     1     -36.088  16.283  -3.176  1.00 20.00    -0.152 SA
ENDROOT
BRANCH   5   8
HETATM    8  C6  UNL     1     -33.982  16.958  -1.593  1.00 20.00     0.140 C 
HETATM    9 CL9  UNL     1     -34.792  17.014  -0.019  1.00 20.00    -0.128 Cl
ENDBRANCH   5   8
TORSDOF 1
ENDMDL
MODEL 2
REMARK VINA RESULT:      -3.7      1.635      2.028
REMARK  1 active torsions:
REMARK  status: ('A' for Active; 'I' for Inactive)
REMARK    1  A    between atoms: C5_5  and  C6_6 
ROOT
HETATM    1  C1  UNL     1     -35.141  14.067  -6.181  1.00 20.00     0.011 C 
HETATM    2  C2  UNL     1     -34.320  15.237  -6.728  1.00 20.00     0.011 C 
HETATM    3  C3  UNL     1     -35.483  14.056  -4.695  1.00 20.00     0.075 C 
HETATM    4  C4  UNL     1     -34.723  16.618  -6.218  1.00 20.00     0.075 C 
HETATM    5  C5  UNL     1     -34.347  16.257  -3.453  1.00 20.00     0.122 C 
HETATM    6  S7  UNL     1     -34.092  14.457  -3.599  1.00 20.00    -0.152 SA
HETATM    7  S8  UNL     1     -33.653  17.189  -4.855  1.00 20.00    -0.152 SA
ENDROOT
BRANCH   5   8
HETATM    8  C6  UNL     1     -33.661  16.735  -2.175  1.00 20.00     0.140 C 
HETATM    9 CL9  UNL     1     -34.730  16.493  -0.783  1.00 20.00    -0.128 Cl
ENDBRANCH   5   8
TORSDOF 1
ENDMDL
MODEL 3
REMARK VINA RESULT:      -3.6      1.733      2.201
REMARK  1 active torsions:
REMARK  status: ('A' for Active; 'I' for Inactive)
REMARK    1  A    between atoms: C5_5  and  C6_6 
ROOT
HETATM    1  C1  UNL     1     -34.667  14.786  -6.881  1.00 20.00     0.011 C 
HETATM    2  C2  UNL     1     -35.132  13.842  -5.770  1.00 20.00     0.011 C 
HETATM    3  C3  UNL     1     -33.979  16.088  -6.484  1.00 20.00     0.075 C 
HETATM    4  C4  UNL     1     -34.148  13.648  -4.619  1.00 20.00     0.075 C 
HETATM    5  C5  UNL     1     -33.899  16.303  -3.723  1.00 20.00     0.122 C 
HETATM    6  S7  UNL     1     -34.803  16.997  -5.145  1.00 20.00    -0.152 SA
HETATM    7  S8  UNL     1     -34.554  14.693  -3.180  1.00 20.00    -0.152 SA
ENDROOT
BRANCH   5   8
HETATM    8  C6  UNL     1     -34.015  17.284  -2.557  1.00 20.00     0.140 C 
HETATM    9 CL9  UNL     1     -34.598  16.445  -1.110  1.00 20.00    -0.128 Cl
ENDBRANCH   5   8
TORSDOF 1
ENDMDL
MODEL 4
REMARK VINA RESULT:      -3.5     12.047     13.109
REMARK  1 active torsions:
REMARK  status: ('A' for Active; 'I' for Inactive)
REMARK    1  A    between atoms: C5_5  and  C6_6 
ROOT
HETATM    1  C1  UNL     1     -42.234   7.821  -0.993  1.00 20.00     0.011 C 
HETATM    2  C2  UNL     1     -40.950   7.027  -0.745  1.00 20.00     0.011 C 
HETATM    3  C3  UNL     1     -43.417   7.101  -1.632  1.00 20.00     0.075 C 
HETATM    4  C4  UNL     1     -41.144   5.623  -0.180  1.00 20.00     0.075 C 
HETATM    5  C5  UNL     1     -42.722   4.483  -2.211  1.00 20.00     0.122 C 
HETATM    6  S7  UNL     1     -42.988   6.072  -3.064  1.00 20.00    -0.152 SA
HETATM    7  S8  UNL     1     -41.062   4.341  -1.475  1.00 20.00    -0.152 SA
ENDROOT
BRANCH   5   8
HETATM    8  C6  UNL     1     -42.890   3.358  -3.231  1.00 20.00     0.140 C 
HETATM    9 CL9  UNL     1     -41.422   2.369  -3.296  1.00 20.00    -0.128 Cl
ENDBRANCH   5   8
TORSDOF 1
ENDMDL
MODEL 5
REMARK VINA RESULT:      -3.5      2.849      3.063
REMARK  1 active torsions:
REMARK  status: ('A' for Active; 'I' for Inactive)
REMARK    1  A    between atoms: C5_5  and  C6_6 
ROOT
HETATM    1  C1  UNL     1     -33.431  13.708  -3.810  1.00 20.00     0.011 C 
HETATM    2  C2  UNL     1     -34.700  13.343  -4.584  1.00 20.00     0.011 C 
HETATM    3  C3  UNL     1     -33.129  15.183  -3.569  1.00 20.00     0.075 C 
HETATM    4  C4  UNL     1     -35.950  14.133  -4.205  1.00 20.00     0.075 C 
HETATM    5  C5  UNL     1     -35.077  16.748  -4.767  1.00 20.00     0.122 C 
HETATM    6  S7  UNL     1     -33.344  16.244  -5.026  1.00 20.00    -0.152 SA
HETATM    7  S8  UNL     1     -36.273  15.509  -5.358  1.00 20.00    -0.152 SA
ENDROOT
BRANCH   5   8
HETATM    8  C6  UNL     1     -35.317  18.048  -5.533  1.00 20.00     0.140 C 
HETATM    9 CL9  UNL     1     -33.774  18.730  -6.073  1.00 20.00    -0.128 Cl
ENDBRANCH   5   8
TORSDOF 1
ENDMDL
MODEL 6
REMARK VINA RESULT:      -3.4      3.151      4.019
REMARK  1 active torsions:
REMARK  status: ('A' for Active; 'I' for Inactive)
REMARK    1  A    between atoms: C5_5  and  C6_6 
ROOT
HETATM    1  C1  UNL     1     -33.418  13.773  -3.768  1.00 20.00     0.011 C 
HETATM    2  C2  UNL     1     -33.107  15.258  -3.563  1.00 20.00     0.011 C 
HETATM    3  C3  UNL     1     -34.631  13.397  -4.611  1.00 20.00     0.075 C 
HETATM    4  C4  UNL     1     -33.241  16.134  -4.805  1.00 20.00     0.075 C 
HETATM    5  C5  UNL     1     -35.946  15.691  -5.439  1.00 20.00     0.122 C 
HETATM    6  S7  UNL     1     -36.135  14.340  -4.229  1.00 20.00    -0.152 SA
HETATM    7  S8  UNL     1     -34.838  17.015  -4.860  1.00 20.00    -0.152 SA
ENDROOT
BRANCH   5   8
HETATM    8  C6  UNL     1     -37.324  16.299  -5.696  1.00 20.00     0.140 C 
HETATM    9 CL9  UNL     1     -38.268  15.242  -6.758  1.00 20.00    -0.128 Cl
ENDBRANCH   5   8
TORSDOF 1
ENDMDL
MODEL 7
REMARK VINA RESULT:      -3.4      3.341      4.247
REMARK  1 active torsions:
REMARK  status: ('A' for Active; 'I' for Inactive)
REMARK    1  A    between atoms: C5_5  and  C6_6 
ROOT
HETATM    1  C1  UNL     1     -34.565  13.660  -3.724  1.00 20.00     0.011 C 
HETATM    2  C2  UNL     1     -34.129  15.040  -3.225  1.00 20.00     0.011 C 
HETATM    3  C3  UNL     1     -34.754  13.460  -5.224  1.00 20.00     0.075 C 
HETATM    4  C4  UNL     1     -33.032  15.717  -4.041  1.00 20.00     0.075 C 
HETATM    5  C5  UNL     1     -34.285  15.844  -6.556  1.00 20.00     0.122 C 
HETATM    6  S7  UNL     1     -35.680  14.785  -6.050  1.00 20.00    -0.152 SA
HETATM    7  S8  UNL     1     -33.701  16.936  -5.222  1.00 20.00    -0.152 SA
ENDROOT
BRANCH   5   8
HETATM    8  C6  UNL     1     -34.746  16.717  -7.722  1.00 20.00     0.140 C 
HETATM    9 CL9  UNL     1     -34.155  18.373  -7.513  1.00 20.00    -0.128 Cl
ENDBRANCH   5   8
TORSDOF 1
ENDMDL
MODEL 8
REMARK VINA RESULT:      -3.4      1.804      2.716
REMARK  1 active torsions:
REMARK  status: ('A' for Active; 'I' for Inactive)
REMARK    1  A    between atoms: C5_5  and  C6_6 
ROOT
HETATM    1  C1  UNL     1     -35.904  14.847  -6.938  1.00 20.00     0.011 C 
HETATM    2  C2  UNL     1     -34.388  15.048  -6.867  1.00 20.00     0.011 C 
HETATM    3  C3  UNL     1     -36.733  15.155  -5.696  1.00 20.00     0.075 C 
HETATM    4  C4  UNL     1     -33.926  16.322  -6.166  1.00 20.00     0.075 C 
HETATM    5  C5  UNL     1     -35.067  15.934  -3.624  1.00 20.00     0.122 C 
HETATM    6  S7  UNL     1     -36.050  14.491  -4.151  1.00 20.00    -0.152 SA
HETATM    7  S8  UNL     1     -33.439  16.020  -4.435  1.00 20.00    -0.152 SA
ENDROOT
BRANCH   5   8
HETATM    8  C6  UNL     1     -34.846  15.837  -2.116  1.00 20.00     0.140 C 
HETATM    9 CL9  UNL     1     -33.678  17.060  -1.591  1.00 20.00    -0.128 Cl
ENDBRANCH   5   8
TORSDOF 1
ENDMDL
MODEL 9
REMARK VINA RESULT:      -3.4      1.557      2.265
REMARK  1 active torsions:
REMARK  status: ('A' for Active; 'I' for Inactive)
REMARK    1  A    between atoms: C5_5  and  C6_6 
ROOT
HETATM    1  C1  UNL     1     -35.695  13.842  -4.360  1.00 20.00     0.011 C 
HETATM    2  C2  UNL     1     -34.466  14.097  -5.236  1.00 20.00     0.011 C 
HETATM    3  C3  UNL     1     -36.165  14.956  -3.431  1.00 20.00     0.075 C 
HETATM    4  C4  UNL     1     -34.410  15.468  -5.904  1.00 20.00     0.075 C 
HETATM    5  C5  UNL     1     -34.462  17.131  -3.636  1.00 20.00     0.122 C 
HETATM    6  S7  UNL     1     -34.838  15.763  -2.491  1.00 20.00    -0.152 SA
HETATM    7  S8  UNL     1     -33.350  16.638  -4.991  1.00 20.00    -0.152 SA
ENDROOT
BRANCH   5   8
HETATM    8  C6  UNL     1     -33.783  18.246  -2.842  1.00 20.00     0.140 C 
HETATM    9 CL9  UNL     1     -33.518  17.728  -1.169  1.00 20.00    -0.128 Cl
ENDBRANCH   5   8
TORSDOF 1
ENDMDL
