MODEL 1
REMARK VINA RESULT:      -4.4      0.000      0.000
REMARK  1 active torsions:
REMARK  status: ('A' for Active; 'I' for Inactive)
REMARK    1  A    between atoms: C1_1  and  C3_3 
ROOT
HETATM    1  C1  UNL     1     -34.989   4.604   4.960  1.00 20.00     0.072 C 
HETATM    2  C2  UNL     1     -34.760   4.971   6.222  1.00 20.00     0.189 C 
HETATM    3  F4  UNL     1     -34.511   6.252   6.550  1.00 20.00    -0.220 F 
ENDROOT
BRANCH   1   4
HETATM    4  C3  UNL     1     -34.994   5.539   3.802  1.00 20.00     0.378 C 
HETATM    5  F5  UNL     1     -34.314   5.049   2.731  1.00 20.00    -0.210 F 
HETATM    6  F6  UNL     1     -36.265   5.766   3.374  1.00 20.00    -0.210 F 
ENDBRANCH   1   4
TORSDOF 1
ENDMDL
MODEL 2
REMARK VINA RESULT:      -4.3      1.663      2.750
REMARK  1 active torsions:
REMARK  status: ('A' for Active; 'I' for Inactive)
REMARK    1  A    between atoms: C1_1  and  C3_3 
ROOT
HETATM    1  C1  UNL     1     -35.236   5.004   4.492  1.00 20.00     0.072 C 
HETATM    2  C2  UNL     1     -34.358   5.683   3.752  1.00 20.00     0.189 C 
HETATM    3  F4  UNL     1     -33.192   6.118   4.264  1.00 20.00    -0.220 F 
ENDROOT
BRANCH   1   4
HETATM    4  C3  UNL     1     -35.036   4.659   5.926  1.00 20.00     0.378 C 
HETATM    5  F5  UNL     1     -33.933   3.891   6.130  1.00 20.00    -0.210 F 
HETATM    6  F6  UNL     1     -34.858   5.784   6.670  1.00 20.00    -0.210 F 
ENDBRANCH   1   4
TORSDOF 1
ENDMDL
MODEL 3
REMARK VINA RESULT:      -4.3      1.395      1.445
REMARK  1 active torsions:
REMARK  status: ('A' for Active; 'I' for Inactive)
REMARK    1  A    between atoms: C1_1  and  C3_3 
ROOT
HETATM    1  C1  UNL     1     -34.027   5.955   4.722  1.00 20.00     0.072 C 
HETATM    2  C2  UNL     1     -34.102   6.271   6.016  1.00 20.00     0.189 C 
HETATM    3  F4  UNL     1     -35.024   5.718   6.825  1.00 20.00    -0.220 F 
ENDROOT
BRANCH   1   4
HETATM    4  C3  UNL     1     -34.929   4.985   4.042  1.00 20.00     0.378 C 
HETATM    5  F5  UNL     1     -35.140   3.862   4.779  1.00 20.00    -0.210 F 
HETATM    6  F6  UNL     1     -36.153   5.536   3.829  1.00 20.00    -0.210 F 
ENDBRANCH   1   4
TORSDOF 1
ENDMDL
MODEL 4
REMARK VINA RESULT:      -4.2      1.663      2.969
REMARK  1 active torsions:
REMARK  status: ('A' for Active; 'I' for Inactive)
REMARK    1  A    between atoms: C1_1  and  C3_3 
ROOT
HETATM    1  C1  UNL     1     -35.046   5.138   4.483  1.00 20.00     0.072 C 
HETATM    2  C2  UNL     1     -34.249   5.701   3.573  1.00 20.00     0.189 C 
HETATM    3  F4  UNL     1     -32.995   6.085   3.875  1.00 20.00    -0.220 F 
ENDROOT
BRANCH   1   4
HETATM    4  C3  UNL     1     -34.655   4.879   5.895  1.00 20.00     0.378 C 
HETATM    5  F5  UNL     1     -34.766   5.984   6.680  1.00 20.00    -0.210 F 
HETATM    6  F6  UNL     1     -35.461   3.935   6.451  1.00 20.00    -0.210 F 
ENDBRANCH   1   4
TORSDOF 1
ENDMDL
MODEL 5
REMARK VINA RESULT:      -4.2      1.224      3.186
REMARK  1 active torsions:
REMARK  status: ('A' for Active; 'I' for Inactive)
REMARK    1  A    between atoms: C1_1  and  C3_3 
ROOT
HETATM    1  C1  UNL     1     -34.012   5.746   4.694  1.00 20.00     0.072 C 
HETATM    2  C2  UNL     1     -34.827   5.536   3.659  1.00 20.00     0.189 C 
HETATM    3  F4  UNL     1     -36.148   5.344   3.829  1.00 20.00    -0.220 F 
ENDROOT
BRANCH   1   4
HETATM    4  C3  UNL     1     -34.454   5.791   6.115  1.00 20.00     0.378 C 
HETATM    5  F5  UNL     1     -34.077   4.689   6.816  1.00 20.00    -0.210 F 
HETATM    6  F6  UNL     1     -33.903   6.856   6.756  1.00 20.00    -0.210 F 
ENDBRANCH   1   4
TORSDOF 1
ENDMDL
MODEL 6
REMARK VINA RESULT:      -4.2      0.683      1.338
REMARK  1 active torsions:
REMARK  status: ('A' for Active; 'I' for Inactive)
REMARK    1  A    between atoms: C1_1  and  C3_3 
ROOT
HETATM    1  C1  UNL     1     -34.928   4.566   5.325  1.00 20.00     0.072 C 
HETATM    2  C2  UNL     1     -34.624   5.320   6.382  1.00 20.00     0.189 C 
HETATM    3  F4  UNL     1     -34.319   6.625   6.254  1.00 20.00    -0.220 F 
ENDROOT
BRANCH   1   4
HETATM    4  C3  UNL     1     -34.962   5.062   3.922  1.00 20.00     0.378 C 
HETATM    5  F5  UNL     1     -36.122   5.705   3.623  1.00 20.00    -0.210 F 
HETATM    6  F6  UNL     1     -33.963   5.960   3.706  1.00 20.00    -0.210 F 
ENDBRANCH   1   4
TORSDOF 1
ENDMDL
MODEL 7
REMARK VINA RESULT:      -4.2      0.979      1.295
REMARK  1 active torsions:
REMARK  status: ('A' for Active; 'I' for Inactive)
REMARK    1  A    between atoms: C1_1  and  C3_3 
ROOT
HETATM    1  C1  UNL     1     -34.780   4.981   4.961  1.00 20.00     0.072 C 
HETATM    2  C2  UNL     1     -34.745   5.316   6.252  1.00 20.00     0.189 C 
HETATM    3  F4  UNL     1     -34.245   6.496   6.661  1.00 20.00    -0.220 F 
ENDROOT
BRANCH   1   4
HETATM    4  C3  UNL     1     -34.284   5.846   3.856  1.00 20.00     0.378 C 
HETATM    5  F5  UNL     1     -32.972   6.174   3.997  1.00 20.00    -0.210 F 
HETATM    6  F6  UNL     1     -34.390   5.206   2.661  1.00 20.00    -0.210 F 
ENDBRANCH   1   4
TORSDOF 1
ENDMDL
MODEL 8
REMARK VINA RESULT:      -4.1      1.383      2.846
REMARK  1 active torsions:
REMARK  status: ('A' for Active; 'I' for Inactive)
REMARK    1  A    between atoms: C1_1  and  C3_3 
ROOT
HETATM    1  C1  UNL     1     -33.911   6.145   4.900  1.00 20.00     0.072 C 
HETATM    2  C2  UNL     1     -33.285   6.382   3.746  1.00 20.00     0.189 C 
HETATM    3  F4  UNL     1     -33.438   5.574   2.681  1.00 20.00    -0.220 F 
ENDROOT
BRANCH   1   4
HETATM    4  C3  UNL     1     -34.824   4.994   5.138  1.00 20.00     0.378 C 
HETATM    5  F5  UNL     1     -35.289   4.951   6.415  1.00 20.00    -0.210 F 
HETATM    6  F6  UNL     1     -35.920   5.077   4.338  1.00 20.00    -0.210 F 
ENDBRANCH   1   4
TORSDOF 1
ENDMDL
MODEL 9
REMARK VINA RESULT:      -4.1      1.550      1.586
REMARK  1 active torsions:
REMARK  status: ('A' for Active; 'I' for Inactive)
REMARK    1  A    between atoms: C1_1  and  C3_3 
ROOT
HETATM    1  C1  UNL     1     -34.398   5.655   5.523  1.00 20.00     0.072 C 
HETATM    2  C2  UNL     1     -34.696   4.427   5.949  1.00 20.00     0.189 C 
HETATM    3  F4  UNL     1     -35.044   3.449   5.093  1.00 20.00    -0.220 F 
ENDROOT
BRANCH   1   4
HETATM    4  C3  UNL     1     -34.416   6.076   4.095  1.00 20.00     0.378 C 
HETATM    5  F5  UNL     1     -33.402   5.526   3.375  1.00 20.00    -0.210 F 
HETATM    6  F6  UNL     1     -35.569   5.680   3.493  1.00 20.00    -0.210 F 
ENDBRANCH   1   4
TORSDOF 1
ENDMDL
