MODEL 1
REMARK VINA RESULT:      -3.8      0.000      0.000
REMARK  0 active torsions:
REMARK  status: ('A' for Active; 'I' for Inactive)
ROOT
HETATM    1  C1  UNL     1     -34.128   5.541   4.541  1.00 20.00     0.094 A 
HETATM    2  C2  UNL     1     -33.555   6.570   5.311  1.00 20.00     0.073 A 
HETATM    3  C3  UNL     1     -33.656   5.759   3.270  1.00 20.00     0.225 A 
HETATM    4  C4  UNL     1     -33.714   6.826   6.754  1.00 20.00     0.074 C 
HETATM    5  C5  UNL     1     -32.135   7.479   2.267  1.00 20.00     0.183 C 
HETATM    6  N6  UNL     1     -32.776   7.382   4.590  1.00 20.00    -0.174 NA
HETATM    7  N7  UNL     1     -32.858   6.862   3.353  1.00 20.00    -0.247 N 
HETATM    8  F8  UNL     1     -33.919   5.046   2.175  1.00 20.00    -0.183 F 
HETATM    9 BR9  UNL     1     -35.272   4.198   5.141  1.00 20.00    -0.044 Br
ENDROOT
TORSDOF 0
ENDMDL
MODEL 2
REMARK VINA RESULT:      -3.7     12.459     13.334
REMARK  0 active torsions:
REMARK  status: ('A' for Active; 'I' for Inactive)
ROOT
HETATM    1  C1  UNL     1     -34.032  15.619  -4.004  1.00 20.00     0.094 A 
HETATM    2  C2  UNL     1     -34.180  16.568  -2.976  1.00 20.00     0.073 A 
HETATM    3  C3  UNL     1     -33.771  16.365  -5.126  1.00 20.00     0.225 A 
HETATM    4  C4  UNL     1     -34.468  16.330  -1.549  1.00 20.00     0.074 C 
HETATM    5  C5  UNL     1     -33.549  18.825  -5.548  1.00 20.00     0.183 C 
HETATM    6  N6  UNL     1     -34.025  17.823  -3.405  1.00 20.00    -0.174 NA
HETATM    7  N7  UNL     1     -33.776  17.666  -4.718  1.00 20.00    -0.247 N 
HETATM    8  F8  UNL     1     -33.557  15.919  -6.364  1.00 20.00    -0.183 F 
HETATM    9 BR9  UNL     1     -34.169  13.767  -3.846  1.00 20.00    -0.044 Br
ENDROOT
TORSDOF 0
ENDMDL
MODEL 3
REMARK VINA RESULT:      -3.7     12.395     12.921
REMARK  0 active torsions:
REMARK  status: ('A' for Active; 'I' for Inactive)
ROOT
HETATM    1  C1  UNL     1     -33.963  16.660  -4.161  1.00 20.00     0.094 A 
HETATM    2  C2  UNL     1     -34.214  16.030  -2.927  1.00 20.00     0.073 A 
HETATM    3  C3  UNL     1     -34.037  15.648  -5.085  1.00 20.00     0.225 A 
HETATM    4  C4  UNL     1     -34.262  16.639  -1.585  1.00 20.00     0.074 C 
HETATM    5  C5  UNL     1     -34.489  13.189  -4.918  1.00 20.00     0.183 C 
HETATM    6  N6  UNL     1     -34.431  14.718  -3.053  1.00 20.00    -0.174 NA
HETATM    7  N7  UNL     1     -34.317  14.516  -4.377  1.00 20.00    -0.247 N 
HETATM    8  F8  UNL     1     -33.868  15.741  -6.404  1.00 20.00    -0.183 F 
HETATM    9 BR9  UNL     1     -33.612  18.469  -4.443  1.00 20.00    -0.044 Br
ENDROOT
TORSDOF 0
ENDMDL
MODEL 4
REMARK VINA RESULT:      -3.6     12.362     13.182
REMARK  0 active torsions:
REMARK  status: ('A' for Active; 'I' for Inactive)
ROOT
HETATM    1  C1  UNL     1     -34.154  15.655  -3.582  1.00 20.00     0.094 A 
HETATM    2  C2  UNL     1     -33.850  16.549  -4.624  1.00 20.00     0.073 A 
HETATM    3  C3  UNL     1     -34.108  16.423  -2.445  1.00 20.00     0.225 A 
HETATM    4  C4  UNL     1     -33.762  16.271  -6.070  1.00 20.00     0.074 C 
HETATM    5  C5  UNL     1     -33.630  18.844  -2.018  1.00 20.00     0.183 C 
HETATM    6  N6  UNL     1     -33.628  17.793  -4.189  1.00 20.00    -0.174 NA
HETATM    7  N7  UNL     1     -33.793  17.683  -2.859  1.00 20.00    -0.247 N 
HETATM    8  F8  UNL     1     -34.324  16.026  -1.190  1.00 20.00    -0.183 F 
HETATM    9 BR9  UNL     1     -34.530  13.836  -3.742  1.00 20.00    -0.044 Br
ENDROOT
TORSDOF 0
ENDMDL
MODEL 5
REMARK VINA RESULT:      -3.6     12.295     13.065
REMARK  0 active torsions:
REMARK  status: ('A' for Active; 'I' for Inactive)
ROOT
HETATM    1  C1  UNL     1     -34.211  15.591  -5.062  1.00 20.00     0.094 A 
HETATM    2  C2  UNL     1     -34.620  14.652  -4.098  1.00 20.00     0.073 A 
HETATM    3  C3  UNL     1     -33.767  16.665  -4.330  1.00 20.00     0.225 A 
HETATM    4  C4  UNL     1     -35.182  13.306  -4.316  1.00 20.00     0.074 C 
HETATM    5  C5  UNL     1     -33.604  17.127  -1.873  1.00 20.00     0.183 C 
HETATM    6  N6  UNL     1     -34.452  15.089  -2.847  1.00 20.00    -0.174 NA
HETATM    7  N7  UNL     1     -33.931  16.316  -3.021  1.00 20.00    -0.247 N 
HETATM    8  F8  UNL     1     -33.279  17.815  -4.794  1.00 20.00    -0.183 F 
HETATM    9 BR9  UNL     1     -34.271  15.393  -6.914  1.00 20.00    -0.044 Br
ENDROOT
TORSDOF 0
ENDMDL
MODEL 6
REMARK VINA RESULT:      -3.6     10.023     10.617
REMARK  0 active torsions:
REMARK  status: ('A' for Active; 'I' for Inactive)
ROOT
HETATM    1  C1  UNL     1     -42.180   6.050  -1.798  1.00 20.00     0.094 A 
HETATM    2  C2  UNL     1     -41.128   5.545  -1.011  1.00 20.00     0.073 A 
HETATM    3  C3  UNL     1     -42.482   5.029  -2.665  1.00 20.00     0.225 A 
HETATM    4  C4  UNL     1     -40.409   6.213   0.089  1.00 20.00     0.074 C 
HETATM    5  C5  UNL     1     -41.564   2.723  -3.000  1.00 20.00     0.183 C 
HETATM    6  N6  UNL     1     -40.785   4.298  -1.347  1.00 20.00    -0.174 NA
HETATM    7  N7  UNL     1     -41.627   4.013  -2.356  1.00 20.00    -0.247 N 
HETATM    8  F8  UNL     1     -43.416   5.025  -3.616  1.00 20.00    -0.183 F 
HETATM    9 BR9  UNL     1     -42.964   7.736  -1.668  1.00 20.00    -0.044 Br
ENDROOT
TORSDOF 0
ENDMDL
MODEL 7
REMARK VINA RESULT:      -3.6     11.814     12.482
REMARK  0 active torsions:
REMARK  status: ('A' for Active; 'I' for Inactive)
ROOT
HETATM    1  C1  UNL     1     -35.289  15.591  -3.047  1.00 20.00     0.094 A 
HETATM    2  C2  UNL     1     -35.155  14.354  -3.704  1.00 20.00     0.073 A 
HETATM    3  C3  UNL     1     -36.628  15.881  -3.129  1.00 20.00     0.225 A 
HETATM    4  C4  UNL     1     -33.930  13.561  -3.916  1.00 20.00     0.074 C 
HETATM    5  C5  UNL     1     -38.591  14.695  -4.137  1.00 20.00     0.183 C 
HETATM    6  N6  UNL     1     -36.317  13.888  -4.170  1.00 20.00    -0.174 NA
HETATM    7  N7  UNL     1     -37.194  14.840  -3.804  1.00 20.00    -0.247 N 
HETATM    8  F8  UNL     1     -37.254  16.958  -2.653  1.00 20.00    -0.183 F 
HETATM    9 BR9  UNL     1     -33.929  16.589  -2.254  1.00 20.00    -0.044 Br
ENDROOT
TORSDOF 0
ENDMDL
MODEL 8
REMARK VINA RESULT:      -3.5      2.883      3.968
REMARK  0 active torsions:
REMARK  status: ('A' for Active; 'I' for Inactive)
ROOT
HETATM    1  C1  UNL     1     -33.370   6.386   4.012  1.00 20.00     0.094 A 
HETATM    2  C2  UNL     1     -34.224   5.455   3.393  1.00 20.00     0.073 A 
HETATM    3  C3  UNL     1     -33.669   6.293   5.349  1.00 20.00     0.225 A 
HETATM    4  C4  UNL     1     -34.333   5.129   1.959  1.00 20.00     0.074 C 
HETATM    5  C5  UNL     1     -35.289   4.901   6.660  1.00 20.00     0.183 C 
HETATM    6  N6  UNL     1     -35.010   4.816   4.265  1.00 20.00    -0.174 NA
HETATM    7  N7  UNL     1     -34.647   5.347   5.446  1.00 20.00    -0.247 N 
HETATM    8  F8  UNL     1     -33.124   6.982   6.351  1.00 20.00    -0.183 F 
HETATM    9 BR9  UNL     1     -32.120   7.487   3.175  1.00 20.00    -0.044 Br
ENDROOT
TORSDOF 0
ENDMDL
MODEL 9
REMARK VINA RESULT:      -3.5     12.251     13.308
REMARK  0 active torsions:
REMARK  status: ('A' for Active; 'I' for Inactive)
ROOT
HETATM    1  C1  UNL     1     -35.844  14.853  -5.665  1.00 20.00     0.094 A 
HETATM    2  C2  UNL     1     -35.700  14.135  -4.464  1.00 20.00     0.073 A 
HETATM    3  C3  UNL     1     -37.155  15.257  -5.671  1.00 20.00     0.225 A 
HETATM    4  C4  UNL     1     -34.494  13.473  -3.934  1.00 20.00     0.074 C 
HETATM    5  C5  UNL     1     -39.062  14.946  -4.076  1.00 20.00     0.183 C 
HETATM    6  N6  UNL     1     -36.832  14.084  -3.755  1.00 20.00    -0.174 NA
HETATM    7  N7  UNL     1     -37.698  14.776  -4.515  1.00 20.00    -0.247 N 
HETATM    8  F8  UNL     1     -37.779  15.970  -6.609  1.00 20.00    -0.183 F 
HETATM    9 BR9  UNL     1     -34.525  15.166  -6.945  1.00 20.00    -0.044 Br
ENDROOT
TORSDOF 0
ENDMDL
