MODEL 1
REMARK VINA RESULT:      -6.1      0.000      0.000
REMARK  2 active torsions:
REMARK  status: ('A' for Active; 'I' for Inactive)
REMARK    1  A    between atoms: C1_1  and  C3_3 
REMARK    2  A    between atoms: C3_3  and  C4_4 
ROOT
HETATM    1  C3  UNL     1     -33.883   6.363   3.776  1.00 20.00     0.319 C 
HETATM    2  F7  UNL     1     -34.517   7.565   3.605  1.00 20.00    -0.209 F 
HETATM    3 CL12 UNL     1     -34.545   5.257   2.530  1.00 20.00    -0.067 Cl
ENDROOT
BRANCH   1   4
HETATM    4  C1  UNL     1     -34.166   5.815   5.157  1.00 20.00     0.143 C 
HETATM    5  C2  UNL     1     -34.700   4.610   5.401  1.00 20.00     0.289 C 
HETATM    6  F5  UNL     1     -34.919   4.200   6.668  1.00 20.00    -0.171 F 
HETATM    7  F6  UNL     1     -35.029   3.785   4.382  1.00 20.00    -0.171 F 
HETATM    8 CL11 UNL     1     -33.764   6.835   6.509  1.00 20.00    -0.078 Cl
ENDBRANCH   1   4
BRANCH   1   9
HETATM    9  C4  UNL     1     -32.409   6.626   3.507  1.00 20.00     0.443 C 
HETATM   10  F8  UNL     1     -31.721   5.463   3.433  1.00 20.00    -0.166 F 
HETATM   11  F9  UNL     1     -31.829   7.376   4.466  1.00 20.00    -0.166 F 
HETATM   12  F10 UNL     1     -32.241   7.265   2.327  1.00 20.00    -0.166 F 
ENDBRANCH   1   9
TORSDOF 2
ENDMDL
MODEL 2
REMARK VINA RESULT:      -5.9      1.265      3.660
REMARK  2 active torsions:
REMARK  status: ('A' for Active; 'I' for Inactive)
REMARK    1  A    between atoms: C1_1  and  C3_3 
REMARK    2  A    between atoms: C3_3  and  C4_4 
ROOT
HETATM    1  C3  UNL     1     -34.498   5.289   4.223  1.00 20.00     0.319 C 
HETATM    2  F7  UNL     1     -34.069   4.518   3.176  1.00 20.00    -0.209 F 
HETATM    3 CL12 UNL     1     -36.015   6.078   3.686  1.00 20.00    -0.067 Cl
ENDROOT
BRANCH   1   4
HETATM    4  C1  UNL     1     -33.461   6.336   4.560  1.00 20.00     0.143 C 
HETATM    5  C2  UNL     1     -32.495   6.745   3.724  1.00 20.00     0.289 C 
HETATM    6  F5  UNL     1     -31.609   7.688   4.108  1.00 20.00    -0.171 F 
HETATM    7  F6  UNL     1     -32.394   6.222   2.483  1.00 20.00    -0.171 F 
HETATM    8 CL11 UNL     1     -33.541   7.046   6.147  1.00 20.00    -0.078 Cl
ENDBRANCH   1   4
BRANCH   1   9
HETATM    9  C4  UNL     1     -34.789   4.322   5.361  1.00 20.00     0.443 C 
HETATM   10  F8  UNL     1     -35.318   3.170   4.886  1.00 20.00    -0.166 F 
HETATM   11  F9  UNL     1     -35.660   4.823   6.261  1.00 20.00    -0.166 F 
HETATM   12  F10 UNL     1     -33.655   3.998   6.022  1.00 20.00    -0.166 F 
ENDBRANCH   1   9
TORSDOF 2
ENDMDL
MODEL 3
REMARK VINA RESULT:      -5.8      1.489      1.701
REMARK  2 active torsions:
REMARK  status: ('A' for Active; 'I' for Inactive)
REMARK    1  A    between atoms: C1_1  and  C3_3 
REMARK    2  A    between atoms: C3_3  and  C4_4 
ROOT
HETATM    1  C3  UNL     1     -33.992   6.207   3.667  1.00 20.00     0.319 C 
HETATM    2  F7  UNL     1     -34.630   7.419   3.709  1.00 20.00    -0.209 F 
HETATM    3 CL12 UNL     1     -34.595   5.365   2.204  1.00 20.00    -0.067 Cl
ENDROOT
BRANCH   1   4
HETATM    4  C1  UNL     1     -34.321   5.400   4.901  1.00 20.00     0.143 C 
HETATM    5  C2  UNL     1     -34.287   5.878   6.153  1.00 20.00     0.289 C 
HETATM    6  F5  UNL     1     -34.597   5.085   7.200  1.00 20.00    -0.171 F 
HETATM    7  F6  UNL     1     -33.943   7.163   6.388  1.00 20.00    -0.171 F 
HETATM    8 CL11 UNL     1     -34.771   3.736   4.661  1.00 20.00    -0.078 Cl
ENDBRANCH   1   4
BRANCH   1   9
HETATM    9  C4  UNL     1     -32.511   6.521   3.512  1.00 20.00     0.443 C 
HETATM   10  F8  UNL     1     -31.785   5.380   3.447  1.00 20.00    -0.166 F 
HETATM   11  F9  UNL     1     -32.022   7.250   4.536  1.00 20.00    -0.166 F 
HETATM   12  F10 UNL     1     -32.280   7.208   2.371  1.00 20.00    -0.166 F 
ENDBRANCH   1   9
TORSDOF 2
ENDMDL
MODEL 4
REMARK VINA RESULT:      -5.4      0.982      4.056
REMARK  2 active torsions:
REMARK  status: ('A' for Active; 'I' for Inactive)
REMARK    1  A    between atoms: C1_1  and  C3_3 
REMARK    2  A    between atoms: C3_3  and  C4_4 
ROOT
HETATM    1  C3  UNL     1     -34.672   5.570   4.957  1.00 20.00     0.319 C 
HETATM    2  F7  UNL     1     -35.974   5.839   4.630  1.00 20.00    -0.209 F 
HETATM    3 CL12 UNL     1     -34.224   6.724   6.253  1.00 20.00    -0.067 Cl
ENDROOT
BRANCH   1   4
HETATM    4  C1  UNL     1     -33.778   5.771   3.754  1.00 20.00     0.143 C 
HETATM    5  C2  UNL     1     -32.657   6.505   3.755  1.00 20.00     0.289 C 
HETATM    6  F5  UNL     1     -31.917   6.631   2.633  1.00 20.00    -0.171 F 
HETATM    7  F6  UNL     1     -32.248   7.132   4.880  1.00 20.00    -0.171 F 
HETATM    8 CL11 UNL     1     -34.256   4.988   2.275  1.00 20.00    -0.078 Cl
ENDBRANCH   1   4
BRANCH   1   9
HETATM    9  C4  UNL     1     -34.663   4.149   5.501  1.00 20.00     0.443 C 
HETATM   10  F8  UNL     1     -35.559   4.017   6.507  1.00 20.00    -0.166 F 
HETATM   11  F9  UNL     1     -33.459   3.783   5.984  1.00 20.00    -0.166 F 
HETATM   12  F10 UNL     1     -35.008   3.262   4.540  1.00 20.00    -0.166 F 
ENDBRANCH   1   9
TORSDOF 2
ENDMDL
MODEL 5
REMARK VINA RESULT:      -5.3     11.429     12.598
REMARK  2 active torsions:
REMARK  status: ('A' for Active; 'I' for Inactive)
REMARK    1  A    between atoms: C1_1  and  C3_3 
REMARK    2  A    between atoms: C3_3  and  C4_4 
ROOT
HETATM    1  C3  UNL     1     -33.738  15.349  -3.754  1.00 20.00     0.319 C 
HETATM    2  F7  UNL     1     -32.614  15.383  -2.973  1.00 20.00    -0.209 F 
HETATM    3 CL12 UNL     1     -33.378  16.340  -5.205  1.00 20.00    -0.067 Cl
ENDROOT
BRANCH   1   4
HETATM    4  C1  UNL     1     -34.913  15.936  -3.006  1.00 20.00     0.143 C 
HETATM    5  C2  UNL     1     -36.108  16.198  -3.554  1.00 20.00     0.289 C 
HETATM    6  F5  UNL     1     -37.104  16.724  -2.810  1.00 20.00    -0.171 F 
HETATM    7  F6  UNL     1     -36.336  15.941  -4.861  1.00 20.00    -0.171 F 
HETATM    8 CL11 UNL     1     -34.678  16.290  -1.318  1.00 20.00    -0.078 Cl
ENDBRANCH   1   4
BRANCH   1   9
HETATM    9  C4  UNL     1     -33.926  13.893  -4.153  1.00 20.00     0.443 C 
HETATM   10  F8  UNL     1     -34.130  13.785  -5.487  1.00 20.00    -0.166 F 
HETATM   11  F9  UNL     1     -34.977  13.315  -3.538  1.00 20.00    -0.166 F 
HETATM   12  F10 UNL     1     -32.824  13.166  -3.857  1.00 20.00    -0.166 F 
ENDBRANCH   1   9
TORSDOF 2
ENDMDL
MODEL 6
REMARK VINA RESULT:      -5.3      9.057     10.378
REMARK  2 active torsions:
REMARK  status: ('A' for Active; 'I' for Inactive)
REMARK    1  A    between atoms: C1_1  and  C3_3 
REMARK    2  A    between atoms: C3_3  and  C4_4 
ROOT
HETATM    1  C3  UNL     1     -41.656   4.765  -1.489  1.00 20.00     0.319 C 
HETATM    2  F7  UNL     1     -40.419   4.203  -1.317  1.00 20.00    -0.209 F 
HETATM    3 CL12 UNL     1     -42.295   4.127  -3.037  1.00 20.00    -0.067 Cl
ENDROOT
BRANCH   1   4
HETATM    4  C1  UNL     1     -41.541   6.271  -1.558  1.00 20.00     0.143 C 
HETATM    5  C2  UNL     1     -40.897   7.026  -0.656  1.00 20.00     0.289 C 
HETATM    6  F5  UNL     1     -40.844   8.367  -0.796  1.00 20.00    -0.171 F 
HETATM    7  F6  UNL     1     -40.290   6.456   0.408  1.00 20.00    -0.171 F 
HETATM    8 CL11 UNL     1     -42.305   7.061  -2.907  1.00 20.00    -0.078 Cl
ENDBRANCH   1   4
BRANCH   1   9
HETATM    9  C4  UNL     1     -42.506   4.264  -0.330  1.00 20.00     0.443 C 
HETATM   10  F8  UNL     1     -43.181   3.144  -0.681  1.00 20.00    -0.166 F 
HETATM   11  F9  UNL     1     -43.417   5.171   0.078  1.00 20.00    -0.166 F 
HETATM   12  F10 UNL     1     -41.734   3.949   0.733  1.00 20.00    -0.166 F 
ENDBRANCH   1   9
TORSDOF 2
ENDMDL
MODEL 7
REMARK VINA RESULT:      -5.3      2.063      3.539
REMARK  2 active torsions:
REMARK  status: ('A' for Active; 'I' for Inactive)
REMARK    1  A    between atoms: C1_1  and  C3_3 
REMARK    2  A    between atoms: C3_3  and  C4_4 
ROOT
HETATM    1  C3  UNL     1     -34.524   5.272   4.283  1.00 20.00     0.319 C 
HETATM    2  F7  UNL     1     -34.018   4.747   3.123  1.00 20.00    -0.209 F 
HETATM    3 CL12 UNL     1     -36.080   6.050   3.852  1.00 20.00    -0.067 Cl
ENDROOT
BRANCH   1   4
HETATM    4  C1  UNL     1     -33.572   6.299   4.851  1.00 20.00     0.143 C 
HETATM    5  C2  UNL     1     -33.650   6.803   6.091  1.00 20.00     0.289 C 
HETATM    6  F5  UNL     1     -32.756   7.720   6.518  1.00 20.00    -0.171 F 
HETATM    7  F6  UNL     1     -34.626   6.401   6.935  1.00 20.00    -0.171 F 
HETATM    8 CL11 UNL     1     -32.294   6.856   3.808  1.00 20.00    -0.078 Cl
ENDBRANCH   1   4
BRANCH   1   9
HETATM    9  C4  UNL     1     -34.773   4.086   5.203  1.00 20.00     0.443 C 
HETATM   10  F8  UNL     1     -35.106   2.987   4.487  1.00 20.00    -0.166 F 
HETATM   11  F9  UNL     1     -35.770   4.309   6.083  1.00 20.00    -0.166 F 
HETATM   12  F10 UNL     1     -33.660   3.782   5.909  1.00 20.00    -0.166 F 
ENDBRANCH   1   9
TORSDOF 2
ENDMDL
MODEL 8
REMARK VINA RESULT:      -5.2     11.390     12.738
REMARK  2 active torsions:
REMARK  status: ('A' for Active; 'I' for Inactive)
REMARK    1  A    between atoms: C1_1  and  C3_3 
REMARK    2  A    between atoms: C3_3  and  C4_4 
ROOT
HETATM    1  C3  UNL     1     -34.713  15.413  -4.097  1.00 20.00     0.319 C 
HETATM    2  F7  UNL     1     -34.908  15.627  -5.435  1.00 20.00    -0.209 F 
HETATM    3 CL12 UNL     1     -36.333  15.124  -3.386  1.00 20.00    -0.067 Cl
ENDROOT
BRANCH   1   4
HETATM    4  C1  UNL     1     -34.078  16.627  -3.460  1.00 20.00     0.143 C 
HETATM    5  C2  UNL     1     -33.967  16.821  -2.138  1.00 20.00     0.289 C 
HETATM    6  F5  UNL     1     -33.383  17.938  -1.654  1.00 20.00    -0.171 F 
HETATM    7  F6  UNL     1     -34.436  15.901  -1.267  1.00 20.00    -0.171 F 
HETATM    8 CL11 UNL     1     -33.456  17.849  -4.532  1.00 20.00    -0.078 Cl
ENDBRANCH   1   4
BRANCH   1   9
HETATM    9  C4  UNL     1     -33.869  14.150  -3.995  1.00 20.00     0.443 C 
HETATM   10  F8  UNL     1     -34.307  13.362  -2.986  1.00 20.00    -0.166 F 
HETATM   11  F9  UNL     1     -32.566  14.412  -3.765  1.00 20.00    -0.166 F 
HETATM   12  F10 UNL     1     -33.949  13.424  -5.133  1.00 20.00    -0.166 F 
ENDBRANCH   1   9
TORSDOF 2
ENDMDL
MODEL 9
REMARK VINA RESULT:      -5.2      9.281     10.354
REMARK  2 active torsions:
REMARK  status: ('A' for Active; 'I' for Inactive)
REMARK    1  A    between atoms: C1_1  and  C3_3 
REMARK    2  A    between atoms: C3_3  and  C4_4 
ROOT
HETATM    1  C3  UNL     1     -42.288   5.884  -0.309  1.00 20.00     0.319 C 
HETATM    2  F7  UNL     1     -42.505   5.524   0.995  1.00 20.00    -0.209 F 
HETATM    3 CL12 UNL     1     -43.155   7.433  -0.560  1.00 20.00    -0.067 Cl
ENDROOT
BRANCH   1   4
HETATM    4  C1  UNL     1     -42.835   4.827  -1.241  1.00 20.00     0.143 C 
HETATM    5  C2  UNL     1     -42.902   4.952  -2.574  1.00 20.00     0.289 C 
HETATM    6  F5  UNL     1     -43.407   3.956  -3.332  1.00 20.00    -0.171 F 
HETATM    7  F6  UNL     1     -42.464   6.076  -3.182  1.00 20.00    -0.171 F 
HETATM    8 CL11 UNL     1     -43.417   3.357  -0.515  1.00 20.00    -0.078 Cl
ENDBRANCH   1   4
BRANCH   1   9
HETATM    9  C4  UNL     1     -40.787   6.102  -0.437  1.00 20.00     0.443 C 
HETATM   10  F8  UNL     1     -40.169   4.958  -0.815  1.00 20.00    -0.166 F 
HETATM   11  F9  UNL     1     -40.218   6.503   0.718  1.00 20.00    -0.166 F 
HETATM   12  F10 UNL     1     -40.514   7.034  -1.377  1.00 20.00    -0.166 F 
ENDBRANCH   1   9
TORSDOF 2
ENDMDL
