MODEL 1
REMARK VINA RESULT:      -4.4      0.000      0.000
REMARK  2 active torsions:
REMARK  status: ('A' for Active; 'I' for Inactive)
REMARK    1  A    between atoms: C2_2  and  C9_9 
REMARK    2  A    between atoms: C3_3  and  C6_6 
ROOT
HETATM    1  C1  UNL     1     -33.704  17.871  -3.223  1.00 20.00     0.079 A 
HETATM    2  C2  UNL     1     -34.046  17.335  -1.999  1.00 20.00     0.045 A 
HETATM    3  C3  UNL     1     -34.124  15.500  -3.198  1.00 20.00     0.079 A 
HETATM    4  N10 UNL     1     -34.288  15.975  -1.983  1.00 20.00    -0.249 NA
HETATM    5  S11 UNL     1     -33.679  16.632  -4.408  1.00 20.00    -0.084 SA
ENDROOT
BRANCH   2   6
HETATM    6  C9  UNL     1     -34.175  18.107  -0.699  1.00 20.00     0.030 C 
HETATM    7  C7  UNL     1     -32.809  18.547  -0.168  1.00 20.00     0.016 C 
HETATM    8  C8  UNL     1     -34.937  17.304   0.358  1.00 20.00     0.016 C 
ENDBRANCH   2   6
BRANCH   3   9
HETATM    9  C6  UNL     1     -34.320  14.009  -3.516  1.00 20.00     0.045 A 
HETATM   10  C4  UNL     1     -34.328  13.573  -4.963  1.00 20.00     0.012 A 
HETATM   11  C5  UNL     1     -35.605  13.574  -4.183  1.00 20.00     0.012 A 
ENDBRANCH   3   9
TORSDOF 2
ENDMDL
MODEL 2
REMARK VINA RESULT:      -4.3      2.367      3.395
REMARK  2 active torsions:
REMARK  status: ('A' for Active; 'I' for Inactive)
REMARK    1  A    between atoms: C2_2  and  C9_9 
REMARK    2  A    between atoms: C3_3  and  C6_6 
ROOT
HETATM    1  C1  UNL     1     -34.436  14.029  -3.414  1.00 20.00     0.079 A 
HETATM    2  C2  UNL     1     -34.139  15.357  -3.634  1.00 20.00     0.045 A 
HETATM    3  C3  UNL     1     -34.434  14.734  -5.717  1.00 20.00     0.079 A 
HETATM    4  N10 UNL     1     -34.137  15.764  -4.955  1.00 20.00    -0.249 NA
HETATM    5  S11 UNL     1     -34.729  13.248  -4.913  1.00 20.00    -0.084 SA
ENDROOT
BRANCH   2   6
HETATM    6  C9  UNL     1     -33.820  16.384  -2.563  1.00 20.00     0.030 C 
HETATM    7  C7  UNL     1     -34.809  16.305  -1.398  1.00 20.00     0.016 C 
HETATM    8  C8  UNL     1     -33.770  17.801  -3.139  1.00 20.00     0.016 C 
ENDBRANCH   2   6
BRANCH   3   9
HETATM    9  C6  UNL     1     -34.514  14.857  -7.247  1.00 20.00     0.045 A 
HETATM   10  C4  UNL     1     -35.229  16.048  -7.841  1.00 20.00     0.012 A 
HETATM   11  C5  UNL     1     -35.858  14.693  -7.917  1.00 20.00     0.012 A 
ENDBRANCH   3   9
TORSDOF 2
ENDMDL
MODEL 3
REMARK VINA RESULT:      -4.3      1.794      4.930
REMARK  2 active torsions:
REMARK  status: ('A' for Active; 'I' for Inactive)
REMARK    1  A    between atoms: C2_2  and  C9_9 
REMARK    2  A    between atoms: C3_3  and  C6_6 
ROOT
HETATM    1  C1  UNL     1     -36.446  16.484  -4.390  1.00 20.00     0.079 A 
HETATM    2  C2  UNL     1     -35.543  15.445  -4.308  1.00 20.00     0.045 A 
HETATM    3  C3  UNL     1     -35.215  16.327  -2.326  1.00 20.00     0.079 A 
HETATM    4  N10 UNL     1     -34.835  15.354  -3.124  1.00 20.00    -0.249 NA
HETATM    5  S11 UNL     1     -36.419  17.388  -2.933  1.00 20.00    -0.084 SA
ENDROOT
BRANCH   2   6
HETATM    6  C9  UNL     1     -35.271  14.418  -5.391  1.00 20.00     0.030 C 
HETATM    7  C7  UNL     1     -34.538  13.195  -4.836  1.00 20.00     0.016 C 
HETATM    8  C8  UNL     1     -34.501  15.028  -6.564  1.00 20.00     0.016 C 
ENDBRANCH   2   6
BRANCH   3   9
HETATM    9  C6  UNL     1     -34.612  16.504  -0.923  1.00 20.00     0.045 A 
HETATM   10  C4  UNL     1     -35.062  17.679  -0.085  1.00 20.00     0.012 A 
HETATM   11  C5  UNL     1     -33.687  17.673  -0.675  1.00 20.00     0.012 A 
ENDBRANCH   3   9
TORSDOF 2
ENDMDL
MODEL 4
REMARK VINA RESULT:      -4.2      1.355      4.678
REMARK  2 active torsions:
REMARK  status: ('A' for Active; 'I' for Inactive)
REMARK    1  A    between atoms: C2_2  and  C9_9 
REMARK    2  A    between atoms: C3_3  and  C6_6 
ROOT
HETATM    1  C1  UNL     1     -33.938  16.797  -5.377  1.00 20.00     0.079 A 
HETATM    2  C2  UNL     1     -34.121  15.608  -4.703  1.00 20.00     0.045 A 
HETATM    3  C3  UNL     1     -33.836  16.928  -2.975  1.00 20.00     0.079 A 
HETATM    4  N10 UNL     1     -34.063  15.681  -3.325  1.00 20.00    -0.249 NA
HETATM    5  S11 UNL     1     -33.684  18.065  -4.250  1.00 20.00    -0.084 SA
ENDROOT
BRANCH   2   6
HETATM    6  C9  UNL     1     -34.375  14.256  -5.344  1.00 20.00     0.030 C 
HETATM    7  C7  UNL     1     -35.147  14.393  -6.658  1.00 20.00     0.016 C 
HETATM    8  C8  UNL     1     -35.097  13.306  -4.385  1.00 20.00     0.016 C 
ENDBRANCH   2   6
BRANCH   3   9
HETATM    9  C6  UNL     1     -33.716  17.345  -1.500  1.00 20.00     0.045 A 
HETATM   10  C4  UNL     1     -34.689  16.763  -0.501  1.00 20.00     0.012 A 
HETATM   11  C5  UNL     1     -34.806  18.200  -0.897  1.00 20.00     0.012 A 
ENDBRANCH   3   9
TORSDOF 2
ENDMDL
MODEL 5
REMARK VINA RESULT:      -4.2      2.364      5.203
REMARK  2 active torsions:
REMARK  status: ('A' for Active; 'I' for Inactive)
REMARK    1  A    between atoms: C2_2  and  C9_9 
REMARK    2  A    between atoms: C3_3  and  C6_6 
ROOT
HETATM    1  C1  UNL     1     -34.502  13.856  -5.178  1.00 20.00     0.079 A 
HETATM    2  C2  UNL     1     -34.402  15.084  -5.796  1.00 20.00     0.045 A 
HETATM    3  C3  UNL     1     -34.129  15.735  -3.720  1.00 20.00     0.079 A 
HETATM    4  N10 UNL     1     -34.188  16.164  -4.961  1.00 20.00    -0.249 NA
HETATM    5  S11 UNL     1     -34.321  14.047  -3.483  1.00 20.00    -0.084 SA
ENDROOT
BRANCH   2   6
HETATM    6  C9  UNL     1     -34.507  15.337  -7.289  1.00 20.00     0.030 C 
HETATM    7  C7  UNL     1     -34.658  16.828  -7.597  1.00 20.00     0.016 C 
HETATM    8  C8  UNL     1     -35.647  14.533  -7.917  1.00 20.00     0.016 C 
ENDBRANCH   2   6
BRANCH   3   9
HETATM    9  C6  UNL     1     -33.899  16.696  -2.542  1.00 20.00     0.045 A 
HETATM   10  C4  UNL     1     -34.579  16.403  -1.225  1.00 20.00     0.012 A 
HETATM   11  C5  UNL     1     -35.053  17.547  -2.065  1.00 20.00     0.012 A 
ENDBRANCH   3   9
TORSDOF 2
ENDMDL
MODEL 6
REMARK VINA RESULT:      -4.1      0.871      1.377
REMARK  2 active torsions:
REMARK  status: ('A' for Active; 'I' for Inactive)
REMARK    1  A    between atoms: C2_2  and  C9_9 
REMARK    2  A    between atoms: C3_3  and  C6_6 
ROOT
HETATM    1  C1  UNL     1     -34.733  17.916  -3.157  1.00 20.00     0.079 A 
HETATM    2  C2  UNL     1     -34.062  17.138  -2.237  1.00 20.00     0.045 A 
HETATM    3  C3  UNL     1     -34.209  15.674  -3.864  1.00 20.00     0.079 A 
HETATM    4  N10 UNL     1     -33.760  15.852  -2.641  1.00 20.00    -0.249 NA
HETATM    5  S11 UNL     1     -35.002  17.012  -4.589  1.00 20.00    -0.084 SA
ENDROOT
BRANCH   2   6
HETATM    6  C9  UNL     1     -33.638  17.576  -0.848  1.00 20.00     0.030 C 
HETATM    7  C7  UNL     1     -34.771  17.403   0.166  1.00 20.00     0.016 C 
HETATM    8  C8  UNL     1     -33.120  19.016  -0.845  1.00 20.00     0.016 C 
ENDBRANCH   2   6
BRANCH   3   9
HETATM    9  C6  UNL     1     -34.032  14.339  -4.605  1.00 20.00     0.045 A 
HETATM   10  C4  UNL     1     -34.980  14.006  -5.733  1.00 20.00     0.012 A 
HETATM   11  C5  UNL     1     -35.086  13.270  -4.435  1.00 20.00     0.012 A 
ENDBRANCH   3   9
TORSDOF 2
ENDMDL
MODEL 7
REMARK VINA RESULT:      -4.0     13.092     15.862
REMARK  2 active torsions:
REMARK  status: ('A' for Active; 'I' for Inactive)
REMARK    1  A    between atoms: C2_2  and  C9_9 
REMARK    2  A    between atoms: C3_3  and  C6_6 
ROOT
HETATM    1  C1  UNL     1     -43.417   2.483  -2.179  1.00 20.00     0.079 A 
HETATM    2  C2  UNL     1     -42.285   2.453  -2.965  1.00 20.00     0.045 A 
HETATM    3  C3  UNL     1     -41.689   4.053  -1.588  1.00 20.00     0.079 A 
HETATM    4  N10 UNL     1     -41.293   3.353  -2.628  1.00 20.00    -0.249 NA
HETATM    5  S11 UNL     1     -43.244   3.681  -0.964  1.00 20.00    -0.084 SA
ENDROOT
BRANCH   2   6
HETATM    6  C9  UNL     1     -42.050   1.528  -4.146  1.00 20.00     0.030 C 
HETATM    7  C7  UNL     1     -43.095   1.740  -5.243  1.00 20.00     0.016 C 
HETATM    8  C8  UNL     1     -42.006   0.061  -3.711  1.00 20.00     0.016 C 
ENDBRANCH   2   6
BRANCH   3   9
HETATM    9  C6  UNL     1     -40.807   5.145  -0.964  1.00 20.00     0.045 A 
HETATM   10  C4  UNL     1     -41.396   6.023   0.115  1.00 20.00     0.012 A 
HETATM   11  C5  UNL     1     -41.139   6.593  -1.244  1.00 20.00     0.012 A 
ENDBRANCH   3   9
TORSDOF 2
ENDMDL
MODEL 8
REMARK VINA RESULT:      -3.9      2.335      5.066
REMARK  2 active torsions:
REMARK  status: ('A' for Active; 'I' for Inactive)
REMARK    1  A    between atoms: C2_2  and  C9_9 
REMARK    2  A    between atoms: C3_3  and  C6_6 
ROOT
HETATM    1  C1  UNL     1     -36.877  16.616  -4.653  1.00 20.00     0.079 A 
HETATM    2  C2  UNL     1     -35.925  15.644  -4.876  1.00 20.00     0.045 A 
HETATM    3  C3  UNL     1     -35.345  16.214  -2.839  1.00 20.00     0.079 A 
HETATM    4  N10 UNL     1     -35.045  15.413  -3.837  1.00 20.00    -0.249 NA
HETATM    5  S11 UNL     1     -36.675  17.271  -3.081  1.00 20.00    -0.084 SA
ENDROOT
BRANCH   2   6
HETATM    6  C9  UNL     1     -35.771  14.828  -6.146  1.00 20.00     0.030 C 
HETATM    7  C7  UNL     1     -34.394  15.032  -6.782  1.00 20.00     0.016 C 
HETATM    8  C8  UNL     1     -36.885  15.135  -7.150  1.00 20.00     0.016 C 
ENDBRANCH   2   6
BRANCH   3   9
HETATM    9  C6  UNL     1     -34.548  16.204  -1.525  1.00 20.00     0.045 A 
HETATM   10  C4  UNL     1     -34.930  17.183  -0.439  1.00 20.00     0.012 A 
HETATM   11  C5  UNL     1     -33.661  17.385  -1.206  1.00 20.00     0.012 A 
ENDBRANCH   3   9
TORSDOF 2
ENDMDL
MODEL 9
REMARK VINA RESULT:      -3.9     12.796     14.837
REMARK  2 active torsions:
REMARK  status: ('A' for Active; 'I' for Inactive)
REMARK    1  A    between atoms: C2_2  and  C9_9 
REMARK    2  A    between atoms: C3_3  and  C6_6 
ROOT
HETATM    1  C1  UNL     1     -43.086   4.823  -2.283  1.00 20.00     0.079 A 
HETATM    2  C2  UNL     1     -41.834   4.619  -1.742  1.00 20.00     0.045 A 
HETATM    3  C3  UNL     1     -41.877   2.921  -3.130  1.00 20.00     0.079 A 
HETATM    4  N10 UNL     1     -41.139   3.528  -2.228  1.00 20.00    -0.249 NA
HETATM    5  S11 UNL     1     -43.416   3.608  -3.447  1.00 20.00    -0.084 SA
ENDROOT
BRANCH   2   6
HETATM    6  C9  UNL     1     -41.176   5.480  -0.680  1.00 20.00     0.030 C 
HETATM    7  C7  UNL     1     -41.872   5.331   0.675  1.00 20.00     0.016 C 
HETATM    8  C8  UNL     1     -41.117   6.949  -1.104  1.00 20.00     0.016 C 
ENDBRANCH   2   6
BRANCH   3   9
HETATM    9  C6  UNL     1     -41.385   1.663  -3.864  1.00 20.00     0.045 A 
HETATM   10  C4  UNL     1     -42.298   1.014  -4.879  1.00 20.00     0.012 A 
HETATM   11  C5  UNL     1     -42.054   0.342  -3.565  1.00 20.00     0.012 A 
ENDBRANCH   3   9
TORSDOF 2
ENDMDL
