MODEL 1
REMARK VINA RESULT:      -4.0      0.000      0.000
REMARK  0 active torsions:
REMARK  status: ('A' for Active; 'I' for Inactive)
ROOT
HETATM    1  C1  UNL     1     -33.367  15.579  -3.602  1.00 20.00     0.017 C 
HETATM    2  C2  UNL     1     -34.460  16.437  -2.975  1.00 20.00     0.027 C 
HETATM    3  C3  UNL     1     -33.155  16.269  -4.952  1.00 20.00     0.123 C 
HETATM    4  C4  UNL     1     -34.051  17.825  -3.451  1.00 20.00     0.197 C 
HETATM    5  C5  UNL     1     -33.685  14.093  -3.659  1.00 20.00     0.013 C 
HETATM    6  C6  UNL     1     -34.546  16.322  -1.459  1.00 20.00     0.014 C 
HETATM    7  C7  UNL     1     -34.082  15.830  -6.079  1.00 20.00     0.040 C 
HETATM    8  O8  UNL     1     -33.385  17.670  -4.711  1.00 20.00    -0.369 OA
HETATM    9 BR9  UNL     1     -35.595  18.983  -3.663  1.00 20.00    -0.061 Br
ENDROOT
TORSDOF 0
ENDMDL
MODEL 2
REMARK VINA RESULT:      -4.0      1.957      2.836
REMARK  0 active torsions:
REMARK  status: ('A' for Active; 'I' for Inactive)
ROOT
HETATM    1  C1  UNL     1     -34.431  14.841  -6.205  1.00 20.00     0.017 C 
HETATM    2  C2  UNL     1     -34.810  14.706  -4.734  1.00 20.00     0.027 C 
HETATM    3  C3  UNL     1     -33.828  16.247  -6.251  1.00 20.00     0.123 C 
HETATM    4  C4  UNL     1     -33.647  15.429  -4.066  1.00 20.00     0.197 C 
HETATM    5  C5  UNL     1     -35.569  14.576  -7.178  1.00 20.00     0.013 C 
HETATM    6  C6  UNL     1     -34.973  13.267  -4.266  1.00 20.00     0.014 C 
HETATM    7  C7  UNL     1     -34.814  17.391  -6.448  1.00 20.00     0.040 C 
HETATM    8  O8  UNL     1     -33.183  16.433  -4.977  1.00 20.00    -0.369 OA
HETATM    9 BR9  UNL     1     -34.196  16.258  -2.398  1.00 20.00    -0.061 Br
ENDROOT
TORSDOF 0
ENDMDL
MODEL 3
REMARK VINA RESULT:      -3.9      2.280      2.767
REMARK  0 active torsions:
REMARK  status: ('A' for Active; 'I' for Inactive)
ROOT
HETATM    1  C1  UNL     1     -34.716  14.727  -4.789  1.00 20.00     0.017 C 
HETATM    2  C2  UNL     1     -34.013  14.946  -3.454  1.00 20.00     0.027 C 
HETATM    3  C3  UNL     1     -36.039  15.469  -4.577  1.00 20.00     0.123 C 
HETATM    4  C4  UNL     1     -34.436  16.373  -3.131  1.00 20.00     0.197 C 
HETATM    5  C5  UNL     1     -34.833  13.272  -5.211  1.00 20.00     0.013 C 
HETATM    6  C6  UNL     1     -32.502  14.765  -3.513  1.00 20.00     0.014 C 
HETATM    7  C7  UNL     1     -37.153  14.671  -3.911  1.00 20.00     0.040 C 
HETATM    8  O8  UNL     1     -35.724  16.585  -3.723  1.00 20.00    -0.369 OA
HETATM    9 BR9  UNL     1     -34.540  16.661  -1.213  1.00 20.00    -0.061 Br
ENDROOT
TORSDOF 0
ENDMDL
MODEL 4
REMARK VINA RESULT:      -3.9      2.609      3.532
REMARK  0 active torsions:
REMARK  status: ('A' for Active; 'I' for Inactive)
ROOT
HETATM    1  C1  UNL     1     -34.902  15.235  -2.705  1.00 20.00     0.017 C 
HETATM    2  C2  UNL     1     -34.001  15.311  -3.933  1.00 20.00     0.027 C 
HETATM    3  C3  UNL     1     -36.298  15.263  -3.332  1.00 20.00     0.123 C 
HETATM    4  C4  UNL     1     -34.782  14.456  -4.922  1.00 20.00     0.197 C 
HETATM    5  C5  UNL     1     -34.627  16.297  -1.652  1.00 20.00     0.013 C 
HETATM    6  C6  UNL     1     -32.583  14.811  -3.693  1.00 20.00     0.014 C 
HETATM    7  C7  UNL     1     -36.876  16.644  -3.614  1.00 20.00     0.040 C 
HETATM    8  O8  UNL     1     -36.171  14.572  -4.590  1.00 20.00    -0.369 OA
HETATM    9 BR9  UNL     1     -34.492  15.046  -6.749  1.00 20.00    -0.061 Br
ENDROOT
TORSDOF 0
ENDMDL
MODEL 5
REMARK VINA RESULT:      -3.9      1.578      2.453
REMARK  0 active torsions:
REMARK  status: ('A' for Active; 'I' for Inactive)
ROOT
HETATM    1  C1  UNL     1     -33.788  16.697  -2.686  1.00 20.00     0.017 C 
HETATM    2  C2  UNL     1     -34.534  17.433  -3.794  1.00 20.00     0.027 C 
HETATM    3  C3  UNL     1     -33.098  15.571  -3.460  1.00 20.00     0.123 C 
HETATM    4  C4  UNL     1     -33.531  17.335  -4.935  1.00 20.00     0.197 C 
HETATM    5  C5  UNL     1     -34.660  16.262  -1.519  1.00 20.00     0.013 C 
HETATM    6  C6  UNL     1     -34.908  18.867  -3.442  1.00 20.00     0.014 C 
HETATM    7  C7  UNL     1     -33.923  14.309  -3.681  1.00 20.00     0.040 C 
HETATM    8  O8  UNL     1     -32.785  16.125  -4.752  1.00 20.00    -0.369 OA
HETATM    9 BR9  UNL     1     -34.425  17.300  -6.659  1.00 20.00    -0.061 Br
ENDROOT
TORSDOF 0
ENDMDL
MODEL 6
REMARK VINA RESULT:      -3.8      2.245      3.121
REMARK  0 active torsions:
REMARK  status: ('A' for Active; 'I' for Inactive)
ROOT
HETATM    1  C1  UNL     1     -35.266  15.532  -5.410  1.00 20.00     0.017 C 
HETATM    2  C2  UNL     1     -34.531  16.379  -4.377  1.00 20.00     0.027 C 
HETATM    3  C3  UNL     1     -35.875  14.428  -4.543  1.00 20.00     0.123 C 
HETATM    4  C4  UNL     1     -35.498  16.308  -3.202  1.00 20.00     0.197 C 
HETATM    5  C5  UNL     1     -34.403  15.063  -6.571  1.00 20.00     0.013 C 
HETATM    6  C6  UNL     1     -34.243  17.802  -4.834  1.00 20.00     0.014 C 
HETATM    7  C7  UNL     1     -34.979  13.228  -4.263  1.00 20.00     0.040 C 
HETATM    8  O8  UNL     1     -36.183  15.053  -3.282  1.00 20.00    -0.369 OA
HETATM    9 BR9  UNL     1     -34.559  16.436  -1.507  1.00 20.00    -0.061 Br
ENDROOT
TORSDOF 0
ENDMDL
MODEL 7
REMARK VINA RESULT:      -3.7      1.863      3.222
REMARK  0 active torsions:
REMARK  status: ('A' for Active; 'I' for Inactive)
ROOT
HETATM    1  C1  UNL     1     -35.357  14.633  -4.806  1.00 20.00     0.017 C 
HETATM    2  C2  UNL     1     -34.457  15.459  -5.718  1.00 20.00     0.027 C 
HETATM    3  C3  UNL     1     -35.623  15.607  -3.655  1.00 20.00     0.123 C 
HETATM    4  C4  UNL     1     -35.077  16.842  -5.566  1.00 20.00     0.197 C 
HETATM    5  C5  UNL     1     -34.787  13.281  -4.411  1.00 20.00     0.013 C 
HETATM    6  C6  UNL     1     -34.421  14.971  -7.159  1.00 20.00     0.014 C 
HETATM    7  C7  UNL     1     -34.585  15.623  -2.540  1.00 20.00     0.040 C 
HETATM    8  O8  UNL     1     -35.648  16.917  -4.254  1.00 20.00    -0.369 OA
HETATM    9 BR9  UNL     1     -33.746  18.240  -5.782  1.00 20.00    -0.061 Br
ENDROOT
TORSDOF 0
ENDMDL
MODEL 8
REMARK VINA RESULT:      -3.7      1.943      2.628
REMARK  0 active torsions:
REMARK  status: ('A' for Active; 'I' for Inactive)
ROOT
HETATM    1  C1  UNL     1     -34.720  15.478  -5.365  1.00 20.00     0.017 C 
HETATM    2  C2  UNL     1     -35.458  15.604  -4.036  1.00 20.00     0.027 C 
HETATM    3  C3  UNL     1     -33.423  16.239  -5.083  1.00 20.00     0.123 C 
HETATM    4  C4  UNL     1     -34.303  15.486  -3.050  1.00 20.00     0.197 C 
HETATM    5  C5  UNL     1     -35.514  15.945  -6.575  1.00 20.00     0.013 C 
HETATM    6  C6  UNL     1     -36.539  14.553  -3.825  1.00 20.00     0.014 C 
HETATM    7  C7  UNL     1     -33.470  17.746  -5.305  1.00 20.00     0.040 C 
HETATM    8  O8  UNL     1     -33.132  16.007  -3.691  1.00 20.00    -0.369 OA
HETATM    9 BR9  UNL     1     -34.659  16.486  -1.423  1.00 20.00    -0.061 Br
ENDROOT
TORSDOF 0
ENDMDL
MODEL 9
REMARK VINA RESULT:      -3.6      2.369      3.312
REMARK  0 active torsions:
REMARK  status: ('A' for Active; 'I' for Inactive)
ROOT
HETATM    1  C1  UNL     1     -33.590  15.526  -4.326  1.00 20.00     0.017 C 
HETATM    2  C2  UNL     1     -34.259  16.485  -5.306  1.00 20.00     0.027 C 
HETATM    3  C3  UNL     1     -34.182  14.178  -4.746  1.00 20.00     0.123 C 
HETATM    4  C4  UNL     1     -34.283  15.639  -6.572  1.00 20.00     0.197 C 
HETATM    5  C5  UNL     1     -33.761  15.898  -2.862  1.00 20.00     0.013 C 
HETATM    6  C6  UNL     1     -33.523  17.807  -5.478  1.00 20.00     0.014 C 
HETATM    7  C7  UNL     1     -35.521  13.812  -4.120  1.00 20.00     0.040 C 
HETATM    8  O8  UNL     1     -34.370  14.266  -6.172  1.00 20.00    -0.369 OA
HETATM    9 BR9  UNL     1     -35.801  16.093  -7.695  1.00 20.00    -0.061 Br
ENDROOT
TORSDOF 0
ENDMDL
