MODEL 1
REMARK VINA RESULT:      -4.1      0.000      0.000
REMARK  1 active torsions:
REMARK  status: ('A' for Active; 'I' for Inactive)
REMARK    1  A    between atoms: CA_4  and  C_5 
ROOT
HETATM    1  C1  UNK A   1     -34.645  16.063  -2.339  1.00 20.00     0.013 A 
HETATM    2  C2  UNK A   1     -33.963  16.974  -1.373  1.00 20.00     0.066 C 
ATOM      3  N   VAL A   1     -35.897  16.184  -2.664  1.00 20.00    -0.255 NA
ATOM      4  CA  VAL A   1     -36.113  15.170  -3.557  1.00 20.00     0.096 A 
ATOM      5  CB  VAL A   1     -35.036  14.415  -3.807  1.00 20.00    -0.047 A 
ATOM      6  CG1 VAL A   1     -34.853  13.240  -4.697  1.00 20.00     0.046 C 
ATOM      7  CG2 VAL A   1     -33.891  14.936  -2.999  1.00 20.00     0.090 A 
ENDROOT
BRANCH   4   8
ATOM      8  C   VAL A   1     -37.431  14.985  -4.152  1.00 20.00     0.290 C 
ATOM      9  O   VAL A   1     -38.234  14.150  -3.745  1.00 20.00    -0.300 OA
ENDBRANCH   4   8
TORSDOF 1
ENDMDL
MODEL 2
REMARK VINA RESULT:      -4.1     11.817     12.266
REMARK  1 active torsions:
REMARK  status: ('A' for Active; 'I' for Inactive)
REMARK    1  A    between atoms: CA_4  and  C_5 
ROOT
HETATM    1  C1  UNK A   1     -32.844   6.802   3.243  1.00 20.00     0.013 A 
HETATM    2  C2  UNK A   1     -31.984   7.392   2.175  1.00 20.00     0.066 C 
ATOM      3  N   VAL A   1     -33.707   5.859   3.016  1.00 20.00    -0.255 NA
ATOM      4  CA  VAL A   1     -34.270   5.615   4.240  1.00 20.00     0.096 A 
ATOM      5  CB  VAL A   1     -33.787   6.374   5.231  1.00 20.00    -0.047 A 
ATOM      6  CG1 VAL A   1     -34.122   6.422   6.677  1.00 20.00     0.046 C 
ATOM      7  CG2 VAL A   1     -32.745   7.287   4.668  1.00 20.00     0.090 A 
ENDROOT
BRANCH   4   8
ATOM      8  C   VAL A   1     -35.304   4.597   4.382  1.00 20.00     0.290 C 
ATOM      9  O   VAL A   1     -35.109   3.524   4.946  1.00 20.00    -0.300 OA
ENDBRANCH   4   8
TORSDOF 1
ENDMDL
MODEL 3
REMARK VINA RESULT:      -4.1     11.758     12.220
REMARK  1 active torsions:
REMARK  status: ('A' for Active; 'I' for Inactive)
REMARK    1  A    between atoms: CA_4  and  C_5 
ROOT
HETATM    1  C1  UNK A   1     -32.853   6.749   3.221  1.00 20.00     0.013 A 
HETATM    2  C2  UNK A   1     -32.002   7.363   2.160  1.00 20.00     0.066 C 
ATOM      3  N   VAL A   1     -32.835   7.142   4.459  1.00 20.00    -0.255 NA
ATOM      4  CA  VAL A   1     -33.744   6.332   5.084  1.00 20.00     0.096 A 
ATOM      5  CB  VAL A   1     -34.336   5.442   4.278  1.00 20.00    -0.047 A 
ATOM      6  CG1 VAL A   1     -35.360   4.403   4.556  1.00 20.00     0.046 C 
ATOM      7  CG2 VAL A   1     -33.796   5.617   2.895  1.00 20.00     0.090 A 
ENDROOT
BRANCH   4   8
ATOM      8  C   VAL A   1     -34.001   6.482   6.511  1.00 20.00     0.290 C 
ATOM      9  O   VAL A   1     -33.649   7.469   7.151  1.00 20.00    -0.300 OA
ENDBRANCH   4   8
TORSDOF 1
ENDMDL
MODEL 4
REMARK VINA RESULT:      -4.1      2.016      2.485
REMARK  1 active torsions:
REMARK  status: ('A' for Active; 'I' for Inactive)
REMARK    1  A    between atoms: CA_4  and  C_5 
ROOT
HETATM    1  C1  UNK A   1     -34.278  16.155  -2.491  1.00 20.00     0.013 A 
HETATM    2  C2  UNK A   1     -34.394  16.701  -1.106  1.00 20.00     0.066 C 
ATOM      3  N   VAL A   1     -34.432  14.896  -2.770  1.00 20.00    -0.255 NA
ATOM      4  CA  VAL A   1     -34.247  14.826  -4.125  1.00 20.00     0.096 A 
ATOM      5  CB  VAL A   1     -33.984  16.002  -4.707  1.00 20.00    -0.047 A 
ATOM      6  CG1 VAL A   1     -33.726  16.352  -6.128  1.00 20.00     0.046 C 
ATOM      7  CG2 VAL A   1     -33.972  17.064  -3.655  1.00 20.00     0.090 A 
ENDROOT
BRANCH   4   8
ATOM      8  C   VAL A   1     -34.345  13.544  -4.813  1.00 20.00     0.290 C 
ATOM      9  O   VAL A   1     -35.049  12.623  -4.408  1.00 20.00    -0.300 OA
ENDBRANCH   4   8
TORSDOF 1
ENDMDL
MODEL 5
REMARK VINA RESULT:      -3.9      2.978      3.917
REMARK  1 active torsions:
REMARK  status: ('A' for Active; 'I' for Inactive)
REMARK    1  A    between atoms: CA_4  and  C_5 
ROOT
HETATM    1  C1  UNK A   1     -33.613  17.553  -4.934  1.00 20.00     0.013 A 
HETATM    2  C2  UNK A   1     -33.611  18.569  -6.027  1.00 20.00     0.066 C 
ATOM      3  N   VAL A   1     -32.993  16.415  -5.024  1.00 20.00    -0.255 NA
ATOM      4  CA  VAL A   1     -33.246  15.798  -3.828  1.00 20.00     0.096 A 
ATOM      5  CB  VAL A   1     -34.005  16.512  -2.988  1.00 20.00    -0.047 A 
ATOM      6  CG1 VAL A   1     -34.498  16.209  -1.620  1.00 20.00     0.046 C 
ATOM      7  CG2 VAL A   1     -34.353  17.809  -3.645  1.00 20.00     0.090 A 
ENDROOT
BRANCH   4   8
ATOM      8  C   VAL A   1     -32.702  14.473  -3.557  1.00 20.00     0.290 C 
ATOM      9  O   VAL A   1     -33.328  13.439  -3.774  1.00 20.00    -0.300 OA
ENDBRANCH   4   8
TORSDOF 1
ENDMDL
MODEL 6
REMARK VINA RESULT:      -3.9      1.590      2.357
REMARK  1 active torsions:
REMARK  status: ('A' for Active; 'I' for Inactive)
REMARK    1  A    between atoms: CA_4  and  C_5 
ROOT
HETATM    1  C1  UNK A   1     -34.446  16.180  -2.358  1.00 20.00     0.013 A 
HETATM    2  C2  UNK A   1     -33.731  17.081  -1.406  1.00 20.00     0.066 C 
ATOM      3  N   VAL A   1     -33.831  15.334  -3.128  1.00 20.00    -0.255 NA
ATOM      4  CA  VAL A   1     -34.837  14.722  -3.826  1.00 20.00     0.096 A 
ATOM      5  CB  VAL A   1     -36.066  15.155  -3.519  1.00 20.00    -0.047 A 
ATOM      6  CG1 VAL A   1     -37.400  14.758  -4.038  1.00 20.00     0.046 C 
ATOM      7  CG2 VAL A   1     -35.949  16.214  -2.470  1.00 20.00     0.090 A 
ENDROOT
BRANCH   4   8
ATOM      8  C   VAL A   1     -34.525  13.690  -4.808  1.00 20.00     0.290 C 
ATOM      9  O   VAL A   1     -34.821  12.508  -4.649  1.00 20.00    -0.300 OA
ENDBRANCH   4   8
TORSDOF 1
ENDMDL
MODEL 7
REMARK VINA RESULT:      -3.8      2.399      2.765
REMARK  1 active torsions:
REMARK  status: ('A' for Active; 'I' for Inactive)
REMARK    1  A    between atoms: CA_4  and  C_5 
ROOT
HETATM    1  C1  UNK A   1     -33.941  16.724  -3.893  1.00 20.00     0.013 A 
HETATM    2  C2  UNK A   1     -33.789  17.863  -2.942  1.00 20.00     0.066 C 
ATOM      3  N   VAL A   1     -33.939  15.481  -3.515  1.00 20.00    -0.255 NA
ATOM      4  CA  VAL A   1     -34.101  14.775  -4.677  1.00 20.00     0.096 A 
ATOM      5  CB  VAL A   1     -34.205  15.534  -5.775  1.00 20.00    -0.047 A 
ATOM      6  CG1 VAL A   1     -34.387  15.167  -7.203  1.00 20.00     0.046 C 
ATOM      7  CG2 VAL A   1     -34.108  16.971  -5.372  1.00 20.00     0.090 A 
ENDROOT
BRANCH   4   8
ATOM      8  C   VAL A   1     -34.148  13.318  -4.650  1.00 20.00     0.290 C 
ATOM      9  O   VAL A   1     -35.141  12.690  -4.290  1.00 20.00    -0.300 OA
ENDBRANCH   4   8
TORSDOF 1
ENDMDL
MODEL 8
REMARK VINA RESULT:      -3.8      1.848      3.366
REMARK  1 active torsions:
REMARK  status: ('A' for Active; 'I' for Inactive)
REMARK    1  A    between atoms: CA_4  and  C_5 
ROOT
HETATM    1  C1  UNK A   1     -37.435  15.146  -3.514  1.00 20.00     0.013 A 
HETATM    2  C2  UNK A   1     -38.919  15.297  -3.559  1.00 20.00     0.066 C 
ATOM      3  N   VAL A   1     -36.815  14.106  -3.985  1.00 20.00    -0.255 NA
ATOM      4  CA  VAL A   1     -35.492  14.367  -3.747  1.00 20.00     0.096 A 
ATOM      5  CB  VAL A   1     -35.260  15.538  -3.143  1.00 20.00    -0.047 A 
ATOM      6  CG1 VAL A   1     -33.990  16.183  -2.718  1.00 20.00     0.046 C 
ATOM      7  CG2 VAL A   1     -36.568  16.221  -2.907  1.00 20.00     0.090 A 
ENDROOT
BRANCH   4   8
ATOM      8  C   VAL A   1     -34.472  13.404  -4.146  1.00 20.00     0.290 C 
ATOM      9  O   VAL A   1     -34.695  12.482  -4.926  1.00 20.00    -0.300 OA
ENDBRANCH   4   8
TORSDOF 1
ENDMDL
MODEL 9
REMARK VINA RESULT:      -3.8      1.993      3.308
REMARK  1 active torsions:
REMARK  status: ('A' for Active; 'I' for Inactive)
REMARK    1  A    between atoms: CA_4  and  C_5 
ROOT
HETATM    1  C1  UNK A   1     -36.711  14.824  -3.721  1.00 20.00     0.013 A 
HETATM    2  C2  UNK A   1     -38.139  14.700  -4.136  1.00 20.00     0.066 C 
ATOM      3  N   VAL A   1     -36.284  15.756  -2.923  1.00 20.00    -0.255 NA
ATOM      4  CA  VAL A   1     -34.942  15.511  -2.806  1.00 20.00     0.096 A 
ATOM      5  CB  VAL A   1     -34.511  14.453  -3.504  1.00 20.00    -0.047 A 
ATOM      6  CG1 VAL A   1     -33.156  13.862  -3.643  1.00 20.00     0.046 C 
ATOM      7  CG2 VAL A   1     -35.675  13.848  -4.221  1.00 20.00     0.090 A 
ENDROOT
BRANCH   4   8
ATOM      8  C   VAL A   1     -34.110  16.369  -1.972  1.00 20.00     0.290 C 
ATOM      9  O   VAL A   1     -34.349  16.579  -0.785  1.00 20.00    -0.300 OA
ENDBRANCH   4   8
TORSDOF 1
ENDMDL
