MODEL 1
REMARK VINA RESULT:      -4.2      0.000      0.000
REMARK  0 active torsions:
REMARK  status: ('A' for Active; 'I' for Inactive)
ROOT
HETATM    1  C1  UNL     1     -34.451  15.428  -5.622  1.00 20.00     0.016 C 
HETATM    2  C2  UNL     1     -34.071  14.395  -4.567  1.00 20.00     0.016 C 
HETATM    3  C3  UNL     1     -33.386  16.494  -5.375  1.00 20.00     0.122 C 
HETATM    4  C4  UNL     1     -33.669  15.284  -3.384  1.00 20.00     0.122 C 
HETATM    5  C5  UNL     1     -34.456  14.896  -7.046  1.00 20.00     0.013 C 
HETATM    6  C6  UNL     1     -35.144  13.356  -4.284  1.00 20.00     0.013 C 
HETATM    7  C7  UNL     1     -33.798  17.887  -5.817  1.00 20.00     0.040 C 
HETATM    8  C8  UNL     1     -34.792  15.675  -2.431  1.00 20.00     0.040 C 
HETATM    9  O9  UNL     1     -33.145  16.500  -3.957  1.00 20.00    -0.381 OA
ENDROOT
TORSDOF 0
ENDMDL
MODEL 2
REMARK VINA RESULT:      -4.1      2.329      3.624
REMARK  0 active torsions:
REMARK  status: ('A' for Active; 'I' for Inactive)
ROOT
HETATM    1  C1  UNL     1     -35.023  15.587  -3.074  1.00 20.00     0.016 C 
HETATM    2  C2  UNL     1     -34.441  14.202  -3.338  1.00 20.00     0.016 C 
HETATM    3  C3  UNL     1     -36.517  15.297  -3.204  1.00 20.00     0.122 C 
HETATM    4  C4  UNL     1     -35.359  13.678  -4.447  1.00 20.00     0.122 C 
HETATM    5  C5  UNL     1     -34.636  16.184  -1.731  1.00 20.00     0.013 C 
HETATM    6  C6  UNL     1     -32.952  14.191  -3.645  1.00 20.00     0.013 C 
HETATM    7  C7  UNL     1     -37.346  16.510  -3.587  1.00 20.00     0.040 C 
HETATM    8  C8  UNL     1     -34.934  14.001  -5.874  1.00 20.00     0.040 C 
HETATM    9  O9  UNL     1     -36.645  14.295  -4.228  1.00 20.00    -0.381 OA
ENDROOT
TORSDOF 0
ENDMDL
MODEL 3
REMARK VINA RESULT:      -4.0      1.513      2.651
REMARK  0 active torsions:
REMARK  status: ('A' for Active; 'I' for Inactive)
ROOT
HETATM    1  C1  UNL     1     -34.285  15.428  -3.809  1.00 20.00     0.016 C 
HETATM    2  C2  UNL     1     -33.812  16.352  -2.692  1.00 20.00     0.016 C 
HETATM    3  C3  UNL     1     -33.504  15.990  -4.995  1.00 20.00     0.122 C 
HETATM    4  C4  UNL     1     -33.738  17.705  -3.409  1.00 20.00     0.122 C 
HETATM    5  C5  UNL     1     -34.023  13.952  -3.555  1.00 20.00     0.013 C 
HETATM    6  C6  UNL     1     -34.665  16.311  -1.434  1.00 20.00     0.013 C 
HETATM    7  C7  UNL     1     -34.151  15.717  -6.340  1.00 20.00     0.040 C 
HETATM    8  C8  UNL     1     -35.015  18.536  -3.399  1.00 20.00     0.040 C 
HETATM    9  O9  UNL     1     -33.425  17.411  -4.787  1.00 20.00    -0.381 OA
ENDROOT
TORSDOF 0
ENDMDL
MODEL 4
REMARK VINA RESULT:      -4.0      1.901      2.830
REMARK  0 active torsions:
REMARK  status: ('A' for Active; 'I' for Inactive)
ROOT
HETATM    1  C1  UNL     1     -35.262  15.674  -4.854  1.00 20.00     0.016 C 
HETATM    2  C2  UNL     1     -35.308  14.964  -3.506  1.00 20.00     0.016 C 
HETATM    3  C3  UNL     1     -35.437  14.493  -5.806  1.00 20.00     0.122 C 
HETATM    4  C4  UNL     1     -34.533  13.674  -3.801  1.00 20.00     0.122 C 
HETATM    5  C5  UNL     1     -36.317  16.755  -5.029  1.00 20.00     0.013 C 
HETATM    6  C6  UNL     1     -34.801  15.793  -2.337  1.00 20.00     0.013 C 
HETATM    7  C7  UNL     1     -34.861  14.730  -7.190  1.00 20.00     0.040 C 
HETATM    8  C8  UNL     1     -33.026  13.738  -3.587  1.00 20.00     0.040 C 
HETATM    9  O9  UNL     1     -34.759  13.381  -5.196  1.00 20.00    -0.381 OA
ENDROOT
TORSDOF 0
ENDMDL
MODEL 5
REMARK VINA RESULT:      -3.9      1.183      2.804
REMARK  0 active torsions:
REMARK  status: ('A' for Active; 'I' for Inactive)
ROOT
HETATM    1  C1  UNL     1     -34.814  14.718  -4.782  1.00 20.00     0.016 C 
HETATM    2  C2  UNL     1     -33.580  15.425  -4.233  1.00 20.00     0.016 C 
HETATM    3  C3  UNL     1     -34.499  14.713  -6.277  1.00 20.00     0.122 C 
HETATM    4  C4  UNL     1     -33.328  16.497  -5.300  1.00 20.00     0.122 C 
HETATM    5  C5  UNL     1     -35.047  13.329  -4.208  1.00 20.00     0.013 C 
HETATM    6  C6  UNL     1     -33.722  15.927  -2.805  1.00 20.00     0.013 C 
HETATM    7  C7  UNL     1     -35.730  14.633  -7.162  1.00 20.00     0.040 C 
HETATM    8  C8  UNL     1     -34.042  17.827  -5.091  1.00 20.00     0.040 C 
HETATM    9  O9  UNL     1     -33.803  15.943  -6.545  1.00 20.00    -0.381 OA
ENDROOT
TORSDOF 0
ENDMDL
MODEL 6
REMARK VINA RESULT:      -3.9     12.205     13.613
REMARK  0 active torsions:
REMARK  status: ('A' for Active; 'I' for Inactive)
ROOT
HETATM    1  C1  UNL     1     -33.197   6.135   4.004  1.00 20.00     0.016 C 
HETATM    2  C2  UNL     1     -34.099   6.505   5.177  1.00 20.00     0.016 C 
HETATM    3  C3  UNL     1     -34.234   5.675   2.981  1.00 20.00     0.122 C 
HETATM    4  C4  UNL     1     -35.162   5.402   5.119  1.00 20.00     0.122 C 
HETATM    5  C5  UNL     1     -32.318   7.272   3.507  1.00 20.00     0.013 C 
HETATM    6  C6  UNL     1     -33.376   6.664   6.504  1.00 20.00     0.013 C 
HETATM    7  C7  UNL     1     -33.688   4.705   1.949  1.00 20.00     0.040 C 
HETATM    8  C8  UNL     1     -34.852   4.135   5.906  1.00 20.00     0.040 C 
HETATM    9  O9  UNL     1     -35.279   5.030   3.730  1.00 20.00    -0.381 OA
ENDROOT
TORSDOF 0
ENDMDL
MODEL 7
REMARK VINA RESULT:      -3.9      1.500      3.783
REMARK  0 active torsions:
REMARK  status: ('A' for Active; 'I' for Inactive)
ROOT
HETATM    1  C1  UNL     1     -34.378  16.348  -3.056  1.00 20.00     0.016 C 
HETATM    2  C2  UNL     1     -34.039  17.747  -3.558  1.00 20.00     0.016 C 
HETATM    3  C3  UNL     1     -33.165  15.565  -3.552  1.00 20.00     0.122 C 
HETATM    4  C4  UNL     1     -33.414  17.451  -4.926  1.00 20.00     0.122 C 
HETATM    5  C5  UNL     1     -34.588  16.255  -1.553  1.00 20.00     0.013 C 
HETATM    6  C6  UNL     1     -35.207  18.720  -3.555  1.00 20.00     0.013 C 
HETATM    7  C7  UNL     1     -33.431  14.084  -3.754  1.00 20.00     0.040 C 
HETATM    8  C8  UNL     1     -34.381  17.389  -6.102  1.00 20.00     0.040 C 
HETATM    9  O9  UNL     1     -32.792  16.154  -4.809  1.00 20.00    -0.381 OA
ENDROOT
TORSDOF 0
ENDMDL
MODEL 8
REMARK VINA RESULT:      -3.9      1.108      2.773
REMARK  0 active torsions:
REMARK  status: ('A' for Active; 'I' for Inactive)
ROOT
HETATM    1  C1  UNL     1     -34.208  16.382  -4.367  1.00 20.00     0.016 C 
HETATM    2  C2  UNL     1     -33.800  15.238  -5.289  1.00 20.00     0.016 C 
HETATM    3  C3  UNL     1     -33.652  15.886  -3.034  1.00 20.00     0.122 C 
HETATM    4  C4  UNL     1     -34.032  14.014  -4.396  1.00 20.00     0.122 C 
HETATM    5  C5  UNL     1     -33.668  17.742  -4.780  1.00 20.00     0.013 C 
HETATM    6  C6  UNL     1     -34.510  15.226  -6.633  1.00 20.00     0.013 C 
HETATM    7  C7  UNL     1     -34.365  16.457  -1.821  1.00 20.00     0.040 C 
HETATM    8  C8  UNL     1     -35.428  13.405  -4.447  1.00 20.00     0.040 C 
HETATM    9  O9  UNL     1     -33.803  14.456  -3.042  1.00 20.00    -0.381 OA
ENDROOT
TORSDOF 0
ENDMDL
MODEL 9
REMARK VINA RESULT:      -3.8      1.873      2.746
REMARK  0 active torsions:
REMARK  status: ('A' for Active; 'I' for Inactive)
ROOT
HETATM    1  C1  UNL     1     -34.876  14.348  -3.989  1.00 20.00     0.016 C 
HETATM    2  C2  UNL     1     -33.665  15.269  -4.075  1.00 20.00     0.016 C 
HETATM    3  C3  UNL     1     -36.008  15.339  -4.254  1.00 20.00     0.122 C 
HETATM    4  C4  UNL     1     -34.185  16.540  -3.395  1.00 20.00     0.122 C 
HETATM    5  C5  UNL     1     -34.849  13.184  -4.968  1.00 20.00     0.013 C 
HETATM    6  C6  UNL     1     -32.384  14.684  -3.502  1.00 20.00     0.013 C 
HETATM    7  C7  UNL     1     -37.344  14.913  -3.673  1.00 20.00     0.040 C 
HETATM    8  C8  UNL     1     -33.992  16.616  -1.885  1.00 20.00     0.040 C 
HETATM    9  O9  UNL     1     -35.604  16.580  -3.651  1.00 20.00    -0.381 OA
ENDROOT
TORSDOF 0
ENDMDL
