MODEL 1
REMARK VINA RESULT:      -4.2      0.000      0.000
REMARK  1 active torsions:
REMARK  status: ('A' for Active; 'I' for Inactive)
REMARK    1  A    between atoms: C7_7  and  N8_8 
ROOT
HETATM    1  C1  UNL     1     -34.205   6.155   6.381  1.00 20.00     0.065 C 
HETATM    2  C2  UNL     1     -33.247   6.432   5.217  1.00 20.00     0.275 C 
HETATM    3  C3  UNL     1     -34.532   5.192   3.575  1.00 20.00     0.306 C 
HETATM    4  C4  UNL     1     -35.152   5.036   6.100  1.00 20.00     0.154 A 
HETATM    5  C5  UNL     1     -35.346   4.589   4.679  1.00 20.00     0.179 A 
HETATM    6  N8  UNL     1     -33.989   6.509   3.950  1.00 20.00     0.090 N 
HETATM    7  O9  UNL     1     -34.563   3.827   5.619  1.00 20.00    -0.374 OA
ENDROOT
BRANCH   6   8
HETATM    8  C7  UNL     1     -33.131   7.022   2.882  1.00 20.00     0.268 C 
HETATM    9  C6  UNL     1     -31.746   7.268   3.376  1.00 20.00     0.037 C 
ENDBRANCH   6   8
TORSDOF 1
ENDMDL
MODEL 2
REMARK VINA RESULT:      -4.1     12.130     12.504
REMARK  1 active torsions:
REMARK  status: ('A' for Active; 'I' for Inactive)
REMARK    1  A    between atoms: C7_7  and  N8_8 
ROOT
HETATM    1  C1  UNL     1     -36.404  14.773  -4.291  1.00 20.00     0.065 C 
HETATM    2  C2  UNL     1     -35.721  15.358  -3.050  1.00 20.00     0.275 C 
HETATM    3  C3  UNL     1     -33.496  14.592  -3.643  1.00 20.00     0.306 C 
HETATM    4  C4  UNL     1     -35.561  13.763  -4.997  1.00 20.00     0.154 A 
HETATM    5  C5  UNL     1     -34.090  13.710  -4.699  1.00 20.00     0.179 A 
HETATM    6  N8  UNL     1     -34.344  15.765  -3.367  1.00 20.00     0.090 N 
HETATM    7  O9  UNL     1     -35.010  12.730  -4.178  1.00 20.00    -0.374 OA
ENDROOT
BRANCH   6   8
HETATM    8  C7  UNL     1     -33.774  16.550  -2.272  1.00 20.00     0.268 C 
HETATM    9  C6  UNL     1     -34.655  16.513  -1.069  1.00 20.00     0.037 C 
ENDBRANCH   6   8
TORSDOF 1
ENDMDL
MODEL 3
REMARK VINA RESULT:      -4.0     12.041     12.522
REMARK  1 active torsions:
REMARK  status: ('A' for Active; 'I' for Inactive)
REMARK    1  A    between atoms: C7_7  and  N8_8 
ROOT
HETATM    1  C1  UNL     1     -33.619  13.665  -3.915  1.00 20.00     0.065 C 
HETATM    2  C2  UNL     1     -33.456  15.126  -3.482  1.00 20.00     0.275 C 
HETATM    3  C3  UNL     1     -35.836  15.573  -3.321  1.00 20.00     0.306 C 
HETATM    4  C4  UNL     1     -35.000  13.349  -4.388  1.00 20.00     0.154 A 
HETATM    5  C5  UNL     1     -36.117  14.292  -4.044  1.00 20.00     0.179 A 
HETATM    6  N8  UNL     1     -34.557  15.522  -2.591  1.00 20.00     0.090 N 
HETATM    7  O9  UNL     1     -35.542  14.239  -5.365  1.00 20.00    -0.374 OA
ENDROOT
BRANCH   6   8
HETATM    8  C7  UNL     1     -34.279  16.819  -1.974  1.00 20.00     0.268 C 
HETATM    9  C6  UNL     1     -34.647  16.817  -0.529  1.00 20.00     0.037 C 
ENDBRANCH   6   8
TORSDOF 1
ENDMDL
MODEL 4
REMARK VINA RESULT:      -3.7     12.126     13.501
REMARK  1 active torsions:
REMARK  status: ('A' for Active; 'I' for Inactive)
REMARK    1  A    between atoms: C7_7  and  N8_8 
ROOT
HETATM    1  C1  UNL     1     -33.826  15.248  -3.293  1.00 20.00     0.065 C 
HETATM    2  C2  UNL     1     -33.472  15.922  -4.624  1.00 20.00     0.275 C 
HETATM    3  C3  UNL     1     -34.730  14.367  -5.998  1.00 20.00     0.306 C 
HETATM    4  C4  UNL     1     -34.370  13.868  -3.467  1.00 20.00     0.154 A 
HETATM    5  C5  UNL     1     -34.866  13.450  -4.822  1.00 20.00     0.179 A 
HETATM    6  N8  UNL     1     -34.576  15.772  -5.583  1.00 20.00     0.090 N 
HETATM    7  O9  UNL     1     -33.602  12.996  -4.297  1.00 20.00    -0.374 OA
ENDROOT
BRANCH   6   8
HETATM    8  C7  UNL     1     -34.358  16.621  -6.755  1.00 20.00     0.268 C 
HETATM    9  C6  UNL     1     -34.007  18.013  -6.352  1.00 20.00     0.037 C 
ENDBRANCH   6   8
TORSDOF 1
ENDMDL
MODEL 5
REMARK VINA RESULT:      -3.6     12.300     13.777
REMARK  1 active torsions:
REMARK  status: ('A' for Active; 'I' for Inactive)
REMARK    1  A    between atoms: C7_7  and  N8_8 
ROOT
HETATM    1  C1  UNL     1     -33.642  13.761  -3.906  1.00 20.00     0.065 C 
HETATM    2  C2  UNL     1     -34.802  13.824  -4.906  1.00 20.00     0.275 C 
HETATM    3  C3  UNL     1     -34.180  15.981  -5.827  1.00 20.00     0.306 C 
HETATM    4  C4  UNL     1     -32.985  15.085  -3.693  1.00 20.00     0.154 A 
HETATM    5  C5  UNL     1     -33.224  16.182  -4.691  1.00 20.00     0.179 A 
HETATM    6  N8  UNL     1     -34.395  14.552  -6.117  1.00 20.00     0.090 N 
HETATM    7  O9  UNL     1     -33.861  16.174  -3.397  1.00 20.00    -0.374 OA
ENDROOT
BRANCH   6   8
HETATM    8  C7  UNL     1     -35.399  14.399  -7.170  1.00 20.00     0.268 C 
HETATM    9  C6  UNL     1     -36.643  15.154  -6.842  1.00 20.00     0.037 C 
ENDBRANCH   6   8
TORSDOF 1
ENDMDL
MODEL 6
REMARK VINA RESULT:      -3.6     12.051     13.449
REMARK  1 active torsions:
REMARK  status: ('A' for Active; 'I' for Inactive)
REMARK    1  A    between atoms: C7_7  and  N8_8 
ROOT
HETATM    1  C1  UNL     1     -35.153  14.224  -5.653  1.00 20.00     0.065 C 
HETATM    2  C2  UNL     1     -35.101  15.656  -5.110  1.00 20.00     0.275 C 
HETATM    3  C3  UNL     1     -33.161  15.285  -3.701  1.00 20.00     0.306 C 
HETATM    4  C4  UNL     1     -34.343  13.266  -4.844  1.00 20.00     0.154 A 
HETATM    5  C5  UNL     1     -33.310  13.808  -3.898  1.00 20.00     0.179 A 
HETATM    6  N8  UNL     1     -33.711  16.049  -4.834  1.00 20.00     0.090 N 
HETATM    7  O9  UNL     1     -34.574  13.291  -3.435  1.00 20.00    -0.374 OA
ENDROOT
BRANCH   6   8
HETATM    8  C7  UNL     1     -33.626  17.484  -4.562  1.00 20.00     0.268 C 
HETATM    9  C6  UNL     1     -33.646  18.273  -5.827  1.00 20.00     0.037 C 
ENDBRANCH   6   8
TORSDOF 1
ENDMDL
MODEL 7
REMARK VINA RESULT:      -3.6      9.563     10.606
REMARK  1 active torsions:
REMARK  status: ('A' for Active; 'I' for Inactive)
REMARK    1  A    between atoms: C7_7  and  N8_8 
ROOT
HETATM    1  C1  UNL     1     -40.736   5.788  -0.394  1.00 20.00     0.065 C 
HETATM    2  C2  UNL     1     -41.668   4.630  -0.769  1.00 20.00     0.275 C 
HETATM    3  C3  UNL     1     -42.574   5.709  -2.744  1.00 20.00     0.306 C 
HETATM    4  C4  UNL     1     -41.082   7.061  -1.092  1.00 20.00     0.154 A 
HETATM    5  C5  UNL     1     -41.969   7.007  -2.303  1.00 20.00     0.179 A 
HETATM    6  N8  UNL     1     -41.823   4.551  -2.229  1.00 20.00     0.090 N 
HETATM    7  O9  UNL     1     -42.452   7.459  -1.022  1.00 20.00    -0.374 OA
ENDROOT
BRANCH   6   8
HETATM    8  C7  UNL     1     -42.495   3.308  -2.608  1.00 20.00     0.268 C 
HETATM    9  C6  UNL     1     -41.556   2.377  -3.298  1.00 20.00     0.037 C 
ENDBRANCH   6   8
TORSDOF 1
ENDMDL
MODEL 8
REMARK VINA RESULT:      -3.5     12.391     13.557
REMARK  1 active torsions:
REMARK  status: ('A' for Active; 'I' for Inactive)
REMARK    1  A    between atoms: C7_7  and  N8_8 
ROOT
HETATM    1  C1  UNL     1     -34.052  16.958  -2.062  1.00 20.00     0.065 C 
HETATM    2  C2  UNL     1     -34.397  15.555  -2.574  1.00 20.00     0.275 C 
HETATM    3  C3  UNL     1     -33.618  15.950  -4.837  1.00 20.00     0.306 C 
HETATM    4  C4  UNL     1     -33.814  17.936  -3.164  1.00 20.00     0.154 A 
HETATM    5  C5  UNL     1     -33.550  17.419  -4.549  1.00 20.00     0.179 A 
HETATM    6  N8  UNL     1     -33.446  15.143  -3.618  1.00 20.00     0.090 N 
HETATM    7  O9  UNL     1     -34.820  17.991  -4.177  1.00 20.00    -0.374 OA
ENDROOT
BRANCH   6   8
HETATM    8  C7  UNL     1     -33.608  13.722  -3.928  1.00 20.00     0.268 C 
HETATM    9  C6  UNL     1     -35.031  13.397  -4.234  1.00 20.00     0.037 C 
ENDBRANCH   6   8
TORSDOF 1
ENDMDL
MODEL 9
REMARK VINA RESULT:      -3.5      9.640     10.570
REMARK  1 active torsions:
REMARK  status: ('A' for Active; 'I' for Inactive)
REMARK    1  A    between atoms: C7_7  and  N8_8 
ROOT
HETATM    1  C1  UNL     1     -41.530   4.229  -1.945  1.00 20.00     0.065 C 
HETATM    2  C2  UNL     1     -42.639   5.130  -2.500  1.00 20.00     0.275 C 
HETATM    3  C3  UNL     1     -41.802   7.163  -1.474  1.00 20.00     0.306 C 
HETATM    4  C4  UNL     1     -40.776   4.860  -0.822  1.00 20.00     0.154 A 
HETATM    5  C5  UNL     1     -40.881   6.345  -0.622  1.00 20.00     0.179 A 
HETATM    6  N8  UNL     1     -42.123   6.486  -2.742  1.00 20.00     0.090 N 
HETATM    7  O9  UNL     1     -41.569   5.408   0.232  1.00 20.00    -0.374 OA
ENDROOT
BRANCH   6   8
HETATM    8  C7  UNL     1     -43.092   7.276  -3.503  1.00 20.00     0.268 C 
HETATM    9  C6  UNL     1     -42.410   8.317  -4.324  1.00 20.00     0.037 C 
ENDBRANCH   6   8
TORSDOF 1
ENDMDL
