MODEL 1
REMARK VINA RESULT:      -4.6      0.000      0.000
REMARK  2 active torsions:
REMARK  status: ('A' for Active; 'I' for Inactive)
REMARK    1  A    between atoms: C2_2  and  C9_9 
REMARK    2  A    between atoms: C3_3  and  C10_10 
ROOT
HETATM    1  C1  UNL     1     -36.628  16.418  -3.884  1.00 20.00     0.079 A 
HETATM    2  C2  UNL     1     -35.777  15.344  -3.735  1.00 20.00     0.046 A 
HETATM    3  C3  UNL     1     -35.162  16.500  -1.976  1.00 20.00     0.079 A 
HETATM    4  N11 UNL     1     -34.934  15.389  -2.641  1.00 20.00    -0.249 NA
HETATM    5  S12 UNL     1     -36.375  17.536  -2.609  1.00 20.00    -0.084 SA
ENDROOT
BRANCH   3   6
HETATM    6  C10 UNL     1     -34.360  16.864  -0.660  1.00 20.00     0.045 C 
HETATM    7  C7  UNL     1     -33.469  18.144  -0.648  1.00 20.00     0.011 C 
HETATM    8  C4  UNL     1     -33.827  18.297   0.842  1.00 20.00     0.002 C 
HETATM    9  C8  UNL     1     -35.122  17.522   0.531  1.00 20.00     0.011 C 
ENDBRANCH   3   6
BRANCH   2  10
HETATM   10  C9  UNL     1     -35.759  14.168  -4.718  1.00 20.00     0.038 A 
HETATM   11  C5  UNL     1     -34.535  13.279  -4.767  1.00 20.00     0.011 A 
HETATM   12  C6  UNL     1     -34.812  14.220  -5.898  1.00 20.00     0.011 A 
ENDBRANCH   2  10
TORSDOF 2
ENDMDL
MODEL 2
REMARK VINA RESULT:      -4.6      1.569      1.963
REMARK  2 active torsions:
REMARK  status: ('A' for Active; 'I' for Inactive)
REMARK    1  A    between atoms: C2_2  and  C9_9 
REMARK    2  A    between atoms: C3_3  and  C10_10 
ROOT
HETATM    1  C1  UNL     1     -33.599  16.594  -4.833  1.00 20.00     0.079 A 
HETATM    2  C2  UNL     1     -33.855  15.587  -3.927  1.00 20.00     0.046 A 
HETATM    3  C3  UNL     1     -34.003  17.301  -2.566  1.00 20.00     0.079 A 
HETATM    4  N11 UNL     1     -34.086  15.990  -2.626  1.00 20.00    -0.249 NA
HETATM    5  S12 UNL     1     -33.649  18.112  -4.037  1.00 20.00    -0.084 SA
ENDROOT
BRANCH   3   6
HETATM    6  C10 UNL     1     -34.217  18.091  -1.211  1.00 20.00     0.045 C 
HETATM    7  C7  UNL     1     -34.719  17.315   0.044  1.00 20.00     0.011 C 
HETATM    8  C4  UNL     1     -33.868  18.275   0.895  1.00 20.00     0.002 C 
HETATM    9  C8  UNL     1     -32.973  18.457  -0.346  1.00 20.00     0.011 C 
ENDBRANCH   3   6
BRANCH   2  10
HETATM   10  C9  UNL     1     -33.881  14.109  -4.328  1.00 20.00     0.038 A 
HETATM   11  C5  UNL     1     -34.668  13.701  -5.555  1.00 20.00     0.011 A 
HETATM   12  C6  UNL     1     -35.179  13.340  -4.195  1.00 20.00     0.011 A 
ENDBRANCH   2  10
TORSDOF 2
ENDMDL
MODEL 3
REMARK VINA RESULT:      -4.6      1.391      5.381
REMARK  2 active torsions:
REMARK  status: ('A' for Active; 'I' for Inactive)
REMARK    1  A    between atoms: C2_2  and  C9_9 
REMARK    2  A    between atoms: C3_3  and  C10_10 
ROOT
HETATM    1  C1  UNL     1     -33.731  18.245  -2.122  1.00 20.00     0.079 A 
HETATM    2  C2  UNL     1     -34.163  17.499  -1.046  1.00 20.00     0.046 A 
HETATM    3  C3  UNL     1     -34.445  16.000  -2.622  1.00 20.00     0.079 A 
HETATM    4  N11 UNL     1     -34.574  16.211  -1.331  1.00 20.00    -0.249 NA
HETATM    5  S12 UNL     1     -33.837  17.308  -3.554  1.00 20.00    -0.084 SA
ENDROOT
BRANCH   3   6
HETATM    6  C10 UNL     1     -34.831  14.615  -3.285  1.00 20.00     0.045 C 
HETATM    7  C7  UNL     1     -35.385  14.603  -4.741  1.00 20.00     0.011 C 
HETATM    8  C4  UNL     1     -34.680  13.247  -4.928  1.00 20.00     0.002 C 
HETATM    9  C8  UNL     1     -33.695  13.698  -3.832  1.00 20.00     0.011 C 
ENDBRANCH   3   6
BRANCH   2  10
HETATM   10  C9  UNL     1     -34.191  18.056   0.381  1.00 20.00     0.038 A 
HETATM   11  C5  UNL     1     -35.214  17.513   1.355  1.00 20.00     0.011 A 
HETATM   12  C6  UNL     1     -35.373  18.899   0.812  1.00 20.00     0.011 A 
ENDBRANCH   2  10
TORSDOF 2
ENDMDL
MODEL 4
REMARK VINA RESULT:      -4.5      1.902      2.303
REMARK  2 active torsions:
REMARK  status: ('A' for Active; 'I' for Inactive)
REMARK    1  A    between atoms: C2_2  and  C9_9 
REMARK    2  A    between atoms: C3_3  and  C10_10 
ROOT
HETATM    1  C1  UNL     1     -33.992  17.217  -5.833  1.00 20.00     0.079 A 
HETATM    2  C2  UNL     1     -34.166  15.901  -5.461  1.00 20.00     0.046 A 
HETATM    3  C3  UNL     1     -33.828  16.763  -3.473  1.00 20.00     0.079 A 
HETATM    4  N11 UNL     1     -34.072  15.638  -4.108  1.00 20.00    -0.249 NA
HETATM    5  S12 UNL     1     -33.699  18.175  -4.441  1.00 20.00    -0.084 SA
ENDROOT
BRANCH   3   6
HETATM    6  C10 UNL     1     -33.661  16.814  -1.899  1.00 20.00     0.045 C 
HETATM    7  C7  UNL     1     -33.611  18.201  -1.190  1.00 20.00     0.011 C 
HETATM    8  C4  UNL     1     -34.321  17.541   0.006  1.00 20.00     0.002 C 
HETATM    9  C8  UNL     1     -34.901  16.526  -0.999  1.00 20.00     0.011 C 
ENDBRANCH   3   6
BRANCH   2  10
HETATM   10  C9  UNL     1     -34.446  14.791  -6.480  1.00 20.00     0.038 A 
HETATM   11  C5  UNL     1     -34.808  15.178  -7.898  1.00 20.00     0.011 A 
HETATM   12  C6  UNL     1     -35.859  14.613  -6.994  1.00 20.00     0.011 A 
ENDBRANCH   2  10
TORSDOF 2
ENDMDL
MODEL 5
REMARK VINA RESULT:      -4.4      2.243      2.980
REMARK  2 active torsions:
REMARK  status: ('A' for Active; 'I' for Inactive)
REMARK    1  A    between atoms: C2_2  and  C9_9 
REMARK    2  A    between atoms: C3_3  and  C10_10 
ROOT
HETATM    1  C1  UNL     1     -34.769  13.883  -5.422  1.00 20.00     0.079 A 
HETATM    2  C2  UNL     1     -34.516  15.152  -5.898  1.00 20.00     0.046 A 
HETATM    3  C3  UNL     1     -34.087  15.505  -3.776  1.00 20.00     0.079 A 
HETATM    4  N11 UNL     1     -34.125  16.084  -4.956  1.00 20.00    -0.249 NA
HETATM    5  S12 UNL     1     -34.510  13.842  -3.727  1.00 20.00    -0.084 SA
ENDROOT
BRANCH   3   6
HETATM    6  C10 UNL     1     -33.675  16.298  -2.470  1.00 20.00     0.045 C 
HETATM    7  C7  UNL     1     -33.766  17.854  -2.470  1.00 20.00     0.011 C 
HETATM    8  C4  UNL     1     -34.133  17.766  -0.978  1.00 20.00     0.002 C 
HETATM    9  C8  UNL     1     -34.674  16.354  -1.274  1.00 20.00     0.011 C 
ENDBRANCH   3   6
BRANCH   2  10
HETATM   10  C9  UNL     1     -34.657  15.515  -7.380  1.00 20.00     0.038 A 
HETATM   11  C5  UNL     1     -34.690  16.977  -7.772  1.00 20.00     0.011 A 
HETATM   12  C6  UNL     1     -35.942  16.161  -7.853  1.00 20.00     0.011 A 
ENDBRANCH   2  10
TORSDOF 2
ENDMDL
MODEL 6
REMARK VINA RESULT:      -4.4      1.259      5.417
REMARK  2 active torsions:
REMARK  status: ('A' for Active; 'I' for Inactive)
REMARK    1  A    between atoms: C2_2  and  C9_9 
REMARK    2  A    between atoms: C3_3  and  C10_10 
ROOT
HETATM    1  C1  UNL     1     -36.279  17.089  -2.625  1.00 20.00     0.079 A 
HETATM    2  C2  UNL     1     -35.097  16.511  -2.213  1.00 20.00     0.046 A 
HETATM    3  C3  UNL     1     -35.033  15.923  -4.325  1.00 20.00     0.079 A 
HETATM    4  N11 UNL     1     -34.380  15.842  -3.186  1.00 20.00    -0.249 NA
HETATM    5  S12 UNL     1     -36.514  16.791  -4.297  1.00 20.00    -0.084 SA
ENDROOT
BRANCH   3   6
HETATM    6  C10 UNL     1     -34.482  15.258  -5.652  1.00 20.00     0.045 C 
HETATM    7  C7  UNL     1     -35.439  14.370  -6.504  1.00 20.00     0.011 C 
HETATM    8  C4  UNL     1     -34.690  14.876  -7.751  1.00 20.00     0.002 C 
HETATM    9  C8  UNL     1     -34.340  16.135  -6.933  1.00 20.00     0.011 C 
ENDBRANCH   3   6
BRANCH   2  10
HETATM   10  C9  UNL     1     -34.601  16.600  -0.766  1.00 20.00     0.038 A 
HETATM   11  C5  UNL     1     -35.182  17.664   0.140  1.00 20.00     0.011 A 
HETATM   12  C6  UNL     1     -33.774  17.798  -0.351  1.00 20.00     0.011 A 
ENDBRANCH   2  10
TORSDOF 2
ENDMDL
MODEL 7
REMARK VINA RESULT:      -4.3      1.702      5.424
REMARK  2 active torsions:
REMARK  status: ('A' for Active; 'I' for Inactive)
REMARK    1  A    between atoms: C2_2  and  C9_9 
REMARK    2  A    between atoms: C3_3  and  C10_10 
ROOT
HETATM    1  C1  UNL     1     -33.624  18.899  -2.971  1.00 20.00     0.079 A 
HETATM    2  C2  UNL     1     -33.514  18.391  -1.694  1.00 20.00     0.046 A 
HETATM    3  C3  UNL     1     -34.073  16.544  -2.737  1.00 20.00     0.079 A 
HETATM    4  N11 UNL     1     -33.770  17.040  -1.557  1.00 20.00    -0.249 NA
HETATM    5  S12 UNL     1     -34.066  17.645  -4.054  1.00 20.00    -0.084 SA
ENDROOT
BRANCH   3   6
HETATM    6  C10 UNL     1     -34.424  15.012  -2.934  1.00 20.00     0.045 C 
HETATM    7  C7  UNL     1     -35.628  14.625  -3.844  1.00 20.00     0.011 C 
HETATM    8  C4  UNL     1     -34.837  13.365  -4.240  1.00 20.00     0.002 C 
HETATM    9  C8  UNL     1     -33.558  14.159  -3.910  1.00 20.00     0.011 C 
ENDBRANCH   3   6
BRANCH   2  10
HETATM   10  C9  UNL     1     -33.130  19.263  -0.494  1.00 20.00     0.038 A 
HETATM   11  C5  UNL     1     -31.901  18.897   0.309  1.00 20.00     0.011 A 
HETATM   12  C6  UNL     1     -33.260  18.684   0.899  1.00 20.00     0.011 A 
ENDBRANCH   2  10
TORSDOF 2
ENDMDL
MODEL 8
REMARK VINA RESULT:      -4.3      1.915      2.769
REMARK  2 active torsions:
REMARK  status: ('A' for Active; 'I' for Inactive)
REMARK    1  A    between atoms: C2_2  and  C9_9 
REMARK    2  A    between atoms: C3_3  and  C10_10 
ROOT
HETATM    1  C1  UNL     1     -35.600  13.866  -4.448  1.00 20.00     0.079 A 
HETATM    2  C2  UNL     1     -36.467  14.898  -4.160  1.00 20.00     0.046 A 
HETATM    3  C3  UNL     1     -34.795  15.506  -2.878  1.00 20.00     0.079 A 
HETATM    4  N11 UNL     1     -36.008  15.840  -3.259  1.00 20.00    -0.249 NA
HETATM    5  S12 UNL     1     -34.145  14.072  -3.563  1.00 20.00    -0.084 SA
ENDROOT
BRANCH   3   6
HETATM    6  C10 UNL     1     -33.975  16.378  -1.841  1.00 20.00     0.045 C 
HETATM    7  C7  UNL     1     -33.813  17.906  -2.103  1.00 20.00     0.011 C 
HETATM    8  C4  UNL     1     -33.842  18.103  -0.576  1.00 20.00     0.002 C 
HETATM    9  C8  UNL     1     -34.655  16.796  -0.502  1.00 20.00     0.011 C 
ENDBRANCH   3   6
BRANCH   2  10
HETATM   10  C9  UNL     1     -37.858  15.002  -4.795  1.00 20.00     0.038 A 
HETATM   11  C5  UNL     1     -38.730  16.190  -4.448  1.00 20.00     0.011 A 
HETATM   12  C6  UNL     1     -39.076  14.835  -3.912  1.00 20.00     0.011 A 
ENDBRANCH   2  10
TORSDOF 2
ENDMDL
MODEL 9
REMARK VINA RESULT:      -4.2      2.191      5.650
REMARK  2 active torsions:
REMARK  status: ('A' for Active; 'I' for Inactive)
REMARK    1  A    between atoms: C2_2  and  C9_9 
REMARK    2  A    between atoms: C3_3  and  C10_10 
ROOT
HETATM    1  C1  UNL     1     -33.665  18.634  -3.775  1.00 20.00     0.079 A 
HETATM    2  C2  UNL     1     -33.738  17.423  -3.122  1.00 20.00     0.046 A 
HETATM    3  C3  UNL     1     -33.893  16.694  -5.184  1.00 20.00     0.079 A 
HETATM    4  N11 UNL     1     -33.869  16.308  -3.928  1.00 20.00    -0.249 NA
HETATM    5  S12 UNL     1     -33.761  18.382  -5.469  1.00 20.00    -0.084 SA
ENDROOT
BRANCH   3   6
HETATM    6  C10 UNL     1     -34.035  15.658  -6.373  1.00 20.00     0.045 C 
HETATM    7  C7  UNL     1     -35.040  14.476  -6.228  1.00 20.00     0.011 C 
HETATM    8  C4  UNL     1     -35.278  14.580  -7.746  1.00 20.00     0.002 C 
HETATM    9  C8  UNL     1     -34.865  16.060  -7.630  1.00 20.00     0.011 C 
ENDBRANCH   3   6
BRANCH   2  10
HETATM   10  C9  UNL     1     -33.679  17.310  -1.594  1.00 20.00     0.038 A 
HETATM   11  C5  UNL     1     -34.722  16.473  -0.885  1.00 20.00     0.011 A 
HETATM   12  C6  UNL     1     -34.770  17.965  -0.773  1.00 20.00     0.011 A 
ENDBRANCH   2  10
TORSDOF 2
ENDMDL
