MODEL 1
REMARK VINA RESULT:      -4.4      0.000      0.000
REMARK  0 active torsions:
REMARK  status: ('A' for Active; 'I' for Inactive)
ROOT
HETATM    1  C1  UNL     1     -35.216   4.625   4.249  1.00 20.00     0.184 A 
HETATM    2  C2  UNL     1     -35.002   5.075   5.565  1.00 20.00     0.175 A 
HETATM    3  C3  UNL     1     -34.045   6.052   5.443  1.00 20.00     0.162 A 
HETATM    4  C4  UNL     1     -32.807   7.005   3.465  1.00 20.00     0.181 C 
HETATM    5  N5  UNL     1     -34.456   5.264   3.356  1.00 20.00    -0.181 NA
HETATM    6  N6  UNL     1     -33.755   6.127   4.112  1.00 20.00    -0.260 N 
HETATM    7  F7  UNL     1     -35.593   4.649   6.677  1.00 20.00    -0.201 F 
HETATM    8 CL8  UNL     1     -33.278   7.048   6.579  1.00 20.00    -0.059 Cl
ENDROOT
TORSDOF 0
ENDMDL
MODEL 2
REMARK VINA RESULT:      -4.2      2.346      2.644
REMARK  0 active torsions:
REMARK  status: ('A' for Active; 'I' for Inactive)
ROOT
HETATM    1  C1  UNL     1     -35.275   4.839   4.432  1.00 20.00     0.184 A 
HETATM    2  C2  UNL     1     -34.383   5.314   3.452  1.00 20.00     0.175 A 
HETATM    3  C3  UNL     1     -33.562   6.182   4.129  1.00 20.00     0.162 A 
HETATM    4  C4  UNL     1     -33.457   6.924   6.535  1.00 20.00     0.181 C 
HETATM    5  N5  UNL     1     -35.043   5.362   5.638  1.00 20.00    -0.181 NA
HETATM    6  N6  UNL     1     -33.994   6.174   5.422  1.00 20.00    -0.260 N 
HETATM    7  F7  UNL     1     -34.344   4.994   2.164  1.00 20.00    -0.201 F 
HETATM    8 CL8  UNL     1     -32.252   7.136   3.633  1.00 20.00    -0.059 Cl
ENDROOT
TORSDOF 0
ENDMDL
MODEL 3
REMARK VINA RESULT:      -4.0      2.004      2.338
REMARK  0 active torsions:
REMARK  status: ('A' for Active; 'I' for Inactive)
ROOT
HETATM    1  C1  UNL     1     -34.730   5.569   6.245  1.00 20.00     0.184 A 
HETATM    2  C2  UNL     1     -33.668   6.469   6.040  1.00 20.00     0.175 A 
HETATM    3  C3  UNL     1     -33.423   6.409   4.690  1.00 20.00     0.162 A 
HETATM    4  C4  UNL     1     -34.471   5.094   2.813  1.00 20.00     0.181 C 
HETATM    5  N5  UNL     1     -35.132   4.979   5.116  1.00 20.00    -0.181 NA
HETATM    6  N6  UNL     1     -34.319   5.512   4.188  1.00 20.00    -0.260 N 
HETATM    7  F7  UNL     1     -33.043   7.211   6.948  1.00 20.00    -0.201 F 
HETATM    8 CL8  UNL     1     -32.302   7.201   3.697  1.00 20.00    -0.059 Cl
ENDROOT
TORSDOF 0
ENDMDL
MODEL 4
REMARK VINA RESULT:      -3.9      2.123      2.774
REMARK  0 active torsions:
REMARK  status: ('A' for Active; 'I' for Inactive)
ROOT
HETATM    1  C1  UNL     1     -34.209   5.490   3.082  1.00 20.00     0.184 A 
HETATM    2  C2  UNL     1     -33.511   6.491   3.782  1.00 20.00     0.175 A 
HETATM    3  C3  UNL     1     -33.802   6.252   5.103  1.00 20.00     0.162 A 
HETATM    4  C4  UNL     1     -35.208   4.513   6.264  1.00 20.00     0.181 C 
HETATM    5  N5  UNL     1     -34.891   4.675   3.891  1.00 20.00    -0.181 NA
HETATM    6  N6  UNL     1     -34.623   5.163   5.114  1.00 20.00    -0.260 N 
HETATM    7  F7  UNL     1     -32.744   7.452   3.279  1.00 20.00    -0.201 F 
HETATM    8 CL8  UNL     1     -33.333   7.029   6.534  1.00 20.00    -0.059 Cl
ENDROOT
TORSDOF 0
ENDMDL
MODEL 5
REMARK VINA RESULT:      -3.8     12.308     12.461
REMARK  0 active torsions:
REMARK  status: ('A' for Active; 'I' for Inactive)
ROOT
HETATM    1  C1  UNL     1     -34.219  13.333  -4.699  1.00 20.00     0.184 A 
HETATM    2  C2  UNL     1     -33.536  14.116  -3.750  1.00 20.00     0.175 A 
HETATM    3  C3  UNL     1     -34.517  14.882  -3.167  1.00 20.00     0.162 A 
HETATM    4  C4  UNL     1     -37.007  15.041  -3.522  1.00 20.00     0.181 C 
HETATM    5  N5  UNL     1     -35.531  13.578  -4.722  1.00 20.00    -0.181 NA
HETATM    6  N6  UNL     1     -35.682  14.523  -3.778  1.00 20.00    -0.260 N 
HETATM    7  F7  UNL     1     -32.236  14.116  -3.478  1.00 20.00    -0.201 F 
HETATM    8 CL8  UNL     1     -34.475  16.057  -1.948  1.00 20.00    -0.059 Cl
ENDROOT
TORSDOF 0
ENDMDL
MODEL 6
REMARK VINA RESULT:      -3.8      2.498      3.113
REMARK  0 active torsions:
REMARK  status: ('A' for Active; 'I' for Inactive)
ROOT
HETATM    1  C1  UNL     1     -32.788   6.540   3.106  1.00 20.00     0.184 A 
HETATM    2  C2  UNL     1     -33.778   5.544   3.020  1.00 20.00     0.175 A 
HETATM    3  C3  UNL     1     -34.297   5.464   4.289  1.00 20.00     0.162 A 
HETATM    4  C4  UNL     1     -33.785   6.687   6.432  1.00 20.00     0.181 C 
HETATM    5  N5  UNL     1     -32.682   7.056   4.333  1.00 20.00    -0.181 NA
HETATM    6  N6  UNL     1     -33.613   6.382   5.030  1.00 20.00    -0.260 N 
HETATM    7  F7  UNL     1     -34.132   4.839   1.950  1.00 20.00    -0.201 F 
HETATM    8 CL8  UNL     1     -35.516   4.501   4.966  1.00 20.00    -0.059 Cl
ENDROOT
TORSDOF 0
ENDMDL
MODEL 7
REMARK VINA RESULT:      -3.6      9.585     10.259
REMARK  0 active torsions:
REMARK  status: ('A' for Active; 'I' for Inactive)
ROOT
HETATM    1  C1  UNL     1     -40.636   5.870  -0.325  1.00 20.00     0.184 A 
HETATM    2  C2  UNL     1     -41.286   6.847  -1.102  1.00 20.00     0.175 A 
HETATM    3  C3  UNL     1     -41.897   6.136  -2.106  1.00 20.00     0.162 A 
HETATM    4  C4  UNL     1     -41.994   3.678  -2.655  1.00 20.00     0.181 C 
HETATM    5  N5  UNL     1     -40.817   4.633  -0.795  1.00 20.00    -0.181 NA
HETATM    6  N6  UNL     1     -41.589   4.827  -1.877  1.00 20.00    -0.260 N 
HETATM    7  F7  UNL     1     -41.304   8.161  -0.908  1.00 20.00    -0.201 F 
HETATM    8 CL8  UNL     1     -42.859   6.609  -3.417  1.00 20.00    -0.059 Cl
ENDROOT
TORSDOF 0
ENDMDL
MODEL 8
REMARK VINA RESULT:      -3.6     12.405     12.521
REMARK  0 active torsions:
REMARK  status: ('A' for Active; 'I' for Inactive)
ROOT
HETATM    1  C1  UNL     1     -36.328  14.294  -4.062  1.00 20.00     0.184 A 
HETATM    2  C2  UNL     1     -35.080  13.737  -4.399  1.00 20.00     0.175 A 
HETATM    3  C3  UNL     1     -34.176  14.434  -3.635  1.00 20.00     0.162 A 
HETATM    4  C4  UNL     1     -34.423  16.298  -1.958  1.00 20.00     0.181 C 
HETATM    5  N5  UNL     1     -36.230  15.269  -3.155  1.00 20.00    -0.181 NA
HETATM    6  N6  UNL     1     -34.909  15.329  -2.914  1.00 20.00    -0.260 N 
HETATM    7  F7  UNL     1     -34.833  12.758  -5.263  1.00 20.00    -0.201 F 
HETATM    8 CL8  UNL     1     -32.491  14.337  -3.489  1.00 20.00    -0.059 Cl
ENDROOT
TORSDOF 0
ENDMDL
MODEL 9
REMARK VINA RESULT:      -3.6      1.968      2.329
REMARK  0 active torsions:
REMARK  status: ('A' for Active; 'I' for Inactive)
ROOT
HETATM    1  C1  UNL     1     -34.139   6.095   6.246  1.00 20.00     0.184 A 
HETATM    2  C2  UNL     1     -34.759   5.280   5.281  1.00 20.00     0.175 A 
HETATM    3  C3  UNL     1     -34.124   5.597   4.105  1.00 20.00     0.162 A 
HETATM    4  C4  UNL     1     -32.268   7.205   3.536  1.00 20.00     0.181 C 
HETATM    5  N5  UNL     1     -33.183   6.871   5.729  1.00 20.00    -0.181 NA
HETATM    6  N6  UNL     1     -33.197   6.544   4.426  1.00 20.00    -0.260 N 
HETATM    7  F7  UNL     1     -35.739   4.402   5.466  1.00 20.00    -0.201 F 
HETATM    8 CL8  UNL     1     -34.314   5.037   2.518  1.00 20.00    -0.059 Cl
ENDROOT
TORSDOF 0
ENDMDL
