MODEL 1
REMARK VINA RESULT:      -4.4      0.000      0.000
REMARK  1 active torsions:
REMARK  status: ('A' for Active; 'I' for Inactive)
REMARK    1  A    between atoms: C4_4  and  C10_10 
ROOT
HETATM    1  C1  UNL     1     -34.339  16.268  -3.098  1.00 20.00     0.016 C 
HETATM    2  C2  UNL     1     -34.078  17.655  -3.674  1.00 20.00     0.017 C 
HETATM    3  C3  UNL     1     -33.088  15.526  -3.561  1.00 20.00     0.122 C 
HETATM    4  C4  UNL     1     -33.445  17.320  -5.030  1.00 20.00     0.129 C 
HETATM    5  C5  UNL     1     -34.535  16.243  -1.590  1.00 20.00     0.013 C 
HETATM    6  C6  UNL     1     -35.296  18.563  -3.713  1.00 20.00     0.013 C 
HETATM    7  C7  UNL     1     -33.275  14.023  -3.683  1.00 20.00     0.040 C 
HETATM    8  O11 UNL     1     -32.753  16.067  -4.852  1.00 20.00    -0.380 OA
ENDROOT
BRANCH   4   9
HETATM    9  C10 UNL     1     -34.414  17.145  -6.194  1.00 20.00     0.007 C 
HETATM   10  C8  UNL     1     -34.246  18.274  -7.211  1.00 20.00     0.012 C 
HETATM   11  C9  UNL     1     -34.212  15.787  -6.864  1.00 20.00     0.012 C 
ENDBRANCH   4   9
TORSDOF 1
ENDMDL
MODEL 2
REMARK VINA RESULT:      -4.3      1.085      4.051
REMARK  1 active torsions:
REMARK  status: ('A' for Active; 'I' for Inactive)
REMARK    1  A    between atoms: C4_4  and  C10_10 
ROOT
HETATM    1  C1  UNL     1     -34.504  15.693  -5.624  1.00 20.00     0.016 C 
HETATM    2  C2  UNL     1     -33.994  15.000  -4.366  1.00 20.00     0.017 C 
HETATM    3  C3  UNL     1     -33.598  16.921  -5.660  1.00 20.00     0.122 C 
HETATM    4  C4  UNL     1     -33.728  16.189  -3.435  1.00 20.00     0.129 C 
HETATM    5  C5  UNL     1     -34.423  14.843  -6.883  1.00 20.00     0.013 C 
HETATM    6  C6  UNL     1     -34.915  13.920  -3.821  1.00 20.00     0.013 C 
HETATM    7  C7  UNL     1     -34.194  18.102  -6.407  1.00 20.00     0.040 C 
HETATM    8  O11 UNL     1     -33.371  17.295  -4.289  1.00 20.00    -0.380 OA
ENDROOT
BRANCH   4   9
HETATM    9  C10 UNL     1     -34.903  16.638  -2.573  1.00 20.00     0.007 C 
HETATM   10  C8  UNL     1     -34.585  16.453  -1.089  1.00 20.00     0.012 C 
HETATM   11  C9  UNL     1     -35.261  18.094  -2.866  1.00 20.00     0.012 C 
ENDBRANCH   4   9
TORSDOF 1
ENDMDL
MODEL 3
REMARK VINA RESULT:      -4.3      1.514      2.723
REMARK  1 active torsions:
REMARK  status: ('A' for Active; 'I' for Inactive)
REMARK    1  A    between atoms: C4_4  and  C10_10 
ROOT
HETATM    1  C1  UNL     1     -34.081  17.670  -3.294  1.00 20.00     0.016 C 
HETATM    2  C2  UNL     1     -33.444  17.122  -4.566  1.00 20.00     0.017 C 
HETATM    3  C3  UNL     1     -33.729  16.567  -2.299  1.00 20.00     0.122 C 
HETATM    4  C4  UNL     1     -33.741  15.623  -4.448  1.00 20.00     0.129 C 
HETATM    5  C5  UNL     1     -33.572  19.043  -2.881  1.00 20.00     0.013 C 
HETATM    6  C6  UNL     1     -33.909  17.794  -5.847  1.00 20.00     0.013 C 
HETATM    7  C7  UNL     1     -34.678  16.482  -1.116  1.00 20.00     0.040 C 
HETATM    8  O11 UNL     1     -33.778  15.331  -3.035  1.00 20.00    -0.380 OA
ENDROOT
BRANCH   4   9
HETATM    9  C10 UNL     1     -35.063  15.155  -5.045  1.00 20.00     0.007 C 
HETATM   10  C8  UNL     1     -34.827  14.398  -6.352  1.00 20.00     0.012 C 
HETATM   11  C9  UNL     1     -35.825  14.280  -4.050  1.00 20.00     0.012 C 
ENDBRANCH   4   9
TORSDOF 1
ENDMDL
MODEL 4
REMARK VINA RESULT:      -4.1      1.513      3.085
REMARK  1 active torsions:
REMARK  status: ('A' for Active; 'I' for Inactive)
REMARK    1  A    between atoms: C4_4  and  C10_10 
ROOT
HETATM    1  C1  UNL     1     -34.668  16.344  -2.920  1.00 20.00     0.016 C 
HETATM    2  C2  UNL     1     -35.166  15.063  -3.578  1.00 20.00     0.017 C 
HETATM    3  C3  UNL     1     -35.687  17.351  -3.446  1.00 20.00     0.122 C 
HETATM    4  C4  UNL     1     -35.593  15.564  -4.963  1.00 20.00     0.129 C 
HETATM    5  C5  UNL     1     -34.603  16.284  -1.402  1.00 20.00     0.013 C 
HETATM    6  C6  UNL     1     -34.171  13.914  -3.563  1.00 20.00     0.013 C 
HETATM    7  C7  UNL     1     -35.175  18.781  -3.484  1.00 20.00     0.040 C 
HETATM    8  O11 UNL     1     -36.016  16.931  -4.783  1.00 20.00    -0.380 OA
ENDROOT
BRANCH   4   9
HETATM    9  C10 UNL     1     -34.512  15.558  -6.038  1.00 20.00     0.007 C 
HETATM   10  C8  UNL     1     -34.854  14.558  -7.143  1.00 20.00     0.012 C 
HETATM   11  C9  UNL     1     -34.324  16.957  -6.621  1.00 20.00     0.012 C 
ENDBRANCH   4   9
TORSDOF 1
ENDMDL
MODEL 5
REMARK VINA RESULT:      -4.1      1.456      2.731
REMARK  1 active torsions:
REMARK  status: ('A' for Active; 'I' for Inactive)
REMARK    1  A    between atoms: C4_4  and  C10_10 
ROOT
HETATM    1  C1  UNL     1     -34.723  14.712  -4.725  1.00 20.00     0.016 C 
HETATM    2  C2  UNL     1     -33.578  15.557  -4.179  1.00 20.00     0.017 C 
HETATM    3  C3  UNL     1     -34.402  14.725  -6.218  1.00 20.00     0.122 C 
HETATM    4  C4  UNL     1     -33.442  16.639  -5.257  1.00 20.00     0.129 C 
HETATM    5  C5  UNL     1     -34.803  13.312  -4.136  1.00 20.00     0.013 C 
HETATM    6  C6  UNL     1     -33.782  16.055  -2.757  1.00 20.00     0.013 C 
HETATM    7  C7  UNL     1     -35.611  14.500  -7.108  1.00 20.00     0.040 C 
HETATM    8  O11 UNL     1     -33.844  16.023  -6.497  1.00 20.00    -0.380 OA
ENDROOT
BRANCH   4   9
HETATM    9  C10 UNL     1     -34.300  17.884  -5.066  1.00 20.00     0.007 C 
HETATM   10  C8  UNL     1     -33.427  19.098  -4.749  1.00 20.00     0.012 C 
HETATM   11  C9  UNL     1     -35.152  18.147  -6.306  1.00 20.00     0.012 C 
ENDBRANCH   4   9
TORSDOF 1
ENDMDL
MODEL 6
REMARK VINA RESULT:      -4.1      1.316      4.202
REMARK  1 active torsions:
REMARK  status: ('A' for Active; 'I' for Inactive)
REMARK    1  A    between atoms: C4_4  and  C10_10 
ROOT
HETATM    1  C1  UNL     1     -34.561  17.081  -6.593  1.00 20.00     0.016 C 
HETATM    2  C2  UNL     1     -34.177  15.608  -6.679  1.00 20.00     0.017 C 
HETATM    3  C3  UNL     1     -33.552  17.579  -5.561  1.00 20.00     0.122 C 
HETATM    4  C4  UNL     1     -33.858  15.278  -5.216  1.00 20.00     0.129 C 
HETATM    5  C5  UNL     1     -34.490  17.825  -7.918  1.00 20.00     0.013 C 
HETATM    6  C6  UNL     1     -35.215  14.723  -7.350  1.00 20.00     0.013 C 
HETATM    7  C7  UNL     1     -34.005  18.817  -4.807  1.00 20.00     0.040 C 
HETATM    8  O11 UNL     1     -33.364  16.499  -4.628  1.00 20.00    -0.380 OA
ENDROOT
BRANCH   4   9
HETATM    9  C10 UNL     1     -35.031  14.804  -4.367  1.00 20.00     0.007 C 
HETATM   10  C8  UNL     1     -34.993  13.286  -4.193  1.00 20.00     0.012 C 
HETATM   11  C9  UNL     1     -35.026  15.499  -3.006  1.00 20.00     0.012 C 
ENDBRANCH   4   9
TORSDOF 1
ENDMDL
MODEL 7
REMARK VINA RESULT:      -4.1      1.691      3.559
REMARK  1 active torsions:
REMARK  status: ('A' for Active; 'I' for Inactive)
REMARK    1  A    between atoms: C4_4  and  C10_10 
ROOT
HETATM    1  C1  UNL     1     -34.413  15.434  -5.556  1.00 20.00     0.016 C 
HETATM    2  C2  UNL     1     -34.748  16.907  -5.346  1.00 20.00     0.017 C 
HETATM    3  C3  UNL     1     -35.549  14.770  -4.783  1.00 20.00     0.122 C 
HETATM    4  C4  UNL     1     -35.232  16.917  -3.892  1.00 20.00     0.129 C 
HETATM    5  C5  UNL     1     -34.343  15.010  -7.015  1.00 20.00     0.013 C 
HETATM    6  C6  UNL     1     -33.617  17.867  -5.679  1.00 20.00     0.013 C 
HETATM    7  C7  UNL     1     -35.219  13.374  -4.285  1.00 20.00     0.040 C 
HETATM    8  O11 UNL     1     -35.822  15.622  -3.655  1.00 20.00    -0.380 OA
ENDROOT
BRANCH   4   9
HETATM    9  C10 UNL     1     -34.158  17.130  -2.832  1.00 20.00     0.007 C 
HETATM   10  C8  UNL     1     -34.075  18.604  -2.434  1.00 20.00     0.012 C 
HETATM   11  C9  UNL     1     -34.429  16.259  -1.606  1.00 20.00     0.012 C 
ENDBRANCH   4   9
TORSDOF 1
ENDMDL
MODEL 8
REMARK VINA RESULT:      -4.0      1.553      2.934
REMARK  1 active torsions:
REMARK  status: ('A' for Active; 'I' for Inactive)
REMARK    1  A    between atoms: C4_4  and  C10_10 
ROOT
HETATM    1  C1  UNL     1     -34.596  14.785  -4.592  1.00 20.00     0.016 C 
HETATM    2  C2  UNL     1     -35.202  15.298  -5.893  1.00 20.00     0.017 C 
HETATM    3  C3  UNL     1     -35.278  15.700  -3.578  1.00 20.00     0.122 C 
HETATM    4  C4  UNL     1     -35.249  16.810  -5.646  1.00 20.00     0.129 C 
HETATM    5  C5  UNL     1     -34.836  13.306  -4.329  1.00 20.00     0.013 C 
HETATM    6  C6  UNL     1     -34.473  14.850  -7.150  1.00 20.00     0.013 C 
HETATM    7  C7  UNL     1     -34.497  15.878  -2.288  1.00 20.00     0.040 C 
HETATM    8  O11 UNL     1     -35.421  16.979  -4.223  1.00 20.00    -0.380 OA
ENDROOT
BRANCH   4   9
HETATM    9  C10 UNL     1     -34.005  17.592  -6.051  1.00 20.00     0.007 C 
HETATM   10  C8  UNL     1     -34.277  18.429  -7.302  1.00 20.00     0.012 C 
HETATM   11  C9  UNL     1     -33.531  18.483  -4.904  1.00 20.00     0.012 C 
ENDBRANCH   4   9
TORSDOF 1
ENDMDL
MODEL 9
REMARK VINA RESULT:      -4.0      1.745      2.034
REMARK  1 active torsions:
REMARK  status: ('A' for Active; 'I' for Inactive)
REMARK    1  A    between atoms: C4_4  and  C10_10 
ROOT
HETATM    1  C1  UNL     1     -34.775  15.857  -2.889  1.00 20.00     0.016 C 
HETATM    2  C2  UNL     1     -35.731  16.722  -3.701  1.00 20.00     0.017 C 
HETATM    3  C3  UNL     1     -33.512  15.948  -3.742  1.00 20.00     0.122 C 
HETATM    4  C4  UNL     1     -35.356  16.346  -5.139  1.00 20.00     0.129 C 
HETATM    5  C5  UNL     1     -34.572  16.323  -1.456  1.00 20.00     0.013 C 
HETATM    6  C6  UNL     1     -37.197  16.562  -3.332  1.00 20.00     0.013 C 
HETATM    7  C7  UNL     1     -32.568  14.771  -3.570  1.00 20.00     0.040 C 
HETATM    8  O11 UNL     1     -33.954  16.003  -5.111  1.00 20.00    -0.380 OA
ENDROOT
BRANCH   4   9
HETATM    9  C10 UNL     1     -36.104  15.160  -5.737  1.00 20.00     0.007 C 
HETATM   10  C8  UNL     1     -37.101  15.630  -6.796  1.00 20.00     0.012 C 
HETATM   11  C9  UNL     1     -35.125  14.150  -6.333  1.00 20.00     0.012 C 
ENDBRANCH   4   9
TORSDOF 1
ENDMDL
