MODEL 1
REMARK VINA RESULT:      -4.5      0.000      0.000
REMARK  1 active torsions:
REMARK  status: ('A' for Active; 'I' for Inactive)
REMARK    1  A    between atoms: C4_4  and  C10_10 
ROOT
HETATM    1  C1  UNL     1     -33.952  15.532  -5.454  1.00 20.00     0.016 C 
HETATM    2  C2  UNL     1     -33.565  15.007  -4.069  1.00 20.00     0.017 C 
HETATM    3  C3  UNL     1     -33.464  16.979  -5.339  1.00 20.00     0.122 C 
HETATM    4  C4  UNL     1     -33.737  16.225  -3.148  1.00 20.00     0.129 C 
HETATM    5  C5  UNL     1     -35.438  15.399  -5.791  1.00 20.00     0.013 C 
HETATM    6  C6  UNL     1     -34.227  13.714  -3.618  1.00 20.00     0.013 C 
HETATM    7  C7  UNL     1     -34.043  17.976  -6.325  1.00 20.00     0.040 C 
HETATM    8  O11 UNL     1     -33.783  17.386  -4.000  1.00 20.00    -0.380 OA
ENDROOT
BRANCH   4   9
HETATM    9  C10 UNL     1     -34.966  16.248  -2.250  1.00 20.00     0.007 C 
HETATM   10  C8  UNL     1     -34.582  16.608  -0.814  1.00 20.00     0.012 C 
HETATM   11  C9  UNL     1     -36.010  17.229  -2.784  1.00 20.00     0.012 C 
ENDBRANCH   4   9
TORSDOF 1
ENDMDL
MODEL 2
REMARK VINA RESULT:      -4.5      1.241      3.659
REMARK  1 active torsions:
REMARK  status: ('A' for Active; 'I' for Inactive)
REMARK    1  A    between atoms: C4_4  and  C10_10 
ROOT
HETATM    1  C1  UNL     1     -34.948  15.482  -2.589  1.00 20.00     0.016 C 
HETATM    2  C2  UNL     1     -34.791  14.413  -3.675  1.00 20.00     0.017 C 
HETATM    3  C3  UNL     1     -36.186  16.217  -3.112  1.00 20.00     0.122 C 
HETATM    4  C4  UNL     1     -35.278  15.110  -4.955  1.00 20.00     0.129 C 
HETATM    5  C5  UNL     1     -33.724  16.379  -2.399  1.00 20.00     0.013 C 
HETATM    6  C6  UNL     1     -33.444  13.711  -3.754  1.00 20.00     0.013 C 
HETATM    7  C7  UNL     1     -36.428  17.616  -2.577  1.00 20.00     0.040 C 
HETATM    8  O11 UNL     1     -36.028  16.268  -4.538  1.00 20.00    -0.380 OA
ENDROOT
BRANCH   4   9
HETATM    9  C10 UNL     1     -34.216  15.565  -5.945  1.00 20.00     0.007 C 
HETATM   10  C8  UNL     1     -34.475  14.969  -7.331  1.00 20.00     0.012 C 
HETATM   11  C9  UNL     1     -34.164  17.091  -6.023  1.00 20.00     0.012 C 
ENDBRANCH   4   9
TORSDOF 1
ENDMDL
MODEL 3
REMARK VINA RESULT:      -4.3      1.491      3.561
REMARK  1 active torsions:
REMARK  status: ('A' for Active; 'I' for Inactive)
REMARK    1  A    between atoms: C4_4  and  C10_10 
ROOT
HETATM    1  C1  UNL     1     -33.933  17.569  -3.072  1.00 20.00     0.016 C 
HETATM    2  C2  UNL     1     -33.395  16.618  -4.146  1.00 20.00     0.017 C 
HETATM    3  C3  UNL     1     -33.929  16.634  -1.859  1.00 20.00     0.122 C 
HETATM    4  C4  UNL     1     -33.942  15.243  -3.733  1.00 20.00     0.129 C 
HETATM    5  C5  UNL     1     -35.301  18.175  -3.388  1.00 20.00     0.013 C 
HETATM    6  C6  UNL     1     -33.611  17.029  -5.594  1.00 20.00     0.013 C 
HETATM    7  C7  UNL     1     -34.797  17.037  -0.682  1.00 20.00     0.040 C 
HETATM    8  O11 UNL     1     -34.357  15.357  -2.357  1.00 20.00    -0.380 OA
ENDROOT
BRANCH   4   9
HETATM    9  C10 UNL     1     -35.112  14.692  -4.535  1.00 20.00     0.007 C 
HETATM   10  C8  UNL     1     -34.810  13.278  -5.034  1.00 20.00     0.012 C 
HETATM   11  C9  UNL     1     -36.394  14.700  -3.701  1.00 20.00     0.012 C 
ENDBRANCH   4   9
TORSDOF 1
ENDMDL
MODEL 4
REMARK VINA RESULT:      -4.3      1.793      3.356
REMARK  1 active torsions:
REMARK  status: ('A' for Active; 'I' for Inactive)
REMARK    1  A    between atoms: C4_4  and  C10_10 
ROOT
HETATM    1  C1  UNL     1     -33.956  14.910  -3.205  1.00 20.00     0.016 C 
HETATM    2  C2  UNL     1     -35.091  14.079  -3.811  1.00 20.00     0.017 C 
HETATM    3  C3  UNL     1     -34.738  15.716  -2.165  1.00 20.00     0.122 C 
HETATM    4  C4  UNL     1     -36.313  15.009  -3.734  1.00 20.00     0.129 C 
HETATM    5  C5  UNL     1     -33.190  15.768  -4.213  1.00 20.00     0.013 C 
HETATM    6  C6  UNL     1     -34.818  13.425  -5.157  1.00 20.00     0.013 C 
HETATM    7  C7  UNL     1     -34.078  16.978  -1.640  1.00 20.00     0.040 C 
HETATM    8  O11 UNL     1     -35.983  16.051  -2.795  1.00 20.00    -0.380 OA
ENDROOT
BRANCH   4   9
HETATM    9  C10 UNL     1     -36.768  15.666  -5.029  1.00 20.00     0.007 C 
HETATM   10  C8  UNL     1     -38.211  15.278  -5.357  1.00 20.00     0.012 C 
HETATM   11  C9  UNL     1     -36.631  17.186  -4.945  1.00 20.00     0.012 C 
ENDBRANCH   4   9
TORSDOF 1
ENDMDL
MODEL 5
REMARK VINA RESULT:      -4.1      1.409      3.299
REMARK  1 active torsions:
REMARK  status: ('A' for Active; 'I' for Inactive)
REMARK    1  A    between atoms: C4_4  and  C10_10 
ROOT
HETATM    1  C1  UNL     1     -34.760  14.950  -2.926  1.00 20.00     0.016 C 
HETATM    2  C2  UNL     1     -34.048  16.282  -2.672  1.00 20.00     0.017 C 
HETATM    3  C3  UNL     1     -33.873  14.378  -4.036  1.00 20.00     0.122 C 
HETATM    4  C4  UNL     1     -33.506  16.682  -4.054  1.00 20.00     0.129 C 
HETATM    5  C5  UNL     1     -36.234  15.080  -3.309  1.00 20.00     0.013 C 
HETATM    6  C6  UNL     1     -34.832  17.343  -1.915  1.00 20.00     0.013 C 
HETATM    7  C7  UNL     1     -34.469  13.271  -4.885  1.00 20.00     0.040 C 
HETATM    8  O11 UNL     1     -33.535  15.496  -4.871  1.00 20.00    -0.380 OA
ENDROOT
BRANCH   4   9
HETATM    9  C10 UNL     1     -34.246  17.786  -4.796  1.00 20.00     0.007 C 
HETATM   10  C8  UNL     1     -33.406  19.063  -4.847  1.00 20.00     0.012 C 
HETATM   11  C9  UNL     1     -34.618  17.336  -6.208  1.00 20.00     0.012 C 
ENDBRANCH   4   9
TORSDOF 1
ENDMDL
MODEL 6
REMARK VINA RESULT:      -4.0      1.286      2.469
REMARK  1 active torsions:
REMARK  status: ('A' for Active; 'I' for Inactive)
REMARK    1  A    between atoms: C4_4  and  C10_10 
ROOT
HETATM    1  C1  UNL     1     -34.733  17.272  -6.291  1.00 20.00     0.016 C 
HETATM    2  C2  UNL     1     -34.105  15.876  -6.352  1.00 20.00     0.017 C 
HETATM    3  C3  UNL     1     -33.717  17.985  -5.395  1.00 20.00     0.122 C 
HETATM    4  C4  UNL     1     -33.445  15.706  -4.974  1.00 20.00     0.129 C 
HETATM    5  C5  UNL     1     -36.165  17.302  -5.758  1.00 20.00     0.013 C 
HETATM    6  C6  UNL     1     -35.004  14.742  -6.820  1.00 20.00     0.013 C 
HETATM    7  C7  UNL     1     -34.178  19.263  -4.720  1.00 20.00     0.040 C 
HETATM    8  O11 UNL     1     -33.343  17.022  -4.397  1.00 20.00    -0.380 OA
ENDROOT
BRANCH   4   9
HETATM    9  C10 UNL     1     -34.152  14.804  -3.973  1.00 20.00     0.007 C 
HETATM   10  C8  UNL     1     -33.352  13.520  -3.740  1.00 20.00     0.012 C 
HETATM   11  C9  UNL     1     -34.381  15.535  -2.650  1.00 20.00     0.012 C 
ENDBRANCH   4   9
TORSDOF 1
ENDMDL
MODEL 7
REMARK VINA RESULT:      -4.0      1.670      2.439
REMARK  1 active torsions:
REMARK  status: ('A' for Active; 'I' for Inactive)
REMARK    1  A    between atoms: C4_4  and  C10_10 
ROOT
HETATM    1  C1  UNL     1     -36.388  14.886  -5.668  1.00 20.00     0.016 C 
HETATM    2  C2  UNL     1     -36.486  14.677  -4.154  1.00 20.00     0.017 C 
HETATM    3  C3  UNL     1     -34.913  14.542  -5.892  1.00 20.00     0.122 C 
HETATM    4  C4  UNL     1     -35.101  15.090  -3.632  1.00 20.00     0.129 C 
HETATM    5  C5  UNL     1     -36.782  16.285  -6.143  1.00 20.00     0.013 C 
HETATM    6  C6  UNL     1     -37.688  15.294  -3.455  1.00 20.00     0.013 C 
HETATM    7  C7  UNL     1     -34.283  15.039  -7.179  1.00 20.00     0.040 C 
HETATM    8  O11 UNL     1     -34.214  15.097  -4.768  1.00 20.00    -0.380 OA
ENDROOT
BRANCH   4   9
HETATM    9  C10 UNL     1     -34.994  16.441  -2.940  1.00 20.00     0.007 C 
HETATM   10  C8  UNL     1     -34.644  16.268  -1.461  1.00 20.00     0.012 C 
HETATM   11  C9  UNL     1     -33.957  17.326  -3.633  1.00 20.00     0.012 C 
ENDBRANCH   4   9
TORSDOF 1
ENDMDL
MODEL 8
REMARK VINA RESULT:      -3.9      1.754      3.607
REMARK  1 active torsions:
REMARK  status: ('A' for Active; 'I' for Inactive)
REMARK    1  A    between atoms: C4_4  and  C10_10 
ROOT
HETATM    1  C1  UNL     1     -33.820  15.349  -4.404  1.00 20.00     0.016 C 
HETATM    2  C2  UNL     1     -34.696  14.655  -5.451  1.00 20.00     0.017 C 
HETATM    3  C3  UNL     1     -34.691  15.165  -3.158  1.00 20.00     0.122 C 
HETATM    4  C4  UNL     1     -36.132  14.940  -4.980  1.00 20.00     0.129 C 
HETATM    5  C5  UNL     1     -33.485  16.807  -4.721  1.00 20.00     0.013 C 
HETATM    6  C6  UNL     1     -34.387  14.955  -6.909  1.00 20.00     0.013 C 
HETATM    7  C7  UNL     1     -34.408  16.082  -1.984  1.00 20.00     0.040 C 
HETATM    8  O11 UNL     1     -36.043  15.356  -3.604  1.00 20.00    -0.380 OA
ENDROOT
BRANCH   4   9
HETATM    9  C10 UNL     1     -36.916  15.996  -5.744  1.00 20.00     0.007 C 
HETATM   10  C8  UNL     1     -38.180  15.393  -6.361  1.00 20.00     0.012 C 
HETATM   11  C9  UNL     1     -37.276  17.170  -4.834  1.00 20.00     0.012 C 
ENDBRANCH   4   9
TORSDOF 1
ENDMDL
MODEL 9
REMARK VINA RESULT:      -3.9      1.763      2.832
REMARK  1 active torsions:
REMARK  status: ('A' for Active; 'I' for Inactive)
REMARK    1  A    between atoms: C4_4  and  C10_10 
ROOT
HETATM    1  C1  UNL     1     -35.527  15.364  -4.871  1.00 20.00     0.016 C 
HETATM    2  C2  UNL     1     -34.613  16.591  -4.818  1.00 20.00     0.017 C 
HETATM    3  C3  UNL     1     -36.773  15.927  -4.182  1.00 20.00     0.122 C 
HETATM    4  C4  UNL     1     -35.003  17.290  -3.506  1.00 20.00     0.129 C 
HETATM    5  C5  UNL     1     -34.953  14.115  -4.199  1.00 20.00     0.013 C 
HETATM    6  C6  UNL     1     -33.128  16.349  -5.044  1.00 20.00     0.013 C 
HETATM    7  C7  UNL     1     -37.764  14.920  -3.630  1.00 20.00     0.040 C 
HETATM    8  O11 UNL     1     -36.282  16.752  -3.114  1.00 20.00    -0.380 OA
ENDROOT
BRANCH   4   9
HETATM    9  C10 UNL     1     -34.048  17.143  -2.331  1.00 20.00     0.007 C 
HETATM   10  C8  UNL     1     -33.529  18.510  -1.880  1.00 20.00     0.012 C 
HETATM   11  C9  UNL     1     -34.726  16.421  -1.167  1.00 20.00     0.012 C 
ENDBRANCH   4   9
TORSDOF 1
ENDMDL
