MODEL 1
REMARK VINA RESULT:      -4.0      0.000      0.000
REMARK  2 active torsions:
REMARK  status: ('A' for Active; 'I' for Inactive)
REMARK    1  A    between atoms: C6_6  and  C7_7 
REMARK    2  A    between atoms: C6_6  and  C8_8 
ROOT
HETATM    1  C1  UNL     1     -34.470  16.688  -0.823  1.00 20.00     0.012 C 
HETATM    2  C2  UNL     1     -34.937  16.401  -1.892  1.00 20.00    -0.117 C 
HETATM    3  C7  UNL     1     -35.516  16.057  -3.195  1.00 20.00     0.103 C 
ENDROOT
BRANCH   3   4
HETATM    4  C6  UNL     1     -34.548  15.215  -4.020  1.00 20.00    -0.021 C 
HETATM    5  C4  UNL     1     -35.196  14.546  -5.268  1.00 20.00     0.011 C 
HETATM    6  C3  UNL     1     -34.437  13.253  -4.910  1.00 20.00     0.002 C 
HETATM    7  C5  UNL     1     -34.328  13.777  -3.465  1.00 20.00     0.011 C 
BRANCH   4   8
HETATM    8  C8  UNL     1     -33.255  15.977  -4.317  1.00 20.00     0.095 C 
HETATM    9 BR9  UNL     1     -33.664  17.545  -5.381  1.00 20.00    -0.096 Br
ENDBRANCH   4   8
ENDBRANCH   3   4
TORSDOF 2
ENDMDL
MODEL 2
REMARK VINA RESULT:      -4.0      1.756      3.033
REMARK  2 active torsions:
REMARK  status: ('A' for Active; 'I' for Inactive)
REMARK    1  A    between atoms: C6_6  and  C7_7 
REMARK    2  A    between atoms: C6_6  and  C8_8 
ROOT
HETATM    1  C1  UNL     1     -33.810  17.984  -6.077  1.00 20.00     0.012 C 
HETATM    2  C2  UNL     1     -33.517  17.150  -5.263  1.00 20.00    -0.117 C 
HETATM    3  C7  UNL     1     -33.150  16.138  -4.267  1.00 20.00     0.103 C 
ENDROOT
BRANCH   3   4
HETATM    4  C6  UNL     1     -34.253  15.097  -4.112  1.00 20.00    -0.021 C 
HETATM    5  C4  UNL     1     -33.733  13.670  -3.769  1.00 20.00     0.011 C 
HETATM    6  C3  UNL     1     -34.734  13.109  -4.798  1.00 20.00     0.002 C 
HETATM    7  C5  UNL     1     -34.757  14.501  -5.459  1.00 20.00     0.011 C 
BRANCH   4   8
HETATM    8  C8  UNL     1     -35.369  15.595  -3.191  1.00 20.00     0.095 C 
HETATM    9 BR9  UNL     1     -34.587  16.392  -1.607  1.00 20.00    -0.096 Br
ENDBRANCH   4   8
ENDBRANCH   3   4
TORSDOF 2
ENDMDL
MODEL 3
REMARK VINA RESULT:      -4.0      1.379      1.991
REMARK  2 active torsions:
REMARK  status: ('A' for Active; 'I' for Inactive)
REMARK    1  A    between atoms: C6_6  and  C7_7 
REMARK    2  A    between atoms: C6_6  and  C8_8 
ROOT
HETATM    1  C1  UNL     1     -34.619  16.723  -0.633  1.00 20.00     0.012 C 
HETATM    2  C2  UNL     1     -34.288  16.470  -1.759  1.00 20.00    -0.117 C 
HETATM    3  C7  UNL     1     -33.875  16.169  -3.134  1.00 20.00     0.103 C 
ENDROOT
BRANCH   3   4
HETATM    4  C6  UNL     1     -34.742  15.070  -3.738  1.00 20.00    -0.021 C 
HETATM    5  C4  UNL     1     -34.202  13.630  -3.494  1.00 20.00     0.011 C 
HETATM    6  C3  UNL     1     -34.530  13.307  -4.965  1.00 20.00     0.002 C 
HETATM    7  C5  UNL     1     -34.484  14.821  -5.254  1.00 20.00     0.011 C 
BRANCH   4   8
HETATM    8  C8  UNL     1     -36.216  15.256  -3.376  1.00 20.00     0.095 C 
HETATM    9 BR9  UNL     1     -37.014  16.555  -4.573  1.00 20.00    -0.096 Br
ENDBRANCH   4   8
ENDBRANCH   3   4
TORSDOF 2
ENDMDL
MODEL 4
REMARK VINA RESULT:      -3.9      2.048      2.836
REMARK  2 active torsions:
REMARK  status: ('A' for Active; 'I' for Inactive)
REMARK    1  A    between atoms: C6_6  and  C7_7 
REMARK    2  A    between atoms: C6_6  and  C8_8 
ROOT
HETATM    1  C1  UNL     1     -33.184  18.121  -0.645  1.00 20.00     0.012 C 
HETATM    2  C2  UNL     1     -33.890  17.240  -1.058  1.00 20.00    -0.117 C 
HETATM    3  C7  UNL     1     -34.755  16.164  -1.551  1.00 20.00     0.103 C 
ENDROOT
BRANCH   3   4
HETATM    4  C6  UNL     1     -34.639  16.017  -3.065  1.00 20.00    -0.021 C 
HETATM    5  C4  UNL     1     -33.209  15.645  -3.558  1.00 20.00     0.011 C 
HETATM    6  C3  UNL     1     -33.377  16.686  -4.682  1.00 20.00     0.002 C 
HETATM    7  C5  UNL     1     -34.460  17.366  -3.821  1.00 20.00     0.011 C 
BRANCH   4   8
HETATM    8  C8  UNL     1     -35.747  15.126  -3.627  1.00 20.00     0.095 C 
HETATM    9 BR9  UNL     1     -34.981  13.452  -4.235  1.00 20.00    -0.096 Br
ENDBRANCH   4   8
ENDBRANCH   3   4
TORSDOF 2
ENDMDL
MODEL 5
REMARK VINA RESULT:      -3.9     12.236     13.490
REMARK  2 active torsions:
REMARK  status: ('A' for Active; 'I' for Inactive)
REMARK    1  A    between atoms: C6_6  and  C7_7 
REMARK    2  A    between atoms: C6_6  and  C8_8 
ROOT
HETATM    1  C1  UNL     1     -42.031   2.657  -3.229  1.00 20.00     0.012 C 
HETATM    2  C2  UNL     1     -41.516   3.391  -2.430  1.00 20.00    -0.117 C 
HETATM    3  C7  UNL     1     -40.880   4.281  -1.453  1.00 20.00     0.103 C 
ENDROOT
BRANCH   3   4
HETATM    4  C6  UNL     1     -41.762   5.490  -1.157  1.00 20.00    -0.021 C 
HETATM    5  C4  UNL     1     -41.742   6.577  -2.270  1.00 20.00     0.011 C 
HETATM    6  C3  UNL     1     -41.641   7.644  -1.163  1.00 20.00     0.002 C 
HETATM    7  C5  UNL     1     -41.096   6.547  -0.227  1.00 20.00     0.011 C 
BRANCH   4   8
HETATM    8  C8  UNL     1     -43.165   5.066  -0.719  1.00 20.00     0.095 C 
HETATM    9 BR9  UNL     1     -43.311   5.216   1.207  1.00 20.00    -0.096 Br
ENDBRANCH   4   8
ENDBRANCH   3   4
TORSDOF 2
ENDMDL
MODEL 6
REMARK VINA RESULT:      -3.8      1.973      3.378
REMARK  2 active torsions:
REMARK  status: ('A' for Active; 'I' for Inactive)
REMARK    1  A    between atoms: C6_6  and  C7_7 
REMARK    2  A    between atoms: C6_6  and  C8_8 
ROOT
HETATM    1  C1  UNL     1     -34.696  13.108  -4.809  1.00 20.00     0.012 C 
HETATM    2  C2  UNL     1     -34.511  13.970  -3.994  1.00 20.00    -0.117 C 
HETATM    3  C7  UNL     1     -34.286  15.016  -2.991  1.00 20.00     0.103 C 
ENDROOT
BRANCH   3   4
HETATM    4  C6  UNL     1     -34.155  16.386  -3.647  1.00 20.00    -0.021 C 
HETATM    5  C4  UNL     1     -35.283  16.711  -4.669  1.00 20.00     0.011 C 
HETATM    6  C3  UNL     1     -34.202  17.270  -5.615  1.00 20.00     0.002 C 
HETATM    7  C5  UNL     1     -33.168  16.421  -4.851  1.00 20.00     0.011 C 
BRANCH   4   8
HETATM    8  C8  UNL     1     -33.915  17.483  -2.608  1.00 20.00     0.095 C 
HETATM    9 BR9  UNL     1     -34.535  16.875  -0.876  1.00 20.00    -0.096 Br
ENDBRANCH   4   8
ENDBRANCH   3   4
TORSDOF 2
ENDMDL
MODEL 7
REMARK VINA RESULT:      -3.8      0.989      3.478
REMARK  2 active torsions:
REMARK  status: ('A' for Active; 'I' for Inactive)
REMARK    1  A    between atoms: C6_6  and  C7_7 
REMARK    2  A    between atoms: C6_6  and  C8_8 
ROOT
HETATM    1  C1  UNL     1     -34.588  13.329  -4.424  1.00 20.00     0.012 C 
HETATM    2  C2  UNL     1     -33.971  14.284  -4.037  1.00 20.00    -0.117 C 
HETATM    3  C7  UNL     1     -33.210  15.447  -3.569  1.00 20.00     0.103 C 
ENDROOT
BRANCH   3   4
HETATM    4  C6  UNL     1     -34.118  16.450  -2.865  1.00 20.00    -0.021 C 
HETATM    5  C4  UNL     1     -33.429  17.220  -1.700  1.00 20.00     0.011 C 
HETATM    6  C3  UNL     1     -34.704  17.002  -0.863  1.00 20.00     0.002 C 
HETATM    7  C5  UNL     1     -35.047  15.817  -1.787  1.00 20.00     0.011 C 
BRANCH   4   8
HETATM    8  C8  UNL     1     -34.844  17.349  -3.868  1.00 20.00     0.095 C 
HETATM    9 BR9  UNL     1     -33.606  17.891  -5.257  1.00 20.00    -0.096 Br
ENDBRANCH   4   8
ENDBRANCH   3   4
TORSDOF 2
ENDMDL
MODEL 8
REMARK VINA RESULT:      -3.8      1.772      3.356
REMARK  2 active torsions:
REMARK  status: ('A' for Active; 'I' for Inactive)
REMARK    1  A    between atoms: C6_6  and  C7_7 
REMARK    2  A    between atoms: C6_6  and  C8_8 
ROOT
HETATM    1  C1  UNL     1     -34.426  15.113  -7.326  1.00 20.00     0.012 C 
HETATM    2  C2  UNL     1     -34.645  15.591  -6.246  1.00 20.00    -0.117 C 
HETATM    3  C7  UNL     1     -34.917  16.182  -4.932  1.00 20.00     0.103 C 
ENDROOT
BRANCH   3   4
HETATM    4  C6  UNL     1     -34.455  15.260  -3.809  1.00 20.00    -0.021 C 
HETATM    5  C4  UNL     1     -32.913  15.048  -3.757  1.00 20.00     0.011 C 
HETATM    6  C3  UNL     1     -33.175  13.547  -3.520  1.00 20.00     0.002 C 
HETATM    7  C5  UNL     1     -34.570  13.744  -4.145  1.00 20.00     0.011 C 
BRANCH   4   8
HETATM    8  C8  UNL     1     -35.078  15.654  -2.468  1.00 20.00     0.095 C 
HETATM    9 BR9  UNL     1     -33.952  16.969  -1.597  1.00 20.00    -0.096 Br
ENDBRANCH   4   8
ENDBRANCH   3   4
TORSDOF 2
ENDMDL
MODEL 9
REMARK VINA RESULT:      -3.8      1.970      2.496
REMARK  2 active torsions:
REMARK  status: ('A' for Active; 'I' for Inactive)
REMARK    1  A    between atoms: C6_6  and  C7_7 
REMARK    2  A    between atoms: C6_6  and  C8_8 
ROOT
HETATM    1  C1  UNL     1     -34.416  16.633  -1.407  1.00 20.00     0.012 C 
HETATM    2  C2  UNL     1     -34.413  15.799  -2.271  1.00 20.00    -0.117 C 
HETATM    3  C7  UNL     1     -34.406  14.774  -3.319  1.00 20.00     0.103 C 
ENDROOT
BRANCH   3   4
HETATM    4  C6  UNL     1     -34.856  15.353  -4.656  1.00 20.00    -0.021 C 
HETATM    5  C4  UNL     1     -34.803  14.339  -5.836  1.00 20.00     0.011 C 
HETATM    6  C3  UNL     1     -34.187  15.453  -6.705  1.00 20.00     0.002 C 
HETATM    7  C5  UNL     1     -33.752  16.155  -5.404  1.00 20.00     0.011 C 
BRANCH   4   8
HETATM    8  C8  UNL     1     -36.189  16.093  -4.526  1.00 20.00     0.095 C 
HETATM    9 BR9  UNL     1     -37.586  14.828  -4.076  1.00 20.00    -0.096 Br
ENDBRANCH   4   8
ENDBRANCH   3   4
TORSDOF 2
ENDMDL
