MODEL 1
REMARK VINA RESULT:      -4.9      0.000      0.000
REMARK  0 active torsions:
REMARK  status: ('A' for Active; 'I' for Inactive)
ROOT
HETATM    1  C1  UNL     1     -34.399  13.796  -4.650  1.00 20.00     0.217 C 
HETATM    2  C2  UNL     1     -34.667  14.371  -3.275  1.00 20.00     0.108 C 
HETATM    3  C3  UNL     1     -33.729  16.076  -5.459  1.00 20.00     0.131 C 
HETATM    4  C4  UNL     1     -34.080  15.764  -3.019  1.00 20.00    -0.001 C 
HETATM    5  C5  UNL     1     -34.359  16.722  -4.212  1.00 20.00    -0.028 C 
HETATM    6  C6  UNL     1     -34.570  16.278  -1.661  1.00 20.00     0.011 C 
HETATM    7  C7  UNL     1     -33.683  18.090  -3.993  1.00 20.00     0.016 C 
HETATM    8  C8  UNL     1     -35.861  16.967  -4.454  1.00 20.00     0.016 C 
HETATM    9  N9  UNL     1     -34.090  14.685  -5.650  1.00 20.00    -0.360 N 
HETATM   10  O10 UNL     1     -34.533  12.588  -4.859  1.00 20.00    -0.274 OA
HETATM   11  H25 UNL     1     -34.117  14.338  -6.604  1.00 20.00     0.162 HD
ENDROOT
TORSDOF 0
ENDMDL
MODEL 2
REMARK VINA RESULT:      -4.8      1.877      2.478
REMARK  0 active torsions:
REMARK  status: ('A' for Active; 'I' for Inactive)
ROOT
HETATM    1  C1  UNL     1     -36.612  14.420  -3.783  1.00 20.00     0.217 C 
HETATM    2  C2  UNL     1     -36.007  15.580  -3.021  1.00 20.00     0.108 C 
HETATM    3  C3  UNL     1     -34.306  13.602  -4.346  1.00 20.00     0.131 C 
HETATM    4  C4  UNL     1     -34.516  15.443  -2.690  1.00 20.00    -0.001 C 
HETATM    5  C5  UNL     1     -33.706  14.956  -3.923  1.00 20.00    -0.028 C 
HETATM    6  C6  UNL     1     -34.012  16.753  -2.072  1.00 20.00     0.011 C 
HETATM    7  C7  UNL     1     -32.226  14.725  -3.558  1.00 20.00     0.016 C 
HETATM    8  C8  UNL     1     -33.756  15.940  -5.108  1.00 20.00     0.016 C 
HETATM    9  N9  UNL     1     -35.750  13.614  -4.485  1.00 20.00    -0.360 N 
HETATM   10  O10 UNL     1     -37.835  14.268  -3.821  1.00 20.00    -0.274 OA
HETATM   11  H25 UNL     1     -36.157  12.973  -5.159  1.00 20.00     0.162 HD
ENDROOT
TORSDOF 0
ENDMDL
MODEL 3
REMARK VINA RESULT:      -4.5      1.237      1.610
REMARK  0 active torsions:
REMARK  status: ('A' for Active; 'I' for Inactive)
ROOT
HETATM    1  C1  UNL     1     -34.626  13.550  -4.357  1.00 20.00     0.217 C 
HETATM    2  C2  UNL     1     -35.775  14.488  -4.052  1.00 20.00     0.108 C 
HETATM    3  C3  UNL     1     -33.020  15.227  -3.402  1.00 20.00     0.131 C 
HETATM    4  C4  UNL     1     -35.450  15.631  -3.083  1.00 20.00    -0.001 C 
HETATM    5  C5  UNL     1     -34.105  16.318  -3.450  1.00 20.00    -0.028 C 
HETATM    6  C6  UNL     1     -36.651  16.582  -3.003  1.00 20.00     0.011 C 
HETATM    7  C7  UNL     1     -33.736  17.400  -2.416  1.00 20.00     0.016 C 
HETATM    8  C8  UNL     1     -34.121  16.976  -4.843  1.00 20.00     0.016 C 
HETATM    9  N9  UNL     1     -33.355  14.027  -4.144  1.00 20.00    -0.360 N 
HETATM   10  O10 UNL     1     -34.839  12.440  -4.849  1.00 20.00    -0.274 OA
HETATM   11  H25 UNL     1     -32.586  13.494  -4.539  1.00 20.00     0.162 HD
ENDROOT
TORSDOF 0
ENDMDL
MODEL 4
REMARK VINA RESULT:      -4.5      2.165      2.843
REMARK  0 active torsions:
REMARK  status: ('A' for Active; 'I' for Inactive)
ROOT
HETATM    1  C1  UNL     1     -36.879  15.001  -3.504  1.00 20.00     0.217 C 
HETATM    2  C2  UNL     1     -35.423  14.601  -3.613  1.00 20.00     0.108 C 
HETATM    3  C3  UNL     1     -36.181  17.347  -2.947  1.00 20.00     0.131 C 
HETATM    4  C4  UNL     1     -34.428  15.764  -3.719  1.00 20.00    -0.001 C 
HETATM    5  C5  UNL     1     -34.743  16.872  -2.675  1.00 20.00    -0.028 C 
HETATM    6  C6  UNL     1     -32.998  15.215  -3.655  1.00 20.00     0.011 C 
HETATM    7  C7  UNL     1     -33.802  18.081  -2.850  1.00 20.00     0.016 C 
HETATM    8  C8  UNL     1     -34.622  16.383  -1.218  1.00 20.00     0.016 C 
HETATM    9  N9  UNL     1     -37.147  16.271  -3.058  1.00 20.00    -0.360 N 
HETATM   10  O10 UNL     1     -37.770  14.181  -3.735  1.00 20.00    -0.274 OA
HETATM   11  H25 UNL     1     -38.103  16.475  -2.783  1.00 20.00     0.162 HD
ENDROOT
TORSDOF 0
ENDMDL
MODEL 5
REMARK VINA RESULT:      -4.5      2.369      3.324
REMARK  0 active torsions:
REMARK  status: ('A' for Active; 'I' for Inactive)
ROOT
HETATM    1  C1  UNL     1     -37.176  14.697  -3.894  1.00 20.00     0.217 C 
HETATM    2  C2  UNL     1     -36.474  14.453  -5.213  1.00 20.00     0.108 C 
HETATM    3  C3  UNL     1     -35.168  15.961  -3.073  1.00 20.00     0.131 C 
HETATM    4  C4  UNL     1     -35.244  15.329  -5.475  1.00 20.00    -0.001 C 
HETATM    5  C5  UNL     1     -34.320  15.394  -4.227  1.00 20.00    -0.028 C 
HETATM    6  C6  UNL     1     -34.550  14.857  -6.758  1.00 20.00     0.011 C 
HETATM    7  C7  UNL     1     -33.137  16.354  -4.463  1.00 20.00     0.016 C 
HETATM    8  C8  UNL     1     -33.746  14.021  -3.826  1.00 20.00     0.016 C 
HETATM    9  N9  UNL     1     -36.445  15.297  -2.898  1.00 20.00    -0.360 N 
HETATM   10  O10 UNL     1     -38.329  14.299  -3.717  1.00 20.00    -0.274 OA
HETATM   11  H25 UNL     1     -36.831  15.273  -1.959  1.00 20.00     0.162 HD
ENDROOT
TORSDOF 0
ENDMDL
MODEL 6
REMARK VINA RESULT:      -4.5      1.617      2.064
REMARK  0 active torsions:
REMARK  status: ('A' for Active; 'I' for Inactive)
ROOT
HETATM    1  C1  UNL     1     -33.341  13.830  -3.795  1.00 20.00     0.217 C 
HETATM    2  C2  UNL     1     -34.848  13.687  -3.845  1.00 20.00     0.108 C 
HETATM    3  C3  UNL     1     -33.575  16.296  -4.206  1.00 20.00     0.131 C 
HETATM    4  C4  UNL     1     -35.638  14.996  -3.726  1.00 20.00    -0.001 C 
HETATM    5  C5  UNL     1     -35.039  16.101  -4.640  1.00 20.00    -0.028 C 
HETATM    6  C6  UNL     1     -37.126  14.712  -3.959  1.00 20.00     0.011 C 
HETATM    7  C7  UNL     1     -35.776  17.441  -4.443  1.00 20.00     0.016 C 
HETATM    8  C8  UNL     1     -35.095  15.744  -6.139  1.00 20.00     0.016 C 
HETATM    9  N9  UNL     1     -32.820  15.062  -4.105  1.00 20.00    -0.360 N 
HETATM   10  O10 UNL     1     -32.628  12.853  -3.559  1.00 20.00    -0.274 OA
HETATM   11  H25 UNL     1     -31.821  15.114  -4.279  1.00 20.00     0.162 HD
ENDROOT
TORSDOF 0
ENDMDL
MODEL 7
REMARK VINA RESULT:      -4.3      2.303      3.330
REMARK  0 active torsions:
REMARK  status: ('A' for Active; 'I' for Inactive)
ROOT
HETATM    1  C1  UNL     1     -34.619  15.951  -2.283  1.00 20.00     0.217 C 
HETATM    2  C2  UNL     1     -35.886  15.581  -3.025  1.00 20.00     0.108 C 
HETATM    3  C3  UNL     1     -33.315  15.709  -4.415  1.00 20.00     0.131 C 
HETATM    4  C4  UNL     1     -35.795  15.645  -4.554  1.00 20.00    -0.001 C 
HETATM    5  C5  UNL     1     -34.495  14.969  -5.071  1.00 20.00    -0.028 C 
HETATM    6  C6  UNL     1     -37.088  15.088  -5.162  1.00 20.00     0.011 C 
HETATM    7  C7  UNL     1     -34.360  15.122  -6.599  1.00 20.00     0.016 C 
HETATM    8  C8  UNL     1     -34.418  13.466  -4.735  1.00 20.00     0.016 C 
HETATM    9  N9  UNL     1     -33.438  15.858  -2.977  1.00 20.00    -0.360 N 
HETATM   10  O10 UNL     1     -34.659  16.245  -1.087  1.00 20.00    -0.274 OA
HETATM   11  H25 UNL     1     -32.578  15.898  -2.439  1.00 20.00     0.162 HD
ENDROOT
TORSDOF 0
ENDMDL
MODEL 8
REMARK VINA RESULT:      -4.2      1.479      2.732
REMARK  0 active torsions:
REMARK  status: ('A' for Active; 'I' for Inactive)
ROOT
HETATM    1  C1  UNL     1     -34.991  14.499  -6.325  1.00 20.00     0.217 C 
HETATM    2  C2  UNL     1     -34.320  15.840  -6.118  1.00 20.00     0.108 C 
HETATM    3  C3  UNL     1     -35.197  14.232  -3.837  1.00 20.00     0.131 C 
HETATM    4  C4  UNL     1     -34.466  16.439  -4.714  1.00 20.00    -0.001 C 
HETATM    5  C5  UNL     1     -34.190  15.376  -3.615  1.00 20.00    -0.028 C 
HETATM    6  C6  UNL     1     -33.604  17.703  -4.610  1.00 20.00     0.011 C 
HETATM    7  C7  UNL     1     -34.435  15.957  -2.208  1.00 20.00     0.016 C 
HETATM    8  C8  UNL     1     -32.753  14.820  -3.657  1.00 20.00     0.016 C 
HETATM    9  N9  UNL     1     -35.250  13.750  -5.203  1.00 20.00    -0.360 N 
HETATM   10  O10 UNL     1     -35.215  14.082  -7.463  1.00 20.00    -0.274 OA
HETATM   11  H25 UNL     1     -35.500  12.775  -5.343  1.00 20.00     0.162 HD
ENDROOT
TORSDOF 0
ENDMDL
MODEL 9
REMARK VINA RESULT:      -4.2      1.401      2.350
REMARK  0 active torsions:
REMARK  status: ('A' for Active; 'I' for Inactive)
ROOT
HETATM    1  C1  UNL     1     -35.029  13.670  -4.558  1.00 20.00     0.217 C 
HETATM    2  C2  UNL     1     -34.034  14.792  -4.769  1.00 20.00     0.108 C 
HETATM    3  C3  UNL     1     -36.634  15.304  -3.528  1.00 20.00     0.131 C 
HETATM    4  C4  UNL     1     -34.605  16.210  -4.640  1.00 20.00    -0.001 C 
HETATM    5  C5  UNL     1     -35.507  16.342  -3.381  1.00 20.00    -0.028 C 
HETATM    6  C6  UNL     1     -33.458  17.225  -4.713  1.00 20.00     0.011 C 
HETATM    7  C7  UNL     1     -36.156  17.739  -3.310  1.00 20.00     0.016 C 
HETATM    8  C8  UNL     1     -34.746  16.103  -2.062  1.00 20.00     0.016 C 
HETATM    9  N9  UNL     1     -36.168  13.969  -3.850  1.00 20.00    -0.360 N 
HETATM   10  O10 UNL     1     -34.774  12.528  -4.946  1.00 20.00    -0.274 OA
HETATM   11  H25 UNL     1     -36.731  13.189  -3.525  1.00 20.00     0.162 HD
ENDROOT
TORSDOF 0
ENDMDL
