MODEL 1
REMARK VINA RESULT:      -4.6      0.000      0.000
REMARK  0 active torsions:
REMARK  status: ('A' for Active; 'I' for Inactive)
ROOT
HETATM    1  C1  UNL     1     -34.235  14.585  -3.436  1.00 20.00     0.105 C 
HETATM    2  C2  UNL     1     -34.680  15.692  -2.814  1.00 20.00     0.056 C 
HETATM    3  C3  UNL     1     -35.189  13.771  -4.230  1.00 20.00     0.196 C 
HETATM    4  C4  UNL     1     -36.878  15.504  -3.513  1.00 20.00     0.035 C 
HETATM    5  C5  UNL     1     -36.576  14.320  -4.388  1.00 20.00     0.205 C 
HETATM    6  C6  UNL     1     -33.788  16.596  -1.997  1.00 20.00     0.072 C 
HETATM    7  C7  UNL     1     -38.303  16.004  -3.453  1.00 20.00     0.068 C 
HETATM    8  N8  UNL     1     -35.986  16.132  -2.814  1.00 20.00    -0.259 NA
HETATM    9  O9  UNL     1     -34.851  12.715  -4.760  1.00 20.00    -0.289 OA
HETATM   10 CL10 UNL     1     -32.606  14.027  -3.399  1.00 20.00    -0.078 Cl
HETATM   11 CL11 UNL     1     -36.745  14.827  -6.081  1.00 20.00    -0.110 Cl
ENDROOT
TORSDOF 0
ENDMDL
MODEL 2
REMARK VINA RESULT:      -4.4      2.871      3.420
REMARK  0 active torsions:
REMARK  status: ('A' for Active; 'I' for Inactive)
ROOT
HETATM    1  C1  UNL     1     -33.899  17.390  -3.324  1.00 20.00     0.105 C 
HETATM    2  C2  UNL     1     -34.281  16.371  -2.531  1.00 20.00     0.056 C 
HETATM    3  C3  UNL     1     -33.664  17.130  -4.767  1.00 20.00     0.196 C 
HETATM    4  C4  UNL     1     -34.295  14.756  -4.188  1.00 20.00     0.035 C 
HETATM    5  C5  UNL     1     -33.997  15.757  -5.270  1.00 20.00     0.205 C 
HETATM    6  C6  UNL     1     -34.561  16.534  -1.057  1.00 20.00     0.072 C 
HETATM    7  C7  UNL     1     -34.446  13.305  -4.580  1.00 20.00     0.068 C 
HETATM    8  N8  UNL     1     -34.442  15.064  -2.939  1.00 20.00    -0.259 NA
HETATM    9  O9  UNL     1     -33.247  18.008  -5.520  1.00 20.00    -0.289 OA
HETATM   10 CL10 UNL     1     -33.668  19.012  -2.795  1.00 20.00    -0.078 Cl
HETATM   11 CL11 UNL     1     -35.441  15.914  -6.291  1.00 20.00    -0.110 Cl
ENDROOT
TORSDOF 0
ENDMDL
MODEL 3
REMARK VINA RESULT:      -4.2      2.436      4.091
REMARK  0 active torsions:
REMARK  status: ('A' for Active; 'I' for Inactive)
ROOT
HETATM    1  C1  UNL     1     -36.446  15.095  -5.673  1.00 20.00     0.105 C 
HETATM    2  C2  UNL     1     -35.255  15.417  -6.212  1.00 20.00     0.056 C 
HETATM    3  C3  UNL     1     -36.494  14.603  -4.273  1.00 20.00     0.196 C 
HETATM    4  C4  UNL     1     -33.990  14.907  -4.342  1.00 20.00     0.035 C 
HETATM    5  C5  UNL     1     -35.205  14.621  -3.506  1.00 20.00     0.205 C 
HETATM    6  C6  UNL     1     -35.100  15.941  -7.619  1.00 20.00     0.072 C 
HETATM    7  C7  UNL     1     -32.630  14.752  -3.703  1.00 20.00     0.068 C 
HETATM    8  N8  UNL     1     -34.037  15.292  -5.578  1.00 20.00    -0.259 NA
HETATM    9  O9  UNL     1     -37.546  14.231  -3.756  1.00 20.00    -0.289 OA
HETATM   10 CL10 UNL     1     -37.958  15.223  -6.487  1.00 20.00    -0.078 Cl
HETATM   11 CL11 UNL     1     -35.347  15.899  -2.281  1.00 20.00    -0.110 Cl
ENDROOT
TORSDOF 0
ENDMDL
MODEL 4
REMARK VINA RESULT:      -4.2      1.612      3.603
REMARK  0 active torsions:
REMARK  status: ('A' for Active; 'I' for Inactive)
ROOT
HETATM    1  C1  UNL     1     -35.840  15.330  -5.286  1.00 20.00     0.105 C 
HETATM    2  C2  UNL     1     -36.552  15.238  -4.147  1.00 20.00     0.056 C 
HETATM    3  C3  UNL     1     -34.443  15.830  -5.223  1.00 20.00     0.196 C 
HETATM    4  C4  UNL     1     -34.884  16.020  -2.746  1.00 20.00     0.035 C 
HETATM    5  C5  UNL     1     -33.875  16.079  -3.858  1.00 20.00     0.205 C 
HETATM    6  C6  UNL     1     -37.972  14.727  -4.100  1.00 20.00     0.072 C 
HETATM    7  C7  UNL     1     -34.451  16.451  -1.364  1.00 20.00     0.068 C 
HETATM    8  N8  UNL     1     -36.103  15.610  -2.898  1.00 20.00    -0.259 NA
HETATM    9  O9  UNL     1     -33.773  15.999  -6.241  1.00 20.00    -0.289 OA
HETATM   10 CL10 UNL     1     -36.423  14.894  -6.846  1.00 20.00    -0.078 Cl
HETATM   11 CL11 UNL     1     -32.656  14.822  -3.565  1.00 20.00    -0.110 Cl
ENDROOT
TORSDOF 0
ENDMDL
MODEL 5
REMARK VINA RESULT:      -4.1      1.647      1.647
REMARK  0 active torsions:
REMARK  status: ('A' for Active; 'I' for Inactive)
ROOT
HETATM    1  C1  UNL     1     -34.023  14.876  -4.223  1.00 20.00     0.105 C 
HETATM    2  C2  UNL     1     -34.408  16.166  -4.200  1.00 20.00     0.056 C 
HETATM    3  C3  UNL     1     -34.832  13.896  -4.991  1.00 20.00     0.196 C 
HETATM    4  C4  UNL     1     -36.281  15.891  -5.532  1.00 20.00     0.035 C 
HETATM    5  C5  UNL     1     -35.968  14.446  -5.802  1.00 20.00     0.205 C 
HETATM    6  C6  UNL     1     -33.647  17.242  -3.464  1.00 20.00     0.072 C 
HETATM    7  C7  UNL     1     -37.528  16.479  -6.149  1.00 20.00     0.068 C 
HETATM    8  N8  UNL     1     -35.538  16.668  -4.809  1.00 20.00    -0.259 NA
HETATM    9  O9  UNL     1     -34.564  12.696  -4.988  1.00 20.00    -0.289 OA
HETATM   10 CL10 UNL     1     -32.627  14.255  -3.429  1.00 20.00    -0.078 Cl
HETATM   11 CL11 UNL     1     -35.509  14.290  -7.510  1.00 20.00    -0.110 Cl
ENDROOT
TORSDOF 0
ENDMDL
MODEL 6
REMARK VINA RESULT:      -4.1      2.703      3.655
REMARK  0 active torsions:
REMARK  status: ('A' for Active; 'I' for Inactive)
ROOT
HETATM    1  C1  UNL     1     -34.542  15.522  -5.067  1.00 20.00     0.105 C 
HETATM    2  C2  UNL     1     -34.200  14.772  -4.002  1.00 20.00     0.056 C 
HETATM    3  C3  UNL     1     -35.012  16.913  -4.847  1.00 20.00     0.196 C 
HETATM    4  C4  UNL     1     -34.647  16.388  -2.406  1.00 20.00     0.035 C 
HETATM    5  C5  UNL     1     -34.950  17.434  -3.442  1.00 20.00     0.205 C 
HETATM    6  C6  UNL     1     -33.696  13.354  -4.118  1.00 20.00     0.072 C 
HETATM    7  C7  UNL     1     -34.759  16.772  -0.949  1.00 20.00     0.068 C 
HETATM    8  N8  UNL     1     -34.285  15.176  -2.687  1.00 20.00    -0.259 NA
HETATM    9  O9  UNL     1     -35.401  17.616  -5.778  1.00 20.00    -0.289 OA
HETATM   10 CL10 UNL     1     -34.465  14.993  -6.704  1.00 20.00    -0.078 Cl
HETATM   11 CL11 UNL     1     -33.655  18.649  -3.395  1.00 20.00    -0.110 Cl
ENDROOT
TORSDOF 0
ENDMDL
MODEL 7
REMARK VINA RESULT:      -4.0      2.684      3.290
REMARK  0 active torsions:
REMARK  status: ('A' for Active; 'I' for Inactive)
ROOT
HETATM    1  C1  UNL     1     -34.987  15.513  -3.689  1.00 20.00     0.105 C 
HETATM    2  C2  UNL     1     -34.359  14.525  -4.354  1.00 20.00     0.056 C 
HETATM    3  C3  UNL     1     -35.997  16.334  -4.404  1.00 20.00     0.196 C 
HETATM    4  C4  UNL     1     -35.435  14.862  -6.375  1.00 20.00     0.035 C 
HETATM    5  C5  UNL     1     -36.342  15.915  -5.802  1.00 20.00     0.205 C 
HETATM    6  C6  UNL     1     -33.330  13.624  -3.715  1.00 20.00     0.072 C 
HETATM    7  C7  UNL     1     -35.575  14.517  -7.840  1.00 20.00     0.068 C 
HETATM    8  N8  UNL     1     -34.545  14.222  -5.686  1.00 20.00    -0.259 NA
HETATM    9  O9  UNL     1     -36.549  17.291  -3.865  1.00 20.00    -0.289 OA
HETATM   10 CL10 UNL     1     -34.722  15.905  -2.033  1.00 20.00    -0.078 Cl
HETATM   11 CL11 UNL     1     -37.991  15.258  -5.756  1.00 20.00    -0.110 Cl
ENDROOT
TORSDOF 0
ENDMDL
MODEL 8
REMARK VINA RESULT:      -4.0      3.449      4.233
REMARK  0 active torsions:
REMARK  status: ('A' for Active; 'I' for Inactive)
ROOT
HETATM    1  C1  UNL     1     -34.226  14.809  -5.352  1.00 20.00     0.105 C 
HETATM    2  C2  UNL     1     -34.685  15.302  -6.517  1.00 20.00     0.056 C 
HETATM    3  C3  UNL     1     -33.524  15.719  -4.411  1.00 20.00     0.196 C 
HETATM    4  C4  UNL     1     -33.959  17.473  -6.173  1.00 20.00     0.035 C 
HETATM    5  C5  UNL     1     -33.488  17.173  -4.778  1.00 20.00     0.205 C 
HETATM    6  C6  UNL     1     -35.425  14.466  -7.533  1.00 20.00     0.072 C 
HETATM    7  C7  UNL     1     -33.775  18.875  -6.703  1.00 20.00     0.068 C 
HETATM    8  N8  UNL     1     -34.525  16.602  -6.947  1.00 20.00    -0.259 NA
HETATM    9  O9  UNL     1     -33.025  15.306  -3.366  1.00 20.00    -0.289 OA
HETATM   10 CL10 UNL     1     -34.401  13.174  -4.841  1.00 20.00    -0.078 Cl
HETATM   11 CL11 UNL     1     -34.555  18.022  -3.640  1.00 20.00    -0.110 Cl
ENDROOT
TORSDOF 0
ENDMDL
MODEL 9
REMARK VINA RESULT:      -4.0      2.902      3.679
REMARK  0 active torsions:
REMARK  status: ('A' for Active; 'I' for Inactive)
ROOT
HETATM    1  C1  UNL     1     -33.971  17.329  -3.571  1.00 20.00     0.105 C 
HETATM    2  C2  UNL     1     -33.943  17.460  -4.910  1.00 20.00     0.056 C 
HETATM    3  C3  UNL     1     -34.367  16.025  -2.982  1.00 20.00     0.196 C 
HETATM    4  C4  UNL     1     -34.615  15.297  -5.386  1.00 20.00     0.035 C 
HETATM    5  C5  UNL     1     -34.588  14.891  -3.939  1.00 20.00     0.205 C 
HETATM    6  C6  UNL     1     -33.539  18.737  -5.607  1.00 20.00     0.072 C 
HETATM    7  C7  UNL     1     -35.027  14.265  -6.410  1.00 20.00     0.068 C 
HETATM    8  N8  UNL     1     -34.294  16.478  -5.811  1.00 20.00    -0.259 NA
HETATM    9  O9  UNL     1     -34.475  15.873  -1.767  1.00 20.00    -0.289 OA
HETATM   10 CL10 UNL     1     -33.562  18.575  -2.454  1.00 20.00    -0.078 Cl
HETATM   11 CL11 UNL     1     -33.247  13.750  -3.710  1.00 20.00    -0.110 Cl
ENDROOT
TORSDOF 0
ENDMDL
