MODEL 1
REMARK VINA RESULT:      -2.7      0.000      0.000
REMARK  0 active torsions:
REMARK  status: ('A' for Active; 'I' for Inactive)
ROOT
HETATM    1  C1  UNL     1     -34.386   5.591   4.675  1.00 20.00     0.227 C 
HETATM    2 CL2  UNL     1     -35.892   5.898   3.789  1.00 20.00    -0.076 Cl
HETATM    3 CL3  UNL     1     -34.259   6.684   6.068  1.00 20.00    -0.076 Cl
HETATM    4 BR4  UNL     1     -34.402   3.751   5.322  1.00 20.00    -0.037 Br
HETATM    5 BR5  UNL     1     -32.878   5.916   3.483  1.00 20.00    -0.037 Br
ENDROOT
TORSDOF 0
ENDMDL
MODEL 2
REMARK VINA RESULT:      -2.7      0.001      2.748
REMARK  0 active torsions:
REMARK  status: ('A' for Active; 'I' for Inactive)
ROOT
HETATM    1  C1  UNL     1     -34.386   5.591   4.676  1.00 20.00     0.227 C 
HETATM    2 CL2  UNL     1     -34.259   6.684   6.067  1.00 20.00    -0.076 Cl
HETATM    3 CL3  UNL     1     -35.891   5.898   3.788  1.00 20.00    -0.076 Cl
HETATM    4 BR4  UNL     1     -32.877   5.916   3.482  1.00 20.00    -0.037 Br
HETATM    5 BR5  UNL     1     -34.402   3.751   5.321  1.00 20.00    -0.037 Br
ENDROOT
TORSDOF 0
ENDMDL
MODEL 3
REMARK VINA RESULT:      -2.7      1.826      2.445
REMARK  0 active torsions:
REMARK  status: ('A' for Active; 'I' for Inactive)
ROOT
HETATM    1  C1  UNL     1     -34.452   5.363   4.580  1.00 20.00     0.227 C 
HETATM    2 CL2  UNL     1     -35.975   5.849   3.812  1.00 20.00    -0.076 Cl
HETATM    3 CL3  UNL     1     -34.489   3.634   4.979  1.00 20.00    -0.076 Cl
HETATM    4 BR4  UNL     1     -32.988   5.686   3.332  1.00 20.00    -0.037 Br
HETATM    5 BR5  UNL     1     -34.225   6.383   6.226  1.00 20.00    -0.037 Br
ENDROOT
TORSDOF 0
ENDMDL
MODEL 4
REMARK VINA RESULT:      -2.7      1.834      2.251
REMARK  0 active torsions:
REMARK  status: ('A' for Active; 'I' for Inactive)
ROOT
HETATM    1  C1  UNL     1     -34.457   5.361   4.580  1.00 20.00     0.227 C 
HETATM    2 CL2  UNL     1     -34.492   3.639   5.003  1.00 20.00    -0.076 Cl
HETATM    3 CL3  UNL     1     -35.985   5.838   3.814  1.00 20.00    -0.076 Cl
HETATM    4 BR4  UNL     1     -34.223   6.403   6.213  1.00 20.00    -0.037 Br
HETATM    5 BR5  UNL     1     -33.001   5.669   3.321  1.00 20.00    -0.037 Br
ENDROOT
TORSDOF 0
ENDMDL
MODEL 5
REMARK VINA RESULT:      -2.6     12.344     12.866
REMARK  0 active torsions:
REMARK  status: ('A' for Active; 'I' for Inactive)
ROOT
HETATM    1  C1  UNL     1     -33.908  15.028  -3.803  1.00 20.00     0.227 C 
HETATM    2 CL2  UNL     1     -34.609  15.748  -2.341  1.00 20.00    -0.076 Cl
HETATM    3 CL3  UNL     1     -32.255  14.469  -3.481  1.00 20.00    -0.076 Cl
HETATM    4 BR4  UNL     1     -34.996  13.497  -4.331  1.00 20.00    -0.037 Br
HETATM    5 BR5  UNL     1     -33.851  16.382  -5.205  1.00 20.00    -0.037 Br
ENDROOT
TORSDOF 0
ENDMDL
MODEL 6
REMARK VINA RESULT:      -2.6     12.340     13.019
REMARK  0 active torsions:
REMARK  status: ('A' for Active; 'I' for Inactive)
ROOT
HETATM    1  C1  UNL     1     -33.914  15.030  -3.801  1.00 20.00     0.227 C 
HETATM    2 CL2  UNL     1     -32.256  14.480  -3.488  1.00 20.00    -0.076 Cl
HETATM    3 CL3  UNL     1     -34.612  15.745  -2.335  1.00 20.00    -0.076 Cl
HETATM    4 BR4  UNL     1     -33.870  16.388  -5.202  1.00 20.00    -0.037 Br
HETATM    5 BR5  UNL     1     -34.995  13.495  -4.328  1.00 20.00    -0.037 Br
ENDROOT
TORSDOF 0
ENDMDL
MODEL 7
REMARK VINA RESULT:      -2.6      9.331      9.668
REMARK  0 active torsions:
REMARK  status: ('A' for Active; 'I' for Inactive)
ROOT
HETATM    1  C1  UNL     1     -41.784   5.710  -1.012  1.00 20.00     0.227 C 
HETATM    2 CL2  UNL     1     -41.014   7.299  -0.839  1.00 20.00    -0.076 Cl
HETATM    3 CL3  UNL     1     -40.551   4.438  -1.116  1.00 20.00    -0.076 Cl
HETATM    4 BR4  UNL     1     -42.896   5.378   0.557  1.00 20.00    -0.037 Br
HETATM    5 BR5  UNL     1     -42.839   5.698  -2.651  1.00 20.00    -0.037 Br
ENDROOT
TORSDOF 0
ENDMDL
MODEL 8
REMARK VINA RESULT:      -2.6     12.431     13.032
REMARK  0 active torsions:
REMARK  status: ('A' for Active; 'I' for Inactive)
ROOT
HETATM    1  C1  UNL     1     -33.949  15.051  -3.888  1.00 20.00     0.227 C 
HETATM    2 CL2  UNL     1     -32.289  14.539  -3.528  1.00 20.00    -0.076 Cl
HETATM    3 CL3  UNL     1     -33.964  16.157  -5.276  1.00 20.00    -0.076 Cl
HETATM    4 BR4  UNL     1     -35.010  13.475  -4.330  1.00 20.00    -0.037 Br
HETATM    5 BR5  UNL     1     -34.669  15.984  -2.334  1.00 20.00    -0.037 Br
ENDROOT
TORSDOF 0
ENDMDL
MODEL 9
REMARK VINA RESULT:      -2.6      9.333      9.763
REMARK  0 active torsions:
REMARK  status: ('A' for Active; 'I' for Inactive)
ROOT
HETATM    1  C1  UNL     1     -41.786   5.708  -1.012  1.00 20.00     0.227 C 
HETATM    2 CL2  UNL     1     -40.550   4.439  -1.113  1.00 20.00    -0.076 Cl
HETATM    3 CL3  UNL     1     -41.020   7.300  -0.847  1.00 20.00    -0.076 Cl
HETATM    4 BR4  UNL     1     -42.842   5.687  -2.652  1.00 20.00    -0.037 Br
HETATM    5 BR5  UNL     1     -42.896   5.379   0.557  1.00 20.00    -0.037 Br
ENDROOT
TORSDOF 0
ENDMDL
