MODEL 1
REMARK VINA RESULT:      -4.4      0.000      0.000
REMARK  2 active torsions:
REMARK  status: ('A' for Active; 'I' for Inactive)
REMARK    1  A    between atoms: C2_2  and  O6_6 
REMARK    2  A    between atoms: C5_5  and  O6_6 
ROOT
HETATM    1  C1  UNL     1     -34.110   6.437   5.307  1.00 20.00     0.099 A 
HETATM    2  C2  UNL     1     -33.344   5.720   4.233  1.00 20.00     0.181 A 
HETATM    3  C3  UNL     1     -34.748   5.296   4.566  1.00 20.00     0.207 A 
HETATM    4  F7  UNL     1     -35.734   5.643   3.650  1.00 20.00    -0.223 F 
HETATM    5 CL8  UNL     1     -34.991   3.777   5.406  1.00 20.00    -0.080 Cl
ENDROOT
BRANCH   2   6
HETATM    6  O6  UNL     1     -33.175   6.435   2.997  1.00 20.00    -0.382 OA
BRANCH   6   7
HETATM    7  C5  UNL     1     -32.020   7.254   3.041  1.00 20.00     0.164 C 
HETATM    8  C4  UNL     1     -32.126   8.311   1.963  1.00 20.00     0.033 C 
ENDBRANCH   6   7
ENDBRANCH   2   6
TORSDOF 2
ENDMDL
MODEL 2
REMARK VINA RESULT:      -4.2      2.867      3.997
REMARK  2 active torsions:
REMARK  status: ('A' for Active; 'I' for Inactive)
REMARK    1  A    between atoms: C2_2  and  O6_6 
REMARK    2  A    between atoms: C5_5  and  O6_6 
ROOT
HETATM    1  C1  UNL     1     -32.929   6.830   4.556  1.00 20.00     0.099 A 
HETATM    2  C2  UNL     1     -33.985   6.480   3.547  1.00 20.00     0.181 A 
HETATM    3  C3  UNL     1     -32.558   6.669   3.109  1.00 20.00     0.207 A 
HETATM    4  F7  UNL     1     -31.851   5.516   2.789  1.00 20.00    -0.223 F 
HETATM    5 CL8  UNL     1     -32.144   8.098   2.181  1.00 20.00    -0.080 Cl
ENDROOT
BRANCH   2   6
HETATM    6  O6  UNL     1     -34.463   5.125   3.580  1.00 20.00    -0.382 OA
BRANCH   6   7
HETATM    7  C5  UNL     1     -35.452   4.963   4.580  1.00 20.00     0.164 C 
HETATM    8  C4  UNL     1     -34.894   4.096   5.688  1.00 20.00     0.033 C 
ENDBRANCH   6   7
ENDBRANCH   2   6
TORSDOF 2
ENDMDL
MODEL 3
REMARK VINA RESULT:      -4.1      1.278      1.468
REMARK  2 active torsions:
REMARK  status: ('A' for Active; 'I' for Inactive)
REMARK    1  A    between atoms: C2_2  and  O6_6 
REMARK    2  A    between atoms: C5_5  and  O6_6 
ROOT
HETATM    1  C1  UNL     1     -35.769   5.719   3.869  1.00 20.00     0.099 A 
HETATM    2  C2  UNL     1     -34.299   5.926   4.094  1.00 20.00     0.181 A 
HETATM    3  C3  UNL     1     -35.000   4.753   4.723  1.00 20.00     0.207 A 
HETATM    4  F7  UNL     1     -34.751   3.508   4.157  1.00 20.00    -0.223 F 
HETATM    5 CL8  UNL     1     -35.266   4.762   6.456  1.00 20.00    -0.080 Cl
ENDROOT
BRANCH   2   6
HETATM    6  O6  UNL     1     -33.444   5.629   2.978  1.00 20.00    -0.382 OA
BRANCH   6   7
HETATM    7  C5  UNL     1     -32.173   6.232   3.141  1.00 20.00     0.164 C 
HETATM    8  C4  UNL     1     -32.211   7.626   2.552  1.00 20.00     0.033 C 
ENDBRANCH   6   7
ENDBRANCH   2   6
TORSDOF 2
ENDMDL
MODEL 4
REMARK VINA RESULT:      -3.6      1.842      2.305
REMARK  2 active torsions:
REMARK  status: ('A' for Active; 'I' for Inactive)
REMARK    1  A    between atoms: C2_2  and  O6_6 
REMARK    2  A    between atoms: C5_5  and  O6_6 
ROOT
HETATM    1  C1  UNL     1     -32.257   5.522   3.217  1.00 20.00     0.099 A 
HETATM    2  C2  UNL     1     -32.851   6.785   2.663  1.00 20.00     0.181 A 
HETATM    3  C3  UNL     1     -33.363   6.217   3.959  1.00 20.00     0.207 A 
HETATM    4  F7  UNL     1     -32.989   6.886   5.119  1.00 20.00    -0.223 F 
HETATM    5 CL8  UNL     1     -34.954   5.480   3.984  1.00 20.00    -0.080 Cl
ENDROOT
BRANCH   2   6
HETATM    6  O6  UNL     1     -32.034   7.962   2.767  1.00 20.00    -0.382 OA
BRANCH   6   7
HETATM    7  C5  UNL     1     -31.835   8.553   1.496  1.00 20.00     0.164 C 
HETATM    8  C4  UNL     1     -32.516   9.905   1.470  1.00 20.00     0.033 C 
ENDBRANCH   6   7
ENDBRANCH   2   6
TORSDOF 2
ENDMDL
MODEL 5
REMARK VINA RESULT:      -3.5      9.165      9.680
REMARK  2 active torsions:
REMARK  status: ('A' for Active; 'I' for Inactive)
REMARK    1  A    between atoms: C2_2  and  O6_6 
REMARK    2  A    between atoms: C5_5  and  O6_6 
ROOT
HETATM    1  C1  UNL     1     -40.753   4.460  -1.224  1.00 20.00     0.099 A 
HETATM    2  C2  UNL     1     -41.695   5.574  -1.577  1.00 20.00     0.181 A 
HETATM    3  C3  UNL     1     -41.366   5.294  -0.136  1.00 20.00     0.207 A 
HETATM    4  F7  UNL     1     -40.513   6.196   0.490  1.00 20.00    -0.223 F 
HETATM    5 CL8  UNL     1     -42.597   4.577   0.885  1.00 20.00    -0.080 Cl
ENDROOT
BRANCH   2   6
HETATM    6  O6  UNL     1     -41.095   6.748  -2.148  1.00 20.00    -0.382 OA
BRANCH   6   7
HETATM    7  C5  UNL     1     -42.055   7.517  -2.850  1.00 20.00     0.164 C 
HETATM    8  C4  UNL     1     -43.149   6.598  -3.351  1.00 20.00     0.033 C 
ENDBRANCH   6   7
ENDBRANCH   2   6
TORSDOF 2
ENDMDL
MODEL 6
REMARK VINA RESULT:      -3.5     11.427     11.890
REMARK  2 active torsions:
REMARK  status: ('A' for Active; 'I' for Inactive)
REMARK    1  A    between atoms: C2_2  and  O6_6 
REMARK    2  A    between atoms: C5_5  and  O6_6 
ROOT
HETATM    1  C1  UNL     1     -33.591  13.652  -3.855  1.00 20.00     0.099 A 
HETATM    2  C2  UNL     1     -34.078  15.066  -3.721  1.00 20.00     0.181 A 
HETATM    3  C3  UNL     1     -34.841  14.083  -4.567  1.00 20.00     0.207 A 
HETATM    4  F7  UNL     1     -36.035  13.607  -4.038  1.00 20.00    -0.223 F 
HETATM    5 CL8  UNL     1     -34.799  14.262  -6.310  1.00 20.00    -0.080 Cl
ENDROOT
BRANCH   2   6
HETATM    6  O6  UNL     1     -34.672  15.410  -2.459  1.00 20.00    -0.382 OA
BRANCH   6   7
HETATM    7  C5  UNL     1     -34.064  16.566  -1.912  1.00 20.00     0.164 C 
HETATM    8  C4  UNL     1     -34.642  16.822  -0.537  1.00 20.00     0.033 C 
ENDBRANCH   6   7
ENDBRANCH   2   6
TORSDOF 2
ENDMDL
MODEL 7
REMARK VINA RESULT:      -3.5     11.678     12.107
REMARK  2 active torsions:
REMARK  status: ('A' for Active; 'I' for Inactive)
REMARK    1  A    between atoms: C2_2  and  O6_6 
REMARK    2  A    between atoms: C5_5  and  O6_6 
ROOT
HETATM    1  C1  UNL     1     -33.686  16.039  -4.537  1.00 20.00     0.099 A 
HETATM    2  C2  UNL     1     -34.241  15.686  -3.187  1.00 20.00     0.181 A 
HETATM    3  C3  UNL     1     -33.368  14.706  -3.923  1.00 20.00     0.207 A 
HETATM    4  F7  UNL     1     -32.071  14.553  -3.446  1.00 20.00    -0.223 F 
HETATM    5 CL8  UNL     1     -34.105  13.268  -4.602  1.00 20.00    -0.080 Cl
ENDROOT
BRANCH   2   6
HETATM    6  O6  UNL     1     -33.638  16.353  -2.066  1.00 20.00    -0.382 OA
BRANCH   6   7
HETATM    7  C5  UNL     1     -34.591  16.584  -1.044  1.00 20.00     0.164 C 
HETATM    8  C4  UNL     1     -34.104  17.716  -0.165  1.00 20.00     0.033 C 
ENDBRANCH   6   7
ENDBRANCH   2   6
TORSDOF 2
ENDMDL
MODEL 8
REMARK VINA RESULT:      -3.4      2.563      3.690
REMARK  2 active torsions:
REMARK  status: ('A' for Active; 'I' for Inactive)
REMARK    1  A    between atoms: C2_2  and  O6_6 
REMARK    2  A    between atoms: C5_5  and  O6_6 
ROOT
HETATM    1  C1  UNL     1     -34.288   5.338   2.426  1.00 20.00     0.099 A 
HETATM    2  C2  UNL     1     -34.158   4.957   3.873  1.00 20.00     0.181 A 
HETATM    3  C3  UNL     1     -33.655   6.293   3.397  1.00 20.00     0.207 A 
HETATM    4  F7  UNL     1     -34.419   7.401   3.743  1.00 20.00    -0.223 F 
HETATM    5 CL8  UNL     1     -31.924   6.559   3.312  1.00 20.00    -0.080 Cl
ENDROOT
BRANCH   2   6
HETATM    6  O6  UNL     1     -35.373   4.975   4.639  1.00 20.00    -0.382 OA
BRANCH   6   7
HETATM    7  C5  UNL     1     -35.120   4.661   5.997  1.00 20.00     0.164 C 
HETATM    8  C4  UNL     1     -34.417   5.832   6.649  1.00 20.00     0.033 C 
ENDBRANCH   6   7
ENDBRANCH   2   6
TORSDOF 2
ENDMDL
MODEL 9
REMARK VINA RESULT:      -3.3      2.681      3.884
REMARK  2 active torsions:
REMARK  status: ('A' for Active; 'I' for Inactive)
REMARK    1  A    between atoms: C2_2  and  O6_6 
REMARK    2  A    between atoms: C5_5  and  O6_6 
ROOT
HETATM    1  C1  UNL     1     -34.221   6.885   3.405  1.00 20.00     0.099 A 
HETATM    2  C2  UNL     1     -33.907   5.856   4.452  1.00 20.00     0.181 A 
HETATM    3  C3  UNL     1     -32.799   6.454   3.628  1.00 20.00     0.207 A 
HETATM    4  F7  UNL     1     -31.980   7.376   4.268  1.00 20.00    -0.223 F 
HETATM    5 CL8  UNL     1     -32.021   5.457   2.414  1.00 20.00    -0.080 Cl
ENDROOT
BRANCH   2   6
HETATM    6  O6  UNL     1     -33.991   6.300   5.816  1.00 20.00    -0.382 OA
BRANCH   6   7
HETATM    7  C5  UNL     1     -34.711   5.370   6.606  1.00 20.00     0.164 C 
HETATM    8  C4  UNL     1     -34.978   4.128   5.783  1.00 20.00     0.033 C 
ENDBRANCH   6   7
ENDBRANCH   2   6
TORSDOF 2
ENDMDL
