MODEL 1
REMARK VINA RESULT:      -4.9      0.000      0.000
REMARK  1 active torsions:
REMARK  status: ('A' for Active; 'I' for Inactive)
REMARK    1  A    between atoms: C2_2  and  C6_6 
ROOT
HETATM    1  C3  UNL     1     -32.921  15.887  -4.691  1.00 20.00     0.006 C 
HETATM    2  C4  UNL     1     -33.998  15.877  -5.782  1.00 20.00     0.006 C 
HETATM    3  C5  UNL     1     -34.174  13.879  -4.553  1.00 20.00     0.010 C 
HETATM    4  C6  UNL     1     -34.667  15.456  -2.859  1.00 20.00     0.025 C 
HETATM    5  C7  UNL     1     -33.463  14.890  -3.647  1.00 20.00    -0.005 C 
HETATM    6  C8  UNL     1     -35.075  14.949  -5.190  1.00 20.00    -0.006 C 
HETATM    7  C9  UNL     1     -35.775  15.596  -3.947  1.00 20.00    -0.036 C 
HETATM    8  C11 UNL     1     -37.017  14.767  -3.552  1.00 20.00     0.016 C 
HETATM    9  C12 UNL     1     -36.260  17.031  -4.217  1.00 20.00     0.016 C 
ENDROOT
BRANCH   4  10
HETATM   10  C2  UNL     1     -34.337  16.663  -2.039  1.00 20.00    -0.088 C 
HETATM   11  C1  UNL     1     -33.671  17.709  -2.552  1.00 20.00     0.014 C 
HETATM   12  C10 UNL     1     -34.793  16.638  -0.611  1.00 20.00     0.043 C 
ENDBRANCH   4  10
TORSDOF 1
ENDMDL
MODEL 2
REMARK VINA RESULT:      -4.7      1.251      2.429
REMARK  1 active torsions:
REMARK  status: ('A' for Active; 'I' for Inactive)
REMARK    1  A    between atoms: C2_2  and  C6_6 
ROOT
HETATM    1  C3  UNL     1     -34.454  15.002  -5.649  1.00 20.00     0.006 C 
HETATM    2  C4  UNL     1     -35.638  14.511  -4.807  1.00 20.00     0.006 C 
HETATM    3  C5  UNL     1     -33.668  14.203  -3.560  1.00 20.00     0.010 C 
HETATM    4  C6  UNL     1     -33.666  16.561  -3.768  1.00 20.00     0.025 C 
HETATM    5  C7  UNL     1     -33.365  15.290  -4.596  1.00 20.00    -0.005 C 
HETATM    6  C8  UNL     1     -35.120  14.667  -3.366  1.00 20.00    -0.006 C 
HETATM    7  C9  UNL     1     -34.952  16.175  -2.973  1.00 20.00    -0.036 C 
HETATM    8  C11 UNL     1     -34.696  16.298  -1.455  1.00 20.00     0.016 C 
HETATM    9  C12 UNL     1     -36.201  17.015  -3.288  1.00 20.00     0.016 C 
ENDROOT
BRANCH   4  10
HETATM   10  C2  UNL     1     -33.698  17.817  -4.580  1.00 20.00    -0.088 C 
HETATM   11  C1  UNL     1     -33.848  17.797  -5.913  1.00 20.00     0.014 C 
HETATM   12  C10 UNL     1     -33.554  19.101  -3.818  1.00 20.00     0.043 C 
ENDBRANCH   4  10
TORSDOF 1
ENDMDL
MODEL 3
REMARK VINA RESULT:      -4.7      1.349      2.829
REMARK  1 active torsions:
REMARK  status: ('A' for Active; 'I' for Inactive)
REMARK    1  A    between atoms: C2_2  and  C6_6 
ROOT
HETATM    1  C3  UNL     1     -34.986  14.035  -6.187  1.00 20.00     0.006 C 
HETATM    2  C4  UNL     1     -34.412  15.099  -7.130  1.00 20.00     0.006 C 
HETATM    3  C5  UNL     1     -36.600  15.734  -6.547  1.00 20.00     0.010 C 
HETATM    4  C6  UNL     1     -35.564  15.805  -4.421  1.00 20.00     0.025 C 
HETATM    5  C7  UNL     1     -36.111  14.787  -5.447  1.00 20.00    -0.005 C 
HETATM    6  C8  UNL     1     -35.211  16.359  -6.751  1.00 20.00    -0.006 C 
HETATM    7  C9  UNL     1     -34.845  16.864  -5.313  1.00 20.00    -0.036 C 
HETATM    8  C11 UNL     1     -35.453  18.263  -5.076  1.00 20.00     0.016 C 
HETATM    9  C12 UNL     1     -33.327  16.990  -5.095  1.00 20.00     0.016 C 
ENDROOT
BRANCH   4  10
HETATM   10  C2  UNL     1     -34.782  15.181  -3.309  1.00 20.00    -0.088 C 
HETATM   11  C1  UNL     1     -34.194  13.982  -3.441  1.00 20.00     0.014 C 
HETATM   12  C10 UNL     1     -34.690  15.972  -2.039  1.00 20.00     0.043 C 
ENDBRANCH   4  10
TORSDOF 1
ENDMDL
MODEL 4
REMARK VINA RESULT:      -4.7      1.395      3.072
REMARK  1 active torsions:
REMARK  status: ('A' for Active; 'I' for Inactive)
REMARK    1  A    between atoms: C2_2  and  C6_6 
ROOT
HETATM    1  C3  UNL     1     -34.612  15.258  -2.920  1.00 20.00     0.006 C 
HETATM    2  C4  UNL     1     -33.441  14.728  -3.756  1.00 20.00     0.006 C 
HETATM    3  C5  UNL     1     -35.322  13.385  -4.187  1.00 20.00     0.010 C 
HETATM    4  C6  UNL     1     -36.101  15.466  -5.000  1.00 20.00     0.025 C 
HETATM    5  C7  UNL     1     -35.851  14.725  -3.666  1.00 20.00    -0.005 C 
HETATM    6  C8  UNL     1     -34.149  14.036  -4.935  1.00 20.00    -0.006 C 
HETATM    7  C9  UNL     1     -34.865  15.072  -5.867  1.00 20.00    -0.036 C 
HETATM    8  C11 UNL     1     -35.326  14.379  -7.168  1.00 20.00     0.016 C 
HETATM    9  C12 UNL     1     -33.948  16.237  -6.279  1.00 20.00     0.016 C 
ENDROOT
BRANCH   4  10
HETATM   10  C2  UNL     1     -36.402  16.922  -4.834  1.00 20.00    -0.088 C 
HETATM   11  C1  UNL     1     -36.028  17.604  -3.741  1.00 20.00     0.014 C 
HETATM   12  C10 UNL     1     -37.146  17.576  -5.960  1.00 20.00     0.043 C 
ENDBRANCH   4  10
TORSDOF 1
ENDMDL
MODEL 5
REMARK VINA RESULT:      -4.7      1.318      3.608
REMARK  1 active torsions:
REMARK  status: ('A' for Active; 'I' for Inactive)
REMARK    1  A    between atoms: C2_2  and  C6_6 
ROOT
HETATM    1  C3  UNL     1     -33.196  16.232  -4.683  1.00 20.00     0.006 C 
HETATM    2  C4  UNL     1     -33.335  15.372  -3.421  1.00 20.00     0.006 C 
HETATM    3  C5  UNL     1     -34.966  17.064  -3.342  1.00 20.00     0.010 C 
HETATM    4  C6  UNL     1     -35.670  15.894  -5.275  1.00 20.00     0.025 C 
HETATM    5  C7  UNL     1     -34.583  16.892  -4.816  1.00 20.00    -0.005 C 
HETATM    6  C8  UNL     1     -34.812  15.566  -3.036  1.00 20.00    -0.006 C 
HETATM    7  C9  UNL     1     -35.773  14.899  -4.079  1.00 20.00    -0.036 C 
HETATM    8  C11 UNL     1     -37.215  14.877  -3.527  1.00 20.00     0.016 C 
HETATM    9  C12 UNL     1     -35.391  13.443  -4.395  1.00 20.00     0.016 C 
ENDROOT
BRANCH   4  10
HETATM   10  C2  UNL     1     -35.430  15.326  -6.638  1.00 20.00    -0.088 C 
HETATM   11  C1  UNL     1     -34.193  15.161  -7.131  1.00 20.00     0.014 C 
HETATM   12  C10 UNL     1     -36.651  14.948  -7.422  1.00 20.00     0.043 C 
ENDBRANCH   4  10
TORSDOF 1
ENDMDL
MODEL 6
REMARK VINA RESULT:      -4.6      1.179      3.582
REMARK  1 active torsions:
REMARK  status: ('A' for Active; 'I' for Inactive)
REMARK    1  A    between atoms: C2_2  and  C6_6 
ROOT
HETATM    1  C3  UNL     1     -34.452  18.024  -3.056  1.00 20.00     0.006 C 
HETATM    2  C4  UNL     1     -33.846  17.087  -2.004  1.00 20.00     0.006 C 
HETATM    3  C5  UNL     1     -36.012  16.324  -2.511  1.00 20.00     0.010 C 
HETATM    4  C6  UNL     1     -34.971  16.056  -4.619  1.00 20.00     0.025 C 
HETATM    5  C7  UNL     1     -35.552  17.162  -3.707  1.00 20.00    -0.005 C 
HETATM    6  C8  UNL     1     -34.604  15.769  -2.244  1.00 20.00    -0.006 C 
HETATM    7  C9  UNL     1     -34.220  15.124  -3.619  1.00 20.00    -0.036 C 
HETATM    8  C11 UNL     1     -34.783  13.688  -3.703  1.00 20.00     0.016 C 
HETATM    9  C12 UNL     1     -32.699  15.022  -3.825  1.00 20.00     0.016 C 
ENDROOT
BRANCH   4  10
HETATM   10  C2  UNL     1     -34.207  16.581  -5.793  1.00 20.00    -0.088 C 
HETATM   11  C1  UNL     1     -33.583  17.768  -5.760  1.00 20.00     0.014 C 
HETATM   12  C10 UNL     1     -34.178  15.704  -7.009  1.00 20.00     0.043 C 
ENDBRANCH   4  10
TORSDOF 1
ENDMDL
MODEL 7
REMARK VINA RESULT:      -4.6      1.261      3.132
REMARK  1 active torsions:
REMARK  status: ('A' for Active; 'I' for Inactive)
REMARK    1  A    between atoms: C2_2  and  C6_6 
ROOT
HETATM    1  C3  UNL     1     -36.757  15.175  -5.133  1.00 20.00     0.006 C 
HETATM    2  C4  UNL     1     -36.531  14.259  -3.925  1.00 20.00     0.006 C 
HETATM    3  C5  UNL     1     -34.910  13.748  -5.550  1.00 20.00     0.010 C 
HETATM    4  C6  UNL     1     -34.323  15.989  -5.065  1.00 20.00     0.025 C 
HETATM    5  C7  UNL     1     -35.386  15.175  -5.839  1.00 20.00    -0.005 C 
HETATM    6  C8  UNL     1     -35.033  13.920  -4.028  1.00 20.00    -0.006 C 
HETATM    7  C9  UNL     1     -34.136  15.175  -3.748  1.00 20.00    -0.036 C 
HETATM    8  C11 UNL     1     -32.662  14.743  -3.592  1.00 20.00     0.016 C 
HETATM    9  C12 UNL     1     -34.528  15.910  -2.455  1.00 20.00     0.016 C 
ENDROOT
BRANCH   4  10
HETATM   10  C2  UNL     1     -34.647  17.445  -4.946  1.00 20.00    -0.088 C 
HETATM   11  C1  UNL     1     -35.912  17.889  -4.900  1.00 20.00     0.014 C 
HETATM   12  C10 UNL     1     -33.476  18.380  -4.880  1.00 20.00     0.043 C 
ENDBRANCH   4  10
TORSDOF 1
ENDMDL
MODEL 8
REMARK VINA RESULT:      -4.6      1.397      2.356
REMARK  1 active torsions:
REMARK  status: ('A' for Active; 'I' for Inactive)
REMARK    1  A    between atoms: C2_2  and  C6_6 
ROOT
HETATM    1  C3  UNL     1     -35.206  17.024  -6.726  1.00 20.00     0.006 C 
HETATM    2  C4  UNL     1     -36.413  16.080  -6.760  1.00 20.00     0.006 C 
HETATM    3  C5  UNL     1     -34.475  14.813  -7.169  1.00 20.00     0.010 C 
HETATM    4  C6  UNL     1     -34.023  15.570  -4.973  1.00 20.00     0.025 C 
HETATM    5  C7  UNL     1     -34.024  16.078  -6.433  1.00 20.00    -0.005 C 
HETATM    6  C8  UNL     1     -35.795  14.721  -6.387  1.00 20.00    -0.006 C 
HETATM    7  C9  UNL     1     -35.312  14.696  -4.896  1.00 20.00    -0.036 C 
HETATM    8  C11 UNL     1     -34.953  13.251  -4.483  1.00 20.00     0.016 C 
HETATM    9  C12 UNL     1     -36.388  15.189  -3.913  1.00 20.00     0.016 C 
ENDROOT
BRANCH   4  10
HETATM   10  C2  UNL     1     -33.853  16.655  -3.957  1.00 20.00    -0.088 C 
HETATM   11  C1  UNL     1     -33.823  17.951  -4.301  1.00 20.00     0.014 C 
HETATM   12  C10 UNL     1     -33.719  16.210  -2.531  1.00 20.00     0.043 C 
ENDBRANCH   4  10
TORSDOF 1
ENDMDL
MODEL 9
REMARK VINA RESULT:      -4.6      1.133      3.783
REMARK  1 active torsions:
REMARK  status: ('A' for Active; 'I' for Inactive)
REMARK    1  A    between atoms: C2_2  and  C6_6 
ROOT
HETATM    1  C3  UNL     1     -36.160  17.267  -3.288  1.00 20.00     0.006 C 
HETATM    2  C4  UNL     1     -34.808  17.972  -3.127  1.00 20.00     0.006 C 
HETATM    3  C5  UNL     1     -34.783  16.023  -1.812  1.00 20.00     0.010 C 
HETATM    4  C6  UNL     1     -35.018  15.071  -3.966  1.00 20.00     0.025 C 
HETATM    5  C7  UNL     1     -35.849  15.810  -2.892  1.00 20.00    -0.005 C 
HETATM    6  C8  UNL     1     -33.862  16.817  -2.751  1.00 20.00    -0.006 C 
HETATM    7  C9  UNL     1     -33.654  15.829  -3.950  1.00 20.00    -0.036 C 
HETATM    8  C11 UNL     1     -32.504  14.849  -3.630  1.00 20.00     0.016 C 
HETATM    9  C12 UNL     1     -33.282  16.548  -5.257  1.00 20.00     0.016 C 
ENDROOT
BRANCH   4  10
HETATM   10  C2  UNL     1     -35.720  14.926  -5.279  1.00 20.00    -0.088 C 
HETATM   11  C1  UNL     1     -36.848  15.597  -5.558  1.00 20.00     0.014 C 
HETATM   12  C10 UNL     1     -35.091  13.989  -6.266  1.00 20.00     0.043 C 
ENDBRANCH   4  10
TORSDOF 1
ENDMDL
