MODEL 1
REMARK VINA RESULT:      -4.3      0.000      0.000
REMARK  1 active torsions:
REMARK  status: ('A' for Active; 'I' for Inactive)
REMARK    1  A    between atoms: C1_1  and  C2_2 
ROOT
HETATM    1  C1  UNL     1     -34.852   5.063   4.199  1.00 20.00     0.314 C 
HETATM    2  F3  UNL     1     -36.103   5.429   3.814  1.00 20.00    -0.228 F 
HETATM    3 CL5  UNL     1     -34.983   3.992   5.610  1.00 20.00    -0.085 Cl
ENDROOT
BRANCH   1   4
HETATM    4  C2  UNL     1     -34.047   6.302   4.539  1.00 20.00     0.314 C 
HETATM    5  F4  UNL     1     -32.788   6.171   4.045  1.00 20.00    -0.228 F 
HETATM    6 CL6  UNL     1     -33.948   6.521   6.299  1.00 20.00    -0.085 Cl
ENDBRANCH   1   4
TORSDOF 1
ENDMDL
MODEL 2
REMARK VINA RESULT:      -4.3      0.022      2.700
REMARK  1 active torsions:
REMARK  status: ('A' for Active; 'I' for Inactive)
REMARK    1  A    between atoms: C1_1  and  C2_2 
ROOT
HETATM    1  C1  UNL     1     -34.049   6.286   4.525  1.00 20.00     0.314 C 
HETATM    2  F3  UNL     1     -32.790   6.142   4.033  1.00 20.00    -0.228 F 
HETATM    3 CL5  UNL     1     -33.950   6.514   6.284  1.00 20.00    -0.085 Cl
ENDROOT
BRANCH   1   4
HETATM    4  C2  UNL     1     -34.864   5.052   4.189  1.00 20.00     0.314 C 
HETATM    5  F4  UNL     1     -36.117   5.425   3.822  1.00 20.00    -0.228 F 
HETATM    6 CL6  UNL     1     -34.980   3.975   5.598  1.00 20.00    -0.085 Cl
ENDBRANCH   1   4
TORSDOF 1
ENDMDL
MODEL 3
REMARK VINA RESULT:      -4.1      1.747      2.394
REMARK  1 active torsions:
REMARK  status: ('A' for Active; 'I' for Inactive)
REMARK    1  A    between atoms: C1_1  and  C2_2 
ROOT
HETATM    1  C1  UNL     1     -34.081   6.061   3.777  1.00 20.00     0.314 C 
HETATM    2  F3  UNL     1     -34.515   5.233   2.789  1.00 20.00    -0.228 F 
HETATM    3 CL5  UNL     1     -32.361   6.413   3.507  1.00 20.00    -0.085 Cl
ENDROOT
BRANCH   1   4
HETATM    4  C2  UNL     1     -34.287   5.391   5.121  1.00 20.00     0.314 C 
HETATM    5  F4  UNL     1     -35.558   4.917   5.199  1.00 20.00    -0.228 F 
HETATM    6 CL6  UNL     1     -34.029   6.548   6.444  1.00 20.00    -0.085 Cl
ENDBRANCH   1   4
TORSDOF 1
ENDMDL
MODEL 4
REMARK VINA RESULT:      -4.1      1.756      2.150
REMARK  1 active torsions:
REMARK  status: ('A' for Active; 'I' for Inactive)
REMARK    1  A    between atoms: C1_1  and  C2_2 
ROOT
HETATM    1  C1  UNL     1     -34.297   5.362   5.074  1.00 20.00     0.314 C 
HETATM    2  F3  UNL     1     -35.577   4.907   5.146  1.00 20.00    -0.228 F 
HETATM    3 CL5  UNL     1     -34.030   6.517   6.397  1.00 20.00    -0.085 Cl
ENDROOT
BRANCH   1   4
HETATM    4  C2  UNL     1     -34.074   6.026   3.729  1.00 20.00     0.314 C 
HETATM    5  F4  UNL     1     -34.425   5.166   2.738  1.00 20.00    -0.228 F 
HETATM    6 CL6  UNL     1     -32.364   6.464   3.523  1.00 20.00    -0.085 Cl
ENDBRANCH   1   4
TORSDOF 1
ENDMDL
MODEL 5
REMARK VINA RESULT:      -4.0      2.086      2.373
REMARK  1 active torsions:
REMARK  status: ('A' for Active; 'I' for Inactive)
REMARK    1  A    between atoms: C1_1  and  C2_2 
ROOT
HETATM    1  C1  UNL     1     -34.954   5.175   4.563  1.00 20.00     0.314 C 
HETATM    2  F3  UNL     1     -35.206   3.907   4.142  1.00 20.00    -0.228 F 
HETATM    3 CL5  UNL     1     -33.718   5.890   3.505  1.00 20.00    -0.085 Cl
ENDROOT
BRANCH   1   4
HETATM    4  C2  UNL     1     -34.476   5.142   6.001  1.00 20.00     0.314 C 
HETATM    5  F4  UNL     1     -35.491   4.731   6.805  1.00 20.00    -0.228 F 
HETATM    6 CL6  UNL     1     -33.954   6.758   6.526  1.00 20.00    -0.085 Cl
ENDBRANCH   1   4
TORSDOF 1
ENDMDL
MODEL 6
REMARK VINA RESULT:      -3.9      2.281      3.048
REMARK  1 active torsions:
REMARK  status: ('A' for Active; 'I' for Inactive)
REMARK    1  A    between atoms: C1_1  and  C2_2 
ROOT
HETATM    1  C1  UNL     1     -33.926   5.780   5.860  1.00 20.00     0.314 C 
HETATM    2  F3  UNL     1     -34.319   6.776   6.698  1.00 20.00    -0.228 F 
HETATM    3 CL5  UNL     1     -33.253   6.509   4.386  1.00 20.00    -0.085 Cl
ENDROOT
BRANCH   1   4
HETATM    4  C2  UNL     1     -35.117   4.903   5.529  1.00 20.00     0.314 C 
HETATM    5  F4  UNL     1     -34.747   3.597   5.588  1.00 20.00    -0.228 F 
HETATM    6 CL6  UNL     1     -35.716   5.251   3.892  1.00 20.00    -0.085 Cl
ENDBRANCH   1   4
TORSDOF 1
ENDMDL
MODEL 7
REMARK VINA RESULT:      -3.9      1.758      2.167
REMARK  1 active torsions:
REMARK  status: ('A' for Active; 'I' for Inactive)
REMARK    1  A    between atoms: C1_1  and  C2_2 
ROOT
HETATM    1  C1  UNL     1     -34.728   5.707   5.411  1.00 20.00     0.314 C 
HETATM    2  F3  UNL     1     -33.774   6.256   6.208  1.00 20.00    -0.228 F 
HETATM    3 CL5  UNL     1     -34.776   3.955   5.707  1.00 20.00    -0.085 Cl
ENDROOT
BRANCH   1   4
HETATM    4  C2  UNL     1     -34.400   5.996   3.960  1.00 20.00     0.314 C 
HETATM    5  F4  UNL     1     -34.664   4.896   3.209  1.00 20.00    -0.228 F 
HETATM    6 CL6  UNL     1     -32.681   6.410   3.776  1.00 20.00    -0.085 Cl
ENDBRANCH   1   4
TORSDOF 1
ENDMDL
MODEL 8
REMARK VINA RESULT:      -3.9      1.756      2.334
REMARK  1 active torsions:
REMARK  status: ('A' for Active; 'I' for Inactive)
REMARK    1  A    between atoms: C1_1  and  C2_2 
ROOT
HETATM    1  C1  UNL     1     -34.374   6.018   3.982  1.00 20.00     0.314 C 
HETATM    2  F3  UNL     1     -34.682   4.915   3.249  1.00 20.00    -0.228 F 
HETATM    3 CL5  UNL     1     -32.648   6.380   3.765  1.00 20.00    -0.085 Cl
ENDROOT
BRANCH   1   4
HETATM    4  C2  UNL     1     -34.688   5.756   5.442  1.00 20.00     0.314 C 
HETATM    5  F4  UNL     1     -33.736   6.335   6.219  1.00 20.00    -0.228 F 
HETATM    6 CL6  UNL     1     -34.710   4.010   5.775  1.00 20.00    -0.085 Cl
ENDBRANCH   1   4
TORSDOF 1
ENDMDL
MODEL 9
REMARK VINA RESULT:      -3.9      1.691      1.691
REMARK  1 active torsions:
REMARK  status: ('A' for Active; 'I' for Inactive)
REMARK    1  A    between atoms: C1_1  and  C2_2 
ROOT
HETATM    1  C1  UNL     1     -34.745   5.047   4.297  1.00 20.00     0.314 C 
HETATM    2  F3  UNL     1     -35.937   5.431   3.769  1.00 20.00    -0.228 F 
HETATM    3 CL5  UNL     1     -35.017   4.475   5.957  1.00 20.00    -0.085 Cl
ENDROOT
BRANCH   1   4
HETATM    4  C2  UNL     1     -33.787   6.221   4.284  1.00 20.00     0.314 C 
HETATM    5  F4  UNL     1     -34.447   7.338   3.881  1.00 20.00    -0.228 F 
HETATM    6 CL6  UNL     1     -32.441   5.921   3.163  1.00 20.00    -0.085 Cl
ENDBRANCH   1   4
TORSDOF 1
ENDMDL
