MODEL 1
REMARK VINA RESULT:      -4.9      0.000      0.000
REMARK  0 active torsions:
REMARK  status: ('A' for Active; 'I' for Inactive)
ROOT
HETATM    1  C1  UNL     1     -34.204  16.142  -4.785  1.00 20.00    -0.071 C 
HETATM    2  C2  UNL     1     -33.583  17.248  -5.209  1.00 20.00    -0.027 C 
HETATM    3  C3  UNL     1     -34.955  14.186  -6.092  1.00 20.00     0.009 C 
HETATM    4  C4  UNL     1     -34.732  13.273  -4.872  1.00 20.00     0.006 C 
HETATM    5  C5  UNL     1     -36.180  15.016  -4.228  1.00 20.00     0.014 C 
HETATM    6  C6  UNL     1     -35.411  15.508  -5.452  1.00 20.00     0.015 C 
HETATM    7  C7  UNL     1     -34.986  14.219  -3.677  1.00 20.00    -0.002 C 
HETATM    8  C8  UNL     1     -33.879  15.317  -3.544  1.00 20.00    -0.021 C 
HETATM    9  C9  UNL     1     -33.993  18.025  -6.414  1.00 20.00     0.036 C 
HETATM   10  C10 UNL     1     -34.063  16.129  -2.248  1.00 20.00     0.020 C 
HETATM   11  C11 UNL     1     -32.452  14.749  -3.566  1.00 20.00     0.020 C 
ENDROOT
TORSDOF 0
ENDMDL
MODEL 2
REMARK VINA RESULT:      -4.9      1.282      3.235
REMARK  0 active torsions:
REMARK  status: ('A' for Active; 'I' for Inactive)
ROOT
HETATM    1  C1  UNL     1     -34.995  15.826  -3.212  1.00 20.00    -0.071 C 
HETATM    2  C2  UNL     1     -35.322  16.401  -2.048  1.00 20.00    -0.027 C 
HETATM    3  C3  UNL     1     -33.563  13.856  -3.620  1.00 20.00     0.009 C 
HETATM    4  C4  UNL     1     -34.388  13.503  -4.871  1.00 20.00     0.006 C 
HETATM    5  C5  UNL     1     -33.617  15.718  -5.101  1.00 20.00     0.014 C 
HETATM    6  C6  UNL     1     -33.596  15.394  -3.609  1.00 20.00     0.015 C 
HETATM    7  C7  UNL     1     -34.881  14.883  -5.364  1.00 20.00    -0.002 C 
HETATM    8  C8  UNL     1     -35.920  15.525  -4.386  1.00 20.00    -0.021 C 
HETATM    9  C9  UNL     1     -34.344  16.703  -0.964  1.00 20.00     0.036 C 
HETATM   10  C10 UNL     1     -36.522  16.808  -4.988  1.00 20.00     0.020 C 
HETATM   11  C11 UNL     1     -37.069  14.577  -4.010  1.00 20.00     0.020 C 
ENDROOT
TORSDOF 0
ENDMDL
MODEL 3
REMARK VINA RESULT:      -4.9      1.346      2.980
REMARK  0 active torsions:
REMARK  status: ('A' for Active; 'I' for Inactive)
ROOT
HETATM    1  C1  UNL     1     -34.742  15.826  -2.896  1.00 20.00    -0.071 C 
HETATM    2  C2  UNL     1     -34.114  16.292  -1.810  1.00 20.00    -0.027 C 
HETATM    3  C3  UNL     1     -36.593  16.845  -4.173  1.00 20.00     0.009 C 
HETATM    4  C4  UNL     1     -36.081  16.181  -5.465  1.00 20.00     0.006 C 
HETATM    5  C5  UNL     1     -36.412  14.494  -3.853  1.00 20.00     0.014 C 
HETATM    6  C6  UNL     1     -36.247  15.807  -3.092  1.00 20.00     0.015 C 
HETATM    7  C7  UNL     1     -35.407  14.889  -4.949  1.00 20.00    -0.002 C 
HETATM    8  C8  UNL     1     -34.109  15.184  -4.126  1.00 20.00    -0.021 C 
HETATM    9  C9  UNL     1     -34.812  16.865  -0.624  1.00 20.00     0.036 C 
HETATM   10  C10 UNL     1     -33.369  13.880  -3.779  1.00 20.00     0.020 C 
HETATM   11  C11 UNL     1     -33.131  16.123  -4.849  1.00 20.00     0.020 C 
ENDROOT
TORSDOF 0
ENDMDL
MODEL 4
REMARK VINA RESULT:      -4.9      0.911      2.931
REMARK  0 active torsions:
REMARK  status: ('A' for Active; 'I' for Inactive)
ROOT
HETATM    1  C1  UNL     1     -34.564  15.647  -5.160  1.00 20.00    -0.071 C 
HETATM    2  C2  UNL     1     -35.010  15.946  -6.385  1.00 20.00    -0.027 C 
HETATM    3  C3  UNL     1     -34.025  17.168  -3.291  1.00 20.00     0.009 C 
HETATM    4  C4  UNL     1     -34.425  16.080  -2.277  1.00 20.00     0.006 C 
HETATM    5  C5  UNL     1     -32.785  15.181  -3.711  1.00 20.00     0.014 C 
HETATM    6  C6  UNL     1     -33.424  16.354  -4.450  1.00 20.00     0.015 C 
HETATM    7  C7  UNL     1     -34.099  14.768  -3.027  1.00 20.00    -0.002 C 
HETATM    8  C8  UNL     1     -35.053  14.529  -4.245  1.00 20.00    -0.021 C 
HETATM    9  C9  UNL     1     -34.444  17.031  -7.238  1.00 20.00     0.036 C 
HETATM   10  C10 UNL     1     -34.821  13.138  -4.860  1.00 20.00     0.020 C 
HETATM   11  C11 UNL     1     -36.541  14.663  -3.888  1.00 20.00     0.020 C 
ENDROOT
TORSDOF 0
ENDMDL
MODEL 5
REMARK VINA RESULT:      -4.8      1.297      3.011
REMARK  0 active torsions:
REMARK  status: ('A' for Active; 'I' for Inactive)
ROOT
HETATM    1  C1  UNL     1     -34.934  15.886  -3.434  1.00 20.00    -0.071 C 
HETATM    2  C2  UNL     1     -34.709  15.862  -2.115  1.00 20.00    -0.027 C 
HETATM    3  C3  UNL     1     -33.389  16.501  -5.260  1.00 20.00     0.009 C 
HETATM    4  C4  UNL     1     -34.106  15.522  -6.209  1.00 20.00     0.006 C 
HETATM    5  C5  UNL     1     -35.713  17.008  -5.335  1.00 20.00     0.014 C 
HETATM    6  C6  UNL     1     -34.533  17.013  -4.368  1.00 20.00     0.015 C 
HETATM    7  C7  UNL     1     -35.556  15.516  -5.673  1.00 20.00    -0.002 C 
HETATM    8  C8  UNL     1     -35.665  14.837  -4.266  1.00 20.00    -0.021 C 
HETATM    9  C9  UNL     1     -34.023  16.954  -1.366  1.00 20.00     0.036 C 
HETATM   10  C10 UNL     1     -37.136  14.688  -3.841  1.00 20.00     0.020 C 
HETATM   11  C11 UNL     1     -34.995  13.457  -4.203  1.00 20.00     0.020 C 
ENDROOT
TORSDOF 0
ENDMDL
MODEL 6
REMARK VINA RESULT:      -4.6      1.283      3.012
REMARK  0 active torsions:
REMARK  status: ('A' for Active; 'I' for Inactive)
ROOT
HETATM    1  C1  UNL     1     -35.687  15.585  -3.577  1.00 20.00    -0.071 C 
HETATM    2  C2  UNL     1     -37.014  15.646  -3.414  1.00 20.00    -0.027 C 
HETATM    3  C3  UNL     1     -34.391  15.313  -5.661  1.00 20.00     0.009 C 
HETATM    4  C4  UNL     1     -33.232  16.130  -5.058  1.00 20.00     0.006 C 
HETATM    5  C5  UNL     1     -33.705  14.340  -3.600  1.00 20.00     0.014 C 
HETATM    6  C6  UNL     1     -34.960  14.571  -4.439  1.00 20.00     0.015 C 
HETATM    7  C7  UNL     1     -33.348  15.834  -3.545  1.00 20.00    -0.002 C 
HETATM    8  C8  UNL     1     -34.633  16.466  -2.914  1.00 20.00    -0.021 C 
HETATM    9  C9  UNL     1     -37.978  14.714  -4.066  1.00 20.00     0.036 C 
HETATM   10  C10 UNL     1     -34.630  16.307  -1.383  1.00 20.00     0.020 C 
HETATM   11  C11 UNL     1     -34.808  17.955  -3.250  1.00 20.00     0.020 C 
ENDROOT
TORSDOF 0
ENDMDL
MODEL 7
REMARK VINA RESULT:      -4.6      1.467      2.990
REMARK  0 active torsions:
REMARK  status: ('A' for Active; 'I' for Inactive)
ROOT
HETATM    1  C1  UNL     1     -35.281  15.175  -5.263  1.00 20.00    -0.071 C 
HETATM    2  C2  UNL     1     -35.661  15.299  -6.540  1.00 20.00    -0.027 C 
HETATM    3  C3  UNL     1     -33.113  15.744  -4.228  1.00 20.00     0.009 C 
HETATM    4  C4  UNL     1     -33.821  16.064  -2.898  1.00 20.00     0.006 C 
HETATM    5  C5  UNL     1     -34.402  13.870  -3.530  1.00 20.00     0.014 C 
HETATM    6  C6  UNL     1     -33.959  14.593  -4.799  1.00 20.00     0.015 C 
HETATM    7  C7  UNL     1     -35.049  15.126  -2.922  1.00 20.00    -0.002 C 
HETATM    8  C8  UNL     1     -36.087  15.536  -4.019  1.00 20.00    -0.021 C 
HETATM    9  C9  UNL     1     -34.829  14.878  -7.703  1.00 20.00     0.036 C 
HETATM   10  C10 UNL     1     -37.372  14.697  -3.902  1.00 20.00     0.020 C 
HETATM   11  C11 UNL     1     -36.468  17.023  -3.970  1.00 20.00     0.020 C 
ENDROOT
TORSDOF 0
ENDMDL
MODEL 8
REMARK VINA RESULT:      -4.5      1.116      3.171
REMARK  0 active torsions:
REMARK  status: ('A' for Active; 'I' for Inactive)
ROOT
HETATM    1  C1  UNL     1     -35.420  15.377  -4.299  1.00 20.00    -0.071 C 
HETATM    2  C2  UNL     1     -36.454  14.831  -3.649  1.00 20.00    -0.027 C 
HETATM    3  C3  UNL     1     -35.287  17.557  -5.450  1.00 20.00     0.009 C 
HETATM    4  C4  UNL     1     -33.786  17.652  -5.118  1.00 20.00     0.006 C 
HETATM    5  C5  UNL     1     -34.160  15.623  -6.257  1.00 20.00     0.014 C 
HETATM    6  C6  UNL     1     -35.498  16.048  -5.658  1.00 20.00     0.015 C 
HETATM    7  C7  UNL     1     -33.345  16.171  -5.074  1.00 20.00    -0.002 C 
HETATM    8  C8  UNL     1     -33.961  15.405  -3.855  1.00 20.00    -0.021 C 
HETATM    9  C9  UNL     1     -37.850  14.804  -4.175  1.00 20.00     0.036 C 
HETATM   10  C10 UNL     1     -33.367  13.990  -3.738  1.00 20.00     0.020 C 
HETATM   11  C11 UNL     1     -33.762  16.131  -2.516  1.00 20.00     0.020 C 
ENDROOT
TORSDOF 0
ENDMDL
MODEL 9
REMARK VINA RESULT:      -4.5      1.348      3.553
REMARK  0 active torsions:
REMARK  status: ('A' for Active; 'I' for Inactive)
ROOT
HETATM    1  C1  UNL     1     -35.912  15.258  -4.001  1.00 20.00    -0.071 C 
HETATM    2  C2  UNL     1     -37.016  14.516  -4.144  1.00 20.00    -0.027 C 
HETATM    3  C3  UNL     1     -35.084  16.438  -1.997  1.00 20.00     0.009 C 
HETATM    4  C4  UNL     1     -33.631  16.238  -2.467  1.00 20.00     0.006 C 
HETATM    5  C5  UNL     1     -34.818  17.319  -4.192  1.00 20.00     0.014 C 
HETATM    6  C6  UNL     1     -35.852  16.611  -3.319  1.00 20.00     0.015 C 
HETATM    7  C7  UNL     1     -33.763  16.216  -4.007  1.00 20.00    -0.002 C 
HETATM    8  C8  UNL     1     -34.512  14.941  -4.519  1.00 20.00    -0.021 C 
HETATM    9  C9  UNL     1     -38.362  14.920  -3.646  1.00 20.00     0.036 C 
HETATM   10  C10 UNL     1     -34.472  14.860  -6.056  1.00 20.00     0.020 C 
HETATM   11  C11 UNL     1     -33.949  13.632  -3.946  1.00 20.00     0.020 C 
ENDROOT
TORSDOF 0
ENDMDL
