MODEL 1
REMARK VINA RESULT:      -4.3      0.000      0.000
REMARK  1 active torsions:
REMARK  status: ('A' for Active; 'I' for Inactive)
REMARK    1  A    between atoms: C1_1  and  C2_2 
ROOT
HETATM    1  C1  UNL     1     -35.203   4.984   4.760  1.00 20.00     0.314 C 
HETATM    2  F3  UNL     1     -35.193   3.657   4.469  1.00 20.00    -0.228 F 
HETATM    3 CL5  UNL     1     -34.071   5.814   3.670  1.00 20.00    -0.085 Cl
ENDROOT
BRANCH   1   4
HETATM    4  C2  UNL     1     -34.798   5.184   6.207  1.00 20.00     0.314 C 
HETATM    5  F4  UNL     1     -33.988   4.163   6.594  1.00 20.00    -0.228 F 
HETATM    6 CL6  UNL     1     -33.916   6.714   6.407  1.00 20.00    -0.085 Cl
ENDBRANCH   1   4
TORSDOF 1
ENDMDL
MODEL 2
REMARK VINA RESULT:      -4.2      2.026      2.476
REMARK  1 active torsions:
REMARK  status: ('A' for Active; 'I' for Inactive)
REMARK    1  A    between atoms: C1_1  and  C2_2 
ROOT
HETATM    1  C1  UNL     1     -34.854   5.092   4.298  1.00 20.00     0.314 C 
HETATM    2  F3  UNL     1     -36.084   5.417   3.817  1.00 20.00    -0.228 F 
HETATM    3 CL5  UNL     1     -35.044   4.409   5.927  1.00 20.00    -0.085 Cl
ENDROOT
BRANCH   1   4
HETATM    4  C2  UNL     1     -33.985   6.333   4.335  1.00 20.00     0.314 C 
HETATM    5  F4  UNL     1     -33.598   6.575   5.616  1.00 20.00    -0.228 F 
HETATM    6 CL6  UNL     1     -32.533   6.115   3.335  1.00 20.00    -0.085 Cl
ENDBRANCH   1   4
TORSDOF 1
ENDMDL
MODEL 3
REMARK VINA RESULT:      -4.2      1.122      2.542
REMARK  1 active torsions:
REMARK  status: ('A' for Active; 'I' for Inactive)
REMARK    1  A    between atoms: C1_1  and  C2_2 
ROOT
HETATM    1  C1  UNL     1     -34.489   4.857   5.765  1.00 20.00     0.314 C 
HETATM    2  F3  UNL     1     -35.588   4.390   6.416  1.00 20.00    -0.228 F 
HETATM    3 CL5  UNL     1     -34.095   6.469   6.399  1.00 20.00    -0.085 Cl
ENDROOT
BRANCH   1   4
HETATM    4  C2  UNL     1     -34.775   4.921   4.278  1.00 20.00     0.314 C 
HETATM    5  F4  UNL     1     -36.051   5.347   4.081  1.00 20.00    -0.228 F 
HETATM    6 CL6  UNL     1     -33.668   6.054   3.474  1.00 20.00    -0.085 Cl
ENDBRANCH   1   4
TORSDOF 1
ENDMDL
MODEL 4
REMARK VINA RESULT:      -4.2      2.200      2.379
REMARK  1 active torsions:
REMARK  status: ('A' for Active; 'I' for Inactive)
REMARK    1  A    between atoms: C1_1  and  C2_2 
ROOT
HETATM    1  C1  UNL     1     -34.856   4.908   4.440  1.00 20.00     0.314 C 
HETATM    2  F3  UNL     1     -36.041   5.388   3.979  1.00 20.00    -0.228 F 
HETATM    3 CL5  UNL     1     -35.148   4.039   5.963  1.00 20.00    -0.085 Cl
ENDROOT
BRANCH   1   4
HETATM    4  C2  UNL     1     -33.896   6.060   4.656  1.00 20.00     0.314 C 
HETATM    5  F4  UNL     1     -34.243   7.095   3.845  1.00 20.00    -0.228 F 
HETATM    6 CL6  UNL     1     -33.953   6.618   6.342  1.00 20.00    -0.085 Cl
ENDBRANCH   1   4
TORSDOF 1
ENDMDL
MODEL 5
REMARK VINA RESULT:      -4.2      2.024      2.024
REMARK  1 active torsions:
REMARK  status: ('A' for Active; 'I' for Inactive)
REMARK    1  A    between atoms: C1_1  and  C2_2 
ROOT
HETATM    1  C1  UNL     1     -34.124   6.169   4.157  1.00 20.00     0.314 C 
HETATM    2  F3  UNL     1     -34.797   5.210   3.468  1.00 20.00    -0.228 F 
HETATM    3 CL5  UNL     1     -32.518   6.375   3.423  1.00 20.00    -0.085 Cl
ENDROOT
BRANCH   1   4
HETATM    4  C2  UNL     1     -33.999   5.750   5.608  1.00 20.00     0.314 C 
HETATM    5  F4  UNL     1     -34.279   6.813   6.410  1.00 20.00    -0.228 F 
HETATM    6 CL6  UNL     1     -35.139   4.440   5.985  1.00 20.00    -0.085 Cl
ENDBRANCH   1   4
TORSDOF 1
ENDMDL
MODEL 6
REMARK VINA RESULT:      -4.0      2.235      3.059
REMARK  1 active torsions:
REMARK  status: ('A' for Active; 'I' for Inactive)
REMARK    1  A    between atoms: C1_1  and  C2_2 
ROOT
HETATM    1  C1  UNL     1     -34.023   6.418   4.528  1.00 20.00     0.314 C 
HETATM    2  F3  UNL     1     -32.755   6.217   4.083  1.00 20.00    -0.228 F 
HETATM    3 CL5  UNL     1     -34.042   6.231   6.295  1.00 20.00    -0.085 Cl
ENDROOT
BRANCH   1   4
HETATM    4  C2  UNL     1     -34.951   5.414   3.873  1.00 20.00     0.314 C 
HETATM    5  F4  UNL     1     -34.418   5.013   2.688  1.00 20.00    -0.228 F 
HETATM    6 CL6  UNL     1     -35.167   3.988   4.909  1.00 20.00    -0.085 Cl
ENDBRANCH   1   4
TORSDOF 1
ENDMDL
MODEL 7
REMARK VINA RESULT:      -4.0      1.675      2.252
REMARK  1 active torsions:
REMARK  status: ('A' for Active; 'I' for Inactive)
REMARK    1  A    between atoms: C1_1  and  C2_2 
ROOT
HETATM    1  C1  UNL     1     -34.760   5.169   6.138  1.00 20.00     0.314 C 
HETATM    2  F3  UNL     1     -33.855   4.431   6.833  1.00 20.00    -0.228 F 
HETATM    3 CL5  UNL     1     -35.230   4.268   4.679  1.00 20.00    -0.085 Cl
ENDROOT
BRANCH   1   4
HETATM    4  C2  UNL     1     -34.144   6.503   5.768  1.00 20.00     0.314 C 
HETATM    5  F4  UNL     1     -33.283   6.889   6.748  1.00 20.00    -0.228 F 
HETATM    6 CL6  UNL     1     -33.246   6.380   4.241  1.00 20.00    -0.085 Cl
ENDBRANCH   1   4
TORSDOF 1
ENDMDL
MODEL 8
REMARK VINA RESULT:      -3.9      2.072      3.023
REMARK  1 active torsions:
REMARK  status: ('A' for Active; 'I' for Inactive)
REMARK    1  A    between atoms: C1_1  and  C2_2 
ROOT
HETATM    1  C1  UNL     1     -34.505   5.831   5.242  1.00 20.00     0.314 C 
HETATM    2  F3  UNL     1     -33.667   6.523   6.058  1.00 20.00    -0.228 F 
HETATM    3 CL5  UNL     1     -34.999   4.337   6.069  1.00 20.00    -0.085 Cl
ENDROOT
BRANCH   1   4
HETATM    4  C2  UNL     1     -33.794   5.514   3.942  1.00 20.00     0.314 C 
HETATM    5  F4  UNL     1     -34.710   5.377   2.947  1.00 20.00    -0.228 F 
HETATM    6 CL6  UNL     1     -32.672   6.820   3.504  1.00 20.00    -0.085 Cl
ENDBRANCH   1   4
TORSDOF 1
ENDMDL
MODEL 9
REMARK VINA RESULT:      -3.9      1.732      1.732
REMARK  1 active torsions:
REMARK  status: ('A' for Active; 'I' for Inactive)
REMARK    1  A    between atoms: C1_1  and  C2_2 
ROOT
HETATM    1  C1  UNL     1     -34.079   5.632   4.584  1.00 20.00     0.314 C 
HETATM    2  F3  UNL     1     -33.396   6.733   4.173  1.00 20.00    -0.228 F 
HETATM    3 CL5  UNL     1     -35.546   5.470   3.593  1.00 20.00    -0.085 Cl
ENDROOT
BRANCH   1   4
HETATM    4  C2  UNL     1     -34.437   5.779   6.049  1.00 20.00     0.314 C 
HETATM    5  F4  UNL     1     -34.105   4.639   6.711  1.00 20.00    -0.228 F 
HETATM    6 CL6  UNL     1     -33.552   7.136   6.779  1.00 20.00    -0.085 Cl
ENDBRANCH   1   4
TORSDOF 1
ENDMDL
