MODEL 1
REMARK VINA RESULT:      -4.9      0.000      0.000
REMARK  0 active torsions:
REMARK  status: ('A' for Active; 'I' for Inactive)
ROOT
HETATM    1  C1  UNL     1     -34.468  15.923  -3.194  1.00 20.00    -0.071 C 
HETATM    2  C2  UNL     1     -34.651  15.920  -1.870  1.00 20.00    -0.027 C 
HETATM    3  C3  UNL     1     -35.311  17.526  -4.874  1.00 20.00     0.009 C 
HETATM    4  C4  UNL     1     -35.359  16.406  -5.931  1.00 20.00     0.006 C 
HETATM    5  C5  UNL     1     -33.172  16.497  -5.059  1.00 20.00     0.014 C 
HETATM    6  C6  UNL     1     -34.090  17.139  -4.021  1.00 20.00     0.015 C 
HETATM    7  C7  UNL     1     -34.221  15.459  -5.489  1.00 20.00    -0.002 C 
HETATM    8  C8  UNL     1     -34.548  14.730  -4.142  1.00 20.00    -0.021 C 
HETATM    9  C9  UNL     1     -34.510  17.127  -1.005  1.00 20.00     0.036 C 
HETATM   10  C10 UNL     1     -35.927  14.057  -4.132  1.00 20.00     0.020 C 
HETATM   11  C11 UNL     1     -33.481  13.667  -3.820  1.00 20.00     0.020 C 
ENDROOT
TORSDOF 0
ENDMDL
MODEL 2
REMARK VINA RESULT:      -4.8      1.314      3.189
REMARK  0 active torsions:
REMARK  status: ('A' for Active; 'I' for Inactive)
ROOT
HETATM    1  C1  UNL     1     -34.487  16.192  -4.925  1.00 20.00    -0.071 C 
HETATM    2  C2  UNL     1     -34.393  17.229  -5.764  1.00 20.00    -0.027 C 
HETATM    3  C3  UNL     1     -32.686  14.984  -3.743  1.00 20.00     0.009 C 
HETATM    4  C4  UNL     1     -33.516  13.688  -3.784  1.00 20.00     0.006 C 
HETATM    5  C5  UNL     1     -34.821  15.361  -2.761  1.00 20.00     0.014 C 
HETATM    6  C6  UNL     1     -33.761  16.075  -3.598  1.00 20.00     0.015 C 
HETATM    7  C7  UNL     1     -34.972  14.204  -3.761  1.00 20.00    -0.002 C 
HETATM    8  C8  UNL     1     -35.356  14.948  -5.085  1.00 20.00    -0.021 C 
HETATM    9  C9  UNL     1     -33.551  18.433  -5.513  1.00 20.00     0.036 C 
HETATM   10  C10 UNL     1     -35.022  14.150  -6.352  1.00 20.00     0.020 C 
HETATM   11  C11 UNL     1     -36.857  15.294  -5.104  1.00 20.00     0.020 C 
ENDROOT
TORSDOF 0
ENDMDL
MODEL 3
REMARK VINA RESULT:      -4.8      1.111      2.229
REMARK  0 active torsions:
REMARK  status: ('A' for Active; 'I' for Inactive)
ROOT
HETATM    1  C1  UNL     1     -35.163  15.833  -3.035  1.00 20.00    -0.071 C 
HETATM    2  C2  UNL     1     -35.461  16.519  -1.927  1.00 20.00    -0.027 C 
HETATM    3  C3  UNL     1     -33.117  15.928  -4.416  1.00 20.00     0.009 C 
HETATM    4  C4  UNL     1     -33.937  15.578  -5.672  1.00 20.00     0.006 C 
HETATM    5  C5  UNL     1     -34.316  13.904  -4.058  1.00 20.00     0.014 C 
HETATM    6  C6  UNL     1     -33.838  15.144  -3.306  1.00 20.00     0.015 C 
HETATM    7  C7  UNL     1     -35.090  14.718  -5.107  1.00 20.00    -0.002 C 
HETATM    8  C8  UNL     1     -36.076  15.557  -4.226  1.00 20.00    -0.021 C 
HETATM    9  C9  UNL     1     -34.522  16.707  -0.784  1.00 20.00     0.036 C 
HETATM   10  C10 UNL     1     -36.565  16.841  -4.910  1.00 20.00     0.020 C 
HETATM   11  C11 UNL     1     -37.304  14.717  -3.825  1.00 20.00     0.020 C 
ENDROOT
TORSDOF 0
ENDMDL
MODEL 4
REMARK VINA RESULT:      -4.7      1.236      2.929
REMARK  0 active torsions:
REMARK  status: ('A' for Active; 'I' for Inactive)
ROOT
HETATM    1  C1  UNL     1     -34.261  16.016  -4.858  1.00 20.00    -0.071 C 
HETATM    2  C2  UNL     1     -33.659  17.186  -5.094  1.00 20.00    -0.027 C 
HETATM    3  C3  UNL     1     -36.634  15.402  -5.164  1.00 20.00     0.009 C 
HETATM    4  C4  UNL     1     -36.534  14.400  -3.998  1.00 20.00     0.006 C 
HETATM    5  C5  UNL     1     -34.861  13.866  -5.568  1.00 20.00     0.014 C 
HETATM    6  C6  UNL     1     -35.234  15.329  -5.798  1.00 20.00     0.015 C 
HETATM    7  C7  UNL     1     -35.056  13.954  -4.046  1.00 20.00    -0.002 C 
HETATM    8  C8  UNL     1     -34.077  15.108  -3.645  1.00 20.00    -0.021 C 
HETATM    9  C9  UNL     1     -33.860  17.994  -6.331  1.00 20.00     0.036 C 
HETATM   10  C10 UNL     1     -34.453  15.797  -2.326  1.00 20.00     0.020 C 
HETATM   11  C11 UNL     1     -32.631  14.587  -3.532  1.00 20.00     0.020 C 
ENDROOT
TORSDOF 0
ENDMDL
MODEL 5
REMARK VINA RESULT:      -4.7      1.280      3.359
REMARK  0 active torsions:
REMARK  status: ('A' for Active; 'I' for Inactive)
ROOT
HETATM    1  C1  UNL     1     -36.000  15.332  -3.919  1.00 20.00    -0.071 C 
HETATM    2  C2  UNL     1     -37.268  15.529  -3.543  1.00 20.00    -0.027 C 
HETATM    3  C3  UNL     1     -34.769  13.206  -4.174  1.00 20.00     0.009 C 
HETATM    4  C4  UNL     1     -33.454  13.912  -3.795  1.00 20.00     0.006 C 
HETATM    5  C5  UNL     1     -34.408  15.065  -5.615  1.00 20.00     0.014 C 
HETATM    6  C6  UNL     1     -35.540  14.301  -4.932  1.00 20.00     0.015 C 
HETATM    7  C7  UNL     1     -33.677  15.357  -4.295  1.00 20.00    -0.002 C 
HETATM    8  C8  UNL     1     -34.769  16.108  -3.461  1.00 20.00    -0.021 C 
HETATM    9  C9  UNL     1     -38.426  14.753  -4.074  1.00 20.00     0.036 C 
HETATM   10  C10 UNL     1     -34.545  16.025  -1.946  1.00 20.00     0.020 C 
HETATM   11  C11 UNL     1     -34.843  17.593  -3.866  1.00 20.00     0.020 C 
ENDROOT
TORSDOF 0
ENDMDL
MODEL 6
REMARK VINA RESULT:      -4.7      0.970      2.876
REMARK  0 active torsions:
REMARK  status: ('A' for Active; 'I' for Inactive)
ROOT
HETATM    1  C1  UNL     1     -34.740  16.138  -3.374  1.00 20.00    -0.071 C 
HETATM    2  C2  UNL     1     -34.316  16.952  -2.402  1.00 20.00    -0.027 C 
HETATM    3  C3  UNL     1     -34.389  13.707  -3.626  1.00 20.00     0.009 C 
HETATM    4  C4  UNL     1     -34.423  13.852  -5.160  1.00 20.00     0.006 C 
HETATM    5  C5  UNL     1     -36.409  14.776  -4.292  1.00 20.00     0.014 C 
HETATM    6  C6  UNL     1     -35.385  14.782  -3.159  1.00 20.00     0.015 C 
HETATM    7  C7  UNL     1     -35.358  15.063  -5.375  1.00 20.00    -0.002 C 
HETATM    8  C8  UNL     1     -34.715  16.401  -4.877  1.00 20.00    -0.021 C 
HETATM    9  C9  UNL     1     -34.418  16.638  -0.947  1.00 20.00     0.036 C 
HETATM   10  C10 UNL     1     -33.296  16.635  -5.414  1.00 20.00     0.020 C 
HETATM   11  C11 UNL     1     -35.591  17.608  -5.264  1.00 20.00     0.020 C 
ENDROOT
TORSDOF 0
ENDMDL
MODEL 7
REMARK VINA RESULT:      -4.7      1.034      3.235
REMARK  0 active torsions:
REMARK  status: ('A' for Active; 'I' for Inactive)
ROOT
HETATM    1  C1  UNL     1     -34.491  15.693  -4.901  1.00 20.00    -0.071 C 
HETATM    2  C2  UNL     1     -34.214  15.591  -6.204  1.00 20.00    -0.027 C 
HETATM    3  C3  UNL     1     -33.967  17.536  -3.342  1.00 20.00     0.009 C 
HETATM    4  C4  UNL     1     -33.863  16.534  -2.177  1.00 20.00     0.006 C 
HETATM    5  C5  UNL     1     -35.976  16.270  -3.184  1.00 20.00     0.014 C 
HETATM    6  C6  UNL     1     -35.069  16.923  -4.224  1.00 20.00     0.015 C 
HETATM    7  C7  UNL     1     -34.846  15.415  -2.590  1.00 20.00    -0.002 C 
HETATM    8  C8  UNL     1     -34.338  14.612  -3.835  1.00 20.00    -0.021 C 
HETATM    9  C9  UNL     1     -34.435  16.685  -7.193  1.00 20.00     0.036 C 
HETATM   10  C10 UNL     1     -32.892  14.118  -3.694  1.00 20.00     0.020 C 
HETATM   11  C11 UNL     1     -35.246  13.398  -4.113  1.00 20.00     0.020 C 
ENDROOT
TORSDOF 0
ENDMDL
MODEL 8
REMARK VINA RESULT:      -4.6      1.175      2.839
REMARK  0 active torsions:
REMARK  status: ('A' for Active; 'I' for Inactive)
ROOT
HETATM    1  C1  UNL     1     -34.341  16.498  -4.148  1.00 20.00    -0.071 C 
HETATM    2  C2  UNL     1     -34.396  17.806  -4.417  1.00 20.00    -0.027 C 
HETATM    3  C3  UNL     1     -34.408  14.587  -5.712  1.00 20.00     0.009 C 
HETATM    4  C4  UNL     1     -35.090  13.720  -4.638  1.00 20.00     0.006 C 
HETATM    5  C5  UNL     1     -33.086  14.565  -3.733  1.00 20.00     0.014 C 
HETATM    6  C6  UNL     1     -33.477  15.490  -4.883  1.00 20.00     0.015 C 
HETATM    7  C7  UNL     1     -34.542  14.305  -3.317  1.00 20.00    -0.002 C 
HETATM    8  C8  UNL     1     -35.080  15.749  -3.042  1.00 20.00    -0.021 C 
HETATM    9  C9  UNL     1     -33.605  18.471  -5.492  1.00 20.00     0.036 C 
HETATM   10  C10 UNL     1     -36.605  15.866  -3.162  1.00 20.00     0.020 C 
HETATM   11  C11 UNL     1     -34.659  16.234  -1.641  1.00 20.00     0.020 C 
ENDROOT
TORSDOF 0
ENDMDL
MODEL 9
REMARK VINA RESULT:      -4.6      1.316      3.261
REMARK  0 active torsions:
REMARK  status: ('A' for Active; 'I' for Inactive)
ROOT
HETATM    1  C1  UNL     1     -35.820  15.231  -4.630  1.00 20.00    -0.071 C 
HETATM    2  C2  UNL     1     -37.104  15.303  -4.997  1.00 20.00    -0.027 C 
HETATM    3  C3  UNL     1     -34.800  15.758  -2.443  1.00 20.00     0.009 C 
HETATM    4  C4  UNL     1     -33.495  16.181  -3.144  1.00 20.00     0.006 C 
HETATM    5  C5  UNL     1     -34.011  13.984  -3.820  1.00 20.00     0.014 C 
HETATM    6  C6  UNL     1     -35.315  14.617  -3.338  1.00 20.00     0.015 C 
HETATM    7  C7  UNL     1     -33.477  15.298  -4.412  1.00 20.00    -0.002 C 
HETATM    8  C8  UNL     1     -34.603  15.696  -5.425  1.00 20.00    -0.021 C 
HETATM    9  C9  UNL     1     -38.236  14.782  -4.179  1.00 20.00     0.036 C 
HETATM   10  C10 UNL     1     -34.639  17.197  -5.740  1.00 20.00     0.020 C 
HETATM   11  C11 UNL     1     -34.450  14.921  -6.747  1.00 20.00     0.020 C 
ENDROOT
TORSDOF 0
ENDMDL
