MODEL 1
REMARK VINA RESULT:      -5.2      0.000      0.000
REMARK  2 active torsions:
REMARK  status: ('A' for Active; 'I' for Inactive)
REMARK    1  A    between atoms: C1_1  and  P9_9 
REMARK    2  A    between atoms: C2_2  and  P9_9 
ROOT
HETATM    1  P9  UNL     1     -33.626   5.301   5.132  1.00 20.00     0.209 P 
HETATM    2 CL10 UNL     1     -33.925   6.885   6.476  1.00 20.00    -0.077 Cl
ENDROOT
BRANCH   1   3
HETATM    3  C1  UNL     1     -35.205   4.524   5.113  1.00 20.00     0.429 C 
HETATM    4  F3  UNL     1     -35.007   3.299   4.622  1.00 20.00    -0.165 F 
HETATM    5  F4  UNL     1     -35.611   4.493   6.384  1.00 20.00    -0.165 F 
HETATM    6  F5  UNL     1     -36.013   5.253   4.343  1.00 20.00    -0.165 F 
ENDBRANCH   1   3
BRANCH   1   7
HETATM    7  C2  UNL     1     -33.534   6.137   3.585  1.00 20.00     0.429 C 
HETATM    8  F6  UNL     1     -32.244   6.423   3.397  1.00 20.00    -0.165 F 
HETATM    9  F7  UNL     1     -34.274   7.239   3.721  1.00 20.00    -0.165 F 
HETATM   10  F8  UNL     1     -34.013   5.319   2.647  1.00 20.00    -0.165 F 
ENDBRANCH   1   7
TORSDOF 2
ENDMDL
MODEL 2
REMARK VINA RESULT:      -5.2      0.032      1.208
REMARK  2 active torsions:
REMARK  status: ('A' for Active; 'I' for Inactive)
REMARK    1  A    between atoms: C1_1  and  P9_9 
REMARK    2  A    between atoms: C2_2  and  P9_9 
ROOT
HETATM    1  P9  UNL     1     -33.616   5.306   5.157  1.00 20.00     0.209 P 
HETATM    2 CL10 UNL     1     -33.944   6.898   6.485  1.00 20.00    -0.077 Cl
ENDROOT
BRANCH   1   3
HETATM    3  C1  UNL     1     -35.183   4.504   5.141  1.00 20.00     0.429 C 
HETATM    4  F3  UNL     1     -35.592   4.469   6.410  1.00 20.00    -0.165 F 
HETATM    5  F4  UNL     1     -35.973   5.267   4.383  1.00 20.00    -0.165 F 
HETATM    6  F5  UNL     1     -35.016   3.285   4.627  1.00 20.00    -0.165 F 
ENDBRANCH   1   3
BRANCH   1   7
HETATM    7  C2  UNL     1     -33.531   6.128   3.602  1.00 20.00     0.429 C 
HETATM    8  F6  UNL     1     -32.242   6.410   3.404  1.00 20.00    -0.165 F 
HETATM    9  F7  UNL     1     -34.269   7.233   3.734  1.00 20.00    -0.165 F 
HETATM   10  F8  UNL     1     -34.018   5.303   2.675  1.00 20.00    -0.165 F 
ENDBRANCH   1   7
TORSDOF 2
ENDMDL
MODEL 3
REMARK VINA RESULT:      -5.0      1.542      3.486
REMARK  2 active torsions:
REMARK  status: ('A' for Active; 'I' for Inactive)
REMARK    1  A    between atoms: C1_1  and  P9_9 
REMARK    2  A    between atoms: C2_2  and  P9_9 
ROOT
HETATM    1  P9  UNL     1     -33.978   6.856   4.084  1.00 20.00     0.209 P 
HETATM    2 CL10 UNL     1     -33.655   6.447   6.117  1.00 20.00    -0.077 Cl
ENDROOT
BRANCH   1   3
HETATM    3  C1  UNL     1     -32.348   6.773   3.423  1.00 20.00     0.429 C 
HETATM    4  F3  UNL     1     -32.424   7.282   2.191  1.00 20.00    -0.165 F 
HETATM    5  F4  UNL     1     -31.591   7.522   4.226  1.00 20.00    -0.165 F 
HETATM    6  F5  UNL     1     -31.970   5.495   3.420  1.00 20.00    -0.165 F 
ENDBRANCH   1   3
BRANCH   1   7
HETATM    7  C2  UNL     1     -34.750   5.376   3.523  1.00 20.00     0.429 C 
HETATM    8  F6  UNL     1     -36.053   5.653   3.430  1.00 20.00    -0.165 F 
HETATM    9  F7  UNL     1     -34.502   4.458   4.460  1.00 20.00    -0.165 F 
HETATM   10  F8  UNL     1     -34.215   5.054   2.345  1.00 20.00    -0.165 F 
ENDBRANCH   1   7
TORSDOF 2
ENDMDL
MODEL 4
REMARK VINA RESULT:      -4.9      1.987      3.044
REMARK  2 active torsions:
REMARK  status: ('A' for Active; 'I' for Inactive)
REMARK    1  A    between atoms: C1_1  and  P9_9 
REMARK    2  A    between atoms: C2_2  and  P9_9 
ROOT
HETATM    1  P9  UNL     1     -34.271   6.497   4.510  1.00 20.00     0.209 P 
HETATM    2 CL10 UNL     1     -32.355   6.304   3.676  1.00 20.00    -0.077 Cl
ENDROOT
BRANCH   1   3
HETATM    3  C1  UNL     1     -35.173   5.242   3.666  1.00 20.00     0.429 C 
HETATM    4  F3  UNL     1     -36.368   5.770   3.392  1.00 20.00    -0.165 F 
HETATM    5  F4  UNL     1     -34.479   4.978   2.558  1.00 20.00    -0.165 F 
HETATM    6  F5  UNL     1     -35.259   4.184   4.472  1.00 20.00    -0.165 F 
ENDBRANCH   1   3
BRANCH   1   7
HETATM    7  C2  UNL     1     -34.040   5.849   6.131  1.00 20.00     0.429 C 
HETATM    8  F6  UNL     1     -33.288   6.741   6.780  1.00 20.00    -0.165 F 
HETATM    9  F7  UNL     1     -33.405   4.686   5.972  1.00 20.00    -0.165 F 
HETATM   10  F8  UNL     1     -35.241   5.697   6.688  1.00 20.00    -0.165 F 
ENDBRANCH   1   7
TORSDOF 2
ENDMDL
MODEL 5
REMARK VINA RESULT:      -4.9      0.962      3.307
REMARK  2 active torsions:
REMARK  status: ('A' for Active; 'I' for Inactive)
REMARK    1  A    between atoms: C1_1  and  P9_9 
REMARK    2  A    between atoms: C2_2  and  P9_9 
ROOT
HETATM    1  P9  UNL     1     -34.750   5.934   5.022  1.00 20.00     0.209 P 
HETATM    2 CL10 UNL     1     -33.592   6.856   6.508  1.00 20.00    -0.077 Cl
ENDROOT
BRANCH   1   3
HETATM    3  C1  UNL     1     -33.657   5.933   3.642  1.00 20.00     0.429 C 
HETATM    4  F3  UNL     1     -34.255   5.204   2.698  1.00 20.00    -0.165 F 
HETATM    5  F4  UNL     1     -33.528   7.210   3.279  1.00 20.00    -0.165 F 
HETATM    6  F5  UNL     1     -32.499   5.401   4.036  1.00 20.00    -0.165 F 
ENDBRANCH   1   3
BRANCH   1   7
HETATM    7  C2  UNL     1     -34.778   4.256   5.556  1.00 20.00     0.429 C 
HETATM    8  F6  UNL     1     -35.132   3.535   4.490  1.00 20.00    -0.165 F 
HETATM    9  F7  UNL     1     -35.696   4.197   6.524  1.00 20.00    -0.165 F 
HETATM   10  F8  UNL     1     -33.559   3.945   5.997  1.00 20.00    -0.165 F 
ENDBRANCH   1   7
TORSDOF 2
ENDMDL
MODEL 6
REMARK VINA RESULT:      -4.6      1.790      3.636
REMARK  2 active torsions:
REMARK  status: ('A' for Active; 'I' for Inactive)
REMARK    1  A    between atoms: C1_1  and  P9_9 
REMARK    2  A    between atoms: C2_2  and  P9_9 
ROOT
HETATM    1  P9  UNL     1     -34.279   4.996   4.470  1.00 20.00     0.209 P 
HETATM    2 CL10 UNL     1     -36.098   5.667   3.667  1.00 20.00    -0.077 Cl
ENDROOT
BRANCH   1   3
HETATM    3  C1  UNL     1     -33.212   6.365   4.173  1.00 20.00     0.429 C 
HETATM    4  F3  UNL     1     -32.196   5.889   3.450  1.00 20.00    -0.165 F 
HETATM    5  F4  UNL     1     -33.939   7.251   3.489  1.00 20.00    -0.165 F 
HETATM    6  F5  UNL     1     -32.816   6.841   5.353  1.00 20.00    -0.165 F 
ENDBRANCH   1   3
BRANCH   1   7
HETATM    7  C2  UNL     1     -34.590   5.056   6.202  1.00 20.00     0.429 C 
HETATM    8  F6  UNL     1     -33.540   4.475   6.786  1.00 20.00    -0.165 F 
HETATM    9  F7  UNL     1     -35.714   4.361   6.394  1.00 20.00    -0.165 F 
HETATM   10  F8  UNL     1     -34.722   6.336   6.552  1.00 20.00    -0.165 F 
ENDBRANCH   1   7
TORSDOF 2
ENDMDL
MODEL 7
REMARK VINA RESULT:      -4.3      2.139      2.721
REMARK  2 active torsions:
REMARK  status: ('A' for Active; 'I' for Inactive)
REMARK    1  A    between atoms: C1_1  and  P9_9 
REMARK    2  A    between atoms: C2_2  and  P9_9 
ROOT
HETATM    1  P9  UNL     1     -34.753   5.917   4.711  1.00 20.00     0.209 P 
HETATM    2 CL10 UNL     1     -35.068   3.853   4.914  1.00 20.00    -0.077 Cl
ENDROOT
BRANCH   1   3
HETATM    3  C1  UNL     1     -33.862   6.305   6.179  1.00 20.00     0.429 C 
HETATM    4  F3  UNL     1     -33.537   5.135   6.733  1.00 20.00    -0.165 F 
HETATM    5  F4  UNL     1     -32.784   6.985   5.781  1.00 20.00    -0.165 F 
HETATM    6  F5  UNL     1     -34.657   7.034   6.962  1.00 20.00    -0.165 F 
ENDBRANCH   1   3
BRANCH   1   7
HETATM    7  C2  UNL     1     -33.541   5.987   3.436  1.00 20.00     0.429 C 
HETATM    8  F6  UNL     1     -34.038   5.285   2.416  1.00 20.00    -0.165 F 
HETATM    9  F7  UNL     1     -32.444   5.419   3.944  1.00 20.00    -0.165 F 
HETATM   10  F8  UNL     1     -33.346   7.269   3.123  1.00 20.00    -0.165 F 
ENDBRANCH   1   7
TORSDOF 2
ENDMDL
MODEL 8
REMARK VINA RESULT:      -4.3      2.167      2.570
REMARK  2 active torsions:
REMARK  status: ('A' for Active; 'I' for Inactive)
REMARK    1  A    between atoms: C1_1  and  P9_9 
REMARK    2  A    between atoms: C2_2  and  P9_9 
ROOT
HETATM    1  P9  UNL     1     -34.139   6.485   3.730  1.00 20.00     0.209 P 
HETATM    2 CL10 UNL     1     -34.402   4.933   2.342  1.00 20.00    -0.077 Cl
ENDROOT
BRANCH   1   3
HETATM    3  C1  UNL     1     -34.329   5.648   5.267  1.00 20.00     0.429 C 
HETATM    4  F3  UNL     1     -34.206   6.582   6.212  1.00 20.00    -0.165 F 
HETATM    5  F4  UNL     1     -35.554   5.120   5.244  1.00 20.00    -0.165 F 
HETATM    6  F5  UNL     1     -33.379   4.716   5.348  1.00 20.00    -0.165 F 
ENDBRANCH   1   3
BRANCH   1   7
HETATM    7  C2  UNL     1     -32.410   6.799   3.617  1.00 20.00     0.429 C 
HETATM    8  F6  UNL     1     -32.047   7.294   4.802  1.00 20.00    -0.165 F 
HETATM    9  F7  UNL     1     -32.266   7.695   2.637  1.00 20.00    -0.165 F 
HETATM   10  F8  UNL     1     -31.800   5.646   3.340  1.00 20.00    -0.165 F 
ENDBRANCH   1   7
TORSDOF 2
ENDMDL
MODEL 9
REMARK VINA RESULT:      -4.2     11.904     13.375
REMARK  2 active torsions:
REMARK  status: ('A' for Active; 'I' for Inactive)
REMARK    1  A    between atoms: C1_1  and  P9_9 
REMARK    2  A    between atoms: C2_2  and  P9_9 
ROOT
HETATM    1  P9  UNL     1     -34.886  15.604  -4.038  1.00 20.00     0.209 P 
HETATM    2 CL10 UNL     1     -34.706  15.924  -1.971  1.00 20.00    -0.077 Cl
ENDROOT
BRANCH   1   3
HETATM    3  C1  UNL     1     -33.335  16.178  -4.641  1.00 20.00     0.429 C 
HETATM    4  F3  UNL     1     -33.385  16.047  -5.968  1.00 20.00    -0.165 F 
HETATM    5  F4  UNL     1     -33.251  17.457  -4.269  1.00 20.00    -0.165 F 
HETATM    6  F5  UNL     1     -32.378  15.430  -4.093  1.00 20.00    -0.165 F 
ENDBRANCH   1   3
BRANCH   1   7
HETATM    7  C2  UNL     1     -34.776  13.850  -4.156  1.00 20.00     0.429 C 
HETATM    8  F6  UNL     1     -36.030  13.398  -4.100  1.00 20.00    -0.165 F 
HETATM    9  F7  UNL     1     -34.057  13.458  -3.101  1.00 20.00    -0.165 F 
HETATM   10  F8  UNL     1     -34.180  13.553  -5.311  1.00 20.00    -0.165 F 
ENDBRANCH   1   7
TORSDOF 2
ENDMDL
