MODEL 1
REMARK VINA RESULT:      -5.1      0.000      0.000
REMARK  2 active torsions:
REMARK  status: ('A' for Active; 'I' for Inactive)
REMARK    1  A    between atoms: C1_1  and  C2_2 
REMARK    2  A    between atoms: C1_1  and  C3_3 
ROOT
HETATM    1  C1  UNL     1     -35.023   4.425   4.672  1.00 20.00     0.168 C 
ENDROOT
BRANCH   1   2
HETATM    2  C2  UNL     1     -34.973   5.556   3.662  1.00 20.00     0.360 C 
HETATM    3  F4  UNL     1     -34.281   5.144   2.569  1.00 20.00    -0.214 F 
HETATM    4  F5  UNL     1     -36.227   5.850   3.236  1.00 20.00    -0.214 F 
ENDBRANCH   1   2
BRANCH   1   5
HETATM    5  C3  UNL     1     -34.679   4.840   6.094  1.00 20.00     0.325 C 
HETATM    6  F6  UNL     1     -35.775   4.718   6.885  1.00 20.00    -0.188 F 
HETATM    7  F7  UNL     1     -33.752   3.978   6.588  1.00 20.00    -0.188 F 
HETATM    8 CL8  UNL     1     -34.047   6.490   6.199  1.00 20.00    -0.048 Cl
ENDBRANCH   1   5
TORSDOF 2
ENDMDL
MODEL 2
REMARK VINA RESULT:      -5.0      1.859      3.355
REMARK  2 active torsions:
REMARK  status: ('A' for Active; 'I' for Inactive)
REMARK    1  A    between atoms: C1_1  and  C2_2 
REMARK    2  A    between atoms: C1_1  and  C3_3 
ROOT
HETATM    1  C1  UNL     1     -34.113   6.283   4.778  1.00 20.00     0.168 C 
ENDROOT
BRANCH   1   2
HETATM    2  C2  UNL     1     -33.952   6.045   6.267  1.00 20.00     0.360 C 
HETATM    3  F4  UNL     1     -33.499   7.185   6.851  1.00 20.00    -0.214 F 
HETATM    4  F5  UNL     1     -35.159   5.779   6.826  1.00 20.00    -0.214 F 
ENDBRANCH   1   2
BRANCH   1   5
HETATM    5  C3  UNL     1     -34.891   5.196   4.051  1.00 20.00     0.325 C 
HETATM    6  F6  UNL     1     -36.165   5.613   3.833  1.00 20.00    -0.188 F 
HETATM    7  F7  UNL     1     -34.335   5.006   2.826  1.00 20.00    -0.188 F 
HETATM    8 CL8  UNL     1     -34.908   3.656   4.924  1.00 20.00    -0.048 Cl
ENDBRANCH   1   5
TORSDOF 2
ENDMDL
MODEL 3
REMARK VINA RESULT:      -5.0      1.886      2.430
REMARK  2 active torsions:
REMARK  status: ('A' for Active; 'I' for Inactive)
REMARK    1  A    between atoms: C1_1  and  C2_2 
REMARK    2  A    between atoms: C1_1  and  C3_3 
ROOT
HETATM    1  C1  UNL     1     -34.088   5.388   3.252  1.00 20.00     0.168 C 
ENDROOT
BRANCH   1   2
HETATM    2  C2  UNL     1     -32.968   6.326   3.660  1.00 20.00     0.360 C 
HETATM    3  F4  UNL     1     -31.776   5.763   3.331  1.00 20.00    -0.214 F 
HETATM    4  F5  UNL     1     -33.054   7.483   2.957  1.00 20.00    -0.214 F 
ENDBRANCH   1   2
BRANCH   1   5
HETATM    5  C3  UNL     1     -35.027   5.004   4.386  1.00 20.00     0.325 C 
HETATM    6  F6  UNL     1     -36.293   5.388   4.082  1.00 20.00    -0.188 F 
HETATM    7  F7  UNL     1     -35.052   3.650   4.492  1.00 20.00    -0.188 F 
HETATM    8 CL8  UNL     1     -34.550   5.698   5.943  1.00 20.00    -0.048 Cl
ENDBRANCH   1   5
TORSDOF 2
ENDMDL
MODEL 4
REMARK VINA RESULT:      -4.9      2.135      3.462
REMARK  2 active torsions:
REMARK  status: ('A' for Active; 'I' for Inactive)
REMARK    1  A    between atoms: C1_1  and  C2_2 
REMARK    2  A    between atoms: C1_1  and  C3_3 
ROOT
HETATM    1  C1  UNL     1     -34.069   6.023   4.829  1.00 20.00     0.168 C 
ENDROOT
BRANCH   1   2
HETATM    2  C2  UNL     1     -34.505   5.946   6.280  1.00 20.00     0.360 C 
HETATM    3  F4  UNL     1     -33.949   4.846   6.850  1.00 20.00    -0.214 F 
HETATM    4  F5  UNL     1     -34.029   7.016   6.963  1.00 20.00    -0.214 F 
ENDBRANCH   1   2
BRANCH   1   5
HETATM    5  C3  UNL     1     -34.901   5.173   3.879  1.00 20.00     0.325 C 
HETATM    6  F6  UNL     1     -35.084   3.937   4.411  1.00 20.00    -0.188 F 
HETATM    7  F7  UNL     1     -36.136   5.728   3.766  1.00 20.00    -0.188 F 
HETATM    8 CL8  UNL     1     -34.181   5.029   2.269  1.00 20.00    -0.048 Cl
ENDBRANCH   1   5
TORSDOF 2
ENDMDL
MODEL 5
REMARK VINA RESULT:      -4.8      2.377      3.302
REMARK  2 active torsions:
REMARK  status: ('A' for Active; 'I' for Inactive)
REMARK    1  A    between atoms: C1_1  and  C2_2 
REMARK    2  A    between atoms: C1_1  and  C3_3 
ROOT
HETATM    1  C1  UNL     1     -33.878   6.471   4.019  1.00 20.00     0.168 C 
ENDROOT
BRANCH   1   2
HETATM    2  C2  UNL     1     -32.739   6.570   3.022  1.00 20.00     0.360 C 
HETATM    3  F4  UNL     1     -32.191   7.811   3.099  1.00 20.00    -0.214 F 
HETATM    4  F5  UNL     1     -31.757   5.695   3.354  1.00 20.00    -0.214 F 
ENDBRANCH   1   2
BRANCH   1   5
HETATM    5  C3  UNL     1     -34.858   5.341   3.738  1.00 20.00     0.325 C 
HETATM    6  F6  UNL     1     -36.078   5.855   3.441  1.00 20.00    -0.188 F 
HETATM    7  F7  UNL     1     -34.445   4.670   2.631  1.00 20.00    -0.188 F 
HETATM    8 CL8  UNL     1     -35.002   4.201   5.085  1.00 20.00    -0.048 Cl
ENDBRANCH   1   5
TORSDOF 2
ENDMDL
MODEL 6
REMARK VINA RESULT:      -4.8      1.785      3.329
REMARK  2 active torsions:
REMARK  status: ('A' for Active; 'I' for Inactive)
REMARK    1  A    between atoms: C1_1  and  C2_2 
REMARK    2  A    between atoms: C1_1  and  C3_3 
ROOT
HETATM    1  C1  UNL     1     -33.995   5.554   5.177  1.00 20.00     0.168 C 
ENDROOT
BRANCH   1   2
HETATM    2  C2  UNL     1     -35.160   4.611   5.408  1.00 20.00     0.360 C 
HETATM    3  F4  UNL     1     -34.728   3.331   5.267  1.00 20.00    -0.214 F 
HETATM    4  F5  UNL     1     -35.605   4.729   6.684  1.00 20.00    -0.214 F 
ENDBRANCH   1   2
BRANCH   1   5
HETATM    5  C3  UNL     1     -33.853   6.033   3.740  1.00 20.00     0.325 C 
HETATM    6  F6  UNL     1     -34.567   5.226   2.915  1.00 20.00    -0.188 F 
HETATM    7  F7  UNL     1     -34.404   7.271   3.637  1.00 20.00    -0.188 F 
HETATM    8 CL8  UNL     1     -32.169   6.102   3.198  1.00 20.00    -0.048 Cl
ENDBRANCH   1   5
TORSDOF 2
ENDMDL
MODEL 7
REMARK VINA RESULT:      -4.7      2.459      3.224
REMARK  2 active torsions:
REMARK  status: ('A' for Active; 'I' for Inactive)
REMARK    1  A    between atoms: C1_1  and  C2_2 
REMARK    2  A    between atoms: C1_1  and  C3_3 
ROOT
HETATM    1  C1  UNL     1     -33.930   5.590   2.929  1.00 20.00     0.168 C 
ENDROOT
BRANCH   1   2
HETATM    2  C2  UNL     1     -35.003   5.413   3.987  1.00 20.00     0.360 C 
HETATM    3  F4  UNL     1     -36.210   5.729   3.450  1.00 20.00    -0.214 F 
HETATM    4  F5  UNL     1     -35.075   4.110   4.358  1.00 20.00    -0.214 F 
ENDBRANCH   1   2
BRANCH   1   5
HETATM    5  C3  UNL     1     -32.710   6.369   3.399  1.00 20.00     0.325 C 
HETATM    6  F6  UNL     1     -32.877   6.746   4.692  1.00 20.00    -0.188 F 
HETATM    7  F7  UNL     1     -31.631   5.544   3.377  1.00 20.00    -0.188 F 
HETATM    8 CL8  UNL     1     -32.372   7.791   2.400  1.00 20.00    -0.048 Cl
ENDBRANCH   1   5
TORSDOF 2
ENDMDL
MODEL 8
REMARK VINA RESULT:      -4.7      2.136      3.538
REMARK  2 active torsions:
REMARK  status: ('A' for Active; 'I' for Inactive)
REMARK    1  A    between atoms: C1_1  and  C2_2 
REMARK    2  A    between atoms: C1_1  and  C3_3 
ROOT
HETATM    1  C1  UNL     1     -33.747   6.339   4.457  1.00 20.00     0.168 C 
ENDROOT
BRANCH   1   2
HETATM    2  C2  UNL     1     -34.717   5.194   4.681  1.00 20.00     0.360 C 
HETATM    3  F4  UNL     1     -35.074   5.166   5.991  1.00 20.00    -0.214 F 
HETATM    4  F5  UNL     1     -35.855   5.408   3.975  1.00 20.00    -0.214 F 
ENDBRANCH   1   2
BRANCH   1   5
HETATM    5  C3  UNL     1     -32.901   6.206   3.200  1.00 20.00     0.325 C 
HETATM    6  F6  UNL     1     -31.777   5.497   3.477  1.00 20.00    -0.188 F 
HETATM    7  F7  UNL     1     -33.593   5.483   2.282  1.00 20.00    -0.188 F 
HETATM    8 CL8  UNL     1     -32.462   7.769   2.494  1.00 20.00    -0.048 Cl
ENDBRANCH   1   5
TORSDOF 2
ENDMDL
MODEL 9
REMARK VINA RESULT:      -4.6      2.150      2.674
REMARK  2 active torsions:
REMARK  status: ('A' for Active; 'I' for Inactive)
REMARK    1  A    between atoms: C1_1  and  C2_2 
REMARK    2  A    between atoms: C1_1  and  C3_3 
ROOT
HETATM    1  C1  UNL     1     -33.391   6.353   4.956  1.00 20.00     0.168 C 
ENDROOT
BRANCH   1   2
HETATM    2  C2  UNL     1     -33.046   6.232   3.484  1.00 20.00     0.360 C 
HETATM    3  F4  UNL     1     -32.995   7.474   2.938  1.00 20.00    -0.214 F 
HETATM    4  F5  UNL     1     -31.808   5.697   3.342  1.00 20.00    -0.214 F 
ENDBRANCH   1   2
BRANCH   1   5
HETATM    5  C3  UNL     1     -34.436   5.357   5.438  1.00 20.00     0.325 C 
HETATM    6  F6  UNL     1     -33.833   4.191   5.782  1.00 20.00    -0.188 F 
HETATM    7  F7  UNL     1     -35.009   5.841   6.571  1.00 20.00    -0.188 F 
HETATM    8 CL8  UNL     1     -35.699   5.046   4.238  1.00 20.00    -0.048 Cl
ENDBRANCH   1   5
TORSDOF 2
ENDMDL
