MODEL 1
REMARK VINA RESULT:      -5.1      0.000      0.000
REMARK  1 active torsions:
REMARK  status: ('A' for Active; 'I' for Inactive)
REMARK    1  A    between atoms: C4_4  and  C8_8 
ROOT
HETATM    1  C1  UNL     1     -33.767  17.146  -4.303  1.00 20.00     0.030 A 
HETATM    2  C2  UNL     1     -34.491  15.924  -2.361  1.00 20.00     0.055 A 
HETATM    3  C3  UNL     1     -33.627  18.256  -3.485  1.00 20.00     0.119 A 
HETATM    4  C4  UNL     1     -34.208  15.962  -3.722  1.00 20.00    -0.010 A 
HETATM    5  C5  UNL     1     -34.318  17.089  -1.630  1.00 20.00     0.126 A 
HETATM    6  N9  UNL     1     -33.891  18.257  -2.159  1.00 20.00    -0.249 NA
HETATM    7 CL12 UNL     1     -34.642  17.136   0.054  1.00 20.00    -0.062 Cl
ENDROOT
BRANCH   4   8
HETATM    8  C8  UNL     1     -34.383  14.689  -4.590  1.00 20.00     0.173 C 
HETATM    9  C6  UNL     1     -33.729  13.393  -4.084  1.00 20.00     0.218 C 
HETATM   10  O10 UNL     1     -34.948  12.653  -4.327  1.00 20.00    -0.384 OA
HETATM   11  C7  UNL     1     -35.688  13.894  -4.423  1.00 20.00     0.218 C 
HETATM   12  F11 UNL     1     -34.078  15.024  -5.862  1.00 20.00    -0.233 F 
ENDBRANCH   4   8
TORSDOF 1
ENDMDL
MODEL 2
REMARK VINA RESULT:      -4.5      3.567      4.533
REMARK  1 active torsions:
REMARK  status: ('A' for Active; 'I' for Inactive)
REMARK    1  A    between atoms: C4_4  and  C8_8 
ROOT
HETATM    1  C1  UNL     1     -33.700  17.516  -3.628  1.00 20.00     0.030 A 
HETATM    2  C2  UNL     1     -34.362  15.320  -2.904  1.00 20.00     0.055 A 
HETATM    3  C3  UNL     1     -33.498  16.980  -4.890  1.00 20.00     0.119 A 
HETATM    4  C4  UNL     1     -34.140  16.663  -2.622  1.00 20.00    -0.010 A 
HETATM    5  C5  UNL     1     -34.131  14.882  -4.199  1.00 20.00     0.126 A 
HETATM    6  N9  UNL     1     -33.704  15.681  -5.202  1.00 20.00    -0.249 NA
HETATM    7 CL12 UNL     1     -34.378  13.242  -4.638  1.00 20.00    -0.062 Cl
ENDROOT
BRANCH   4   8
HETATM    8  C8  UNL     1     -34.383  17.208  -1.191  1.00 20.00     0.173 C 
HETATM    9  C6  UNL     1     -33.293  18.105  -0.581  1.00 20.00     0.218 C 
HETATM   10  O10 UNL     1     -34.287  19.069  -0.161  1.00 20.00    -0.384 OA
HETATM   11  C7  UNL     1     -35.256  18.464  -1.051  1.00 20.00     0.218 C 
HETATM   12  F11 UNL     1     -34.759  16.163  -0.422  1.00 20.00    -0.233 F 
ENDBRANCH   4   8
TORSDOF 1
ENDMDL
MODEL 3
REMARK VINA RESULT:      -4.5      1.236      1.414
REMARK  1 active torsions:
REMARK  status: ('A' for Active; 'I' for Inactive)
REMARK    1  A    between atoms: C4_4  and  C8_8 
ROOT
HETATM    1  C1  UNL     1     -34.310  16.802  -4.362  1.00 20.00     0.030 A 
HETATM    2  C2  UNL     1     -34.670  16.089  -2.093  1.00 20.00     0.055 A 
HETATM    3  C3  UNL     1     -33.780  17.976  -3.852  1.00 20.00     0.119 A 
HETATM    4  C4  UNL     1     -34.761  15.846  -3.459  1.00 20.00    -0.010 A 
HETATM    5  C5  UNL     1     -34.124  17.295  -1.684  1.00 20.00     0.126 A 
HETATM    6  N9  UNL     1     -33.674  18.248  -2.532  1.00 20.00    -0.249 NA
HETATM    7 CL12 UNL     1     -33.972  17.681  -0.019  1.00 20.00    -0.062 Cl
ENDROOT
BRANCH   4   8
HETATM    8  C8  UNL     1     -35.364  14.513  -3.974  1.00 20.00     0.173 C 
HETATM    9  C6  UNL     1     -35.241  14.214  -5.477  1.00 20.00     0.218 C 
HETATM   10  O10 UNL     1     -34.779  12.872  -5.198  1.00 20.00    -0.384 OA
HETATM   11  C7  UNL     1     -34.508  13.246  -3.825  1.00 20.00     0.218 C 
HETATM   12  F11 UNL     1     -36.615  14.419  -3.473  1.00 20.00    -0.233 F 
ENDBRANCH   4   8
TORSDOF 1
ENDMDL
MODEL 4
REMARK VINA RESULT:      -4.5      2.864      3.321
REMARK  1 active torsions:
REMARK  status: ('A' for Active; 'I' for Inactive)
REMARK    1  A    between atoms: C4_4  and  C8_8 
ROOT
HETATM    1  C1  UNL     1     -33.841  17.262  -3.534  1.00 20.00     0.030 A 
HETATM    2  C2  UNL     1     -34.427  16.322  -5.669  1.00 20.00     0.055 A 
HETATM    3  C3  UNL     1     -33.582  18.455  -4.191  1.00 20.00     0.119 A 
HETATM    4  C4  UNL     1     -34.271  16.181  -4.295  1.00 20.00    -0.010 A 
HETATM    5  C5  UNL     1     -34.142  17.557  -6.231  1.00 20.00     0.126 A 
HETATM    6  N9  UNL     1     -33.723  18.630  -5.524  1.00 20.00    -0.249 NA
HETATM    7 CL12 UNL     1     -34.307  17.824  -7.918  1.00 20.00    -0.062 Cl
ENDROOT
BRANCH   4   8
HETATM    8  C8  UNL     1     -34.575  14.822  -3.613  1.00 20.00     0.173 C 
HETATM    9  C6  UNL     1     -35.729  13.985  -4.187  1.00 20.00     0.218 C 
HETATM   10  O10 UNL     1     -34.904  12.797  -4.181  1.00 20.00    -0.384 OA
HETATM   11  C7  UNL     1     -33.719  13.615  -4.027  1.00 20.00     0.218 C 
HETATM   12  F11 UNL     1     -34.639  15.046  -2.282  1.00 20.00    -0.233 F 
ENDBRANCH   4   8
TORSDOF 1
ENDMDL
MODEL 5
REMARK VINA RESULT:      -4.4      1.841      2.123
REMARK  1 active torsions:
REMARK  status: ('A' for Active; 'I' for Inactive)
REMARK    1  A    between atoms: C4_4  and  C8_8 
ROOT
HETATM    1  C1  UNL     1     -34.410  16.018  -1.802  1.00 20.00     0.030 A 
HETATM    2  C2  UNL     1     -36.233  16.892  -3.105  1.00 20.00     0.055 A 
HETATM    3  C3  UNL     1     -34.714  16.968  -0.839  1.00 20.00     0.119 A 
HETATM    4  C4  UNL     1     -35.189  15.986  -2.953  1.00 20.00    -0.010 A 
HETATM    5  C5  UNL     1     -36.456  17.803  -2.084  1.00 20.00     0.126 A 
HETATM    6  N9  UNL     1     -35.721  17.864  -0.952  1.00 20.00    -0.249 NA
HETATM    7 CL12 UNL     1     -37.721  18.957  -2.185  1.00 20.00    -0.062 Cl
ENDROOT
BRANCH   4   8
HETATM    8  C8  UNL     1     -34.894  14.944  -4.063  1.00 20.00     0.173 C 
HETATM    9  C6  UNL     1     -33.922  13.804  -3.723  1.00 20.00     0.218 C 
HETATM   10  O10 UNL     1     -34.833  12.828  -4.280  1.00 20.00    -0.384 OA
HETATM   11  C7  UNL     1     -35.905  13.801  -4.246  1.00 20.00     0.218 C 
HETATM   12  F11 UNL     1     -34.600  15.631  -5.188  1.00 20.00    -0.233 F 
ENDBRANCH   4   8
TORSDOF 1
ENDMDL
MODEL 6
REMARK VINA RESULT:      -4.3     13.253     14.255
REMARK  1 active torsions:
REMARK  status: ('A' for Active; 'I' for Inactive)
REMARK    1  A    between atoms: C4_4  and  C8_8 
ROOT
HETATM    1  C1  UNL     1     -43.058   5.015  -3.296  1.00 20.00     0.030 A 
HETATM    2  C2  UNL     1     -41.470   4.313  -1.632  1.00 20.00     0.055 A 
HETATM    3  C3  UNL     1     -42.918   6.305  -2.807  1.00 20.00     0.119 A 
HETATM    4  C4  UNL     1     -42.316   4.007  -2.692  1.00 20.00    -0.010 A 
HETATM    5  C5  UNL     1     -41.401   5.634  -1.218  1.00 20.00     0.126 A 
HETATM    6  N9  UNL     1     -42.106   6.640  -1.781  1.00 20.00    -0.249 NA
HETATM    7 CL12 UNL     1     -40.384   6.104   0.081  1.00 20.00    -0.062 Cl
ENDROOT
BRANCH   4   8
HETATM    8  C8  UNL     1     -42.433   2.545  -3.198  1.00 20.00     0.173 C 
HETATM    9  C6  UNL     1     -43.123   2.318  -4.552  1.00 20.00     0.218 C 
HETATM   10  O10 UNL     1     -42.051   1.445  -4.979  1.00 20.00    -0.384 OA
HETATM   11  C7  UNL     1     -41.211   1.944  -3.910  1.00 20.00     0.218 C 
HETATM   12  F11 UNL     1     -42.919   1.806  -2.177  1.00 20.00    -0.233 F 
ENDBRANCH   4   8
TORSDOF 1
ENDMDL
MODEL 7
REMARK VINA RESULT:      -4.3      3.778      4.814
REMARK  1 active torsions:
REMARK  status: ('A' for Active; 'I' for Inactive)
REMARK    1  A    between atoms: C4_4  and  C8_8 
ROOT
HETATM    1  C1  UNL     1     -34.618  14.393  -3.262  1.00 20.00     0.030 A 
HETATM    2  C2  UNL     1     -34.456  15.856  -5.164  1.00 20.00     0.055 A 
HETATM    3  C3  UNL     1     -34.781  13.342  -4.151  1.00 20.00     0.119 A 
HETATM    4  C4  UNL     1     -34.453  15.669  -3.786  1.00 20.00    -0.010 A 
HETATM    5  C5  UNL     1     -34.626  14.740  -5.969  1.00 20.00     0.126 A 
HETATM    6  N9  UNL     1     -34.789  13.484  -5.495  1.00 20.00    -0.249 NA
HETATM    7 CL12 UNL     1     -34.643  14.873  -7.679  1.00 20.00    -0.062 Cl
ENDROOT
BRANCH   4   8
HETATM    8  C8  UNL     1     -34.266  16.882  -2.838  1.00 20.00     0.173 C 
HETATM    9  C6  UNL     1     -33.781  18.200  -3.462  1.00 20.00     0.218 C 
HETATM   10  O10 UNL     1     -34.810  18.939  -2.762  1.00 20.00    -0.384 OA
HETATM   11  C7  UNL     1     -35.516  17.705  -2.487  1.00 20.00     0.218 C 
HETATM   12  F11 UNL     1     -33.549  16.454  -1.776  1.00 20.00    -0.233 F 
ENDBRANCH   4   8
TORSDOF 1
ENDMDL
MODEL 8
REMARK VINA RESULT:      -4.2      2.430      3.263
REMARK  1 active torsions:
REMARK  status: ('A' for Active; 'I' for Inactive)
REMARK    1  A    between atoms: C4_4  and  C8_8 
ROOT
HETATM    1  C1  UNL     1     -35.208  16.786  -0.863  1.00 20.00     0.030 A 
HETATM    2  C2  UNL     1     -33.054  17.742  -1.346  1.00 20.00     0.055 A 
HETATM    3  C3  UNL     1     -35.135  17.385   0.384  1.00 20.00     0.119 A 
HETATM    4  C4  UNL     1     -34.144  16.973  -1.738  1.00 20.00    -0.010 A 
HETATM    5  C5  UNL     1     -33.077  18.299  -0.076  1.00 20.00     0.126 A 
HETATM    6  N9  UNL     1     -34.093  18.140   0.801  1.00 20.00    -0.249 NA
HETATM    7 CL12 UNL     1     -31.777  19.263   0.493  1.00 20.00    -0.062 Cl
ENDROOT
BRANCH   4   8
HETATM    8  C8  UNL     1     -34.172  16.326  -3.147  1.00 20.00     0.173 C 
HETATM    9  C6  UNL     1     -33.900  17.241  -4.352  1.00 20.00     0.218 C 
HETATM   10  O10 UNL     1     -32.965  16.282  -4.901  1.00 20.00    -0.384 OA
HETATM   11  C7  UNL     1     -32.899  15.607  -3.621  1.00 20.00     0.218 C 
HETATM   12  F11 UNL     1     -35.304  15.594  -3.230  1.00 20.00    -0.233 F 
ENDBRANCH   4   8
TORSDOF 1
ENDMDL
MODEL 9
REMARK VINA RESULT:      -4.1      3.728      4.562
REMARK  1 active torsions:
REMARK  status: ('A' for Active; 'I' for Inactive)
REMARK    1  A    between atoms: C4_4  and  C8_8 
ROOT
HETATM    1  C1  UNL     1     -34.779  14.468  -6.557  1.00 20.00     0.030 A 
HETATM    2  C2  UNL     1     -36.643  15.341  -5.311  1.00 20.00     0.055 A 
HETATM    3  C3  UNL     1     -35.592  14.483  -7.679  1.00 20.00     0.119 A 
HETATM    4  C4  UNL     1     -35.322  14.906  -5.355  1.00 20.00    -0.010 A 
HETATM    5  C5  UNL     1     -37.372  15.318  -6.490  1.00 20.00     0.126 A 
HETATM    6  N9  UNL     1     -36.878  14.899  -7.676  1.00 20.00    -0.249 NA
HETATM    7 CL12 UNL     1     -39.007  15.835  -6.532  1.00 20.00    -0.062 Cl
ENDROOT
BRANCH   4   8
HETATM    8  C8  UNL     1     -34.459  14.911  -4.066  1.00 20.00     0.173 C 
HETATM    9  C6  UNL     1     -33.456  13.762  -3.883  1.00 20.00     0.218 C 
HETATM   10  O10 UNL     1     -32.412  14.697  -3.524  1.00 20.00    -0.384 OA
HETATM   11  C7  UNL     1     -33.197  15.787  -4.063  1.00 20.00     0.218 C 
HETATM   12  F11 UNL     1     -35.295  15.111  -3.024  1.00 20.00    -0.233 F 
ENDBRANCH   4   8
TORSDOF 1
ENDMDL
