MODEL 1
REMARK VINA RESULT:      -3.2      0.000      0.000
REMARK  1 active torsions:
REMARK  status: ('A' for Active; 'I' for Inactive)
REMARK    1  A    between atoms: C2_2  and  C3_3 
ROOT
HETATM    1  C1  UNL     1     -34.754   3.954   5.380  1.00 20.00     0.051 C 
HETATM    2  C3  UNL     1     -34.493   5.307   4.720  1.00 20.00     0.122 C 
HETATM    3 CL5  UNL     1     -35.950   5.802   3.793  1.00 20.00    -0.101 Cl
HETATM    4 CL6  UNL     1     -34.239   6.528   6.019  1.00 20.00    -0.101 Cl
ENDROOT
BRANCH   2   5
HETATM    5  C2  UNL     1     -33.253   5.313   3.816  1.00 20.00     0.156 C 
HETATM    6 CL4  UNL     1     -32.761   6.945   3.288  1.00 20.00    -0.127 Cl
ENDBRANCH   2   5
TORSDOF 1
ENDMDL
MODEL 2
REMARK VINA RESULT:      -3.1      1.387      1.978
REMARK  1 active torsions:
REMARK  status: ('A' for Active; 'I' for Inactive)
REMARK    1  A    between atoms: C2_2  and  C3_3 
ROOT
HETATM    1  C1  UNL     1     -34.217   6.384   5.758  1.00 20.00     0.051 C 
HETATM    2  C3  UNL     1     -34.436   5.381   4.627  1.00 20.00     0.122 C 
HETATM    3 CL5  UNL     1     -34.671   3.744   5.327  1.00 20.00    -0.101 Cl
HETATM    4 CL6  UNL     1     -35.957   5.824   3.768  1.00 20.00    -0.101 Cl
ENDROOT
BRANCH   2   5
HETATM    5  C2  UNL     1     -33.299   5.368   3.598  1.00 20.00     0.156 C 
HETATM    6 CL4  UNL     1     -32.295   6.844   3.622  1.00 20.00    -0.127 Cl
ENDBRANCH   2   5
TORSDOF 1
ENDMDL
MODEL 3
REMARK VINA RESULT:      -3.1      1.364      1.999
REMARK  1 active torsions:
REMARK  status: ('A' for Active; 'I' for Inactive)
REMARK    1  A    between atoms: C2_2  and  C3_3 
ROOT
HETATM    1  C1  UNL     1     -35.785   5.788   3.900  1.00 20.00     0.051 C 
HETATM    2  C3  UNL     1     -34.484   5.381   4.589  1.00 20.00     0.122 C 
HETATM    3 CL5  UNL     1     -34.173   6.490   5.967  1.00 20.00    -0.101 Cl
HETATM    4 CL6  UNL     1     -34.699   3.725   5.266  1.00 20.00    -0.101 Cl
ENDROOT
BRANCH   2   5
HETATM    5  C2  UNL     1     -33.278   5.351   3.641  1.00 20.00     0.156 C 
HETATM    6 CL4  UNL     1     -32.334   6.865   3.636  1.00 20.00    -0.127 Cl
ENDBRANCH   2   5
TORSDOF 1
ENDMDL
MODEL 4
REMARK VINA RESULT:      -3.0      1.774      2.752
REMARK  1 active torsions:
REMARK  status: ('A' for Active; 'I' for Inactive)
REMARK    1  A    between atoms: C2_2  and  C3_3 
ROOT
HETATM    1  C1  UNL     1     -36.067   5.922   3.662  1.00 20.00     0.051 C 
HETATM    2  C3  UNL     1     -34.685   5.384   4.029  1.00 20.00     0.122 C 
HETATM    3 CL5  UNL     1     -34.875   3.886   5.003  1.00 20.00    -0.101 Cl
HETATM    4 CL6  UNL     1     -33.833   4.933   2.507  1.00 20.00    -0.101 Cl
ENDROOT
BRANCH   2   5
HETATM    5  C2  UNL     1     -33.814   6.403   4.774  1.00 20.00     0.156 C 
HETATM    6 CL4  UNL     1     -34.111   6.447   6.534  1.00 20.00    -0.127 Cl
ENDBRANCH   2   5
TORSDOF 1
ENDMDL
MODEL 5
REMARK VINA RESULT:      -3.0      1.849      2.458
REMARK  1 active torsions:
REMARK  status: ('A' for Active; 'I' for Inactive)
REMARK    1  A    between atoms: C2_2  and  C3_3 
ROOT
HETATM    1  C1  UNL     1     -33.821   5.105   2.673  1.00 20.00     0.051 C 
HETATM    2  C3  UNL     1     -34.646   5.413   3.921  1.00 20.00     0.122 C 
HETATM    3 CL5  UNL     1     -36.258   6.030   3.426  1.00 20.00    -0.101 Cl
HETATM    4 CL6  UNL     1     -34.910   3.873   4.818  1.00 20.00    -0.101 Cl
ENDROOT
BRANCH   2   5
HETATM    5  C2  UNL     1     -33.961   6.403   4.873  1.00 20.00     0.156 C 
HETATM    6 CL4  UNL     1     -34.296   6.086   6.597  1.00 20.00    -0.127 Cl
ENDBRANCH   2   5
TORSDOF 1
ENDMDL
MODEL 6
REMARK VINA RESULT:      -3.0      1.234      2.387
REMARK  1 active torsions:
REMARK  status: ('A' for Active; 'I' for Inactive)
REMARK    1  A    between atoms: C2_2  and  C3_3 
ROOT
HETATM    1  C1  UNL     1     -34.885   4.055   4.780  1.00 20.00     0.051 C 
HETATM    2  C3  UNL     1     -34.667   5.349   3.999  1.00 20.00     0.122 C 
HETATM    3 CL5  UNL     1     -33.804   4.978   2.469  1.00 20.00    -0.101 Cl
HETATM    4 CL6  UNL     1     -36.280   6.021   3.559  1.00 20.00    -0.101 Cl
ENDROOT
BRANCH   2   5
HETATM    5  C2  UNL     1     -33.911   6.419   4.797  1.00 20.00     0.156 C 
HETATM    6 CL4  UNL     1     -34.189   6.330   6.557  1.00 20.00    -0.127 Cl
ENDBRANCH   2   5
TORSDOF 1
ENDMDL
MODEL 7
REMARK VINA RESULT:      -2.9     12.189     12.983
REMARK  1 active torsions:
REMARK  status: ('A' for Active; 'I' for Inactive)
REMARK    1  A    between atoms: C2_2  and  C3_3 
ROOT
HETATM    1  C1  UNL     1     -33.186  16.187  -4.634  1.00 20.00     0.051 C 
HETATM    2  C3  UNL     1     -34.082  14.978  -4.372  1.00 20.00     0.122 C 
HETATM    3 CL5  UNL     1     -34.734  14.376  -5.934  1.00 20.00    -0.101 Cl
HETATM    4 CL6  UNL     1     -33.067  13.665  -3.671  1.00 20.00    -0.101 Cl
ENDROOT
BRANCH   2   5
HETATM    5  C2  UNL     1     -35.223  15.269  -3.390  1.00 20.00     0.156 C 
HETATM    6 CL4  UNL     1     -34.677  15.991  -1.852  1.00 20.00    -0.127 Cl
ENDBRANCH   2   5
TORSDOF 1
ENDMDL
MODEL 8
REMARK VINA RESULT:      -2.8     12.274     13.043
REMARK  1 active torsions:
REMARK  status: ('A' for Active; 'I' for Inactive)
REMARK    1  A    between atoms: C2_2  and  C3_3 
ROOT
HETATM    1  C1  UNL     1     -34.780  14.391  -5.763  1.00 20.00     0.051 C 
HETATM    2  C3  UNL     1     -34.207  14.922  -4.451  1.00 20.00     0.122 C 
HETATM    3 CL5  UNL     1     -33.196  13.646  -3.690  1.00 20.00    -0.101 Cl
HETATM    4 CL6  UNL     1     -33.125  16.312  -4.829  1.00 20.00    -0.101 Cl
ENDROOT
BRANCH   2   5
HETATM    5  C2  UNL     1     -35.281  15.411  -3.472  1.00 20.00     0.156 C 
HETATM    6 CL4  UNL     1     -34.624  15.976  -1.912  1.00 20.00    -0.127 Cl
ENDBRANCH   2   5
TORSDOF 1
ENDMDL
MODEL 9
REMARK VINA RESULT:      -2.8     12.108     12.962
REMARK  1 active torsions:
REMARK  status: ('A' for Active; 'I' for Inactive)
REMARK    1  A    between atoms: C2_2  and  C3_3 
ROOT
HETATM    1  C1  UNL     1     -34.500  15.696  -2.583  1.00 20.00     0.051 C 
HETATM    2  C3  UNL     1     -34.431  14.887  -3.876  1.00 20.00     0.122 C 
HETATM    3 CL5  UNL     1     -33.147  13.640  -3.726  1.00 20.00    -0.101 Cl
HETATM    4 CL6  UNL     1     -35.999  14.024  -4.085  1.00 20.00    -0.101 Cl
ENDROOT
BRANCH   2   5
HETATM    5  C2  UNL     1     -34.198  15.752  -5.122  1.00 20.00     0.156 C 
HETATM    6 CL4  UNL     1     -34.381  14.860  -6.656  1.00 20.00    -0.127 Cl
ENDBRANCH   2   5
TORSDOF 1
ENDMDL
