MODEL 1
REMARK VINA RESULT:      -4.3      0.000      0.000
REMARK  2 active torsions:
REMARK  status: ('A' for Active; 'I' for Inactive)
REMARK    1  A    between atoms: C2_2  and  O6_6 
REMARK    2  A    between atoms: C5_5  and  O6_6 
ROOT
HETATM    1  C1  UNL     1     -34.665   5.578   6.112  1.00 20.00     0.099 A 
HETATM    2  C2  UNL     1     -33.607   5.448   5.052  1.00 20.00     0.181 A 
HETATM    3  C3  UNL     1     -34.980   4.879   4.819  1.00 20.00     0.207 A 
HETATM    4  F7  UNL     1     -35.077   3.493   4.891  1.00 20.00    -0.223 F 
HETATM    5 CL8  UNL     1     -36.080   5.653   3.695  1.00 20.00    -0.080 Cl
ENDROOT
BRANCH   2   6
HETATM    6  O6  UNL     1     -33.261   6.657   4.358  1.00 20.00    -0.382 OA
BRANCH   6   7
HETATM    7  C5  UNL     1     -32.318   6.400   3.333  1.00 20.00     0.164 C 
HETATM    8  C4  UNL     1     -32.130   7.656   2.509  1.00 20.00     0.033 C 
ENDBRANCH   6   7
ENDBRANCH   2   6
TORSDOF 2
ENDMDL
MODEL 2
REMARK VINA RESULT:      -4.2      2.486      3.708
REMARK  2 active torsions:
REMARK  status: ('A' for Active; 'I' for Inactive)
REMARK    1  A    between atoms: C2_2  and  O6_6 
REMARK    2  A    between atoms: C5_5  and  O6_6 
ROOT
HETATM    1  C1  UNL     1     -34.016   6.453   3.004  1.00 20.00     0.099 A 
HETATM    2  C2  UNL     1     -33.631   5.759   4.281  1.00 20.00     0.181 A 
HETATM    3  C3  UNL     1     -32.565   6.249   3.339  1.00 20.00     0.207 A 
HETATM    4  F7  UNL     1     -31.909   5.265   2.607  1.00 20.00    -0.223 F 
HETATM    5 CL8  UNL     1     -31.596   7.651   3.752  1.00 20.00    -0.080 Cl
ENDROOT
BRANCH   2   6
HETATM    6  O6  UNL     1     -33.845   6.503   5.490  1.00 20.00    -0.382 OA
BRANCH   6   7
HETATM    7  C5  UNL     1     -34.497   5.710   6.464  1.00 20.00     0.164 C 
HETATM    8  C4  UNL     1     -34.850   4.370   5.854  1.00 20.00     0.033 C 
ENDBRANCH   6   7
ENDBRANCH   2   6
TORSDOF 2
ENDMDL
MODEL 3
REMARK VINA RESULT:      -4.2      1.866      2.110
REMARK  2 active torsions:
REMARK  status: ('A' for Active; 'I' for Inactive)
REMARK    1  A    between atoms: C2_2  and  O6_6 
REMARK    2  A    between atoms: C5_5  and  O6_6 
ROOT
HETATM    1  C1  UNL     1     -34.215   4.115   5.242  1.00 20.00     0.099 A 
HETATM    2  C2  UNL     1     -35.282   4.972   4.622  1.00 20.00     0.181 A 
HETATM    3  C3  UNL     1     -34.910   5.162   6.067  1.00 20.00     0.207 A 
HETATM    4  F7  UNL     1     -35.831   4.686   6.994  1.00 20.00    -0.223 F 
HETATM    5 CL8  UNL     1     -33.998   6.574   6.567  1.00 20.00    -0.080 Cl
ENDROOT
BRANCH   2   6
HETATM    6  O6  UNL     1     -34.829   5.959   3.682  1.00 20.00    -0.382 OA
BRANCH   6   7
HETATM    7  C5  UNL     1     -33.665   5.518   3.007  1.00 20.00     0.164 C 
HETATM    8  C4  UNL     1     -32.602   6.591   3.105  1.00 20.00     0.033 C 
ENDBRANCH   6   7
ENDBRANCH   2   6
TORSDOF 2
ENDMDL
MODEL 4
REMARK VINA RESULT:      -4.2      2.852      3.993
REMARK  2 active torsions:
REMARK  status: ('A' for Active; 'I' for Inactive)
REMARK    1  A    between atoms: C2_2  and  O6_6 
REMARK    2  A    between atoms: C5_5  and  O6_6 
ROOT
HETATM    1  C1  UNL     1     -32.092   5.817   3.121  1.00 20.00     0.099 A 
HETATM    2  C2  UNL     1     -33.026   6.482   4.092  1.00 20.00     0.181 A 
HETATM    3  C3  UNL     1     -32.020   7.303   3.332  1.00 20.00     0.207 A 
HETATM    4  F7  UNL     1     -30.931   7.756   4.069  1.00 20.00    -0.223 F 
HETATM    5 CL8  UNL     1     -32.540   8.359   2.032  1.00 20.00    -0.080 Cl
ENDROOT
BRANCH   2   6
HETATM    6  O6  UNL     1     -34.400   6.569   3.685  1.00 20.00    -0.382 OA
BRANCH   6   7
HETATM    7  C5  UNL     1     -35.075   5.346   3.917  1.00 20.00     0.164 C 
HETATM    8  C4  UNL     1     -34.941   4.978   5.379  1.00 20.00     0.033 C 
ENDBRANCH   6   7
ENDBRANCH   2   6
TORSDOF 2
ENDMDL
MODEL 5
REMARK VINA RESULT:      -4.1      1.683      1.911
REMARK  2 active torsions:
REMARK  status: ('A' for Active; 'I' for Inactive)
REMARK    1  A    between atoms: C2_2  and  O6_6 
REMARK    2  A    between atoms: C5_5  and  O6_6 
ROOT
HETATM    1  C1  UNL     1     -34.231   5.036   2.886  1.00 20.00     0.099 A 
HETATM    2  C2  UNL     1     -34.161   6.365   3.584  1.00 20.00     0.181 A 
HETATM    3  C3  UNL     1     -35.039   5.272   4.131  1.00 20.00     0.207 A 
HETATM    4  F7  UNL     1     -36.406   5.445   3.940  1.00 20.00    -0.223 F 
HETATM    5 CL8  UNL     1     -34.585   4.423   5.597  1.00 20.00    -0.080 Cl
ENDROOT
BRANCH   2   6
HETATM    6  O6  UNL     1     -32.936   6.646   4.279  1.00 20.00    -0.382 OA
BRANCH   6   7
HETATM    7  C5  UNL     1     -31.859   6.786   3.371  1.00 20.00     0.164 C 
HETATM    8  C4  UNL     1     -32.144   7.948   2.443  1.00 20.00     0.033 C 
ENDBRANCH   6   7
ENDBRANCH   2   6
TORSDOF 2
ENDMDL
MODEL 6
REMARK VINA RESULT:      -3.6     12.437     13.376
REMARK  2 active torsions:
REMARK  status: ('A' for Active; 'I' for Inactive)
REMARK    1  A    between atoms: C2_2  and  O6_6 
REMARK    2  A    between atoms: C5_5  and  O6_6 
ROOT
HETATM    1  C1  UNL     1     -33.630  16.138  -2.900  1.00 20.00     0.099 A 
HETATM    2  C2  UNL     1     -33.438  16.142  -4.391  1.00 20.00     0.181 A 
HETATM    3  C3  UNL     1     -33.247  14.869  -3.611  1.00 20.00     0.207 A 
HETATM    4  F7  UNL     1     -31.929  14.457  -3.443  1.00 20.00    -0.223 F 
HETATM    5 CL8  UNL     1     -34.431  13.580  -3.717  1.00 20.00    -0.080 Cl
ENDROOT
BRANCH   2   6
HETATM    6  O6  UNL     1     -34.633  16.267  -5.178  1.00 20.00    -0.382 OA
BRANCH   6   7
HETATM    7  C5  UNL     1     -34.322  16.378  -6.555  1.00 20.00     0.164 C 
HETATM    8  C4  UNL     1     -34.427  15.011  -7.196  1.00 20.00     0.033 C 
ENDBRANCH   6   7
ENDBRANCH   2   6
TORSDOF 2
ENDMDL
MODEL 7
REMARK VINA RESULT:      -3.6      9.538      9.932
REMARK  2 active torsions:
REMARK  status: ('A' for Active; 'I' for Inactive)
REMARK    1  A    between atoms: C2_2  and  O6_6 
REMARK    2  A    between atoms: C5_5  and  O6_6 
ROOT
HETATM    1  C1  UNL     1     -42.349   6.449  -0.398  1.00 20.00     0.099 A 
HETATM    2  C2  UNL     1     -41.366   7.130  -1.307  1.00 20.00     0.181 A 
HETATM    3  C3  UNL     1     -40.917   5.994  -0.429  1.00 20.00     0.207 A 
HETATM    4  F7  UNL     1     -40.146   6.352   0.672  1.00 20.00    -0.223 F 
HETATM    5 CL8  UNL     1     -40.551   4.427  -1.125  1.00 20.00    -0.080 Cl
ENDROOT
BRANCH   2   6
HETATM    6  O6  UNL     1     -41.520   6.865  -2.711  1.00 20.00    -0.382 OA
BRANCH   6   7
HETATM    7  C5  UNL     1     -42.723   7.427  -3.203  1.00 20.00     0.164 C 
HETATM    8  C4  UNL     1     -42.397   8.376  -4.336  1.00 20.00     0.033 C 
ENDBRANCH   6   7
ENDBRANCH   2   6
TORSDOF 2
ENDMDL
MODEL 8
REMARK VINA RESULT:      -3.6     12.515     12.900
REMARK  2 active torsions:
REMARK  status: ('A' for Active; 'I' for Inactive)
REMARK    1  A    between atoms: C2_2  and  O6_6 
REMARK    2  A    between atoms: C5_5  and  O6_6 
ROOT
HETATM    1  C1  UNL     1     -34.496  14.296  -3.717  1.00 20.00     0.099 A 
HETATM    2  C2  UNL     1     -34.325  15.471  -2.795  1.00 20.00     0.181 A 
HETATM    3  C3  UNL     1     -33.296  15.190  -3.856  1.00 20.00     0.207 A 
HETATM    4  F7  UNL     1     -32.093  14.660  -3.404  1.00 20.00    -0.223 F 
HETATM    5 CL8  UNL     1     -33.180  16.220  -5.271  1.00 20.00    -0.080 Cl
ENDROOT
BRANCH   2   6
HETATM    6  O6  UNL     1     -35.219  16.574  -3.010  1.00 20.00    -0.382 OA
BRANCH   6   7
HETATM    7  C5  UNL     1     -35.509  17.234  -1.792  1.00 20.00     0.164 C 
HETATM    8  C4  UNL     1     -34.576  16.720  -0.716  1.00 20.00     0.033 C 
ENDBRANCH   6   7
ENDBRANCH   2   6
TORSDOF 2
ENDMDL
MODEL 9
REMARK VINA RESULT:      -3.5     12.422     12.630
REMARK  2 active torsions:
REMARK  status: ('A' for Active; 'I' for Inactive)
REMARK    1  A    between atoms: C2_2  and  O6_6 
REMARK    2  A    between atoms: C5_5  and  O6_6 
ROOT
HETATM    1  C1  UNL     1     -35.804  14.200  -4.008  1.00 20.00     0.099 A 
HETATM    2  C2  UNL     1     -34.508  14.751  -3.482  1.00 20.00     0.181 A 
HETATM    3  C3  UNL     1     -34.542  14.047  -4.812  1.00 20.00     0.207 A 
HETATM    4  F7  UNL     1     -33.992  12.770  -4.832  1.00 20.00    -0.223 F 
HETATM    5 CL8  UNL     1     -34.382  14.959  -6.300  1.00 20.00    -0.080 Cl
ENDROOT
BRANCH   2   6
HETATM    6  O6  UNL     1     -34.383  16.181  -3.489  1.00 20.00    -0.382 OA
BRANCH   6   7
HETATM    7  C5  UNL     1     -33.736  16.639  -2.316  1.00 20.00     0.164 C 
HETATM    8  C4  UNL     1     -34.673  16.472  -1.138  1.00 20.00     0.033 C 
ENDBRANCH   6   7
ENDBRANCH   2   6
TORSDOF 2
ENDMDL
