MODEL 1
REMARK VINA RESULT:      -5.3      0.000      0.000
REMARK  2 active torsions:
REMARK  status: ('A' for Active; 'I' for Inactive)
REMARK    1  A    between atoms: C3_3  and  C9_9 
REMARK    2  A    between atoms: C3_3  and  C10_10 
ROOT
HETATM    1  C3  UNL     1     -31.972   7.514   3.230  1.00 20.00     0.135 C 
HETATM    2  O11 UNL     1     -30.990   7.987   3.797  1.00 20.00    -0.297 OA
ENDROOT
BRANCH   1   3
HETATM    3  C9  UNL     1     -32.662   6.243   3.741  1.00 20.00     0.063 C 
HETATM    4  C4  UNL     1     -33.566   6.380   4.997  1.00 20.00     0.045 C 
HETATM    5  C1  UNL     1     -34.483   5.426   4.269  1.00 20.00    -0.088 C 
HETATM    6  C2  UNL     1     -35.479   4.634   4.669  1.00 20.00     0.014 C 
HETATM    7  C5  UNL     1     -33.866   5.707   2.919  1.00 20.00     0.045 C 
ENDBRANCH   1   3
BRANCH   1   8
HETATM    8  C10 UNL     1     -32.548   8.142   2.028  1.00 20.00     0.056 C 
HETATM    9  C7  UNL     1     -32.719   9.681   2.090  1.00 20.00     0.012 C 
HETATM   10  C6  UNL     1     -32.311   9.712   0.603  1.00 20.00     0.002 C 
HETATM   11  C8  UNL     1     -31.560   8.389   0.861  1.00 20.00     0.012 C 
ENDBRANCH   1   8
TORSDOF 2
ENDMDL
MODEL 2
REMARK VINA RESULT:      -5.0     10.260     11.438
REMARK  2 active torsions:
REMARK  status: ('A' for Active; 'I' for Inactive)
REMARK    1  A    between atoms: C3_3  and  C9_9 
REMARK    2  A    between atoms: C3_3  and  C10_10 
ROOT
HETATM    1  C3  UNL     1     -34.890  13.893  -4.978  1.00 20.00     0.135 C 
HETATM    2  O11 UNL     1     -34.791  12.767  -4.493  1.00 20.00    -0.297 OA
ENDROOT
BRANCH   1   3
HETATM    3  C9  UNL     1     -34.735  15.155  -4.119  1.00 20.00     0.063 C 
HETATM    4  C4  UNL     1     -35.832  15.429  -3.054  1.00 20.00     0.045 C 
HETATM    5  C1  UNL     1     -34.677  15.861  -2.180  1.00 20.00    -0.088 C 
HETATM    6  C2  UNL     1     -34.597  16.604  -1.076  1.00 20.00     0.014 C 
HETATM    7  C5  UNL     1     -33.647  15.133  -3.012  1.00 20.00     0.045 C 
ENDBRANCH   1   3
BRANCH   1   8
HETATM    8  C10 UNL     1     -35.160  14.096  -6.411  1.00 20.00     0.056 C 
HETATM    9  C7  UNL     1     -36.382  14.989  -6.746  1.00 20.00     0.012 C 
HETATM   10  C6  UNL     1     -35.554  15.555  -7.917  1.00 20.00     0.002 C 
HETATM   11  C8  UNL     1     -34.295  15.173  -7.112  1.00 20.00     0.012 C 
ENDBRANCH   1   8
TORSDOF 2
ENDMDL
MODEL 3
REMARK VINA RESULT:      -5.0      0.725      1.180
REMARK  2 active torsions:
REMARK  status: ('A' for Active; 'I' for Inactive)
REMARK    1  A    between atoms: C3_3  and  C9_9 
REMARK    2  A    between atoms: C3_3  and  C10_10 
ROOT
HETATM    1  C3  UNL     1     -32.584   7.398   3.190  1.00 20.00     0.135 C 
HETATM    2  O11 UNL     1     -31.443   7.222   3.612  1.00 20.00    -0.297 OA
ENDROOT
BRANCH   1   3
HETATM    3  C9  UNL     1     -33.808   6.822   3.914  1.00 20.00     0.063 C 
HETATM    4  C4  UNL     1     -34.226   5.369   3.556  1.00 20.00     0.045 C 
HETATM    5  C1  UNL     1     -34.488   5.229   5.037  1.00 20.00    -0.088 C 
HETATM    6  C2  UNL     1     -35.206   4.368   5.759  1.00 20.00     0.014 C 
HETATM    7  C5  UNL     1     -33.628   6.416   5.402  1.00 20.00     0.045 C 
ENDBRANCH   1   3
BRANCH   1   8
HETATM    8  C10 UNL     1     -32.844   8.176   1.967  1.00 20.00     0.056 C 
HETATM    9  C7  UNL     1     -32.823   9.717   2.133  1.00 20.00     0.012 C 
HETATM   10  C6  UNL     1     -32.150   9.783   0.747  1.00 20.00     0.002 C 
HETATM   11  C8  UNL     1     -31.636   8.353   1.013  1.00 20.00     0.012 C 
ENDBRANCH   1   8
TORSDOF 2
ENDMDL
MODEL 4
REMARK VINA RESULT:      -4.9     10.142     11.099
REMARK  2 active torsions:
REMARK  status: ('A' for Active; 'I' for Inactive)
REMARK    1  A    between atoms: C3_3  and  C9_9 
REMARK    2  A    between atoms: C3_3  and  C10_10 
ROOT
HETATM    1  C3  UNL     1     -33.659  16.441  -3.791  1.00 20.00     0.135 C 
HETATM    2  O11 UNL     1     -33.519  17.547  -4.309  1.00 20.00    -0.297 OA
ENDROOT
BRANCH   1   3
HETATM    3  C9  UNL     1     -33.828  16.278  -2.275  1.00 20.00     0.063 C 
HETATM    4  C4  UNL     1     -33.430  17.486  -1.382  1.00 20.00     0.045 C 
HETATM    5  C1  UNL     1     -34.662  17.125  -0.586  1.00 20.00    -0.088 C 
HETATM    6  C2  UNL     1     -35.066  17.413   0.651  1.00 20.00     0.014 C 
HETATM    7  C5  UNL     1     -35.275  16.324  -1.712  1.00 20.00     0.045 C 
ENDBRANCH   1   3
BRANCH   1   8
HETATM    8  C10 UNL     1     -33.677  15.207  -4.595  1.00 20.00     0.056 C 
HETATM    9  C7  UNL     1     -33.525  13.884  -3.801  1.00 20.00     0.012 C 
HETATM   10  C6  UNL     1     -34.541  13.265  -4.783  1.00 20.00     0.002 C 
HETATM   11  C8  UNL     1     -35.080  14.693  -5.006  1.00 20.00     0.012 C 
ENDBRANCH   1   8
TORSDOF 2
ENDMDL
MODEL 5
REMARK VINA RESULT:      -4.9      9.953     11.269
REMARK  2 active torsions:
REMARK  status: ('A' for Active; 'I' for Inactive)
REMARK    1  A    between atoms: C3_3  and  C9_9 
REMARK    2  A    between atoms: C3_3  and  C10_10 
ROOT
HETATM    1  C3  UNL     1     -35.709  15.821  -2.923  1.00 20.00     0.135 C 
HETATM    2  O11 UNL     1     -36.695  16.554  -2.978  1.00 20.00    -0.297 OA
ENDROOT
BRANCH   1   3
HETATM    3  C9  UNL     1     -34.475  16.195  -2.091  1.00 20.00     0.063 C 
HETATM    4  C4  UNL     1     -33.751  17.521  -2.451  1.00 20.00     0.045 C 
HETATM    5  C1  UNL     1     -33.616  17.689  -0.955  1.00 20.00    -0.088 C 
HETATM    6  C2  UNL     1     -32.820  18.436  -0.189  1.00 20.00     0.014 C 
HETATM    7  C5  UNL     1     -34.721  16.706  -0.646  1.00 20.00     0.045 C 
ENDBRANCH   1   3
BRANCH   1   8
HETATM    8  C10 UNL     1     -35.655  14.542  -3.650  1.00 20.00     0.056 C 
HETATM    9  C7  UNL     1     -35.414  14.644  -5.178  1.00 20.00     0.012 C 
HETATM   10  C6  UNL     1     -34.538  13.382  -5.050  1.00 20.00     0.002 C 
HETATM   11  C8  UNL     1     -34.304  13.785  -3.580  1.00 20.00     0.012 C 
ENDBRANCH   1   8
TORSDOF 2
ENDMDL
MODEL 6
REMARK VINA RESULT:      -4.6     10.456     11.753
REMARK  2 active torsions:
REMARK  status: ('A' for Active; 'I' for Inactive)
REMARK    1  A    between atoms: C3_3  and  C9_9 
REMARK    2  A    between atoms: C3_3  and  C10_10 
ROOT
HETATM    1  C3  UNL     1     -33.827  15.913  -4.769  1.00 20.00     0.135 C 
HETATM    2  O11 UNL     1     -32.703  16.332  -5.038  1.00 20.00    -0.297 OA
ENDROOT
BRANCH   1   3
HETATM    3  C9  UNL     1     -34.604  16.422  -3.547  1.00 20.00     0.063 C 
HETATM    4  C4  UNL     1     -34.730  15.459  -2.334  1.00 20.00     0.045 C 
HETATM    5  C1  UNL     1     -34.508  16.702  -1.504  1.00 20.00    -0.088 C 
HETATM    6  C2  UNL     1     -34.748  17.000  -0.227  1.00 20.00     0.014 C 
HETATM    7  C5  UNL     1     -33.906  17.480  -2.650  1.00 20.00     0.045 C 
ENDBRANCH   1   3
BRANCH   1   8
HETATM    8  C10 UNL     1     -34.496  14.901  -5.604  1.00 20.00     0.056 C 
HETATM    9  C7  UNL     1     -36.011  15.119  -5.842  1.00 20.00     0.012 C 
HETATM   10  C6  UNL     1     -35.785  14.602  -7.278  1.00 20.00     0.002 C 
HETATM   11  C8  UNL     1     -34.323  15.071  -7.134  1.00 20.00     0.012 C 
ENDBRANCH   1   8
TORSDOF 2
ENDMDL
MODEL 7
REMARK VINA RESULT:      -4.6      1.363      4.882
REMARK  2 active torsions:
REMARK  status: ('A' for Active; 'I' for Inactive)
REMARK    1  A    between atoms: C3_3  and  C9_9 
REMARK    2  A    between atoms: C3_3  and  C10_10 
ROOT
HETATM    1  C3  UNL     1     -33.373   6.623   5.160  1.00 20.00     0.135 C 
HETATM    2  O11 UNL     1     -32.905   7.230   6.120  1.00 20.00    -0.297 OA
ENDROOT
BRANCH   1   3
HETATM    3  C9  UNL     1     -32.726   6.693   3.770  1.00 20.00     0.063 C 
HETATM    4  C4  UNL     1     -33.494   7.473   2.668  1.00 20.00     0.045 C 
HETATM    5  C1  UNL     1     -32.127   7.978   2.269  1.00 20.00    -0.088 C 
HETATM    6  C2  UNL     1     -31.648   8.530   1.154  1.00 20.00     0.014 C 
HETATM    7  C5  UNL     1     -31.503   7.635   3.602  1.00 20.00     0.045 C 
ENDBRANCH   1   3
BRANCH   1   8
HETATM    8  C10 UNL     1     -34.581   5.789   5.286  1.00 20.00     0.056 C 
HETATM    9  C7  UNL     1     -34.797   4.743   4.164  1.00 20.00     0.012 C 
HETATM   10  C6  UNL     1     -35.326   3.790   5.255  1.00 20.00     0.002 C 
HETATM   11  C8  UNL     1     -34.470   4.588   6.259  1.00 20.00     0.012 C 
ENDBRANCH   1   8
TORSDOF 2
ENDMDL
MODEL 8
REMARK VINA RESULT:      -4.5     10.591     11.769
REMARK  2 active torsions:
REMARK  status: ('A' for Active; 'I' for Inactive)
REMARK    1  A    between atoms: C3_3  and  C9_9 
REMARK    2  A    between atoms: C3_3  and  C10_10 
ROOT
HETATM    1  C3  UNL     1     -42.532   3.929  -2.828  1.00 20.00     0.135 C 
HETATM    2  O11 UNL     1     -43.212   4.306  -3.781  1.00 20.00    -0.297 OA
ENDROOT
BRANCH   1   3
HETATM    3  C9  UNL     1     -41.932   2.518  -2.776  1.00 20.00     0.063 C 
HETATM    4  C4  UNL     1     -42.920   1.322  -2.860  1.00 20.00     0.045 C 
HETATM    5  C1  UNL     1     -41.865   0.694  -3.740  1.00 20.00    -0.088 C 
HETATM    6  C2  UNL     1     -41.622  -0.562  -4.118  1.00 20.00     0.014 C 
HETATM    7  C5  UNL     1     -41.193   2.012  -4.045  1.00 20.00     0.045 C 
ENDBRANCH   1   3
BRANCH   1   8
HETATM    8  C10 UNL     1     -42.250   4.811  -1.683  1.00 20.00     0.056 C 
HETATM    9  C7  UNL     1     -40.837   4.674  -1.060  1.00 20.00     0.012 C 
HETATM   10  C6  UNL     1     -40.857   6.204  -0.861  1.00 20.00     0.002 C 
HETATM   11  C8  UNL     1     -41.853   6.267  -2.038  1.00 20.00     0.012 C 
ENDBRANCH   1   8
TORSDOF 2
ENDMDL
MODEL 9
REMARK VINA RESULT:      -4.5     10.367     11.147
REMARK  2 active torsions:
REMARK  status: ('A' for Active; 'I' for Inactive)
REMARK    1  A    between atoms: C3_3  and  C9_9 
REMARK    2  A    between atoms: C3_3  and  C10_10 
ROOT
HETATM    1  C3  UNL     1     -33.811  17.194  -2.211  1.00 20.00     0.135 C 
HETATM    2  O11 UNL     1     -33.678  17.991  -3.138  1.00 20.00    -0.297 OA
ENDROOT
BRANCH   1   3
HETATM    3  C9  UNL     1     -34.108  15.710  -2.463  1.00 20.00     0.063 C 
HETATM    4  C4  UNL     1     -35.447  15.364  -3.172  1.00 20.00     0.045 C 
HETATM    5  C1  UNL     1     -34.626  14.332  -3.910  1.00 20.00    -0.088 C 
HETATM    6  C2  UNL     1     -34.945  13.233  -4.595  1.00 20.00     0.014 C 
HETATM    7  C5  UNL     1     -33.312  15.008  -3.597  1.00 20.00     0.045 C 
ENDBRANCH   1   3
BRANCH   1   8
HETATM    8  C10 UNL     1     -33.690  17.616  -0.805  1.00 20.00     0.056 C 
HETATM    9  C7  UNL     1     -34.125  19.071  -0.499  1.00 20.00     0.012 C 
HETATM   10  C6  UNL     1     -34.706  18.541   0.827  1.00 20.00     0.002 C 
HETATM   11  C8  UNL     1     -34.841  17.171   0.131  1.00 20.00     0.012 C 
ENDBRANCH   1   8
TORSDOF 2
ENDMDL
