MODEL 1
REMARK VINA RESULT:      -5.3      0.000      0.000
REMARK  2 active torsions:
REMARK  status: ('A' for Active; 'I' for Inactive)
REMARK    1  A    between atoms: C3_3  and  C4_4 
REMARK    2  A    between atoms: C5_5  and  C9_9 
ROOT
HETATM    1  C1  UNL     1     -34.777  17.157  -0.084  1.00 20.00    -0.024 C 
HETATM    2  C2  UNL     1     -34.141  18.340  -0.093  1.00 20.00    -0.087 C 
HETATM    3  C6  UNL     1     -34.750  16.187  -1.231  1.00 20.00     0.036 C 
HETATM    4  C7  UNL     1     -33.361  18.817  -1.291  1.00 20.00     0.034 C 
HETATM    5  C8  UNL     1     -33.633  18.008  -2.564  1.00 20.00     0.013 C 
HETATM    6  C9  UNL     1     -33.662  16.504  -2.271  1.00 20.00     0.018 C 
HETATM    7  C10 UNL     1     -34.165  19.263   1.091  1.00 20.00     0.043 C 
ENDROOT
BRANCH   6   8
HETATM    8  C5  UNL     1     -33.874  15.711  -3.525  1.00 20.00    -0.076 C 
HETATM    9  C3  UNL     1     -34.523  14.538  -3.631  1.00 20.00     0.044 C 
HETATM   10  C11 UNL     1     -33.274  16.344  -4.755  1.00 20.00     0.044 C 
BRANCH   9  11
HETATM   11  C4  UNL     1     -34.716  13.778  -4.884  1.00 20.00     0.259 C 
HETATM   12  O12 UNL     1     -34.790  12.553  -4.888  1.00 20.00    -0.302 OA
ENDBRANCH   9  11
ENDBRANCH   6   8
TORSDOF 2
ENDMDL
MODEL 2
REMARK VINA RESULT:      -4.8     11.128     12.232
REMARK  2 active torsions:
REMARK  status: ('A' for Active; 'I' for Inactive)
REMARK    1  A    between atoms: C3_3  and  C4_4 
REMARK    2  A    between atoms: C5_5  and  C9_9 
ROOT
HETATM    1  C1  UNL     1     -34.866   4.838   4.173  1.00 20.00    -0.024 C 
HETATM    2  C2  UNL     1     -34.824   4.883   5.514  1.00 20.00    -0.087 C 
HETATM    3  C6  UNL     1     -34.000   5.682   3.282  1.00 20.00     0.036 C 
HETATM    4  C7  UNL     1     -33.911   5.828   6.252  1.00 20.00     0.034 C 
HETATM    5  C8  UNL     1     -33.308   6.921   5.362  1.00 20.00     0.013 C 
HETATM    6  C9  UNL     1     -32.828   6.346   4.025  1.00 20.00     0.018 C 
HETATM    7  C10 UNL     1     -35.682   3.994   6.366  1.00 20.00     0.043 C 
ENDROOT
BRANCH   6   8
HETATM    8  C5  UNL     1     -32.189   7.405   3.177  1.00 20.00    -0.076 C 
HETATM    9  C3  UNL     1     -32.584   7.798   1.954  1.00 20.00     0.044 C 
HETATM   10  C11 UNL     1     -30.989   8.056   3.817  1.00 20.00     0.044 C 
BRANCH   9  11
HETATM   11  C4  UNL     1     -31.933   8.847   1.140  1.00 20.00     0.259 C 
HETATM   12  O12 UNL     1     -32.292  10.019   1.197  1.00 20.00    -0.302 OA
ENDBRANCH   9  11
ENDBRANCH   6   8
TORSDOF 2
ENDMDL
MODEL 3
REMARK VINA RESULT:      -4.8      2.692      5.375
REMARK  2 active torsions:
REMARK  status: ('A' for Active; 'I' for Inactive)
REMARK    1  A    between atoms: C3_3  and  C4_4 
REMARK    2  A    between atoms: C5_5  and  C9_9 
ROOT
HETATM    1  C1  UNL     1     -33.881  16.647  -4.874  1.00 20.00    -0.024 C 
HETATM    2  C2  UNL     1     -34.350  15.392  -4.969  1.00 20.00    -0.087 C 
HETATM    3  C6  UNL     1     -33.723  17.381  -3.574  1.00 20.00     0.036 C 
HETATM    4  C7  UNL     1     -34.799  14.614  -3.758  1.00 20.00     0.034 C 
HETATM    5  C8  UNL     1     -34.978  15.477  -2.505  1.00 20.00     0.013 C 
HETATM    6  C9  UNL     1     -33.818  16.466  -2.341  1.00 20.00     0.018 C 
HETATM    7  C10 UNL     1     -34.455  14.681  -6.287  1.00 20.00     0.043 C 
ENDROOT
BRANCH   6   8
HETATM    8  C5  UNL     1     -33.965  17.272  -1.086  1.00 20.00    -0.076 C 
HETATM    9  C3  UNL     1     -34.804  17.020  -0.066  1.00 20.00     0.044 C 
HETATM   10  C11 UNL     1     -33.056  18.473  -1.023  1.00 20.00     0.044 C 
BRANCH   9  11
HETATM   11  C4  UNL     1     -34.927  17.835   1.162  1.00 20.00     0.259 C 
HETATM   12  O12 UNL     1     -35.471  17.398   2.171  1.00 20.00    -0.302 OA
ENDBRANCH   9  11
ENDBRANCH   6   8
TORSDOF 2
ENDMDL
MODEL 4
REMARK VINA RESULT:      -4.8      2.869      5.504
REMARK  2 active torsions:
REMARK  status: ('A' for Active; 'I' for Inactive)
REMARK    1  A    between atoms: C3_3  and  C4_4 
REMARK    2  A    between atoms: C5_5  and  C9_9 
ROOT
HETATM    1  C1  UNL     1     -33.781  15.217  -4.198  1.00 20.00    -0.024 C 
HETATM    2  C2  UNL     1     -35.066  14.874  -4.385  1.00 20.00    -0.087 C 
HETATM    3  C6  UNL     1     -33.300  16.052  -3.046  1.00 20.00     0.036 C 
HETATM    4  C7  UNL     1     -36.159  15.340  -3.457  1.00 20.00     0.034 C 
HETATM    5  C8  UNL     1     -35.726  16.468  -2.515  1.00 20.00     0.013 C 
HETATM    6  C9  UNL     1     -34.340  16.195  -1.921  1.00 20.00     0.018 C 
HETATM    7  C10 UNL     1     -35.497  14.005  -5.530  1.00 20.00     0.043 C 
ENDROOT
BRANCH   6   8
HETATM    8  C5  UNL     1     -33.941  17.272  -0.957  1.00 20.00    -0.076 C 
HETATM    9  C3  UNL     1     -32.924  18.140  -1.102  1.00 20.00     0.044 C 
HETATM   10  C11 UNL     1     -34.803  17.335   0.278  1.00 20.00     0.044 C 
BRANCH   9  11
HETATM   11  C4  UNL     1     -32.554  19.193  -0.133  1.00 20.00     0.259 C 
HETATM   12  O12 UNL     1     -31.425  19.263   0.341  1.00 20.00    -0.302 OA
ENDBRANCH   9  11
ENDBRANCH   6   8
TORSDOF 2
ENDMDL
MODEL 5
REMARK VINA RESULT:      -4.6      1.299      1.507
REMARK  2 active torsions:
REMARK  status: ('A' for Active; 'I' for Inactive)
REMARK    1  A    between atoms: C3_3  and  C4_4 
REMARK    2  A    between atoms: C5_5  and  C9_9 
ROOT
HETATM    1  C1  UNL     1     -34.718  16.988  -0.412  1.00 20.00    -0.024 C 
HETATM    2  C2  UNL     1     -34.103  18.180  -0.483  1.00 20.00    -0.087 C 
HETATM    3  C6  UNL     1     -34.752  15.998  -1.541  1.00 20.00     0.036 C 
HETATM    4  C7  UNL     1     -33.413  18.647  -1.740  1.00 20.00     0.034 C 
HETATM    5  C8  UNL     1     -33.757  17.812  -2.978  1.00 20.00     0.013 C 
HETATM    6  C9  UNL     1     -33.742  16.313  -2.658  1.00 20.00     0.018 C 
HETATM    7  C10 UNL     1     -34.061  19.123   0.683  1.00 20.00     0.043 C 
ENDROOT
BRANCH   6   8
HETATM    8  C5  UNL     1     -34.025  15.495  -3.882  1.00 20.00    -0.076 C 
HETATM    9  C3  UNL     1     -34.610  15.923  -5.014  1.00 20.00     0.044 C 
HETATM   10  C11 UNL     1     -33.588  14.056  -3.767  1.00 20.00     0.044 C 
BRANCH   9  11
HETATM   11  C4  UNL     1     -34.876  15.091  -6.207  1.00 20.00     0.259 C 
HETATM   12  O12 UNL     1     -34.121  15.091  -7.173  1.00 20.00    -0.302 OA
ENDBRANCH   9  11
ENDBRANCH   6   8
TORSDOF 2
ENDMDL
MODEL 6
REMARK VINA RESULT:      -4.6      2.912      5.411
REMARK  2 active torsions:
REMARK  status: ('A' for Active; 'I' for Inactive)
REMARK    1  A    between atoms: C3_3  and  C4_4 
REMARK    2  A    between atoms: C5_5  and  C9_9 
ROOT
HETATM    1  C1  UNL     1     -33.742  17.793  -3.886  1.00 20.00    -0.024 C 
HETATM    2  C2  UNL     1     -33.936  16.499  -4.192  1.00 20.00    -0.087 C 
HETATM    3  C6  UNL     1     -33.776  18.332  -2.485  1.00 20.00     0.036 C 
HETATM    4  C7  UNL     1     -34.244  15.468  -3.137  1.00 20.00     0.034 C 
HETATM    5  C8  UNL     1     -34.632  16.071  -1.783  1.00 20.00     0.013 C 
HETATM    6  C9  UNL     1     -33.709  17.236  -1.408  1.00 20.00     0.018 C 
HETATM    7  C10 UNL     1     -33.855  15.997  -5.604  1.00 20.00     0.043 C 
ENDROOT
BRANCH   6   8
HETATM    8  C5  UNL     1     -34.055  17.790  -0.059  1.00 20.00    -0.076 C 
HETATM    9  C3  UNL     1     -35.170  17.538   0.648  1.00 20.00     0.044 C 
HETATM   10  C11 UNL     1     -33.009  18.716   0.506  1.00 20.00     0.044 C 
BRANCH   9  11
HETATM   11  C4  UNL     1     -35.484  18.100   1.980  1.00 20.00     0.259 C 
HETATM   12  O12 UNL     1     -35.311  17.453   3.007  1.00 20.00    -0.302 OA
ENDBRANCH   9  11
ENDBRANCH   6   8
TORSDOF 2
ENDMDL
MODEL 7
REMARK VINA RESULT:      -4.6     13.085     15.285
REMARK  2 active torsions:
REMARK  status: ('A' for Active; 'I' for Inactive)
REMARK    1  A    between atoms: C3_3  and  C4_4 
REMARK    2  A    between atoms: C5_5  and  C9_9 
ROOT
HETATM    1  C1  UNL     1     -42.473   6.110  -2.555  1.00 20.00    -0.024 C 
HETATM    2  C2  UNL     1     -41.610   6.371  -1.559  1.00 20.00    -0.087 C 
HETATM    3  C6  UNL     1     -42.781   4.726  -3.050  1.00 20.00     0.036 C 
HETATM    4  C7  UNL     1     -40.838   5.278  -0.866  1.00 20.00     0.034 C 
HETATM    5  C8  UNL     1     -40.879   3.934  -1.602  1.00 20.00     0.013 C 
HETATM    6  C9  UNL     1     -42.293   3.617  -2.102  1.00 20.00     0.018 C 
HETATM    7  C10 UNL     1     -41.361   7.768  -1.071  1.00 20.00     0.043 C 
ENDROOT
BRANCH   6   8
HETATM    8  C5  UNL     1     -42.343   2.279  -2.775  1.00 20.00    -0.076 C 
HETATM    9  C3  UNL     1     -43.210   1.284  -2.516  1.00 20.00     0.044 C 
HETATM   10  C11 UNL     1     -41.289   2.090  -3.836  1.00 20.00     0.044 C 
BRANCH   9  11
HETATM   11  C4  UNL     1     -43.235  -0.028  -3.197  1.00 20.00     0.259 C 
HETATM   12  O12 UNL     1     -42.905  -1.058  -2.619  1.00 20.00    -0.302 OA
ENDBRANCH   9  11
ENDBRANCH   6   8
TORSDOF 2
ENDMDL
MODEL 8
REMARK VINA RESULT:      -4.6      1.666      2.255
REMARK  2 active torsions:
REMARK  status: ('A' for Active; 'I' for Inactive)
REMARK    1  A    between atoms: C3_3  and  C4_4 
REMARK    2  A    between atoms: C5_5  and  C9_9 
ROOT
HETATM    1  C1  UNL     1     -34.598  16.246  -1.441  1.00 20.00    -0.024 C 
HETATM    2  C2  UNL     1     -34.120  17.499  -1.508  1.00 20.00    -0.087 C 
HETATM    3  C6  UNL     1     -34.674  15.318  -2.619  1.00 20.00     0.036 C 
HETATM    4  C7  UNL     1     -33.644  18.102  -2.805  1.00 20.00     0.034 C 
HETATM    5  C8  UNL     1     -34.054  17.300  -4.044  1.00 20.00     0.013 C 
HETATM    6  C9  UNL     1     -33.848  15.797  -3.826  1.00 20.00     0.018 C 
HETATM    7  C10 UNL     1     -34.028  18.380  -0.296  1.00 20.00     0.043 C 
ENDROOT
BRANCH   6   8
HETATM    8  C5  UNL     1     -34.199  15.017  -5.057  1.00 20.00    -0.076 C 
HETATM    9  C3  UNL     1     -34.380  15.512  -6.294  1.00 20.00     0.044 C 
HETATM   10  C11 UNL     1     -34.350  13.536  -4.818  1.00 20.00     0.044 C 
BRANCH   9  11
HETATM   11  C4  UNL     1     -34.726  14.716  -7.491  1.00 20.00     0.259 C 
HETATM   12  O12 UNL     1     -35.892  14.531  -7.826  1.00 20.00    -0.302 OA
ENDBRANCH   9  11
ENDBRANCH   6   8
TORSDOF 2
ENDMDL
MODEL 9
REMARK VINA RESULT:      -4.6     12.767     15.006
REMARK  2 active torsions:
REMARK  status: ('A' for Active; 'I' for Inactive)
REMARK    1  A    between atoms: C3_3  and  C4_4 
REMARK    2  A    between atoms: C5_5  and  C9_9 
ROOT
HETATM    1  C1  UNL     1     -40.822   5.304  -0.890  1.00 20.00    -0.024 C 
HETATM    2  C2  UNL     1     -41.457   6.365  -1.414  1.00 20.00    -0.087 C 
HETATM    3  C6  UNL     1     -40.973   3.902  -1.407  1.00 20.00     0.036 C 
HETATM    4  C7  UNL     1     -42.420   6.228  -2.566  1.00 20.00     0.034 C 
HETATM    5  C8  UNL     1     -42.842   4.782  -2.846  1.00 20.00     0.013 C 
HETATM    6  C9  UNL     1     -41.641   3.832  -2.791  1.00 20.00     0.018 C 
HETATM    7  C10 UNL     1     -41.247   7.755  -0.889  1.00 20.00     0.043 C 
ENDROOT
BRANCH   6   8
HETATM    8  C5  UNL     1     -42.045   2.426  -3.119  1.00 20.00    -0.076 C 
HETATM    9  C3  UNL     1     -41.443   1.603  -3.995  1.00 20.00     0.044 C 
HETATM   10  C11 UNL     1     -43.255   1.947  -2.358  1.00 20.00     0.044 C 
BRANCH   9  11
HETATM   11  C4  UNL     1     -41.866   0.219  -4.298  1.00 20.00     0.259 C 
HETATM   12  O12 UNL     1     -42.279  -0.098  -5.409  1.00 20.00    -0.302 OA
ENDBRANCH   9  11
ENDBRANCH   6   8
TORSDOF 2
ENDMDL
