MODEL 1
REMARK VINA RESULT:      -4.1      0.000      0.000
REMARK  0 active torsions:
REMARK  status: ('A' for Active; 'I' for Inactive)
ROOT
HETATM    1  C1  UNL     1     -36.202  14.202  -4.297  1.00 20.00     0.023 C 
HETATM    2  C2  UNL     1     -37.095  15.098  -3.860  1.00 20.00     0.047 C 
HETATM    3  C3  UNL     1     -34.770  14.698  -4.407  1.00 20.00     0.040 C 
HETATM    4  C4  UNL     1     -38.556  14.908  -3.686  1.00 20.00     0.076 C 
HETATM    5  C5  UNL     1     -34.399  14.801  -5.890  1.00 20.00     0.029 C 
HETATM    6  C6  UNL     1     -33.802  13.751  -3.702  1.00 20.00     0.029 C 
HETATM    7  O7  UNL     1     -36.577  16.345  -3.541  1.00 20.00    -0.305 OA
HETATM    8  P8  UNL     1     -34.942  16.354  -3.608  1.00 20.00     0.165 P 
HETATM    9  S9  UNL     1     -34.100  17.934  -4.341  1.00 20.00    -0.049 SA
HETATM   10 CL10 UNL     1     -34.487  16.136  -1.660  1.00 20.00    -0.054 Cl
ENDROOT
TORSDOF 0
ENDMDL
MODEL 2
REMARK VINA RESULT:      -4.0      2.867      3.326
REMARK  0 active torsions:
REMARK  status: ('A' for Active; 'I' for Inactive)
ROOT
HETATM    1  C1  UNL     1     -33.702  16.042  -2.599  1.00 20.00     0.023 C 
HETATM    2  C2  UNL     1     -34.625  16.536  -1.765  1.00 20.00     0.047 C 
HETATM    3  C3  UNL     1     -34.231  15.477  -3.907  1.00 20.00     0.040 C 
HETATM    4  C4  UNL     1     -34.407  17.116  -0.417  1.00 20.00     0.076 C 
HETATM    5  C5  UNL     1     -34.065  13.954  -3.886  1.00 20.00     0.029 C 
HETATM    6  C6  UNL     1     -33.480  16.057  -5.103  1.00 20.00     0.029 C 
HETATM    7  O7  UNL     1     -35.932  16.488  -2.229  1.00 20.00    -0.305 OA
HETATM    8  P8  UNL     1     -35.999  15.994  -3.788  1.00 20.00     0.165 P 
HETATM    9  S9  UNL     1     -37.446  14.804  -4.272  1.00 20.00    -0.049 SA
HETATM   10 CL10 UNL     1     -36.178  17.762  -4.732  1.00 20.00    -0.054 Cl
ENDROOT
TORSDOF 0
ENDMDL
MODEL 3
REMARK VINA RESULT:      -3.9      3.118      3.550
REMARK  0 active torsions:
REMARK  status: ('A' for Active; 'I' for Inactive)
ROOT
HETATM    1  C1  UNL     1     -34.569  17.303  -3.107  1.00 20.00     0.023 C 
HETATM    2  C2  UNL     1     -34.662  16.496  -2.044  1.00 20.00     0.047 C 
HETATM    3  C3  UNL     1     -34.733  16.631  -4.460  1.00 20.00     0.040 C 
HETATM    4  C4  UNL     1     -34.512  16.863  -0.614  1.00 20.00     0.076 C 
HETATM    5  C5  UNL     1     -33.377  16.632  -5.176  1.00 20.00     0.029 C 
HETATM    6  C6  UNL     1     -35.764  17.361  -5.318  1.00 20.00     0.029 C 
HETATM    7  O7  UNL     1     -34.926  15.164  -2.330  1.00 20.00    -0.305 OA
HETATM    8  P8  UNL     1     -35.242  14.941  -3.921  1.00 20.00     0.165 P 
HETATM    9  S9  UNL     1     -34.525  13.345  -4.745  1.00 20.00    -0.049 SA
HETATM   10 CL10 UNL     1     -37.254  14.894  -3.897  1.00 20.00    -0.054 Cl
ENDROOT
TORSDOF 0
ENDMDL
MODEL 4
REMARK VINA RESULT:      -3.9      3.097      3.763
REMARK  0 active torsions:
REMARK  status: ('A' for Active; 'I' for Inactive)
ROOT
HETATM    1  C1  UNL     1     -33.415  16.600  -4.342  1.00 20.00     0.023 C 
HETATM    2  C2  UNL     1     -34.100  17.245  -5.294  1.00 20.00     0.047 C 
HETATM    3  C3  UNL     1     -34.129  15.419  -3.705  1.00 20.00     0.040 C 
HETATM    4  C4  UNL     1     -33.673  18.443  -6.059  1.00 20.00     0.076 C 
HETATM    5  C5  UNL     1     -34.493  15.785  -2.262  1.00 20.00     0.029 C 
HETATM    6  C6  UNL     1     -33.245  14.173  -3.708  1.00 20.00     0.029 C 
HETATM    7  O7  UNL     1     -35.352  16.723  -5.584  1.00 20.00    -0.305 OA
HETATM    8  P8  UNL     1     -35.612  15.310  -4.799  1.00 20.00     0.165 P 
HETATM    9  S9  UNL     1     -37.386  15.011  -4.088  1.00 20.00    -0.049 SA
HETATM   10 CL10 UNL     1     -35.192  13.990  -6.258  1.00 20.00    -0.054 Cl
ENDROOT
TORSDOF 0
ENDMDL
MODEL 5
REMARK VINA RESULT:      -3.9      2.455      2.928
REMARK  0 active torsions:
REMARK  status: ('A' for Active; 'I' for Inactive)
ROOT
HETATM    1  C1  UNL     1     -34.863  15.161  -2.613  1.00 20.00     0.023 C 
HETATM    2  C2  UNL     1     -34.733  16.425  -2.196  1.00 20.00     0.047 C 
HETATM    3  C3  UNL     1     -35.290  14.986  -4.061  1.00 20.00     0.040 C 
HETATM    4  C4  UNL     1     -34.366  16.896  -0.837  1.00 20.00     0.076 C 
HETATM    5  C5  UNL     1     -36.722  14.440  -4.089  1.00 20.00     0.029 C 
HETATM    6  C6  UNL     1     -34.361  14.023  -4.798  1.00 20.00     0.029 C 
HETATM    7  O7  UNL     1     -34.978  17.397  -3.156  1.00 20.00    -0.305 OA
HETATM    8  P8  UNL     1     -35.193  16.737  -4.639  1.00 20.00     0.165 P 
HETATM    9  S9  UNL     1     -36.560  17.520  -5.760  1.00 20.00    -0.049 SA
HETATM   10 CL10 UNL     1     -33.367  17.011  -5.437  1.00 20.00    -0.054 Cl
ENDROOT
TORSDOF 0
ENDMDL
MODEL 6
REMARK VINA RESULT:      -3.9      2.370      2.925
REMARK  0 active torsions:
REMARK  status: ('A' for Active; 'I' for Inactive)
ROOT
HETATM    1  C1  UNL     1     -34.087  15.382  -5.585  1.00 20.00     0.023 C 
HETATM    2  C2  UNL     1     -34.597  16.618  -5.643  1.00 20.00     0.047 C 
HETATM    3  C3  UNL     1     -34.133  14.714  -4.220  1.00 20.00     0.040 C 
HETATM    4  C4  UNL     1     -34.656  17.517  -6.822  1.00 20.00     0.076 C 
HETATM    5  C5  UNL     1     -32.704  14.611  -3.676  1.00 20.00     0.029 C 
HETATM    6  C6  UNL     1     -34.750  13.320  -4.309  1.00 20.00     0.029 C 
HETATM    7  O7  UNL     1     -35.122  17.101  -4.453  1.00 20.00    -0.305 OA
HETATM    8  P8  UNL     1     -35.151  15.945  -3.294  1.00 20.00     0.165 P 
HETATM    9  S9  UNL     1     -34.705  16.492  -1.494  1.00 20.00    -0.049 SA
HETATM   10 CL10 UNL     1     -37.071  15.351  -3.409  1.00 20.00    -0.054 Cl
ENDROOT
TORSDOF 0
ENDMDL
MODEL 7
REMARK VINA RESULT:      -3.9      3.030      3.826
REMARK  0 active torsions:
REMARK  status: ('A' for Active; 'I' for Inactive)
ROOT
HETATM    1  C1  UNL     1     -34.652  17.493  -3.902  1.00 20.00     0.023 C 
HETATM    2  C2  UNL     1     -34.013  17.386  -5.073  1.00 20.00     0.047 C 
HETATM    3  C3  UNL     1     -34.976  16.180  -3.207  1.00 20.00     0.040 C 
HETATM    4  C4  UNL     1     -33.603  18.486  -5.981  1.00 20.00     0.076 C 
HETATM    5  C5  UNL     1     -36.492  15.960  -3.256  1.00 20.00     0.029 C 
HETATM    6  C6  UNL     1     -34.508  16.194  -1.754  1.00 20.00     0.029 C 
HETATM    7  O7  UNL     1     -33.712  16.092  -5.470  1.00 20.00    -0.305 OA
HETATM    8  P8  UNL     1     -34.059  15.005  -4.297  1.00 20.00     0.165 P 
HETATM    9  S9  UNL     1     -34.826  13.320  -4.857  1.00 20.00    -0.049 SA
HETATM   10 CL10 UNL     1     -32.235  14.730  -3.491  1.00 20.00    -0.054 Cl
ENDROOT
TORSDOF 0
ENDMDL
MODEL 8
REMARK VINA RESULT:      -3.8      2.457      2.522
REMARK  0 active torsions:
REMARK  status: ('A' for Active; 'I' for Inactive)
ROOT
HETATM    1  C1  UNL     1     -35.366  15.453  -3.136  1.00 20.00     0.023 C 
HETATM    2  C2  UNL     1     -36.233  16.309  -3.690  1.00 20.00     0.047 C 
HETATM    3  C3  UNL     1     -34.360  14.827  -4.087  1.00 20.00     0.040 C 
HETATM    4  C4  UNL     1     -37.338  17.038  -3.018  1.00 20.00     0.076 C 
HETATM    5  C5  UNL     1     -34.698  13.341  -4.252  1.00 20.00     0.029 C 
HETATM    6  C6  UNL     1     -32.935  14.971  -3.558  1.00 20.00     0.029 C 
HETATM    7  O7  UNL     1     -36.069  16.524  -5.050  1.00 20.00    -0.305 OA
HETATM    8  P8  UNL     1     -34.713  15.801  -5.615  1.00 20.00     0.165 P 
HETATM    9  S9  UNL     1     -34.822  14.967  -7.357  1.00 20.00    -0.049 SA
HETATM   10 CL10 UNL     1     -33.443  17.362  -5.645  1.00 20.00    -0.054 Cl
ENDROOT
TORSDOF 0
ENDMDL
MODEL 9
REMARK VINA RESULT:      -3.7      2.607      3.408
REMARK  0 active torsions:
REMARK  status: ('A' for Active; 'I' for Inactive)
ROOT
HETATM    1  C1  UNL     1     -36.022  16.349  -2.872  1.00 20.00     0.023 C 
HETATM    2  C2  UNL     1     -34.696  16.326  -2.686  1.00 20.00     0.047 C 
HETATM    3  C3  UNL     1     -36.510  15.795  -4.200  1.00 20.00     0.040 C 
HETATM    4  C4  UNL     1     -33.939  16.826  -1.512  1.00 20.00     0.076 C 
HETATM    5  C5  UNL     1     -37.042  16.955  -5.049  1.00 20.00     0.029 C 
HETATM    6  C6  UNL     1     -37.616  14.762  -3.996  1.00 20.00     0.029 C 
HETATM    7  O7  UNL     1     -33.960  15.773  -3.724  1.00 20.00    -0.305 OA
HETATM    8  P8  UNL     1     -34.930  15.106  -4.862  1.00 20.00     0.165 P 
HETATM    9  S9  UNL     1     -34.408  15.340  -6.709  1.00 20.00    -0.049 SA
HETATM   10 CL10 UNL     1     -34.847  13.167  -4.333  1.00 20.00    -0.054 Cl
ENDROOT
TORSDOF 0
ENDMDL
