MODEL 1
REMARK VINA RESULT:      -3.4      0.000      0.000
REMARK  1 active torsions:
REMARK  status: ('A' for Active; 'I' for Inactive)
REMARK    1  A    between atoms: C1_1  and  S3_3 
ROOT
HETATM    1  C1  UNL     1     -34.734   5.119   5.552  1.00 20.00     0.295 C 
HETATM    2  O2  UNL     1     -35.101   4.063   6.054  1.00 20.00    -0.266 OA
HETATM    3 CL4  UNL     1     -34.069   6.473   6.421  1.00 20.00    -0.031 Cl
ENDROOT
BRANCH   1   4
HETATM    4  S3  UNL     1     -34.836   5.415   3.807  1.00 20.00     0.036 SA
HETATM    5 CL5  UNL     1     -32.976   6.144   3.428  1.00 20.00    -0.034 Cl
ENDBRANCH   1   4
TORSDOF 1
ENDMDL
MODEL 2
REMARK VINA RESULT:      -3.3      1.778      1.778
REMARK  1 active torsions:
REMARK  status: ('A' for Active; 'I' for Inactive)
REMARK    1  A    between atoms: C1_1  and  S3_3 
ROOT
HETATM    1  C1  UNL     1     -34.320   5.685   5.517  1.00 20.00     0.295 C 
HETATM    2  O2  UNL     1     -33.950   6.567   6.284  1.00 20.00    -0.266 OA
HETATM    3 CL4  UNL     1     -34.994   4.152   5.989  1.00 20.00    -0.031 Cl
ENDROOT
BRANCH   1   4
HETATM    4  S3  UNL     1     -34.212   5.867   3.756  1.00 20.00     0.036 SA
HETATM    5 CL5  UNL     1     -32.326   6.600   3.558  1.00 20.00    -0.034 Cl
ENDBRANCH   1   4
TORSDOF 1
ENDMDL
MODEL 3
REMARK VINA RESULT:      -3.3      2.422      2.659
REMARK  1 active torsions:
REMARK  status: ('A' for Active; 'I' for Inactive)
REMARK    1  A    between atoms: C1_1  and  S3_3 
ROOT
HETATM    1  C1  UNL     1     -33.753   6.262   4.665  1.00 20.00     0.295 C 
HETATM    2  O2  UNL     1     -32.930   6.649   3.844  1.00 20.00    -0.266 OA
HETATM    3 CL4  UNL     1     -33.815   6.742   6.337  1.00 20.00    -0.031 Cl
ENDROOT
BRANCH   1   4
HETATM    4  S3  UNL     1     -35.039   5.118   4.239  1.00 20.00     0.036 SA
HETATM    5 CL5  UNL     1     -35.138   3.998   5.933  1.00 20.00    -0.034 Cl
ENDBRANCH   1   4
TORSDOF 1
ENDMDL
MODEL 4
REMARK VINA RESULT:      -3.2      1.780      2.706
REMARK  1 active torsions:
REMARK  status: ('A' for Active; 'I' for Inactive)
REMARK    1  A    between atoms: C1_1  and  S3_3 
ROOT
HETATM    1  C1  UNL     1     -34.624   5.560   4.151  1.00 20.00     0.295 C 
HETATM    2  O2  UNL     1     -35.639   5.480   3.468  1.00 20.00    -0.266 OA
HETATM    3 CL4  UNL     1     -33.061   6.069   3.581  1.00 20.00    -0.031 Cl
ENDROOT
BRANCH   1   4
HETATM    4  S3  UNL     1     -34.619   5.152   5.876  1.00 20.00     0.036 SA
HETATM    5 CL5  UNL     1     -33.848   6.856   6.675  1.00 20.00    -0.034 Cl
ENDBRANCH   1   4
TORSDOF 1
ENDMDL
MODEL 5
REMARK VINA RESULT:      -3.2      2.728      3.298
REMARK  1 active torsions:
REMARK  status: ('A' for Active; 'I' for Inactive)
REMARK    1  A    between atoms: C1_1  and  S3_3 
ROOT
HETATM    1  C1  UNL     1     -33.617   6.190   4.296  1.00 20.00     0.295 C 
HETATM    2  O2  UNL     1     -32.596   6.735   3.893  1.00 20.00    -0.266 OA
HETATM    3 CL4  UNL     1     -34.764   5.335   3.305  1.00 20.00    -0.031 Cl
ENDROOT
BRANCH   1   4
HETATM    4  S3  UNL     1     -34.075   6.203   6.008  1.00 20.00     0.036 SA
HETATM    5 CL5  UNL     1     -35.103   4.453   6.147  1.00 20.00    -0.034 Cl
ENDBRANCH   1   4
TORSDOF 1
ENDMDL
MODEL 6
REMARK VINA RESULT:      -3.2      2.238      3.004
REMARK  1 active torsions:
REMARK  status: ('A' for Active; 'I' for Inactive)
REMARK    1  A    between atoms: C1_1  and  S3_3 
ROOT
HETATM    1  C1  UNL     1     -33.828   5.924   3.938  1.00 20.00     0.295 C 
HETATM    2  O2  UNL     1     -34.618   5.356   3.192  1.00 20.00    -0.266 OA
HETATM    3 CL4  UNL     1     -32.325   6.653   3.451  1.00 20.00    -0.031 Cl
ENDROOT
BRANCH   1   4
HETATM    4  S3  UNL     1     -34.128   6.083   5.678  1.00 20.00     0.036 SA
HETATM    5 CL5  UNL     1     -35.017   4.299   6.081  1.00 20.00    -0.034 Cl
ENDBRANCH   1   4
TORSDOF 1
ENDMDL
MODEL 7
REMARK VINA RESULT:      -3.2      2.183      2.531
REMARK  1 active torsions:
REMARK  status: ('A' for Active; 'I' for Inactive)
REMARK    1  A    between atoms: C1_1  and  S3_3 
ROOT
HETATM    1  C1  UNL     1     -35.034   5.227   4.410  1.00 20.00     0.295 C 
HETATM    2  O2  UNL     1     -35.927   5.452   3.601  1.00 20.00    -0.266 OA
HETATM    3 CL4  UNL     1     -34.978   3.874   5.504  1.00 20.00    -0.031 Cl
ENDROOT
BRANCH   1   4
HETATM    4  S3  UNL     1     -33.628   6.294   4.576  1.00 20.00     0.036 SA
HETATM    5 CL5  UNL     1     -33.780   6.833   6.531  1.00 20.00    -0.034 Cl
ENDBRANCH   1   4
TORSDOF 1
ENDMDL
MODEL 8
REMARK VINA RESULT:      -3.1      2.085      2.791
REMARK  1 active torsions:
REMARK  status: ('A' for Active; 'I' for Inactive)
REMARK    1  A    between atoms: C1_1  and  S3_3 
ROOT
HETATM    1  C1  UNL     1     -33.684   6.277   4.574  1.00 20.00     0.295 C 
HETATM    2  O2  UNL     1     -33.619   6.711   5.719  1.00 20.00    -0.266 OA
HETATM    3 CL4  UNL     1     -32.548   6.614   3.300  1.00 20.00    -0.031 Cl
ENDROOT
BRANCH   1   4
HETATM    4  S3  UNL     1     -34.997   5.208   4.049  1.00 20.00     0.036 SA
HETATM    5 CL5  UNL     1     -35.031   3.860   5.572  1.00 20.00    -0.034 Cl
ENDBRANCH   1   4
TORSDOF 1
ENDMDL
MODEL 9
REMARK VINA RESULT:      -3.1      2.050      2.050
REMARK  1 active torsions:
REMARK  status: ('A' for Active; 'I' for Inactive)
REMARK    1  A    between atoms: C1_1  and  S3_3 
ROOT
HETATM    1  C1  UNL     1     -34.925   5.272   4.495  1.00 20.00     0.295 C 
HETATM    2  O2  UNL     1     -35.736   5.429   3.589  1.00 20.00    -0.266 OA
HETATM    3 CL4  UNL     1     -34.928   3.960   5.638  1.00 20.00    -0.031 Cl
ENDROOT
BRANCH   1   4
HETATM    4  S3  UNL     1     -33.591   6.408   4.767  1.00 20.00     0.036 SA
HETATM    5 CL5  UNL     1     -32.465   6.088   3.104  1.00 20.00    -0.034 Cl
ENDBRANCH   1   4
TORSDOF 1
ENDMDL
