MODEL 1
REMARK VINA RESULT:      -4.1      0.000      0.000
REMARK  1 active torsions:
REMARK  status: ('A' for Active; 'I' for Inactive)
REMARK    1  A    between atoms: C2_2  and  C4_4 
ROOT
HETATM    1  C1  UNL     1     -34.914   4.713   4.660  1.00 20.00     0.026 A 
HETATM    2  C2  UNL     1     -34.068   5.708   4.399  1.00 20.00     0.068 A 
HETATM    3  C3  UNL     1     -35.179   4.802   6.112  1.00 20.00     0.203 A 
HETATM    4  N5  UNL     1     -33.752   6.437   5.519  1.00 20.00    -0.159 NA
HETATM    5  N6  UNL     1     -34.355   5.967   6.525  1.00 20.00    -0.189 NA
ENDROOT
BRANCH   2   6
HETATM    6  C4  UNL     1     -33.480   6.067   3.084  1.00 20.00     0.175 C 
HETATM    7 CL7  UNL     1     -32.024   7.016   3.399  1.00 20.00    -0.124 Cl
ENDBRANCH   2   6
TORSDOF 1
ENDMDL
MODEL 2
REMARK VINA RESULT:      -4.0      1.586      1.651
REMARK  1 active torsions:
REMARK  status: ('A' for Active; 'I' for Inactive)
REMARK    1  A    between atoms: C2_2  and  C4_4 
ROOT
HETATM    1  C1  UNL     1     -34.282   5.791   5.964  1.00 20.00     0.026 A 
HETATM    2  C2  UNL     1     -34.209   5.771   4.634  1.00 20.00     0.068 A 
HETATM    3  C3  UNL     1     -35.006   4.555   6.330  1.00 20.00     0.203 A 
HETATM    4  N5  UNL     1     -34.806   4.659   4.091  1.00 20.00    -0.159 NA
HETATM    5  N6  UNL     1     -35.276   3.930   5.010  1.00 20.00    -0.189 NA
ENDROOT
BRANCH   2   6
HETATM    6  C4  UNL     1     -33.579   6.786   3.752  1.00 20.00     0.175 C 
HETATM    7 CL7  UNL     1     -32.115   6.063   3.079  1.00 20.00    -0.124 Cl
ENDBRANCH   2   6
TORSDOF 1
ENDMDL
MODEL 3
REMARK VINA RESULT:      -3.7      1.971      2.785
REMARK  1 active torsions:
REMARK  status: ('A' for Active; 'I' for Inactive)
REMARK    1  A    between atoms: C2_2  and  C4_4 
ROOT
HETATM    1  C1  UNL     1     -34.996   5.157   4.102  1.00 20.00     0.026 A 
HETATM    2  C2  UNL     1     -34.179   5.796   4.939  1.00 20.00     0.068 A 
HETATM    3  C3  UNL     1     -34.392   5.334   2.763  1.00 20.00     0.203 A 
HETATM    4  N5  UNL     1     -33.110   6.370   4.295  1.00 20.00    -0.159 NA
HETATM    5  N6  UNL     1     -33.178   6.139   3.055  1.00 20.00    -0.189 NA
ENDROOT
BRANCH   2   6
HETATM    6  C4  UNL     1     -34.324   5.929   6.410  1.00 20.00     0.175 C 
HETATM    7 CL7  UNL     1     -33.353   7.317   6.913  1.00 20.00    -0.124 Cl
ENDBRANCH   2   6
TORSDOF 1
ENDMDL
MODEL 4
REMARK VINA RESULT:      -3.7     12.307     12.637
REMARK  1 active torsions:
REMARK  status: ('A' for Active; 'I' for Inactive)
REMARK    1  A    between atoms: C2_2  and  C4_4 
ROOT
HETATM    1  C1  UNL     1     -34.397  14.909  -5.269  1.00 20.00     0.026 A 
HETATM    2  C2  UNL     1     -34.061  14.742  -3.990  1.00 20.00     0.068 A 
HETATM    3  C3  UNL     1     -34.936  13.601  -5.701  1.00 20.00     0.203 A 
HETATM    4  N5  UNL     1     -34.321  13.471  -3.540  1.00 20.00    -0.159 NA
HETATM    5  N6  UNL     1     -34.820  12.777  -4.471  1.00 20.00    -0.189 NA
ENDROOT
BRANCH   2   6
HETATM    6  C4  UNL     1     -33.469  15.751  -3.077  1.00 20.00     0.175 C 
HETATM    7 CL7  UNL     1     -34.632  16.035  -1.779  1.00 20.00    -0.124 Cl
ENDBRANCH   2   6
TORSDOF 1
ENDMDL
MODEL 5
REMARK VINA RESULT:      -3.6      2.546      3.456
REMARK  1 active torsions:
REMARK  status: ('A' for Active; 'I' for Inactive)
REMARK    1  A    between atoms: C2_2  and  C4_4 
ROOT
HETATM    1  C1  UNL     1     -32.881   6.574   4.293  1.00 20.00     0.026 A 
HETATM    2  C2  UNL     1     -33.950   5.931   4.760  1.00 20.00     0.068 A 
HETATM    3  C3  UNL     1     -32.885   6.324   2.835  1.00 20.00     0.203 A 
HETATM    4  N5  UNL     1     -34.651   5.289   3.770  1.00 20.00    -0.159 NA
HETATM    5  N6  UNL     1     -34.093   5.478   2.652  1.00 20.00    -0.189 NA
ENDROOT
BRANCH   2   6
HETATM    6  C4  UNL     1     -34.410   5.858   6.170  1.00 20.00     0.175 C 
HETATM    7 CL7  UNL     1     -35.216   4.300   6.380  1.00 20.00    -0.124 Cl
ENDBRANCH   2   6
TORSDOF 1
ENDMDL
MODEL 6
REMARK VINA RESULT:      -3.4     12.108     12.573
REMARK  1 active torsions:
REMARK  status: ('A' for Active; 'I' for Inactive)
REMARK    1  A    between atoms: C2_2  and  C4_4 
ROOT
HETATM    1  C1  UNL     1     -34.436  14.844  -3.339  1.00 20.00     0.026 A 
HETATM    2  C2  UNL     1     -35.711  14.649  -3.673  1.00 20.00     0.068 A 
HETATM    3  C3  UNL     1     -33.724  13.635  -3.810  1.00 20.00     0.203 A 
HETATM    4  N5  UNL     1     -35.911  13.449  -4.309  1.00 20.00    -0.159 NA
HETATM    5  N6  UNL     1     -34.815  12.829  -4.416  1.00 20.00    -0.189 NA
ENDROOT
BRANCH   2   6
HETATM    6  C4  UNL     1     -36.854  15.564  -3.427  1.00 20.00     0.175 C 
HETATM    7 CL7  UNL     1     -38.325  14.706  -3.895  1.00 20.00    -0.124 Cl
ENDBRANCH   2   6
TORSDOF 1
ENDMDL
MODEL 7
REMARK VINA RESULT:      -3.3     12.406     13.265
REMARK  1 active torsions:
REMARK  status: ('A' for Active; 'I' for Inactive)
REMARK    1  A    between atoms: C2_2  and  C4_4 
ROOT
HETATM    1  C1  UNL     1     -34.468  15.031  -4.725  1.00 20.00     0.026 A 
HETATM    2  C2  UNL     1     -34.854  14.083  -5.578  1.00 20.00     0.068 A 
HETATM    3  C3  UNL     1     -34.186  14.321  -3.459  1.00 20.00     0.203 A 
HETATM    4  N5  UNL     1     -34.855  12.833  -5.009  1.00 20.00    -0.159 NA
HETATM    5  N6  UNL     1     -34.484  12.907  -3.803  1.00 20.00    -0.189 NA
ENDROOT
BRANCH   2   6
HETATM    6  C4  UNL     1     -35.256  14.258  -6.996  1.00 20.00     0.175 C 
HETATM    7 CL7  UNL     1     -34.638  15.825  -7.529  1.00 20.00    -0.124 Cl
ENDBRANCH   2   6
TORSDOF 1
ENDMDL
MODEL 8
REMARK VINA RESULT:      -3.2     10.024     10.282
REMARK  1 active torsions:
REMARK  status: ('A' for Active; 'I' for Inactive)
REMARK    1  A    between atoms: C2_2  and  C4_4 
ROOT
HETATM    1  C1  UNL     1     -41.164   4.648  -0.767  1.00 20.00     0.026 A 
HETATM    2  C2  UNL     1     -41.740   4.921  -1.937  1.00 20.00     0.068 A 
HETATM    3  C3  UNL     1     -40.578   5.930  -0.316  1.00 20.00     0.203 A 
HETATM    4  N5  UNL     1     -41.594   6.238  -2.300  1.00 20.00    -0.159 NA
HETATM    5  N6  UNL     1     -40.942   6.860  -1.416  1.00 20.00    -0.189 NA
ENDROOT
BRANCH   2   6
HETATM    6  C4  UNL     1     -42.474   3.980  -2.819  1.00 20.00     0.175 C 
HETATM    7 CL7  UNL     1     -41.405   2.609  -3.132  1.00 20.00    -0.124 Cl
ENDBRANCH   2   6
TORSDOF 1
ENDMDL
MODEL 9
REMARK VINA RESULT:      -3.2     10.421     10.624
REMARK  1 active torsions:
REMARK  status: ('A' for Active; 'I' for Inactive)
REMARK    1  A    between atoms: C2_2  and  C4_4 
ROOT
HETATM    1  C1  UNL     1     -41.992   4.581  -2.183  1.00 20.00     0.026 A 
HETATM    2  C2  UNL     1     -42.101   5.884  -2.440  1.00 20.00     0.068 A 
HETATM    3  C3  UNL     1     -40.911   4.475  -1.179  1.00 20.00     0.203 A 
HETATM    4  N5  UNL     1     -41.211   6.639  -1.717  1.00 20.00    -0.159 NA
HETATM    5  N6  UNL     1     -40.508   5.891  -0.980  1.00 20.00    -0.189 NA
ENDROOT
BRANCH   2   6
HETATM    6  C4  UNL     1     -43.042   6.538  -3.384  1.00 20.00     0.175 C 
HETATM    7 CL7  UNL     1     -42.315   8.071  -3.876  1.00 20.00    -0.124 Cl
ENDBRANCH   2   6
TORSDOF 1
ENDMDL
