MODEL 1
REMARK VINA RESULT:      -4.8      0.000      0.000
REMARK  0 active torsions:
REMARK  status: ('A' for Active; 'I' for Inactive)
ROOT
HETATM    1  C1  UNL     1     -34.660   5.514   6.293  1.00 20.00     0.116 A 
HETATM    2  C2  UNL     1     -33.236   7.089   5.108  1.00 20.00     0.084 A 
HETATM    3  C3  UNL     1     -33.957   6.653   6.277  1.00 20.00     0.124 A 
HETATM    4  C4  UNL     1     -33.276   6.328   4.010  1.00 20.00     0.109 A 
HETATM    5  C5  UNL     1     -34.701   4.667   5.063  1.00 20.00     0.249 A 
HETATM    6  N6  UNL     1     -33.982   5.153   3.979  1.00 20.00    -0.314 N 
HETATM    7  O7  UNL     1     -35.339   3.618   5.052  1.00 20.00    -0.268 OA
HETATM    8  F8  UNL     1     -33.906   7.433   7.376  1.00 20.00    -0.206 F 
HETATM    9 CL9  UNL     1     -32.473   6.715   2.552  1.00 20.00    -0.064 Cl
HETATM   10  H12 UNL     1     -33.972   4.621   3.115  1.00 20.00     0.170 HD
ENDROOT
TORSDOF 0
ENDMDL
MODEL 2
REMARK VINA RESULT:      -4.6      2.391      2.737
REMARK  0 active torsions:
REMARK  status: ('A' for Active; 'I' for Inactive)
ROOT
HETATM    1  C1  UNL     1     -34.643   5.468   6.059  1.00 20.00     0.116 A 
HETATM    2  C2  UNL     1     -34.037   5.284   3.712  1.00 20.00     0.084 A 
HETATM    3  C3  UNL     1     -34.736   4.830   4.887  1.00 20.00     0.124 A 
HETATM    4  C4  UNL     1     -33.274   6.377   3.803  1.00 20.00     0.109 A 
HETATM    5  C5  UNL     1     -33.787   6.690   6.156  1.00 20.00     0.249 A 
HETATM    6  N6  UNL     1     -33.147   7.065   4.983  1.00 20.00    -0.314 N 
HETATM    7  O7  UNL     1     -33.685   7.294   7.220  1.00 20.00    -0.268 OA
HETATM    8  F8  UNL     1     -35.503   3.725   4.776  1.00 20.00    -0.206 F 
HETATM    9 CL9  UNL     1     -32.387   7.033   2.498  1.00 20.00    -0.064 Cl
HETATM   10  H12 UNL     1     -32.552   7.887   4.986  1.00 20.00     0.170 HD
ENDROOT
TORSDOF 0
ENDMDL
MODEL 3
REMARK VINA RESULT:      -4.5      2.815      3.283
REMARK  0 active torsions:
REMARK  status: ('A' for Active; 'I' for Inactive)
ROOT
HETATM    1  C1  UNL     1     -34.391   4.918   3.966  1.00 20.00     0.116 A 
HETATM    2  C2  UNL     1     -34.593   5.526   6.312  1.00 20.00     0.084 A 
HETATM    3  C3  UNL     1     -34.879   4.672   5.187  1.00 20.00     0.124 A 
HETATM    4  C4  UNL     1     -33.815   6.596   6.121  1.00 20.00     0.109 A 
HETATM    5  C5  UNL     1     -33.522   6.116   3.758  1.00 20.00     0.249 A 
HETATM    6  N6  UNL     1     -33.291   6.889   4.888  1.00 20.00    -0.314 N 
HETATM    7  O7  UNL     1     -33.062   6.365   2.647  1.00 20.00    -0.268 OA
HETATM    8  F8  UNL     1     -35.666   3.596   5.398  1.00 20.00    -0.206 F 
HETATM    9 CL9  UNL     1     -33.389   7.697   7.356  1.00 20.00    -0.064 Cl
HETATM   10  H12 UNL     1     -32.708   7.716   4.809  1.00 20.00     0.170 HD
ENDROOT
TORSDOF 0
ENDMDL
MODEL 4
REMARK VINA RESULT:      -4.4     12.493     12.629
REMARK  0 active torsions:
REMARK  status: ('A' for Active; 'I' for Inactive)
ROOT
HETATM    1  C1  UNL     1     -35.577  13.700  -4.149  1.00 20.00     0.116 A 
HETATM    2  C2  UNL     1     -34.039  15.112  -2.902  1.00 20.00     0.084 A 
HETATM    3  C3  UNL     1     -34.328  14.006  -3.779  1.00 20.00     0.124 A 
HETATM    4  C4  UNL     1     -35.056  15.850  -2.447  1.00 20.00     0.109 A 
HETATM    5  C5  UNL     1     -36.710  14.529  -3.637  1.00 20.00     0.249 A 
HETATM    6  N6  UNL     1     -36.353  15.575  -2.798  1.00 20.00    -0.314 N 
HETATM    7  O7  UNL     1     -37.866  14.269  -3.962  1.00 20.00    -0.268 OA
HETATM    8  F8  UNL     1     -33.289  13.272  -4.229  1.00 20.00    -0.206 F 
HETATM    9 CL9  UNL     1     -34.870  17.188  -1.401  1.00 20.00    -0.064 Cl
HETATM   10  H12 UNL     1     -37.080  16.174  -2.419  1.00 20.00     0.170 HD
ENDROOT
TORSDOF 0
ENDMDL
MODEL 5
REMARK VINA RESULT:      -4.4     12.858     13.436
REMARK  0 active torsions:
REMARK  status: ('A' for Active; 'I' for Inactive)
ROOT
HETATM    1  C1  UNL     1     -33.979  14.278  -3.479  1.00 20.00     0.116 A 
HETATM    2  C2  UNL     1     -33.726  16.421  -4.598  1.00 20.00     0.084 A 
HETATM    3  C3  UNL     1     -33.674  15.580  -3.430  1.00 20.00     0.124 A 
HETATM    4  C4  UNL     1     -34.090  15.878  -5.763  1.00 20.00     0.109 A 
HETATM    5  C5  UNL     1     -34.385  13.675  -4.784  1.00 20.00     0.249 A 
HETATM    6  N6  UNL     1     -34.411  14.548  -5.863  1.00 20.00    -0.314 N 
HETATM    7  O7  UNL     1     -34.670  12.482  -4.856  1.00 20.00    -0.268 OA
HETATM    8  F8  UNL     1     -33.304  16.145  -2.262  1.00 20.00    -0.206 F 
HETATM    9 CL9  UNL     1     -34.198  16.748  -7.230  1.00 20.00    -0.064 Cl
HETATM   10  H12 UNL     1     -34.680  14.196  -6.777  1.00 20.00     0.170 HD
ENDROOT
TORSDOF 0
ENDMDL
MODEL 6
REMARK VINA RESULT:      -4.4     12.425     12.652
REMARK  0 active torsions:
REMARK  status: ('A' for Active; 'I' for Inactive)
ROOT
HETATM    1  C1  UNL     1     -34.006  14.345  -3.491  1.00 20.00     0.116 A 
HETATM    2  C2  UNL     1     -35.715  15.931  -2.803  1.00 20.00     0.084 A 
HETATM    3  C3  UNL     1     -34.355  15.458  -2.836  1.00 20.00     0.124 A 
HETATM    4  C4  UNL     1     -36.652  15.230  -3.449  1.00 20.00     0.109 A 
HETATM    5  C5  UNL     1     -35.058  13.564  -4.211  1.00 20.00     0.249 A 
HETATM    6  N6  UNL     1     -36.343  14.083  -4.134  1.00 20.00    -0.314 N 
HETATM    7  O7  UNL     1     -34.764  12.539  -4.819  1.00 20.00    -0.268 OA
HETATM    8  F8  UNL     1     -33.421  16.178  -2.180  1.00 20.00    -0.206 F 
HETATM    9 CL9  UNL     1     -38.304  15.666  -3.498  1.00 20.00    -0.064 Cl
HETATM   10  H12 UNL     1     -37.100  13.597  -4.603  1.00 20.00     0.170 HD
ENDROOT
TORSDOF 0
ENDMDL
MODEL 7
REMARK VINA RESULT:      -4.3     12.817     13.436
REMARK  0 active torsions:
REMARK  status: ('A' for Active; 'I' for Inactive)
ROOT
HETATM    1  C1  UNL     1     -34.350  14.564  -5.582  1.00 20.00     0.116 A 
HETATM    2  C2  UNL     1     -34.061  16.468  -4.099  1.00 20.00     0.084 A 
HETATM    3  C3  UNL     1     -34.047  15.855  -5.402  1.00 20.00     0.124 A 
HETATM    4  C4  UNL     1     -34.386  15.718  -3.041  1.00 20.00     0.109 A 
HETATM    5  C5  UNL     1     -34.712  13.729  -4.397  1.00 20.00     0.249 A 
HETATM    6  N6  UNL     1     -34.703  14.391  -3.176  1.00 20.00    -0.314 N 
HETATM    7  O7  UNL     1     -34.994  12.542  -4.535  1.00 20.00    -0.268 OA
HETATM    8  F8  UNL     1     -33.717  16.627  -6.458  1.00 20.00    -0.206 F 
HETATM    9 CL9  UNL     1     -34.443  16.304  -1.437  1.00 20.00    -0.064 Cl
HETATM   10  H12 UNL     1     -34.941  13.876  -2.334  1.00 20.00     0.170 HD
ENDROOT
TORSDOF 0
ENDMDL
MODEL 8
REMARK VINA RESULT:      -4.3     10.019     10.409
REMARK  0 active torsions:
REMARK  status: ('A' for Active; 'I' for Inactive)
ROOT
HETATM    1  C1  UNL     1     -41.410   7.259  -1.022  1.00 20.00     0.116 A 
HETATM    2  C2  UNL     1     -40.863   4.893  -0.907  1.00 20.00     0.084 A 
HETATM    3  C3  UNL     1     -40.788   6.243  -0.412  1.00 20.00     0.124 A 
HETATM    4  C4  UNL     1     -41.578   4.654  -2.011  1.00 20.00     0.109 A 
HETATM    5  C5  UNL     1     -42.208   6.987  -2.256  1.00 20.00     0.249 A 
HETATM    6  N6  UNL     1     -42.233   5.662  -2.670  1.00 20.00    -0.314 N 
HETATM    7  O7  UNL     1     -42.788   7.901  -2.836  1.00 20.00    -0.268 OA
HETATM    8  F8  UNL     1     -40.063   6.466   0.704  1.00 20.00    -0.206 F 
HETATM    9 CL9  UNL     1     -41.758   3.107  -2.714  1.00 20.00    -0.064 Cl
HETATM   10  H12 UNL     1     -42.759   5.415  -3.503  1.00 20.00     0.170 HD
ENDROOT
TORSDOF 0
ENDMDL
MODEL 9
REMARK VINA RESULT:      -4.3      9.901     10.231
REMARK  0 active torsions:
REMARK  status: ('A' for Active; 'I' for Inactive)
ROOT
HETATM    1  C1  UNL     1     -40.912   4.798  -0.817  1.00 20.00     0.116 A 
HETATM    2  C2  UNL     1     -41.341   7.157  -1.219  1.00 20.00     0.084 A 
HETATM    3  C3  UNL     1     -40.766   6.079  -0.456  1.00 20.00     0.124 A 
HETATM    4  C4  UNL     1     -42.040   6.862  -2.320  1.00 20.00     0.109 A 
HETATM    5  C5  UNL     1     -41.694   4.474  -2.048  1.00 20.00     0.249 A 
HETATM    6  N6  UNL     1     -42.216   5.565  -2.729  1.00 20.00    -0.314 N 
HETATM    7  O7  UNL     1     -41.842   3.307  -2.400  1.00 20.00    -0.268 OA
HETATM    8  F8  UNL     1     -40.063   6.395   0.651  1.00 20.00    -0.206 F 
HETATM    9 CL9  UNL     1     -42.779   8.032  -3.322  1.00 20.00    -0.064 Cl
HETATM   10  H12 UNL     1     -42.757   5.408  -3.573  1.00 20.00     0.170 HD
ENDROOT
TORSDOF 0
ENDMDL
