MODEL 1
REMARK VINA RESULT:      -4.5      0.000      0.000
REMARK  2 active torsions:
REMARK  status: ('A' for Active; 'I' for Inactive)
REMARK    1  A    between atoms: C8_8  and  O11_11 
REMARK    2  A    between atoms: C9_9  and  O11_11 
ROOT
HETATM    1  C1  UNL     1     -34.797  13.256  -4.524  1.00 20.00     0.092 C 
HETATM    2  C2  UNL     1     -34.585  14.925  -6.089  1.00 20.00     0.027 C 
HETATM    3  C3  UNL     1     -34.401  15.252  -7.378  1.00 20.00     0.040 C 
HETATM    4  C4  UNL     1     -34.254  14.076  -3.385  1.00 20.00     0.079 C 
HETATM    5  C5  UNL     1     -34.394  15.951  -5.004  1.00 20.00     0.090 C 
HETATM    6  C8  UNL     1     -33.578  15.344  -3.871  1.00 20.00     0.132 C 
HETATM    7  N10 UNL     1     -34.955  13.645  -5.751  1.00 20.00    -0.270 NA
ENDROOT
BRANCH   6   8
HETATM    8  O11 UNL     1     -33.492  16.265  -2.790  1.00 20.00    -0.380 OA
BRANCH   8   9
HETATM    9  C9  UNL     1     -34.575  16.101  -1.887  1.00 20.00     0.122 A 
HETATM   10  C6  UNL     1     -34.498  16.892  -0.612  1.00 20.00     0.034 A 
HETATM   11  C7  UNL     1     -35.456  17.301  -1.691  1.00 20.00     0.034 A 
ENDBRANCH   8   9
ENDBRANCH   6   8
TORSDOF 2
ENDMDL
MODEL 2
REMARK VINA RESULT:      -4.4     10.741     12.127
REMARK  2 active torsions:
REMARK  status: ('A' for Active; 'I' for Inactive)
REMARK    1  A    between atoms: C8_8  and  O11_11 
REMARK    2  A    between atoms: C9_9  and  O11_11 
ROOT
HETATM    1  C1  UNL     1     -35.147   4.956   4.187  1.00 20.00     0.092 C 
HETATM    2  C2  UNL     1     -33.953   6.254   5.661  1.00 20.00     0.027 C 
HETATM    3  C3  UNL     1     -33.935   6.917   6.828  1.00 20.00     0.040 C 
HETATM    4  C4  UNL     1     -34.399   5.424   2.968  1.00 20.00     0.079 C 
HETATM    5  C5  UNL     1     -32.900   6.512   4.617  1.00 20.00     0.090 C 
HETATM    6  C8  UNL     1     -33.561   6.656   3.254  1.00 20.00     0.132 C 
HETATM    7  N10 UNL     1     -34.938   5.327   5.412  1.00 20.00    -0.270 NA
ENDROOT
BRANCH   6   8
HETATM    8  O11 UNL     1     -32.567   6.781   2.245  1.00 20.00    -0.380 OA
BRANCH   8   9
HETATM    9  C9  UNL     1     -31.941   8.055   2.293  1.00 20.00     0.122 A 
HETATM   10  C6  UNL     1     -31.602   8.676   0.967  1.00 20.00     0.034 A 
HETATM   11  C7  UNL     1     -32.751   9.207   1.772  1.00 20.00     0.034 A 
ENDBRANCH   8   9
ENDBRANCH   6   8
TORSDOF 2
ENDMDL
MODEL 3
REMARK VINA RESULT:      -4.4     11.062     12.431
REMARK  2 active torsions:
REMARK  status: ('A' for Active; 'I' for Inactive)
REMARK    1  A    between atoms: C8_8  and  O11_11 
REMARK    2  A    between atoms: C9_9  and  O11_11 
ROOT
HETATM    1  C1  UNL     1     -33.459   6.885   6.120  1.00 20.00     0.092 C 
HETATM    2  C2  UNL     1     -34.636   5.099   5.278  1.00 20.00     0.027 C 
HETATM    3  C3  UNL     1     -35.150   3.878   5.496  1.00 20.00     0.040 C 
HETATM    4  C4  UNL     1     -32.908   7.316   4.787  1.00 20.00     0.079 C 
HETATM    5  C5  UNL     1     -34.478   5.625   3.877  1.00 20.00     0.090 C 
HETATM    6  C8  UNL     1     -33.100   6.252   3.723  1.00 20.00     0.132 C 
HETATM    7  N10 UNL     1     -34.251   5.882   6.341  1.00 20.00    -0.270 NA
ENDROOT
BRANCH   6   8
HETATM    8  O11 UNL     1     -32.984   6.857   2.441  1.00 20.00    -0.380 OA
BRANCH   8   9
HETATM    9  C9  UNL     1     -32.102   7.969   2.473  1.00 20.00     0.122 A 
HETATM   10  C6  UNL     1     -31.611   8.463   1.142  1.00 20.00     0.034 A 
HETATM   11  C7  UNL     1     -32.637   9.251   1.902  1.00 20.00     0.034 A 
ENDBRANCH   8   9
ENDBRANCH   6   8
TORSDOF 2
ENDMDL
MODEL 4
REMARK VINA RESULT:      -4.0      1.867      2.839
REMARK  2 active torsions:
REMARK  status: ('A' for Active; 'I' for Inactive)
REMARK    1  A    between atoms: C8_8  and  O11_11 
REMARK    2  A    between atoms: C9_9  and  O11_11 
ROOT
HETATM    1  C1  UNL     1     -33.481  17.047  -4.686  1.00 20.00     0.092 C 
HETATM    2  C2  UNL     1     -33.914  14.967  -3.810  1.00 20.00     0.027 C 
HETATM    3  C3  UNL     1     -34.071  13.653  -4.037  1.00 20.00     0.040 C 
HETATM    4  C4  UNL     1     -34.254  17.794  -3.634  1.00 20.00     0.079 C 
HETATM    5  C5  UNL     1     -34.382  15.582  -2.519  1.00 20.00     0.090 C 
HETATM    6  C8  UNL     1     -35.136  16.871  -2.815  1.00 20.00     0.132 C 
HETATM    7  N10 UNL     1     -33.319  15.762  -4.761  1.00 20.00    -0.270 NA
ENDROOT
BRANCH   6   8
HETATM    8  O11 UNL     1     -35.480  17.521  -1.598  1.00 20.00    -0.380 OA
BRANCH   8   9
HETATM    9  C9  UNL     1     -34.686  17.050  -0.519  1.00 20.00     0.122 A 
HETATM   10  C6  UNL     1     -33.933  18.095   0.254  1.00 20.00     0.034 A 
HETATM   11  C7  UNL     1     -35.142  17.443   0.856  1.00 20.00     0.034 A 
ENDBRANCH   8   9
ENDBRANCH   6   8
TORSDOF 2
ENDMDL
MODEL 5
REMARK VINA RESULT:      -4.0      2.239      4.767
REMARK  2 active torsions:
REMARK  status: ('A' for Active; 'I' for Inactive)
REMARK    1  A    between atoms: C8_8  and  O11_11 
REMARK    2  A    between atoms: C9_9  and  O11_11 
ROOT
HETATM    1  C1  UNL     1     -34.227  18.547  -3.084  1.00 20.00     0.092 C 
HETATM    2  C2  UNL     1     -34.716  17.261  -1.243  1.00 20.00     0.027 C 
HETATM    3  C3  UNL     1     -34.845  17.196   0.091  1.00 20.00     0.040 C 
HETATM    4  C4  UNL     1     -33.721  17.398  -3.914  1.00 20.00     0.079 C 
HETATM    5  C5  UNL     1     -34.606  16.003  -2.063  1.00 20.00     0.090 C 
HETATM    6  C8  UNL     1     -33.480  16.156  -3.076  1.00 20.00     0.132 C 
HETATM    7  N10 UNL     1     -34.687  18.482  -1.873  1.00 20.00    -0.270 NA
ENDROOT
BRANCH   6   8
HETATM    8  O11 UNL     1     -33.445  15.022  -3.934  1.00 20.00    -0.380 OA
BRANCH   8   9
HETATM    9  C9  UNL     1     -34.750  14.649  -4.352  1.00 20.00     0.122 A 
HETATM   10  C6  UNL     1     -34.867  14.097  -5.744  1.00 20.00     0.034 A 
HETATM   11  C7  UNL     1     -34.980  13.181  -4.562  1.00 20.00     0.034 A 
ENDBRANCH   8   9
ENDBRANCH   6   8
TORSDOF 2
ENDMDL
MODEL 6
REMARK VINA RESULT:      -3.9     12.086     13.818
REMARK  2 active torsions:
REMARK  status: ('A' for Active; 'I' for Inactive)
REMARK    1  A    between atoms: C8_8  and  O11_11 
REMARK    2  A    between atoms: C9_9  and  O11_11 
ROOT
HETATM    1  C1  UNL     1     -40.688   5.674  -0.630  1.00 20.00     0.092 C 
HETATM    2  C2  UNL     1     -42.289   7.041  -1.550  1.00 20.00     0.027 C 
HETATM    3  C3  UNL     1     -43.098   8.101  -1.395  1.00 20.00     0.040 C 
HETATM    4  C4  UNL     1     -41.070   4.464  -1.440  1.00 20.00     0.079 C 
HETATM    5  C5  UNL     1     -42.522   6.059  -2.666  1.00 20.00     0.090 C 
HETATM    6  C8  UNL     1     -42.413   4.640  -2.124  1.00 20.00     0.132 C 
HETATM    7  N10 UNL     1     -41.237   6.847  -0.687  1.00 20.00    -0.270 NA
ENDROOT
BRANCH   6   8
HETATM    8  O11 UNL     1     -42.512   3.705  -3.191  1.00 20.00    -0.380 OA
BRANCH   8   9
HETATM    9  C9  UNL     1     -41.731   2.547  -2.937  1.00 20.00     0.122 A 
HETATM   10  C6  UNL     1     -42.354   1.233  -3.313  1.00 20.00     0.034 A 
HETATM   11  C7  UNL     1     -41.243   1.803  -4.146  1.00 20.00     0.034 A 
ENDBRANCH   8   9
ENDBRANCH   6   8
TORSDOF 2
ENDMDL
MODEL 7
REMARK VINA RESULT:      -3.9      1.622      1.724
REMARK  2 active torsions:
REMARK  status: ('A' for Active; 'I' for Inactive)
REMARK    1  A    between atoms: C8_8  and  O11_11 
REMARK    2  A    between atoms: C9_9  and  O11_11 
ROOT
HETATM    1  C1  UNL     1     -37.332  15.143  -5.047  1.00 20.00     0.092 C 
HETATM    2  C2  UNL     1     -35.407  15.095  -6.302  1.00 20.00     0.027 C 
HETATM    3  C3  UNL     1     -34.820  14.760  -7.462  1.00 20.00     0.040 C 
HETATM    4  C4  UNL     1     -36.623  15.076  -3.721  1.00 20.00     0.079 C 
HETATM    5  C5  UNL     1     -34.577  15.405  -5.086  1.00 20.00     0.090 C 
HETATM    6  C8  UNL     1     -35.163  14.690  -3.876  1.00 20.00     0.132 C 
HETATM    7  N10 UNL     1     -36.778  15.159  -6.220  1.00 20.00    -0.270 NA
ENDROOT
BRANCH   6   8
HETATM    8  O11 UNL     1     -34.459  15.070  -2.701  1.00 20.00    -0.380 OA
BRANCH   8   9
HETATM    9  C9  UNL     1     -34.904  16.328  -2.217  1.00 20.00     0.122 A 
HETATM   10  C6  UNL     1     -34.627  16.615  -0.768  1.00 20.00     0.034 A 
HETATM   11  C7  UNL     1     -33.829  17.305  -1.835  1.00 20.00     0.034 A 
ENDBRANCH   8   9
ENDBRANCH   6   8
TORSDOF 2
ENDMDL
MODEL 8
REMARK VINA RESULT:      -3.9      2.233      4.808
REMARK  2 active torsions:
REMARK  status: ('A' for Active; 'I' for Inactive)
REMARK    1  A    between atoms: C8_8  and  O11_11 
REMARK    2  A    between atoms: C9_9  and  O11_11 
ROOT
HETATM    1  C1  UNL     1     -33.782  18.444  -3.496  1.00 20.00     0.092 C 
HETATM    2  C2  UNL     1     -34.510  17.024  -1.842  1.00 20.00     0.027 C 
HETATM    3  C3  UNL     1     -34.622  16.781  -0.526  1.00 20.00     0.040 C 
HETATM    4  C4  UNL     1     -33.567  17.357  -4.514  1.00 20.00     0.079 C 
HETATM    5  C5  UNL     1     -34.705  15.918  -2.844  1.00 20.00     0.090 C 
HETATM    6  C8  UNL     1     -33.596  15.976  -3.885  1.00 20.00     0.132 C 
HETATM    7  N10 UNL     1     -34.219  18.292  -2.284  1.00 20.00    -0.270 NA
ENDROOT
BRANCH   6   8
HETATM    8  O11 UNL     1     -33.836  15.011  -4.902  1.00 20.00    -0.380 OA
BRANCH   8   9
HETATM    9  C9  UNL     1     -34.616  15.556  -5.956  1.00 20.00     0.122 A 
HETATM   10  C6  UNL     1     -34.467  14.897  -7.298  1.00 20.00     0.034 A 
HETATM   11  C7  UNL     1     -35.711  14.677  -6.488  1.00 20.00     0.034 A 
ENDBRANCH   8   9
ENDBRANCH   6   8
TORSDOF 2
ENDMDL
MODEL 9
REMARK VINA RESULT:      -3.8      2.913      4.281
REMARK  2 active torsions:
REMARK  status: ('A' for Active; 'I' for Inactive)
REMARK    1  A    between atoms: C8_8  and  O11_11 
REMARK    2  A    between atoms: C9_9  and  O11_11 
ROOT
HETATM    1  C1  UNL     1     -33.353  15.139  -3.977  1.00 20.00     0.092 C 
HETATM    2  C2  UNL     1     -34.571  16.078  -2.269  1.00 20.00     0.027 C 
HETATM    3  C3  UNL     1     -34.576  16.572  -1.021  1.00 20.00     0.040 C 
HETATM    4  C4  UNL     1     -34.514  14.382  -4.563  1.00 20.00     0.079 C 
HETATM    5  C5  UNL     1     -35.860  15.699  -2.948  1.00 20.00     0.090 C 
HETATM    6  C8  UNL     1     -35.700  14.341  -3.617  1.00 20.00     0.132 C 
HETATM    7  N10 UNL     1     -33.382  15.917  -2.940  1.00 20.00    -0.270 NA
ENDROOT
BRANCH   6   8
HETATM    8  O11 UNL     1     -36.871  14.027  -4.360  1.00 20.00    -0.380 OA
BRANCH   8   9
HETATM    9  C9  UNL     1     -37.814  15.087  -4.309  1.00 20.00     0.122 A 
HETATM   10  C6  UNL     1     -38.699  15.244  -5.513  1.00 20.00     0.034 A 
HETATM   11  C7  UNL     1     -39.258  14.682  -4.239  1.00 20.00     0.034 A 
ENDBRANCH   8   9
ENDBRANCH   6   8
TORSDOF 2
ENDMDL
