MODEL 1
REMARK VINA RESULT:      -4.9      0.000      0.000
REMARK  2 active torsions:
REMARK  status: ('A' for Active; 'I' for Inactive)
REMARK    1  A    between atoms: C1_1  and  C4_4 
REMARK    2  A    between atoms: C4_4  and  C5_5 
ROOT
HETATM    1  C2  UNL     1     -34.196   5.277   3.304  1.00 20.00     0.027 A 
HETATM    2  C3  UNL     1     -35.517   5.837   3.736  1.00 20.00     0.027 A 
HETATM    3  C4  UNL     1     -34.483   5.470   4.780  1.00 20.00     0.110 A 
ENDROOT
BRANCH   3   4
HETATM    4  C1  UNL     1     -33.788   6.591   5.459  1.00 20.00     0.249 C 
HETATM    5  O6  UNL     1     -33.964   6.881   6.637  1.00 20.00    -0.306 OA
ENDBRANCH   3   4
BRANCH   3   6
HETATM    6  C5  UNL     1     -34.742   4.229   5.596  1.00 20.00     0.401 C 
HETATM    7  F7  UNL     1     -35.184   3.224   4.812  1.00 20.00    -0.170 F 
HETATM    8  F8  UNL     1     -33.616   3.816   6.211  1.00 20.00    -0.170 F 
HETATM    9  F9  UNL     1     -35.674   4.465   6.542  1.00 20.00    -0.170 F 
ENDBRANCH   3   6
TORSDOF 2
ENDMDL
MODEL 2
REMARK VINA RESULT:      -4.8      2.133      2.782
REMARK  2 active torsions:
REMARK  status: ('A' for Active; 'I' for Inactive)
REMARK    1  A    between atoms: C1_1  and  C4_4 
REMARK    2  A    between atoms: C4_4  and  C5_5 
ROOT
HETATM    1  C2  UNL     1     -35.458   4.450   5.262  1.00 20.00     0.027 A 
HETATM    2  C3  UNL     1     -34.072   3.979   5.583  1.00 20.00     0.027 A 
HETATM    3  C4  UNL     1     -34.309   5.438   5.249  1.00 20.00     0.110 A 
ENDROOT
BRANCH   3   4
HETATM    4  C1  UNL     1     -34.240   6.403   6.372  1.00 20.00     0.249 C 
HETATM    5  O6  UNL     1     -33.237   7.055   6.643  1.00 20.00    -0.306 OA
ENDBRANCH   3   4
BRANCH   3   6
HETATM    6  C5  UNL     1     -33.835   5.919   3.901  1.00 20.00     0.401 C 
HETATM    7  F7  UNL     1     -32.490   5.864   3.819  1.00 20.00    -0.170 F 
HETATM    8  F8  UNL     1     -34.346   5.157   2.913  1.00 20.00    -0.170 F 
HETATM    9  F9  UNL     1     -34.216   7.195   3.686  1.00 20.00    -0.170 F 
ENDBRANCH   3   6
TORSDOF 2
ENDMDL
MODEL 3
REMARK VINA RESULT:      -4.8      2.136      2.752
REMARK  2 active torsions:
REMARK  status: ('A' for Active; 'I' for Inactive)
REMARK    1  A    between atoms: C1_1  and  C4_4 
REMARK    2  A    between atoms: C4_4  and  C5_5 
ROOT
HETATM    1  C2  UNL     1     -35.465   4.457   5.252  1.00 20.00     0.027 A 
HETATM    2  C3  UNL     1     -34.081   3.977   5.568  1.00 20.00     0.027 A 
HETATM    3  C4  UNL     1     -34.311   5.439   5.244  1.00 20.00     0.110 A 
ENDROOT
BRANCH   3   4
HETATM    4  C1  UNL     1     -34.236   6.396   6.374  1.00 20.00     0.249 C 
HETATM    5  O6  UNL     1     -33.231   7.045   6.646  1.00 20.00    -0.306 OA
ENDBRANCH   3   4
BRANCH   3   6
HETATM    6  C5  UNL     1     -33.834   5.927   3.899  1.00 20.00     0.401 C 
HETATM    7  F7  UNL     1     -34.216   7.203   3.690  1.00 20.00    -0.170 F 
HETATM    8  F8  UNL     1     -32.490   5.873   3.819  1.00 20.00    -0.170 F 
HETATM    9  F9  UNL     1     -34.344   5.168   2.908  1.00 20.00    -0.170 F 
ENDBRANCH   3   6
TORSDOF 2
ENDMDL
MODEL 4
REMARK VINA RESULT:      -4.8      1.789      2.331
REMARK  2 active torsions:
REMARK  status: ('A' for Active; 'I' for Inactive)
REMARK    1  A    between atoms: C1_1  and  C4_4 
REMARK    2  A    between atoms: C4_4  and  C5_5 
ROOT
HETATM    1  C2  UNL     1     -34.917   4.165   4.254  1.00 20.00     0.027 A 
HETATM    2  C3  UNL     1     -35.658   5.457   4.080  1.00 20.00     0.027 A 
HETATM    3  C4  UNL     1     -34.343   5.443   4.833  1.00 20.00     0.110 A 
ENDROOT
BRANCH   3   4
HETATM    4  C1  UNL     1     -33.168   6.026   4.141  1.00 20.00     0.249 C 
HETATM    5  O6  UNL     1     -33.245   6.951   3.339  1.00 20.00    -0.306 OA
ENDBRANCH   3   4
BRANCH   3   6
HETATM    6  C5  UNL     1     -34.408   5.607   6.330  1.00 20.00     0.401 C 
HETATM    7  F7  UNL     1     -34.079   6.865   6.689  1.00 20.00    -0.170 F 
HETATM    8  F8  UNL     1     -35.651   5.353   6.786  1.00 20.00    -0.170 F 
HETATM    9  F9  UNL     1     -33.555   4.760   6.942  1.00 20.00    -0.170 F 
ENDBRANCH   3   6
TORSDOF 2
ENDMDL
MODEL 5
REMARK VINA RESULT:      -4.6      1.926      2.564
REMARK  2 active torsions:
REMARK  status: ('A' for Active; 'I' for Inactive)
REMARK    1  A    between atoms: C1_1  and  C4_4 
REMARK    2  A    between atoms: C4_4  and  C5_5 
ROOT
HETATM    1  C2  UNL     1     -32.308   5.972   3.516  1.00 20.00     0.027 A 
HETATM    2  C3  UNL     1     -33.107   7.200   3.200  1.00 20.00     0.027 A 
HETATM    3  C4  UNL     1     -33.702   6.128   4.092  1.00 20.00     0.110 A 
ENDROOT
BRANCH   3   4
HETATM    4  C1  UNL     1     -33.800   6.438   5.539  1.00 20.00     0.249 C 
HETATM    5  O6  UNL     1     -34.529   5.828   6.313  1.00 20.00    -0.306 OA
ENDBRANCH   3   4
BRANCH   3   6
HETATM    6  C5  UNL     1     -34.788   5.268   3.499  1.00 20.00     0.401 C 
HETATM    7  F7  UNL     1     -34.887   4.097   4.161  1.00 20.00    -0.170 F 
HETATM    8  F8  UNL     1     -35.982   5.890   3.567  1.00 20.00    -0.170 F 
HETATM    9  F9  UNL     1     -34.530   4.996   2.203  1.00 20.00    -0.170 F 
ENDBRANCH   3   6
TORSDOF 2
ENDMDL
MODEL 6
REMARK VINA RESULT:      -4.6      2.037      2.601
REMARK  2 active torsions:
REMARK  status: ('A' for Active; 'I' for Inactive)
REMARK    1  A    between atoms: C1_1  and  C4_4 
REMARK    2  A    between atoms: C4_4  and  C5_5 
ROOT
HETATM    1  C2  UNL     1     -34.179   6.943   4.032  1.00 20.00     0.027 A 
HETATM    2  C3  UNL     1     -33.054   5.954   3.976  1.00 20.00     0.027 A 
HETATM    3  C4  UNL     1     -34.262   5.668   4.847  1.00 20.00     0.110 A 
ENDROOT
BRANCH   3   4
HETATM    4  C1  UNL     1     -35.202   4.625   4.369  1.00 20.00     0.249 C 
HETATM    5  O6  UNL     1     -35.218   3.479   4.804  1.00 20.00    -0.306 OA
ENDBRANCH   3   4
BRANCH   3   6
HETATM    6  C5  UNL     1     -34.077   5.794   6.338  1.00 20.00     0.401 C 
HETATM    7  F7  UNL     1     -35.268   5.907   6.960  1.00 20.00    -0.170 F 
HETATM    8  F8  UNL     1     -33.445   4.713   6.835  1.00 20.00    -0.170 F 
HETATM    9  F9  UNL     1     -33.342   6.884   6.638  1.00 20.00    -0.170 F 
ENDBRANCH   3   6
TORSDOF 2
ENDMDL
MODEL 7
REMARK VINA RESULT:      -4.5      1.964      2.604
REMARK  2 active torsions:
REMARK  status: ('A' for Active; 'I' for Inactive)
REMARK    1  A    between atoms: C1_1  and  C4_4 
REMARK    2  A    between atoms: C4_4  and  C5_5 
ROOT
HETATM    1  C2  UNL     1     -34.793   5.765   6.331  1.00 20.00     0.027 A 
HETATM    2  C3  UNL     1     -33.754   4.725   6.038  1.00 20.00     0.027 A 
HETATM    3  C4  UNL     1     -34.237   5.634   4.927  1.00 20.00     0.110 A 
ENDROOT
BRANCH   3   4
HETATM    4  C1  UNL     1     -33.304   6.693   4.473  1.00 20.00     0.249 C 
HETATM    5  O6  UNL     1     -32.364   6.485   3.712  1.00 20.00    -0.306 OA
ENDBRANCH   3   4
BRANCH   3   6
HETATM    6  C5  UNL     1     -35.142   5.024   3.886  1.00 20.00     0.401 C 
HETATM    7  F7  UNL     1     -34.518   4.951   2.693  1.00 20.00    -0.170 F 
HETATM    8  F8  UNL     1     -35.510   3.778   4.243  1.00 20.00    -0.170 F 
HETATM    9  F9  UNL     1     -36.259   5.763   3.731  1.00 20.00    -0.170 F 
ENDBRANCH   3   6
TORSDOF 2
ENDMDL
MODEL 8
REMARK VINA RESULT:      -4.2     13.422     13.937
REMARK  2 active torsions:
REMARK  status: ('A' for Active; 'I' for Inactive)
REMARK    1  A    between atoms: C1_1  and  C4_4 
REMARK    2  A    between atoms: C4_4  and  C5_5 
ROOT
HETATM    1  C2  UNL     1     -35.290  15.937  -5.244  1.00 20.00     0.027 A 
HETATM    2  C3  UNL     1     -34.467  15.050  -6.128  1.00 20.00     0.027 A 
HETATM    3  C4  UNL     1     -34.481  14.811  -4.631  1.00 20.00     0.110 A 
ENDROOT
BRANCH   3   4
HETATM    4  C1  UNL     1     -35.234  13.628  -4.148  1.00 20.00     0.249 C 
HETATM    5  O6  UNL     1     -35.010  12.483  -4.526  1.00 20.00    -0.306 OA
ENDBRANCH   3   4
BRANCH   3   6
HETATM    6  C5  UNL     1     -33.242  15.196  -3.864  1.00 20.00     0.401 C 
HETATM    7  F7  UNL     1     -33.566  15.756  -2.681  1.00 20.00    -0.170 F 
HETATM    8  F8  UNL     1     -32.474  14.115  -3.620  1.00 20.00    -0.170 F 
HETATM    9  F9  UNL     1     -32.505  16.085  -4.561  1.00 20.00    -0.170 F 
ENDBRANCH   3   6
TORSDOF 2
ENDMDL
MODEL 9
REMARK VINA RESULT:      -4.2      2.642      3.275
REMARK  2 active torsions:
REMARK  status: ('A' for Active; 'I' for Inactive)
REMARK    1  A    between atoms: C1_1  and  C4_4 
REMARK    2  A    between atoms: C4_4  and  C5_5 
ROOT
HETATM    1  C2  UNL     1     -34.011   4.356   5.983  1.00 20.00     0.027 A 
HETATM    2  C3  UNL     1     -34.822   5.533   6.434  1.00 20.00     0.027 A 
HETATM    3  C4  UNL     1     -34.457   5.391   4.969  1.00 20.00     0.110 A 
ENDROOT
BRANCH   3   4
HETATM    4  C1  UNL     1     -35.546   4.996   4.043  1.00 20.00     0.249 C 
HETATM    5  O6  UNL     1     -36.277   5.802   3.477  1.00 20.00    -0.306 OA
ENDBRANCH   3   4
BRANCH   3   6
HETATM    6  C5  UNL     1     -33.402   6.323   4.431  1.00 20.00     0.401 C 
HETATM    7  F7  UNL     1     -32.470   5.641   3.735  1.00 20.00    -0.170 F 
HETATM    8  F8  UNL     1     -33.948   7.242   3.611  1.00 20.00    -0.170 F 
HETATM    9  F9  UNL     1     -32.781   6.974   5.436  1.00 20.00    -0.170 F 
ENDBRANCH   3   6
TORSDOF 2
ENDMDL
