MODEL 1
REMARK VINA RESULT:      -3.2      0.000      0.000
REMARK  2 active torsions:
REMARK  status: ('A' for Active; 'I' for Inactive)
REMARK    1  A    between atoms: C1_1  and  O4_4 
REMARK    2  A    between atoms: C1_1  and  S5_5 
ROOT
HETATM    1  C1  UNL     1     -34.067   6.203   5.822  1.00 20.00     0.337 C 
HETATM    2  O3  UNL     1     -33.418   7.017   6.468  1.00 20.00    -0.251 OA
ENDROOT
BRANCH   1   3
HETATM    3  O4  UNL     1     -34.860   5.236   6.379  1.00 20.00    -0.317 OA
HETATM    4  C2  UNL     1     -34.977   4.018   5.636  1.00 20.00     0.214 C 
ENDBRANCH   1   3
BRANCH   1   5
HETATM    5  S5  UNL     1     -34.055   6.178   4.053  1.00 20.00     0.050 SA
HETATM    6 CL6  UNL     1     -32.172   6.845   3.670  1.00 20.00    -0.033 Cl
ENDBRANCH   1   5
TORSDOF 2
ENDMDL
MODEL 2
REMARK VINA RESULT:      -3.2      2.851      3.373
REMARK  2 active torsions:
REMARK  status: ('A' for Active; 'I' for Inactive)
REMARK    1  A    between atoms: C1_1  and  O4_4 
REMARK    2  A    between atoms: C1_1  and  S5_5 
ROOT
HETATM    1  C1  UNL     1     -34.306   5.695   3.912  1.00 20.00     0.337 C 
HETATM    2  O3  UNL     1     -34.747   5.121   2.923  1.00 20.00    -0.251 OA
ENDROOT
BRANCH   1   3
HETATM    3  O4  UNL     1     -33.487   6.791   3.863  1.00 20.00    -0.317 OA
HETATM    4  C2  UNL     1     -32.218   6.596   3.230  1.00 20.00     0.214 C 
ENDBRANCH   1   3
BRANCH   1   5
HETATM    5  S5  UNL     1     -34.681   5.162   5.557  1.00 20.00     0.050 SA
HETATM    6 CL6  UNL     1     -33.949   6.718   6.643  1.00 20.00    -0.033 Cl
ENDBRANCH   1   5
TORSDOF 2
ENDMDL
MODEL 3
REMARK VINA RESULT:      -3.2      3.146      3.696
REMARK  2 active torsions:
REMARK  status: ('A' for Active; 'I' for Inactive)
REMARK    1  A    between atoms: C1_1  and  O4_4 
REMARK    2  A    between atoms: C1_1  and  S5_5 
ROOT
HETATM    1  C1  UNL     1     -33.623   6.014   4.054  1.00 20.00     0.337 C 
HETATM    2  O3  UNL     1     -34.295   5.498   3.168  1.00 20.00    -0.251 OA
ENDROOT
BRANCH   1   3
HETATM    3  O4  UNL     1     -32.402   6.599   3.851  1.00 20.00    -0.317 OA
HETATM    4  C2  UNL     1     -32.291   7.428   2.690  1.00 20.00     0.214 C 
ENDBRANCH   1   3
BRANCH   1   5
HETATM    5  S5  UNL     1     -34.164   6.066   5.737  1.00 20.00     0.050 SA
HETATM    6 CL6  UNL     1     -34.975   4.211   5.940  1.00 20.00    -0.033 Cl
ENDBRANCH   1   5
TORSDOF 2
ENDMDL
MODEL 4
REMARK VINA RESULT:      -3.2      3.008      3.401
REMARK  2 active torsions:
REMARK  status: ('A' for Active; 'I' for Inactive)
REMARK    1  A    between atoms: C1_1  and  O4_4 
REMARK    2  A    between atoms: C1_1  and  S5_5 
ROOT
HETATM    1  C1  UNL     1     -33.765   6.095   4.204  1.00 20.00     0.337 C 
HETATM    2  O3  UNL     1     -33.383   6.667   5.218  1.00 20.00    -0.251 OA
ENDROOT
BRANCH   1   3
HETATM    3  O4  UNL     1     -33.155   6.206   2.984  1.00 20.00    -0.317 OA
HETATM    4  C2  UNL     1     -32.221   7.282   2.847  1.00 20.00     0.214 C 
ENDBRANCH   1   3
BRANCH   1   5
HETATM    5  S5  UNL     1     -35.181   5.035   4.195  1.00 20.00     0.050 SA
HETATM    6 CL6  UNL     1     -35.076   4.234   6.062  1.00 20.00    -0.033 Cl
ENDBRANCH   1   5
TORSDOF 2
ENDMDL
MODEL 5
REMARK VINA RESULT:      -3.1      1.180      2.257
REMARK  2 active torsions:
REMARK  status: ('A' for Active; 'I' for Inactive)
REMARK    1  A    between atoms: C1_1  and  O4_4 
REMARK    2  A    between atoms: C1_1  and  S5_5 
ROOT
HETATM    1  C1  UNL     1     -34.790   4.704   5.176  1.00 20.00     0.337 C 
HETATM    2  O3  UNL     1     -35.055   3.525   4.977  1.00 20.00    -0.251 OA
ENDROOT
BRANCH   1   3
HETATM    3  O4  UNL     1     -34.520   5.234   6.409  1.00 20.00    -0.317 OA
HETATM    4  C2  UNL     1     -34.025   6.577   6.417  1.00 20.00     0.214 C 
ENDBRANCH   1   3
BRANCH   1   5
HETATM    5  S5  UNL     1     -34.722   5.889   3.864  1.00 20.00     0.050 SA
HETATM    6 CL6  UNL     1     -32.752   5.800   3.365  1.00 20.00    -0.033 Cl
ENDBRANCH   1   5
TORSDOF 2
ENDMDL
MODEL 6
REMARK VINA RESULT:      -3.1     12.996     13.147
REMARK  2 active torsions:
REMARK  status: ('A' for Active; 'I' for Inactive)
REMARK    1  A    between atoms: C1_1  and  O4_4 
REMARK    2  A    between atoms: C1_1  and  S5_5 
ROOT
HETATM    1  C1  UNL     1     -34.392  13.498  -4.403  1.00 20.00     0.337 C 
HETATM    2  O3  UNL     1     -35.140  12.537  -4.534  1.00 20.00    -0.251 OA
ENDROOT
BRANCH   1   3
HETATM    3  O4  UNL     1     -33.180  13.449  -3.768  1.00 20.00    -0.317 OA
HETATM    4  C2  UNL     1     -32.508  14.702  -3.605  1.00 20.00     0.214 C 
ENDBRANCH   1   3
BRANCH   1   5
HETATM    5  S5  UNL     1     -34.797  15.101  -5.033  1.00 20.00     0.050 SA
HETATM    6 CL6  UNL     1     -34.364  14.861  -7.006  1.00 20.00    -0.033 Cl
ENDBRANCH   1   5
TORSDOF 2
ENDMDL
MODEL 7
REMARK VINA RESULT:      -3.0     12.623     12.874
REMARK  2 active torsions:
REMARK  status: ('A' for Active; 'I' for Inactive)
REMARK    1  A    between atoms: C1_1  and  O4_4 
REMARK    2  A    between atoms: C1_1  and  S5_5 
ROOT
HETATM    1  C1  UNL     1     -35.509  13.714  -4.311  1.00 20.00     0.337 C 
HETATM    2  O3  UNL     1     -34.980  12.609  -4.341  1.00 20.00    -0.251 OA
ENDROOT
BRANCH   1   3
HETATM    3  O4  UNL     1     -36.795  13.939  -3.901  1.00 20.00    -0.317 OA
HETATM    4  C2  UNL     1     -37.109  15.288  -3.539  1.00 20.00     0.214 C 
ENDBRANCH   1   3
BRANCH   1   5
HETATM    5  S5  UNL     1     -34.656  15.182  -4.808  1.00 20.00     0.050 SA
HETATM    6 CL6  UNL     1     -33.011  15.095  -3.615  1.00 20.00    -0.033 Cl
ENDBRANCH   1   5
TORSDOF 2
ENDMDL
MODEL 8
REMARK VINA RESULT:      -2.9      2.504      2.784
REMARK  2 active torsions:
REMARK  status: ('A' for Active; 'I' for Inactive)
REMARK    1  A    between atoms: C1_1  and  O4_4 
REMARK    2  A    between atoms: C1_1  and  S5_5 
ROOT
HETATM    1  C1  UNL     1     -33.923   6.344   5.797  1.00 20.00     0.337 C 
HETATM    2  O3  UNL     1     -33.364   7.096   6.586  1.00 20.00    -0.251 OA
ENDROOT
BRANCH   1   3
HETATM    3  O4  UNL     1     -33.988   6.555   4.446  1.00 20.00    -0.317 OA
HETATM    4  C2  UNL     1     -32.737   6.540   3.751  1.00 20.00     0.214 C 
ENDBRANCH   1   3
BRANCH   1   5
HETATM    5  S5  UNL     1     -34.733   4.861   6.323  1.00 20.00     0.050 SA
HETATM    6 CL6  UNL     1     -35.211   4.026   4.531  1.00 20.00    -0.033 Cl
ENDBRANCH   1   5
TORSDOF 2
ENDMDL
MODEL 9
REMARK VINA RESULT:      -2.9      1.886      2.238
REMARK  2 active torsions:
REMARK  status: ('A' for Active; 'I' for Inactive)
REMARK    1  A    between atoms: C1_1  and  O4_4 
REMARK    2  A    between atoms: C1_1  and  S5_5 
ROOT
HETATM    1  C1  UNL     1     -33.873   6.013   4.020  1.00 20.00     0.337 C 
HETATM    2  O3  UNL     1     -34.859   5.575   3.440  1.00 20.00    -0.251 OA
ENDROOT
BRANCH   1   3
HETATM    3  O4  UNL     1     -33.877   6.462   5.313  1.00 20.00    -0.317 OA
HETATM    4  C2  UNL     1     -34.496   5.598   6.273  1.00 20.00     0.214 C 
ENDBRANCH   1   3
BRANCH   1   5
HETATM    5  S5  UNL     1     -32.289   6.119   3.238  1.00 20.00     0.050 SA
HETATM    6 CL6  UNL     1     -32.382   7.983   2.428  1.00 20.00    -0.033 Cl
ENDBRANCH   1   5
TORSDOF 2
ENDMDL
