MODEL 1
REMARK VINA RESULT:      -4.1      0.000      0.000
REMARK  2 active torsions:
REMARK  status: ('A' for Active; 'I' for Inactive)
REMARK    1  A    between atoms: C4_4  and  O9_9 
REMARK    2  A    between atoms: C7_7  and  O9_9 
ROOT
HETATM    1  C1  UNL     1     -34.765   4.778   5.151  1.00 20.00     0.155 C 
HETATM    2  C2  UNL     1     -34.927   5.149   6.634  1.00 20.00     0.084 C 
HETATM    3  C3  UNL     1     -34.094   6.416   6.332  1.00 20.00     0.047 C 
HETATM    4  C4  UNL     1     -33.697   5.868   4.937  1.00 20.00     0.191 C 
HETATM    5  O8  UNL     1     -35.285   3.953   4.430  1.00 20.00    -0.295 OA
ENDROOT
BRANCH   4   6
HETATM    6  O9  UNL     1     -33.963   6.723   3.815  1.00 20.00    -0.374 OA
BRANCH   6   7
HETATM    7  C7  UNL     1     -32.824   6.834   2.981  1.00 20.00     0.114 C 
HETATM    8  C5  UNL     1     -31.739   7.606   3.717  1.00 20.00     0.039 C 
HETATM    9  C6  UNL     1     -32.357   5.442   2.582  1.00 20.00     0.039 C 
ENDBRANCH   6   7
ENDBRANCH   4   6
TORSDOF 2
ENDMDL
MODEL 2
REMARK VINA RESULT:      -3.9     11.782     12.873
REMARK  2 active torsions:
REMARK  status: ('A' for Active; 'I' for Inactive)
REMARK    1  A    between atoms: C4_4  and  O9_9 
REMARK    2  A    between atoms: C7_7  and  O9_9 
ROOT
HETATM    1  C1  UNL     1     -35.188  13.686  -4.130  1.00 20.00     0.155 C 
HETATM    2  C2  UNL     1     -34.282  14.600  -3.289  1.00 20.00     0.084 C 
HETATM    3  C3  UNL     1     -35.544  15.436  -2.974  1.00 20.00     0.047 C 
HETATM    4  C4  UNL     1     -36.358  14.686  -4.059  1.00 20.00     0.191 C 
HETATM    5  O8  UNL     1     -35.039  12.597  -4.644  1.00 20.00    -0.295 OA
ENDROOT
BRANCH   4   6
HETATM    6  O9  UNL     1     -37.595  14.095  -3.634  1.00 20.00    -0.374 OA
BRANCH   6   7
HETATM    7  C7  UNL     1     -38.696  14.697  -4.288  1.00 20.00     0.114 C 
HETATM    8  C5  UNL     1     -39.420  15.613  -3.312  1.00 20.00     0.039 C 
HETATM    9  C6  UNL     1     -38.200  15.454  -5.511  1.00 20.00     0.039 C 
ENDBRANCH   6   7
ENDBRANCH   4   6
TORSDOF 2
ENDMDL
MODEL 3
REMARK VINA RESULT:      -3.9     11.857     12.406
REMARK  2 active torsions:
REMARK  status: ('A' for Active; 'I' for Inactive)
REMARK    1  A    between atoms: C4_4  and  O9_9 
REMARK    2  A    between atoms: C7_7  and  O9_9 
ROOT
HETATM    1  C1  UNL     1     -35.868  14.111  -4.004  1.00 20.00     0.155 C 
HETATM    2  C2  UNL     1     -34.849  13.208  -4.717  1.00 20.00     0.084 C 
HETATM    3  C3  UNL     1     -33.744  13.994  -3.973  1.00 20.00     0.047 C 
HETATM    4  C4  UNL     1     -34.764  15.067  -3.515  1.00 20.00     0.191 C 
HETATM    5  O8  UNL     1     -37.074  14.077  -3.872  1.00 20.00    -0.295 OA
ENDROOT
BRANCH   4   6
HETATM    6  O9  UNL     1     -34.817  15.337  -2.106  1.00 20.00    -0.374 OA
BRANCH   6   7
HETATM    7  C7  UNL     1     -34.898  16.729  -1.859  1.00 20.00     0.114 C 
HETATM    8  C5  UNL     1     -34.685  16.987  -0.375  1.00 20.00     0.039 C 
HETATM    9  C6  UNL     1     -33.865  17.450  -2.713  1.00 20.00     0.039 C 
ENDBRANCH   6   7
ENDBRANCH   4   6
TORSDOF 2
ENDMDL
MODEL 4
REMARK VINA RESULT:      -3.9      1.559      1.998
REMARK  2 active torsions:
REMARK  status: ('A' for Active; 'I' for Inactive)
REMARK    1  A    between atoms: C4_4  and  O9_9 
REMARK    2  A    between atoms: C7_7  and  O9_9 
ROOT
HETATM    1  C1  UNL     1     -34.096   6.155   5.770  1.00 20.00     0.155 C 
HETATM    2  C2  UNL     1     -35.072   4.968   5.828  1.00 20.00     0.084 C 
HETATM    3  C3  UNL     1     -34.861   4.816   4.305  1.00 20.00     0.047 C 
HETATM    4  C4  UNL     1     -34.134   6.183   4.230  1.00 20.00     0.191 C 
HETATM    5  O8  UNL     1     -33.517   6.809   6.612  1.00 20.00    -0.295 OA
ENDROOT
BRANCH   4   6
HETATM    6  O9  UNL     1     -32.833   6.182   3.623  1.00 20.00    -0.374 OA
BRANCH   6   7
HETATM    7  C7  UNL     1     -32.398   7.502   3.354  1.00 20.00     0.114 C 
HETATM    8  C5  UNL     1     -31.147   7.793   4.169  1.00 20.00     0.039 C 
HETATM    9  C6  UNL     1     -32.149   7.654   1.861  1.00 20.00     0.039 C 
ENDBRANCH   6   7
ENDBRANCH   4   6
TORSDOF 2
ENDMDL
MODEL 5
REMARK VINA RESULT:      -3.8     11.977     13.161
REMARK  2 active torsions:
REMARK  status: ('A' for Active; 'I' for Inactive)
REMARK    1  A    between atoms: C4_4  and  O9_9 
REMARK    2  A    between atoms: C7_7  and  O9_9 
ROOT
HETATM    1  C1  UNL     1     -34.890  13.736  -4.973  1.00 20.00     0.155 C 
HETATM    2  C2  UNL     1     -35.029  14.040  -6.473  1.00 20.00     0.084 C 
HETATM    3  C3  UNL     1     -34.426  15.431  -6.171  1.00 20.00     0.047 C 
HETATM    4  C4  UNL     1     -34.582  15.209  -4.645  1.00 20.00     0.191 C 
HETATM    5  O8  UNL     1     -34.980  12.724  -4.309  1.00 20.00    -0.295 OA
ENDROOT
BRANCH   4   6
HETATM    6  O9  UNL     1     -33.400  15.387  -3.850  1.00 20.00    -0.374 OA
BRANCH   6   7
HETATM    7  C7  UNL     1     -33.616  16.343  -2.828  1.00 20.00     0.114 C 
HETATM    8  C5  UNL     1     -33.788  17.718  -3.457  1.00 20.00     0.039 C 
HETATM    9  C6  UNL     1     -34.833  15.938  -2.011  1.00 20.00     0.039 C 
ENDBRANCH   6   7
ENDBRANCH   4   6
TORSDOF 2
ENDMDL
MODEL 6
REMARK VINA RESULT:      -3.8     11.921     12.903
REMARK  2 active torsions:
REMARK  status: ('A' for Active; 'I' for Inactive)
REMARK    1  A    between atoms: C4_4  and  O9_9 
REMARK    2  A    between atoms: C7_7  and  O9_9 
ROOT
HETATM    1  C1  UNL     1     -33.666  16.605  -3.461  1.00 20.00     0.155 C 
HETATM    2  C2  UNL     1     -33.697  17.332  -2.106  1.00 20.00     0.084 C 
HETATM    3  C3  UNL     1     -34.639  16.211  -1.610  1.00 20.00     0.047 C 
HETATM    4  C4  UNL     1     -34.828  15.679  -3.054  1.00 20.00     0.191 C 
HETATM    5  O8  UNL     1     -32.985  16.716  -4.458  1.00 20.00    -0.295 OA
ENDROOT
BRANCH   4   6
HETATM    6  O9  UNL     1     -34.555  14.286  -3.263  1.00 20.00    -0.374 OA
BRANCH   6   7
HETATM    7  C7  UNL     1     -35.482  13.717  -4.169  1.00 20.00     0.114 C 
HETATM    8  C5  UNL     1     -36.806  14.459  -4.061  1.00 20.00     0.039 C 
HETATM    9  C6  UNL     1     -34.911  13.781  -5.578  1.00 20.00     0.039 C 
ENDBRANCH   6   7
ENDBRANCH   4   6
TORSDOF 2
ENDMDL
MODEL 7
REMARK VINA RESULT:      -3.7     11.869     13.415
REMARK  2 active torsions:
REMARK  status: ('A' for Active; 'I' for Inactive)
REMARK    1  A    between atoms: C4_4  and  O9_9 
REMARK    2  A    between atoms: C7_7  and  O9_9 
ROOT
HETATM    1  C1  UNL     1     -34.236  13.567  -4.441  1.00 20.00     0.155 C 
HETATM    2  C2  UNL     1     -33.023  13.804  -3.527  1.00 20.00     0.084 C 
HETATM    3  C3  UNL     1     -33.135  15.302  -3.890  1.00 20.00     0.047 C 
HETATM    4  C4  UNL     1     -34.146  14.990  -5.023  1.00 20.00     0.191 C 
HETATM    5  O8  UNL     1     -34.979  12.626  -4.625  1.00 20.00    -0.295 OA
ENDROOT
BRANCH   4   6
HETATM    6  O9  UNL     1     -35.389  15.708  -4.986  1.00 20.00    -0.374 OA
BRANCH   6   7
HETATM    7  C7  UNL     1     -35.775  16.122  -6.283  1.00 20.00     0.114 C 
HETATM    8  C5  UNL     1     -34.550  16.152  -7.184  1.00 20.00     0.039 C 
HETATM    9  C6  UNL     1     -36.844  15.178  -6.813  1.00 20.00     0.039 C 
ENDBRANCH   6   7
ENDBRANCH   4   6
TORSDOF 2
ENDMDL
MODEL 8
REMARK VINA RESULT:      -3.6     11.524     12.629
REMARK  2 active torsions:
REMARK  status: ('A' for Active; 'I' for Inactive)
REMARK    1  A    between atoms: C4_4  and  O9_9 
REMARK    2  A    between atoms: C7_7  and  O9_9 
ROOT
HETATM    1  C1  UNL     1     -33.952  13.721  -3.787  1.00 20.00     0.155 C 
HETATM    2  C2  UNL     1     -35.068  13.303  -4.758  1.00 20.00     0.084 C 
HETATM    3  C3  UNL     1     -35.715  14.682  -4.491  1.00 20.00     0.047 C 
HETATM    4  C4  UNL     1     -34.753  14.945  -3.304  1.00 20.00     0.191 C 
HETATM    5  O8  UNL     1     -32.862  13.266  -3.513  1.00 20.00    -0.295 OA
ENDROOT
BRANCH   4   6
HETATM    6  O9  UNL     1     -34.010  16.172  -3.344  1.00 20.00    -0.374 OA
BRANCH   6   7
HETATM    7  C7  UNL     1     -34.546  17.120  -2.439  1.00 20.00     0.114 C 
HETATM    8  C5  UNL     1     -34.610  16.505  -1.050  1.00 20.00     0.039 C 
HETATM    9  C6  UNL     1     -33.689  18.377  -2.463  1.00 20.00     0.039 C 
ENDBRANCH   6   7
ENDBRANCH   4   6
TORSDOF 2
ENDMDL
MODEL 9
REMARK VINA RESULT:      -3.5     12.646     14.414
REMARK  2 active torsions:
REMARK  status: ('A' for Active; 'I' for Inactive)
REMARK    1  A    between atoms: C4_4  and  O9_9 
REMARK    2  A    between atoms: C7_7  and  O9_9 
ROOT
HETATM    1  C1  UNL     1     -34.220  16.016  -6.676  1.00 20.00     0.155 C 
HETATM    2  C2  UNL     1     -34.413  17.442  -7.217  1.00 20.00     0.084 C 
HETATM    3  C3  UNL     1     -33.818  17.949  -5.883  1.00 20.00     0.047 C 
HETATM    4  C4  UNL     1     -33.920  16.535  -5.257  1.00 20.00     0.191 C 
HETATM    5  O8  UNL     1     -34.276  14.912  -7.176  1.00 20.00    -0.295 OA
ENDROOT
BRANCH   4   6
HETATM    6  O9  UNL     1     -32.716  15.998  -4.690  1.00 20.00    -0.374 OA
BRANCH   6   7
HETATM    7  C7  UNL     1     -32.989  15.284  -3.499  1.00 20.00     0.114 C 
HETATM    8  C5  UNL     1     -34.048  16.029  -2.700  1.00 20.00     0.039 C 
HETATM    9  C6  UNL     1     -33.435  13.873  -3.852  1.00 20.00     0.039 C 
ENDBRANCH   6   7
ENDBRANCH   4   6
TORSDOF 2
ENDMDL
