MODEL 1
REMARK VINA RESULT:      -4.8      0.000      0.000
REMARK  1 active torsions:
REMARK  status: ('A' for Active; 'I' for Inactive)
REMARK    1  A    between atoms: C6_6  and  C8_8 
ROOT
HETATM    1  C1  UNL     1     -34.508  13.798  -4.545  1.00 20.00     0.099 C 
HETATM    2  C2  UNL     1     -34.063  15.648  -3.009  1.00 20.00     0.031 A 
HETATM    3  C3  UNL     1     -34.103  16.058  -5.389  1.00 20.00     0.046 A 
HETATM    4  C4  UNL     1     -33.666  17.875  -3.858  1.00 20.00     0.032 A 
HETATM    5  C5  UNL     1     -34.222  15.178  -4.312  1.00 20.00     0.046 A 
HETATM    6  C6  UNL     1     -33.784  16.995  -2.781  1.00 20.00    -0.041 A 
HETATM    7  C7  UNL     1     -33.825  17.405  -5.161  1.00 20.00     0.036 A 
HETATM    8  N9  UNL     1     -34.741  12.677  -4.734  1.00 20.00    -0.191 NA
HETATM    9 CL10 UNL     1     -33.682  18.492  -6.489  1.00 20.00    -0.084 Cl
ENDROOT
BRANCH   6  10
HETATM   10  C8  UNL     1     -33.616  17.497  -1.386  1.00 20.00     0.153 C 
HETATM   11 CL11 UNL     1     -34.805  16.743  -0.300  1.00 20.00    -0.126 Cl
ENDBRANCH   6  10
TORSDOF 1
ENDMDL
MODEL 2
REMARK VINA RESULT:      -4.7      0.688      3.412
REMARK  1 active torsions:
REMARK  status: ('A' for Active; 'I' for Inactive)
REMARK    1  A    between atoms: C6_6  and  C8_8 
ROOT
HETATM    1  C1  UNL     1     -34.607  13.719  -4.429  1.00 20.00     0.099 C 
HETATM    2  C2  UNL     1     -34.043  16.071  -4.793  1.00 20.00     0.031 A 
HETATM    3  C3  UNL     1     -34.549  15.297  -2.561  1.00 20.00     0.046 A 
HETATM    4  C4  UNL     1     -33.988  17.618  -2.937  1.00 20.00     0.032 A 
HETATM    5  C5  UNL     1     -34.398  15.040  -3.924  1.00 20.00     0.046 A 
HETATM    6  C6  UNL     1     -33.838  17.360  -4.301  1.00 20.00    -0.041 A 
HETATM    7  C7  UNL     1     -34.344  16.586  -2.068  1.00 20.00     0.036 A 
HETATM    8  N9  UNL     1     -34.776  12.647  -4.839  1.00 20.00    -0.191 NA
HETATM    9 CL10 UNL     1     -34.525  16.904  -0.386  1.00 20.00    -0.084 Cl
ENDROOT
BRANCH   6  10
HETATM   10  C8  UNL     1     -33.457  18.462  -5.230  1.00 20.00     0.153 C 
HETATM   11 CL11 UNL     1     -34.103  18.162  -6.859  1.00 20.00    -0.126 Cl
ENDBRANCH   6  10
TORSDOF 1
ENDMDL
MODEL 3
REMARK VINA RESULT:      -4.4      2.859      3.794
REMARK  1 active torsions:
REMARK  status: ('A' for Active; 'I' for Inactive)
REMARK    1  A    between atoms: C6_6  and  C8_8 
ROOT
HETATM    1  C1  UNL     1     -34.755  17.124  -0.413  1.00 20.00     0.099 C 
HETATM    2  C2  UNL     1     -34.209  15.616  -2.259  1.00 20.00     0.031 A 
HETATM    3  C3  UNL     1     -34.082  18.004  -2.594  1.00 20.00     0.046 A 
HETATM    4  C4  UNL     1     -33.545  16.501  -4.408  1.00 20.00     0.032 A 
HETATM    5  C5  UNL     1     -34.346  16.913  -1.766  1.00 20.00     0.046 A 
HETATM    6  C6  UNL     1     -33.809  15.409  -3.580  1.00 20.00    -0.041 A 
HETATM    7  C7  UNL     1     -33.681  17.798  -3.914  1.00 20.00     0.036 A 
HETATM    8  N9  UNL     1     -35.087  17.295   0.685  1.00 20.00    -0.191 NA
HETATM    9 CL10 UNL     1     -33.351  19.145  -4.935  1.00 20.00    -0.084 Cl
ENDROOT
BRANCH   6  10
HETATM   10  C8  UNL     1     -33.662  14.021  -4.106  1.00 20.00     0.153 C 
HETATM   11 CL11 UNL     1     -35.249  13.232  -4.249  1.00 20.00    -0.126 Cl
ENDBRANCH   6  10
TORSDOF 1
ENDMDL
MODEL 4
REMARK VINA RESULT:      -4.4      2.403      2.567
REMARK  1 active torsions:
REMARK  status: ('A' for Active; 'I' for Inactive)
REMARK    1  A    between atoms: C6_6  and  C8_8 
ROOT
HETATM    1  C1  UNL     1     -35.051  13.654  -4.166  1.00 20.00     0.099 C 
HETATM    2  C2  UNL     1     -34.494  15.467  -2.622  1.00 20.00     0.031 A 
HETATM    3  C3  UNL     1     -36.622  15.485  -3.763  1.00 20.00     0.046 A 
HETATM    4  C4  UNL     1     -36.058  17.268  -2.233  1.00 20.00     0.032 A 
HETATM    5  C5  UNL     1     -35.391  14.879  -3.512  1.00 20.00     0.046 A 
HETATM    6  C6  UNL     1     -34.826  16.662  -1.982  1.00 20.00    -0.041 A 
HETATM    7  C7  UNL     1     -36.956  16.679  -3.123  1.00 20.00     0.036 A 
HETATM    8  N9  UNL     1     -34.775  12.660  -4.697  1.00 20.00    -0.191 NA
HETATM    9 CL10 UNL     1     -38.476  17.426  -3.429  1.00 20.00    -0.084 Cl
ENDROOT
BRANCH   6  10
HETATM   10  C8  UNL     1     -33.866  17.290  -1.029  1.00 20.00     0.153 C 
HETATM   11 CL11 UNL     1     -34.657  17.624   0.528  1.00 20.00    -0.126 Cl
ENDBRANCH   6  10
TORSDOF 1
ENDMDL
MODEL 5
REMARK VINA RESULT:      -4.4      2.783      3.417
REMARK  1 active torsions:
REMARK  status: ('A' for Active; 'I' for Inactive)
REMARK    1  A    between atoms: C6_6  and  C8_8 
ROOT
HETATM    1  C1  UNL     1     -33.665  18.178  -5.620  1.00 20.00     0.099 C 
HETATM    2  C2  UNL     1     -34.091  17.372  -3.351  1.00 20.00     0.031 A 
HETATM    3  C3  UNL     1     -34.009  15.797  -5.180  1.00 20.00     0.046 A 
HETATM    4  C4  UNL     1     -34.428  15.016  -2.932  1.00 20.00     0.032 A 
HETATM    5  C5  UNL     1     -33.924  17.107  -4.710  1.00 20.00     0.046 A 
HETATM    6  C6  UNL     1     -34.343  16.327  -2.462  1.00 20.00    -0.041 A 
HETATM    7  C7  UNL     1     -34.260  14.751  -4.292  1.00 20.00     0.036 A 
HETATM    8  N9  UNL     1     -33.453  19.048  -6.359  1.00 20.00    -0.191 NA
HETATM    9 CL10 UNL     1     -34.361  13.133  -4.871  1.00 20.00    -0.084 Cl
ENDROOT
BRANCH   6  10
HETATM   10  C8  UNL     1     -34.521  16.610  -1.008  1.00 20.00     0.153 C 
HETATM   11 CL11 UNL     1     -33.414  17.898  -0.480  1.00 20.00    -0.126 Cl
ENDBRANCH   6  10
TORSDOF 1
ENDMDL
MODEL 6
REMARK VINA RESULT:      -4.4      2.442      2.673
REMARK  1 active torsions:
REMARK  status: ('A' for Active; 'I' for Inactive)
REMARK    1  A    between atoms: C6_6  and  C8_8 
ROOT
HETATM    1  C1  UNL     1     -38.008  14.679  -3.942  1.00 20.00     0.099 C 
HETATM    2  C2  UNL     1     -35.870  15.561  -3.146  1.00 20.00     0.031 A 
HETATM    3  C3  UNL     1     -36.100  14.895  -5.457  1.00 20.00     0.046 A 
HETATM    4  C4  UNL     1     -33.994  15.770  -4.656  1.00 20.00     0.032 A 
HETATM    5  C5  UNL     1     -36.648  15.048  -4.183  1.00 20.00     0.046 A 
HETATM    6  C6  UNL     1     -34.543  15.921  -3.381  1.00 20.00    -0.041 A 
HETATM    7  C7  UNL     1     -34.773  15.257  -5.693  1.00 20.00     0.036 A 
HETATM    8  N9  UNL     1     -39.112  14.380  -3.746  1.00 20.00    -0.191 NA
HETATM    9 CL10 UNL     1     -34.096  15.073  -7.265  1.00 20.00    -0.084 Cl
ENDROOT
BRANCH   6  10
HETATM   10  C8  UNL     1     -33.712  16.471  -2.272  1.00 20.00     0.153 C 
HETATM   11 CL11 UNL     1     -34.644  16.534  -0.760  1.00 20.00    -0.126 Cl
ENDBRANCH   6  10
TORSDOF 1
ENDMDL
MODEL 7
REMARK VINA RESULT:      -4.4      2.710      4.213
REMARK  1 active torsions:
REMARK  status: ('A' for Active; 'I' for Inactive)
REMARK    1  A    between atoms: C6_6  and  C8_8 
ROOT
HETATM    1  C1  UNL     1     -34.568  16.700  -1.121  1.00 20.00     0.099 C 
HETATM    2  C2  UNL     1     -34.068  17.419  -3.404  1.00 20.00     0.031 A 
HETATM    3  C3  UNL     1     -34.429  15.076  -2.945  1.00 20.00     0.046 A 
HETATM    4  C4  UNL     1     -33.935  15.803  -5.195  1.00 20.00     0.032 A 
HETATM    5  C5  UNL     1     -34.353  16.396  -2.501  1.00 20.00     0.046 A 
HETATM    6  C6  UNL     1     -33.859  17.124  -4.751  1.00 20.00    -0.041 A 
HETATM    7  C7  UNL     1     -34.220  14.779  -4.291  1.00 20.00     0.036 A 
HETATM    8  N9  UNL     1     -34.744  16.947  -0.001  1.00 20.00    -0.191 NA
HETATM    9 CL10 UNL     1     -34.317  13.150  -4.841  1.00 20.00    -0.084 Cl
ENDROOT
BRANCH   6  10
HETATM   10  C8  UNL     1     -33.555  18.218  -5.717  1.00 20.00     0.153 C 
HETATM   11 CL11 UNL     1     -34.309  17.891  -7.294  1.00 20.00    -0.126 Cl
ENDBRANCH   6  10
TORSDOF 1
ENDMDL
MODEL 8
REMARK VINA RESULT:      -4.3      2.761      3.172
REMARK  1 active torsions:
REMARK  status: ('A' for Active; 'I' for Inactive)
REMARK    1  A    between atoms: C6_6  and  C8_8 
ROOT
HETATM    1  C1  UNL     1     -37.967  14.714  -4.005  1.00 20.00     0.099 C 
HETATM    2  C2  UNL     1     -36.473  16.186  -2.747  1.00 20.00     0.031 A 
HETATM    3  C3  UNL     1     -35.574  14.232  -3.847  1.00 20.00     0.046 A 
HETATM    4  C4  UNL     1     -34.111  15.697  -2.602  1.00 20.00     0.032 A 
HETATM    5  C5  UNL     1     -36.661  15.047  -3.529  1.00 20.00     0.046 A 
HETATM    6  C6  UNL     1     -35.198  16.511  -2.283  1.00 20.00    -0.041 A 
HETATM    7  C7  UNL     1     -34.300  14.558  -3.385  1.00 20.00     0.036 A 
HETATM    8  N9  UNL     1     -39.028  14.444  -4.391  1.00 20.00    -0.191 NA
HETATM    9 CL10 UNL     1     -32.957  13.555  -3.780  1.00 20.00    -0.084 Cl
ENDROOT
BRANCH   6  10
HETATM   10  C8  UNL     1     -34.997  17.731  -1.448  1.00 20.00     0.153 C 
HETATM   11 CL11 UNL     1     -34.850  17.298   0.270  1.00 20.00    -0.126 Cl
ENDBRANCH   6  10
TORSDOF 1
ENDMDL
MODEL 9
REMARK VINA RESULT:      -4.2     12.705     13.835
REMARK  1 active torsions:
REMARK  status: ('A' for Active; 'I' for Inactive)
REMARK    1  A    between atoms: C6_6  and  C8_8 
ROOT
HETATM    1  C1  UNL     1     -42.139   2.773  -2.868  1.00 20.00     0.099 C 
HETATM    2  C2  UNL     1     -42.753   5.116  -3.208  1.00 20.00     0.031 A 
HETATM    3  C3  UNL     1     -41.267   4.524  -1.399  1.00 20.00     0.046 A 
HETATM    4  C4  UNL     1     -41.882   6.834  -1.750  1.00 20.00     0.032 A 
HETATM    5  C5  UNL     1     -42.053   4.149  -2.489  1.00 20.00     0.046 A 
HETATM    6  C6  UNL     1     -42.669   6.458  -2.839  1.00 20.00    -0.041 A 
HETATM    7  C7  UNL     1     -41.181   5.866  -1.030  1.00 20.00     0.036 A 
HETATM    8  N9  UNL     1     -42.209   1.657  -3.176  1.00 20.00    -0.191 NA
HETATM    9 CL10 UNL     1     -40.208   6.331   0.312  1.00 20.00    -0.084 Cl
ENDROOT
BRANCH   6  10
HETATM   10  C8  UNL     1     -43.417   7.493  -3.610  1.00 20.00     0.153 C 
HETATM   11 CL11 UNL     1     -42.311   8.436  -4.633  1.00 20.00    -0.126 Cl
ENDBRANCH   6  10
TORSDOF 1
ENDMDL
