MODEL 1
REMARK VINA RESULT:      -5.1      0.000      0.000
REMARK  1 active torsions:
REMARK  status: ('A' for Active; 'I' for Inactive)
REMARK    1  A    between atoms: C1_1  and  C4_4 
ROOT
HETATM    1  C2  UNL     1     -34.769   5.574   3.312  1.00 20.00     0.026 C 
HETATM    2  C3  UNL     1     -33.723   6.668   5.241  1.00 20.00     0.026 C 
HETATM    3  C4  UNL     1     -34.890   5.766   4.828  1.00 20.00     0.088 C 
HETATM    4  C5  UNL     1     -33.308   5.760   3.016  1.00 20.00     0.069 A 
HETATM    5  C6  UNL     1     -32.666   6.431   4.200  1.00 20.00     0.069 A 
HETATM    6  C7  UNL     1     -32.708   7.113   2.880  1.00 20.00     0.252 A 
HETATM    7  F10 UNL     1     -33.497   8.223   2.678  1.00 20.00    -0.205 F 
HETATM    8  F11 UNL     1     -31.553   7.292   2.152  1.00 20.00    -0.205 F 
ENDROOT
BRANCH   3   9
HETATM    9  C1  UNL     1     -34.724   4.414   5.504  1.00 20.00     0.177 C 
HETATM   10  O8  UNL     1     -35.153   3.426   4.845  1.00 20.00    -0.648 OA
HETATM   11  O9  UNL     1     -34.177   4.454   6.640  1.00 20.00    -0.648 OA
ENDBRANCH   3   9
TORSDOF 1
ENDMDL
MODEL 2
REMARK VINA RESULT:      -4.8     12.061     13.132
REMARK  1 active torsions:
REMARK  status: ('A' for Active; 'I' for Inactive)
REMARK    1  A    between atoms: C1_1  and  C4_4 
ROOT
HETATM    1  C2  UNL     1     -35.336  15.304  -5.074  1.00 20.00     0.026 C 
HETATM    2  C3  UNL     1     -33.589  15.663  -3.392  1.00 20.00     0.026 C 
HETATM    3  C4  UNL     1     -34.731  14.723  -3.791  1.00 20.00     0.088 C 
HETATM    4  C5  UNL     1     -34.218  16.079  -5.711  1.00 20.00     0.069 A 
HETATM    5  C6  UNL     1     -33.145  16.299  -4.678  1.00 20.00     0.069 A 
HETATM    6  C7  UNL     1     -33.872  17.454  -5.267  1.00 20.00     0.252 A 
HETATM    7  F10 UNL     1     -34.751  18.199  -4.513  1.00 20.00    -0.205 F 
HETATM    8  F11 UNL     1     -33.227  18.321  -6.120  1.00 20.00    -0.205 F 
ENDROOT
BRANCH   3   9
HETATM    9  C1  UNL     1     -34.149  13.355  -4.104  1.00 20.00     0.177 C 
HETATM   10  O8  UNL     1     -33.017  13.122  -3.596  1.00 20.00    -0.648 OA
HETATM   11  O9  UNL     1     -34.876  12.624  -4.834  1.00 20.00    -0.648 OA
ENDBRANCH   3   9
TORSDOF 1
ENDMDL
MODEL 3
REMARK VINA RESULT:      -4.8     11.772     12.401
REMARK  1 active torsions:
REMARK  status: ('A' for Active; 'I' for Inactive)
REMARK    1  A    between atoms: C1_1  and  C4_4 
ROOT
HETATM    1  C2  UNL     1     -33.766  15.097  -3.984  1.00 20.00     0.026 C 
HETATM    2  C3  UNL     1     -35.891  16.230  -3.527  1.00 20.00     0.026 C 
HETATM    3  C4  UNL     1     -35.228  15.188  -4.433  1.00 20.00     0.088 C 
HETATM    4  C5  UNL     1     -33.779  15.513  -2.541  1.00 20.00     0.069 A 
HETATM    5  C6  UNL     1     -35.084  16.209  -2.261  1.00 20.00     0.069 A 
HETATM    6  C7  UNL     1     -33.798  16.946  -2.145  1.00 20.00     0.252 A 
HETATM    7  F10 UNL     1     -33.462  17.935  -3.042  1.00 20.00    -0.205 F 
HETATM    8  F11 UNL     1     -33.326  17.334  -0.911  1.00 20.00    -0.205 F 
ENDROOT
BRANCH   3   9
HETATM    9  C1  UNL     1     -35.894  13.842  -4.196  1.00 20.00     0.177 C 
HETATM   10  O8  UNL     1     -35.140  12.838  -4.323  1.00 20.00    -0.648 OA
HETATM   11  O9  UNL     1     -37.120  13.904  -3.900  1.00 20.00    -0.648 OA
ENDBRANCH   3   9
TORSDOF 1
ENDMDL
MODEL 4
REMARK VINA RESULT:      -4.8     11.643     12.447
REMARK  1 active torsions:
REMARK  status: ('A' for Active; 'I' for Inactive)
REMARK    1  A    between atoms: C1_1  and  C4_4 
ROOT
HETATM    1  C2  UNL     1     -33.419  15.633  -3.402  1.00 20.00     0.026 C 
HETATM    2  C3  UNL     1     -35.622  15.242  -4.402  1.00 20.00     0.026 C 
HETATM    3  C4  UNL     1     -34.143  14.858  -4.507  1.00 20.00     0.088 C 
HETATM    4  C5  UNL     1     -34.464  15.875  -2.351  1.00 20.00     0.069 A 
HETATM    5  C6  UNL     1     -35.817  15.634  -2.965  1.00 20.00     0.069 A 
HETATM    6  C7  UNL     1     -35.444  16.985  -2.470  1.00 20.00     0.252 A 
HETATM    7  F10 UNL     1     -35.233  18.029  -3.343  1.00 20.00    -0.205 F 
HETATM    8  F11 UNL     1     -36.046  17.506  -1.346  1.00 20.00    -0.205 F 
ENDROOT
BRANCH   3   9
HETATM    9  C1  UNL     1     -34.006  13.370  -4.228  1.00 20.00     0.177 C 
HETATM   10  O8  UNL     1     -35.012  12.670  -4.532  1.00 20.00    -0.648 OA
HETATM   11  O9  UNL     1     -32.900  13.025  -3.728  1.00 20.00    -0.648 OA
ENDBRANCH   3   9
TORSDOF 1
ENDMDL
MODEL 5
REMARK VINA RESULT:      -4.5     12.102     13.093
REMARK  1 active torsions:
REMARK  status: ('A' for Active; 'I' for Inactive)
REMARK    1  A    between atoms: C1_1  and  C4_4 
ROOT
HETATM    1  C2  UNL     1     -33.201  16.225  -4.470  1.00 20.00     0.026 C 
HETATM    2  C3  UNL     1     -34.498  15.569  -2.496  1.00 20.00     0.026 C 
HETATM    3  C4  UNL     1     -33.760  16.746  -3.142  1.00 20.00     0.088 C 
HETATM    4  C5  UNL     1     -34.115  15.098  -4.858  1.00 20.00     0.069 A 
HETATM    5  C6  UNL     1     -34.911  14.696  -3.646  1.00 20.00     0.069 A 
HETATM    6  C7  UNL     1     -33.964  13.739  -4.276  1.00 20.00     0.252 A 
HETATM    7  F10 UNL     1     -32.803  13.364  -3.638  1.00 20.00    -0.205 F 
HETATM    8  F11 UNL     1     -34.435  12.636  -4.952  1.00 20.00    -0.205 F 
ENDROOT
BRANCH   3   9
HETATM    9  C1  UNL     1     -34.765  17.848  -3.437  1.00 20.00     0.177 C 
HETATM   10  O8  UNL     1     -35.729  17.928  -2.625  1.00 20.00    -0.648 OA
HETATM   11  O9  UNL     1     -34.504  18.544  -4.457  1.00 20.00    -0.648 OA
ENDBRANCH   3   9
TORSDOF 1
ENDMDL
MODEL 6
REMARK VINA RESULT:      -4.4     12.289     13.402
REMARK  1 active torsions:
REMARK  status: ('A' for Active; 'I' for Inactive)
REMARK    1  A    between atoms: C1_1  and  C4_4 
ROOT
HETATM    1  C2  UNL     1     -33.211  15.408  -3.516  1.00 20.00     0.026 C 
HETATM    2  C3  UNL     1     -34.202  17.622  -3.871  1.00 20.00     0.026 C 
HETATM    3  C4  UNL     1     -33.441  16.493  -4.573  1.00 20.00     0.088 C 
HETATM    4  C5  UNL     1     -34.326  15.591  -2.527  1.00 20.00     0.069 A 
HETATM    5  C6  UNL     1     -34.935  16.950  -2.745  1.00 20.00     0.069 A 
HETATM    6  C7  UNL     1     -34.259  16.625  -1.462  1.00 20.00     0.252 A 
HETATM    7  F10 UNL     1     -33.063  17.215  -1.118  1.00 20.00    -0.205 F 
HETATM    8  F11 UNL     1     -34.993  16.482  -0.305  1.00 20.00    -0.205 F 
ENDROOT
BRANCH   3   9
HETATM    9  C1  UNL     1     -34.322  15.922  -5.672  1.00 20.00     0.177 C 
HETATM   10  O8  UNL     1     -35.007  16.770  -6.308  1.00 20.00    -0.648 OA
HETATM   11  O9  UNL     1     -34.253  14.668  -5.809  1.00 20.00    -0.648 OA
ENDBRANCH   3   9
TORSDOF 1
ENDMDL
MODEL 7
REMARK VINA RESULT:      -4.4     11.968     12.909
REMARK  1 active torsions:
REMARK  status: ('A' for Active; 'I' for Inactive)
REMARK    1  A    between atoms: C1_1  and  C4_4 
ROOT
HETATM    1  C2  UNL     1     -36.007  16.392  -3.351  1.00 20.00     0.026 C 
HETATM    2  C3  UNL     1     -34.327  14.614  -3.187  1.00 20.00     0.026 C 
HETATM    3  C4  UNL     1     -35.634  15.005  -3.884  1.00 20.00     0.088 C 
HETATM    4  C5  UNL     1     -34.701  17.012  -2.942  1.00 20.00     0.069 A 
HETATM    5  C6  UNL     1     -33.670  15.920  -2.842  1.00 20.00     0.069 A 
HETATM    6  C7  UNL     1     -34.065  16.695  -1.637  1.00 20.00     0.252 A 
HETATM    7  F10 UNL     1     -34.784  16.110  -0.619  1.00 20.00    -0.205 F 
HETATM    8  F11 UNL     1     -33.183  17.581  -1.059  1.00 20.00    -0.205 F 
ENDROOT
BRANCH   3   9
HETATM    9  C1  UNL     1     -35.377  15.110  -5.378  1.00 20.00     0.177 C 
HETATM   10  O8  UNL     1     -36.075  15.970  -5.985  1.00 20.00    -0.648 OA
HETATM   11  O9  UNL     1     -34.495  14.323  -5.821  1.00 20.00    -0.648 OA
ENDBRANCH   3   9
TORSDOF 1
ENDMDL
MODEL 8
REMARK VINA RESULT:      -4.4     12.235     13.262
REMARK  1 active torsions:
REMARK  status: ('A' for Active; 'I' for Inactive)
REMARK    1  A    between atoms: C1_1  and  C4_4 
ROOT
HETATM    1  C2  UNL     1     -34.821  18.050   0.258  1.00 20.00     0.026 C 
HETATM    2  C3  UNL     1     -33.440  18.630  -1.682  1.00 20.00     0.026 C 
HETATM    3  C4  UNL     1     -33.792  19.062  -0.256  1.00 20.00     0.088 C 
HETATM    4  C5  UNL     1     -34.549  16.795  -0.520  1.00 20.00     0.069 A 
HETATM    5  C6  UNL     1     -33.701  17.151  -1.712  1.00 20.00     0.069 A 
HETATM    6  C7  UNL     1     -35.071  16.606  -1.899  1.00 20.00     0.252 A 
HETATM    7  F10 UNL     1     -36.089  17.395  -2.388  1.00 20.00    -0.205 F 
HETATM    8  F11 UNL     1     -35.254  15.340  -2.407  1.00 20.00    -0.205 F 
ENDROOT
BRANCH   3   9
HETATM    9  C1  UNL     1     -32.543  18.966   0.605  1.00 20.00     0.177 C 
HETATM   10  O8  UNL     1     -31.459  19.227   0.012  1.00 20.00    -0.648 OA
HETATM   11  O9  UNL     1     -32.751  18.637   1.806  1.00 20.00    -0.648 OA
ENDBRANCH   3   9
TORSDOF 1
ENDMDL
MODEL 9
REMARK VINA RESULT:      -4.2     11.827     12.888
REMARK  1 active torsions:
REMARK  status: ('A' for Active; 'I' for Inactive)
REMARK    1  A    between atoms: C1_1  and  C4_4 
ROOT
HETATM    1  C2  UNL     1     -35.234  13.362  -4.511  1.00 20.00     0.026 C 
HETATM    2  C3  UNL     1     -34.731  15.757  -4.377  1.00 20.00     0.026 C 
HETATM    3  C4  UNL     1     -34.533  14.421  -3.654  1.00 20.00     0.088 C 
HETATM    4  C5  UNL     1     -35.215  13.920  -5.906  1.00 20.00     0.069 A 
HETATM    5  C6  UNL     1     -34.906  15.391  -5.823  1.00 20.00     0.069 A 
HETATM    6  C7  UNL     1     -36.213  14.924  -6.355  1.00 20.00     0.252 A 
HETATM    7  F10 UNL     1     -37.380  15.130  -5.653  1.00 20.00    -0.205 F 
HETATM    8  F11 UNL     1     -36.510  15.062  -7.692  1.00 20.00    -0.205 F 
ENDROOT
BRANCH   3   9
HETATM    9  C1  UNL     1     -33.047  14.106  -3.610  1.00 20.00     0.177 C 
HETATM   10  O8  UNL     1     -32.285  15.112  -3.561  1.00 20.00    -0.648 OA
HETATM   11  O9  UNL     1     -32.765  12.876  -3.627  1.00 20.00    -0.648 OA
ENDBRANCH   3   9
TORSDOF 1
ENDMDL
