MODEL 1
REMARK VINA RESULT:      -5.5      0.000      0.000
REMARK  2 active torsions:
REMARK  status: ('A' for Active; 'I' for Inactive)
REMARK    1  A    between atoms: C4_4  and  C6_6 
REMARK    2  A    between atoms: C6_6  and  O7_7 
ROOT
HETATM    1  C1  UNL     1     -33.633   6.533   5.328  1.00 20.00     0.013 C 
HETATM    2  C2  UNL     1     -34.425   5.940   6.482  1.00 20.00     0.079 C 
HETATM    3  C3  UNL     1     -35.180   4.819   4.492  1.00 20.00     0.085 C 
HETATM    4  C4  UNL     1     -34.387   6.070   4.072  1.00 20.00     0.015 C 
HETATM    5  C5  UNL     1     -34.796   4.578   5.940  1.00 20.00     0.244 C 
HETATM    6  F8  UNL     1     -33.723   3.752   5.998  1.00 20.00    -0.206 F 
HETATM    7  F9  UNL     1     -35.791   4.004   6.639  1.00 20.00    -0.206 F 
ENDROOT
BRANCH   4   8
HETATM    8  C6  UNL     1     -33.454   5.816   2.897  1.00 20.00     0.168 C 
BRANCH   8   9
HETATM    9  O7  UNL     1     -32.126   6.113   3.295  1.00 20.00    -0.400 OA
HETATM   10  H19 UNL     1     -32.051   7.081   3.333  1.00 20.00     0.209 HD
ENDBRANCH   8   9
ENDBRANCH   4   8
TORSDOF 2
ENDMDL
MODEL 2
REMARK VINA RESULT:      -4.8      2.708      3.741
REMARK  2 active torsions:
REMARK  status: ('A' for Active; 'I' for Inactive)
REMARK    1  A    between atoms: C4_4  and  C6_6 
REMARK    2  A    between atoms: C6_6  and  O7_7 
ROOT
HETATM    1  C1  UNL     1     -34.732   5.355   3.491  1.00 20.00     0.013 C 
HETATM    2  C2  UNL     1     -33.888   6.357   2.718  1.00 20.00     0.079 C 
HETATM    3  C3  UNL     1     -33.247   6.566   5.027  1.00 20.00     0.085 C 
HETATM    4  C4  UNL     1     -34.564   5.771   4.960  1.00 20.00     0.015 C 
HETATM    5  C5  UNL     1     -32.683   6.512   3.619  1.00 20.00     0.244 C 
HETATM    6  F8  UNL     1     -31.871   5.436   3.490  1.00 20.00    -0.206 F 
HETATM    7  F9  UNL     1     -31.962   7.606   3.320  1.00 20.00    -0.206 F 
ENDROOT
BRANCH   4   8
HETATM    8  C6  UNL     1     -34.588   4.578   5.906  1.00 20.00     0.168 C 
BRANCH   8   9
HETATM    9  O7  UNL     1     -35.286   3.514   5.281  1.00 20.00    -0.400 OA
HETATM   10  H19 UNL     1     -35.799   3.901   4.552  1.00 20.00     0.209 HD
ENDBRANCH   8   9
ENDBRANCH   4   8
TORSDOF 2
ENDMDL
MODEL 3
REMARK VINA RESULT:      -4.3     12.840     13.547
REMARK  2 active torsions:
REMARK  status: ('A' for Active; 'I' for Inactive)
REMARK    1  A    between atoms: C4_4  and  C6_6 
REMARK    2  A    between atoms: C6_6  and  O7_7 
ROOT
HETATM    1  C1  UNL     1     -33.973  15.728  -5.486  1.00 20.00     0.013 C 
HETATM    2  C2  UNL     1     -33.466  16.677  -4.411  1.00 20.00     0.079 C 
HETATM    3  C3  UNL     1     -34.688  14.947  -3.270  1.00 20.00     0.085 C 
HETATM    4  C4  UNL     1     -35.029  14.872  -4.770  1.00 20.00     0.015 C 
HETATM    5  C5  UNL     1     -33.420  15.778  -3.197  1.00 20.00     0.244 C 
HETATM    6  F8  UNL     1     -32.336  14.968  -3.265  1.00 20.00    -0.206 F 
HETATM    7  F9  UNL     1     -33.337  16.474  -2.050  1.00 20.00    -0.206 F 
ENDROOT
BRANCH   4   8
HETATM    8  C6  UNL     1     -35.074  13.446  -5.300  1.00 20.00     0.168 C 
BRANCH   8   9
HETATM    9  O7  UNL     1     -35.134  12.552  -4.201  1.00 20.00    -0.400 OA
HETATM   10  H19 UNL     1     -35.834  11.908  -4.398  1.00 20.00     0.209 HD
ENDBRANCH   8   9
ENDBRANCH   4   8
TORSDOF 2
ENDMDL
MODEL 4
REMARK VINA RESULT:      -4.2      2.010      2.832
REMARK  2 active torsions:
REMARK  status: ('A' for Active; 'I' for Inactive)
REMARK    1  A    between atoms: C4_4  and  C6_6 
REMARK    2  A    between atoms: C6_6  and  O7_7 
ROOT
HETATM    1  C1  UNL     1     -33.634   6.554   4.266  1.00 20.00     0.013 C 
HETATM    2  C2  UNL     1     -34.043   5.286   3.533  1.00 20.00     0.079 C 
HETATM    3  C3  UNL     1     -34.451   4.883   5.869  1.00 20.00     0.085 C 
HETATM    4  C4  UNL     1     -33.562   6.134   5.742  1.00 20.00     0.015 C 
HETATM    5  C5  UNL     1     -35.048   4.683   4.488  1.00 20.00     0.244 C 
HETATM    6  F8  UNL     1     -36.225   5.346   4.396  1.00 20.00    -0.206 F 
HETATM    7  F9  UNL     1     -35.288   3.387   4.224  1.00 20.00    -0.206 F 
ENDROOT
BRANCH   4   8
HETATM    8  C6  UNL     1     -33.973   7.256   6.684  1.00 20.00     0.168 C 
BRANCH   8   9
HETATM    9  O7  UNL     1     -32.808   7.807   7.275  1.00 20.00    -0.400 OA
HETATM   10  H19 UNL     1     -32.360   7.085   7.745  1.00 20.00     0.209 HD
ENDBRANCH   8   9
ENDBRANCH   4   8
TORSDOF 2
ENDMDL
MODEL 5
REMARK VINA RESULT:      -4.2     12.821     13.405
REMARK  2 active torsions:
REMARK  status: ('A' for Active; 'I' for Inactive)
REMARK    1  A    between atoms: C4_4  and  C6_6 
REMARK    2  A    between atoms: C6_6  and  O7_7 
ROOT
HETATM    1  C1  UNL     1     -35.182  16.015  -2.905  1.00 20.00     0.013 C 
HETATM    2  C2  UNL     1     -33.690  16.012  -2.610  1.00 20.00     0.079 C 
HETATM    3  C3  UNL     1     -34.148  13.989  -3.829  1.00 20.00     0.085 C 
HETATM    4  C4  UNL     1     -35.487  14.575  -3.342  1.00 20.00     0.015 C 
HETATM    5  C5  UNL     1     -33.155  15.131  -3.717  1.00 20.00     0.244 C 
HETATM    6  F8  UNL     1     -33.121  15.825  -4.880  1.00 20.00    -0.206 F 
HETATM    7  F9  UNL     1     -31.909  14.696  -3.464  1.00 20.00    -0.206 F 
ENDROOT
BRANCH   4   8
HETATM    8  C6  UNL     1     -36.583  14.509  -4.396  1.00 20.00     0.168 C 
BRANCH   8   9
HETATM    9  O7  UNL     1     -37.815  14.223  -3.756  1.00 20.00    -0.400 OA
HETATM   10  H19 UNL     1     -37.865  14.791  -2.969  1.00 20.00     0.209 HD
ENDBRANCH   8   9
ENDBRANCH   4   8
TORSDOF 2
ENDMDL
MODEL 6
REMARK VINA RESULT:      -4.2      1.336      1.930
REMARK  2 active torsions:
REMARK  status: ('A' for Active; 'I' for Inactive)
REMARK    1  A    between atoms: C4_4  and  C6_6 
REMARK    2  A    between atoms: C6_6  and  O7_7 
ROOT
HETATM    1  C1  UNL     1     -35.076   5.735   3.444  1.00 20.00     0.013 C 
HETATM    2  C2  UNL     1     -35.390   4.846   4.637  1.00 20.00     0.079 C 
HETATM    3  C3  UNL     1     -33.066   5.443   4.824  1.00 20.00     0.085 C 
HETATM    4  C4  UNL     1     -33.541   5.786   3.400  1.00 20.00     0.015 C 
HETATM    5  C5  UNL     1     -34.339   5.281   5.635  1.00 20.00     0.244 C 
HETATM    6  F8  UNL     1     -34.689   6.470   6.182  1.00 20.00    -0.206 F 
HETATM    7  F9  UNL     1     -34.192   4.398   6.637  1.00 20.00    -0.206 F 
ENDROOT
BRANCH   4   8
HETATM    8  C6  UNL     1     -33.020   7.128   2.906  1.00 20.00     0.168 C 
BRANCH   8   9
HETATM    9  O7  UNL     1     -31.741   7.358   3.473  1.00 20.00    -0.400 OA
HETATM   10  H19 UNL     1     -31.875   7.499   4.425  1.00 20.00     0.209 HD
ENDBRANCH   8   9
ENDBRANCH   4   8
TORSDOF 2
ENDMDL
MODEL 7
REMARK VINA RESULT:      -4.1      9.517     10.247
REMARK  2 active torsions:
REMARK  status: ('A' for Active; 'I' for Inactive)
REMARK    1  A    between atoms: C4_4  and  C6_6 
REMARK    2  A    between atoms: C6_6  and  O7_7 
ROOT
HETATM    1  C1  UNL     1     -41.832   4.794  -1.979  1.00 20.00     0.013 C 
HETATM    2  C2  UNL     1     -40.742   4.743  -0.919  1.00 20.00     0.079 C 
HETATM    3  C3  UNL     1     -41.351   7.058  -1.159  1.00 20.00     0.085 C 
HETATM    4  C4  UNL     1     -41.925   6.279  -2.358  1.00 20.00     0.015 C 
HETATM    5  C5  UNL     1     -41.021   5.999  -0.124  1.00 20.00     0.244 C 
HETATM    6  F8  UNL     1     -42.088   5.802   0.687  1.00 20.00    -0.206 F 
HETATM    7  F9  UNL     1     -39.980   6.353   0.649  1.00 20.00    -0.206 F 
ENDROOT
BRANCH   4   8
HETATM    8  C6  UNL     1     -43.344   6.699  -2.714  1.00 20.00     0.168 C 
BRANCH   8   9
HETATM    9  O7  UNL     1     -43.417   6.921  -4.113  1.00 20.00    -0.400 OA
HETATM   10  H19 UNL     1     -44.087   6.309  -4.462  1.00 20.00     0.209 HD
ENDBRANCH   8   9
ENDBRANCH   4   8
TORSDOF 2
ENDMDL
MODEL 8
REMARK VINA RESULT:      -4.0     12.652     13.531
REMARK  2 active torsions:
REMARK  status: ('A' for Active; 'I' for Inactive)
REMARK    1  A    between atoms: C4_4  and  C6_6 
REMARK    2  A    between atoms: C6_6  and  O7_7 
ROOT
HETATM    1  C1  UNL     1     -35.293  13.378  -4.270  1.00 20.00     0.013 C 
HETATM    2  C2  UNL     1     -33.796  13.565  -4.080  1.00 20.00     0.079 C 
HETATM    3  C3  UNL     1     -34.660  15.687  -4.813  1.00 20.00     0.085 C 
HETATM    4  C4  UNL     1     -35.733  14.612  -5.071  1.00 20.00     0.015 C 
HETATM    5  C5  UNL     1     -33.697  15.053  -3.827  1.00 20.00     0.244 C 
HETATM    6  F8  UNL     1     -34.088  15.331  -2.560  1.00 20.00    -0.206 F 
HETATM    7  F9  UNL     1     -32.443  15.513  -3.977  1.00 20.00    -0.206 F 
ENDROOT
BRANCH   4   8
HETATM    8  C6  UNL     1     -37.136  15.072  -4.703  1.00 20.00     0.168 C 
BRANCH   8   9
HETATM    9  O7  UNL     1     -37.690  14.152  -3.776  1.00 20.00    -0.400 OA
HETATM   10  H19 UNL     1     -37.276  14.334  -2.916  1.00 20.00     0.209 HD
ENDBRANCH   8   9
ENDBRANCH   4   8
TORSDOF 2
ENDMDL
MODEL 9
REMARK VINA RESULT:      -4.0     12.764     13.448
REMARK  2 active torsions:
REMARK  status: ('A' for Active; 'I' for Inactive)
REMARK    1  A    between atoms: C4_4  and  C6_6 
REMARK    2  A    between atoms: C6_6  and  O7_7 
ROOT
HETATM    1  C1  UNL     1     -33.985  13.940  -4.252  1.00 20.00     0.013 C 
HETATM    2  C2  UNL     1     -35.348  13.265  -4.242  1.00 20.00     0.079 C 
HETATM    3  C3  UNL     1     -35.657  15.438  -3.257  1.00 20.00     0.085 C 
HETATM    4  C4  UNL     1     -34.148  15.139  -3.305  1.00 20.00     0.015 C 
HETATM    5  C5  UNL     1     -36.285  14.453  -4.226  1.00 20.00     0.244 C 
HETATM    6  F8  UNL     1     -36.351  15.003  -5.462  1.00 20.00    -0.206 F 
HETATM    7  F9  UNL     1     -37.533  14.112  -3.863  1.00 20.00    -0.206 F 
ENDROOT
BRANCH   4   8
HETATM    8  C6  UNL     1     -33.317  16.338  -3.740  1.00 20.00     0.168 C 
BRANCH   8   9
HETATM    9  O7  UNL     1     -32.510  15.959  -4.842  1.00 20.00    -0.400 OA
HETATM   10  H19 UNL     1     -33.110  15.796  -5.589  1.00 20.00     0.209 HD
ENDBRANCH   8   9
ENDBRANCH   4   8
TORSDOF 2
ENDMDL
