MODEL 1
REMARK VINA RESULT:      -4.3      0.000      0.000
REMARK  1 active torsions:
REMARK  status: ('A' for Active; 'I' for Inactive)
REMARK    1  A    between atoms: C1_1  and  C2_2 
ROOT
HETATM    1  C2  UNL     1     -34.950   5.377   3.845  1.00 20.00     0.285 C 
HETATM    2  F3  UNL     1     -36.221   5.771   3.560  1.00 20.00    -0.204 F 
HETATM    3 CL6  UNL     1     -35.032   3.950   4.924  1.00 20.00    -0.063 Cl
HETATM    4 CL7  UNL     1     -34.166   4.857   2.322  1.00 20.00    -0.063 Cl
ENDROOT
BRANCH   1   5
HETATM    5  C1  UNL     1     -34.190   6.534   4.502  1.00 20.00     0.249 C 
HETATM    6 CL4  UNL     1     -32.528   6.686   3.847  1.00 20.00    -0.102 Cl
HETATM    7 CL5  UNL     1     -34.047   6.310   6.273  1.00 20.00    -0.102 Cl
ENDBRANCH   1   5
TORSDOF 1
ENDMDL
MODEL 2
REMARK VINA RESULT:      -4.2      1.158      2.399
REMARK  1 active torsions:
REMARK  status: ('A' for Active; 'I' for Inactive)
REMARK    1  A    between atoms: C1_1  and  C2_2 
ROOT
HETATM    1  C2  UNL     1     -33.747   6.171   3.839  1.00 20.00     0.285 C 
HETATM    2  F3  UNL     1     -34.488   7.312   3.876  1.00 20.00    -0.204 F 
HETATM    3 CL6  UNL     1     -34.391   5.122   2.539  1.00 20.00    -0.063 Cl
HETATM    4 CL7  UNL     1     -32.066   6.605   3.399  1.00 20.00    -0.063 Cl
ENDROOT
BRANCH   1   5
HETATM    5  C1  UNL     1     -33.808   5.476   5.203  1.00 20.00     0.249 C 
HETATM    6 CL4  UNL     1     -35.166   4.310   5.288  1.00 20.00    -0.102 Cl
HETATM    7 CL5  UNL     1     -34.031   6.654   6.535  1.00 20.00    -0.102 Cl
ENDBRANCH   1   5
TORSDOF 1
ENDMDL
MODEL 3
REMARK VINA RESULT:      -4.0      1.387      1.809
REMARK  1 active torsions:
REMARK  status: ('A' for Active; 'I' for Inactive)
REMARK    1  A    between atoms: C1_1  and  C2_2 
ROOT
HETATM    1  C2  UNL     1     -34.832   5.379   3.742  1.00 20.00     0.285 C 
HETATM    2  F3  UNL     1     -34.245   4.857   2.630  1.00 20.00    -0.204 F 
HETATM    3 CL6  UNL     1     -36.475   5.938   3.302  1.00 20.00    -0.063 Cl
HETATM    4 CL7  UNL     1     -35.012   4.071   4.951  1.00 20.00    -0.063 Cl
ENDROOT
BRANCH   1   5
HETATM    5  C1  UNL     1     -33.974   6.528   4.282  1.00 20.00     0.249 C 
HETATM    6 CL4  UNL     1     -32.314   6.485   3.607  1.00 20.00    -0.102 Cl
HETATM    7 CL5  UNL     1     -33.827   6.460   6.066  1.00 20.00    -0.102 Cl
ENDBRANCH   1   5
TORSDOF 1
ENDMDL
MODEL 4
REMARK VINA RESULT:      -3.7      0.941      2.547
REMARK  1 active torsions:
REMARK  status: ('A' for Active; 'I' for Inactive)
REMARK    1  A    between atoms: C1_1  and  C2_2 
ROOT
HETATM    1  C2  UNL     1     -34.516   5.439   5.067  1.00 20.00     0.285 C 
HETATM    2  F3  UNL     1     -35.724   5.819   4.567  1.00 20.00    -0.204 F 
HETATM    3 CL6  UNL     1     -34.051   6.592   6.355  1.00 20.00    -0.063 Cl
HETATM    4 CL7  UNL     1     -34.702   3.828   5.825  1.00 20.00    -0.063 Cl
ENDROOT
BRANCH   1   5
HETATM    5  C1  UNL     1     -33.480   5.411   3.938  1.00 20.00     0.249 C 
HETATM    6 CL4  UNL     1     -32.510   6.918   3.896  1.00 20.00    -0.102 Cl
HETATM    7 CL5  UNL     1     -34.256   5.232   2.333  1.00 20.00    -0.102 Cl
ENDBRANCH   1   5
TORSDOF 1
ENDMDL
MODEL 5
REMARK VINA RESULT:      -3.7      1.476      3.035
REMARK  1 active torsions:
REMARK  status: ('A' for Active; 'I' for Inactive)
REMARK    1  A    between atoms: C1_1  and  C2_2 
ROOT
HETATM    1  C2  UNL     1     -33.768   6.359   4.374  1.00 20.00     0.285 C 
HETATM    2  F3  UNL     1     -34.378   7.452   3.838  1.00 20.00    -0.204 F 
HETATM    3 CL6  UNL     1     -32.200   6.123   3.544  1.00 20.00    -0.063 Cl
HETATM    4 CL7  UNL     1     -33.421   6.697   6.098  1.00 20.00    -0.063 Cl
ENDROOT
BRANCH   1   5
HETATM    5  C1  UNL     1     -34.678   5.136   4.214  1.00 20.00     0.249 C 
HETATM    6 CL4  UNL     1     -36.278   5.587   3.543  1.00 20.00    -0.102 Cl
HETATM    7 CL5  UNL     1     -34.968   4.319   5.781  1.00 20.00    -0.102 Cl
ENDBRANCH   1   5
TORSDOF 1
ENDMDL
MODEL 6
REMARK VINA RESULT:      -3.6      1.598      2.654
REMARK  1 active torsions:
REMARK  status: ('A' for Active; 'I' for Inactive)
REMARK    1  A    between atoms: C1_1  and  C2_2 
ROOT
HETATM    1  C2  UNL     1     -34.284   5.628   3.725  1.00 20.00     0.285 C 
HETATM    2  F3  UNL     1     -33.947   4.649   2.842  1.00 20.00    -0.204 F 
HETATM    3 CL6  UNL     1     -33.375   7.110   3.298  1.00 20.00    -0.063 Cl
HETATM    4 CL7  UNL     1     -36.027   5.988   3.530  1.00 20.00    -0.063 Cl
ENDROOT
BRANCH   1   5
HETATM    5  C1  UNL     1     -33.963   5.165   5.151  1.00 20.00     0.249 C 
HETATM    6 CL4  UNL     1     -35.106   3.901   5.706  1.00 20.00    -0.102 Cl
HETATM    7 CL5  UNL     1     -34.054   6.519   6.321  1.00 20.00    -0.102 Cl
ENDBRANCH   1   5
TORSDOF 1
ENDMDL
MODEL 7
REMARK VINA RESULT:      -3.5      0.638      1.668
REMARK  1 active torsions:
REMARK  status: ('A' for Active; 'I' for Inactive)
REMARK    1  A    between atoms: C1_1  and  C2_2 
ROOT
HETATM    1  C2  UNL     1     -34.584   5.385   4.060  1.00 20.00     0.285 C 
HETATM    2  F3  UNL     1     -35.571   6.323   4.064  1.00 20.00    -0.204 F 
HETATM    3 CL6  UNL     1     -35.207   3.907   4.855  1.00 20.00    -0.063 Cl
HETATM    4 CL7  UNL     1     -34.209   4.968   2.360  1.00 20.00    -0.063 Cl
ENDROOT
BRANCH   1   5
HETATM    5  C1  UNL     1     -33.353   5.936   4.787  1.00 20.00     0.249 C 
HETATM    6 CL4  UNL     1     -33.809   6.836   6.269  1.00 20.00    -0.102 Cl
HETATM    7 CL5  UNL     1     -32.419   7.057   3.749  1.00 20.00    -0.102 Cl
ENDBRANCH   1   5
TORSDOF 1
ENDMDL
MODEL 8
REMARK VINA RESULT:      -3.5      2.299      3.564
REMARK  1 active torsions:
REMARK  status: ('A' for Active; 'I' for Inactive)
REMARK    1  A    between atoms: C1_1  and  C2_2 
ROOT
HETATM    1  C2  UNL     1     -32.301   6.945   3.241  1.00 20.00     0.285 C 
HETATM    2  F3  UNL     1     -31.774   5.735   2.906  1.00 20.00    -0.204 F 
HETATM    3 CL6  UNL     1     -31.222   7.716   4.444  1.00 20.00    -0.063 Cl
HETATM    4 CL7  UNL     1     -32.310   7.981   1.781  1.00 20.00    -0.063 Cl
ENDROOT
BRANCH   1   5
HETATM    5  C1  UNL     1     -33.715   6.750   3.800  1.00 20.00     0.249 C 
HETATM    6 CL4  UNL     1     -33.698   6.540   5.580  1.00 20.00    -0.102 Cl
HETATM    7 CL5  UNL     1     -34.509   5.305   3.100  1.00 20.00    -0.102 Cl
ENDBRANCH   1   5
TORSDOF 1
ENDMDL
MODEL 9
REMARK VINA RESULT:      -3.4     11.932     12.596
REMARK  1 active torsions:
REMARK  status: ('A' for Active; 'I' for Inactive)
REMARK    1  A    between atoms: C1_1  and  C2_2 
ROOT
HETATM    1  C2  UNL     1     -33.375  15.260  -3.565  1.00 20.00     0.285 C 
HETATM    2  F3  UNL     1     -32.151  14.682  -3.420  1.00 20.00    -0.204 F 
HETATM    3 CL6  UNL     1     -33.586  16.469  -2.262  1.00 20.00    -0.063 Cl
HETATM    4 CL7  UNL     1     -33.404  16.137  -5.126  1.00 20.00    -0.063 Cl
ENDROOT
BRANCH   1   5
HETATM    5  C1  UNL     1     -34.461  14.180  -3.508  1.00 20.00     0.249 C 
HETATM    6 CL4  UNL     1     -34.409  13.116  -4.951  1.00 20.00    -0.102 Cl
HETATM    7 CL5  UNL     1     -36.101  14.895  -3.432  1.00 20.00    -0.102 Cl
ENDBRANCH   1   5
TORSDOF 1
ENDMDL
