MODEL 1
REMARK VINA RESULT:      -4.7      0.000      0.000
REMARK  0 active torsions:
REMARK  status: ('A' for Active; 'I' for Inactive)
ROOT
HETATM    1  C1  UNL     1     -32.778   6.865   4.091  1.00 20.00     0.124 C 
HETATM    2  C2  UNL     1     -34.443   5.415   4.017  1.00 20.00     0.044 C 
HETATM    3  C3  UNL     1     -35.396   4.468   4.636  1.00 20.00     0.057 C 
HETATM    4  C4  UNL     1     -35.134   4.789   6.118  1.00 20.00     0.007 C 
HETATM    5  C5  UNL     1     -33.855   5.655   6.167  1.00 20.00     0.016 C 
HETATM    6  C6  UNL     1     -33.957   6.487   4.910  1.00 20.00     0.077 C 
HETATM    7  N7  UNL     1     -32.759   6.292   2.928  1.00 20.00    -0.166 NA
HETATM    8  N8  UNL     1     -33.842   5.345   2.875  1.00 20.00    -0.159 NA
ENDROOT
TORSDOF 0
ENDMDL
MODEL 2
REMARK VINA RESULT:      -4.5      1.854      3.317
REMARK  0 active torsions:
REMARK  status: ('A' for Active; 'I' for Inactive)
ROOT
HETATM    1  C1  UNL     1     -35.396   4.636   4.750  1.00 20.00     0.124 C 
HETATM    2  C2  UNL     1     -33.900   6.252   4.921  1.00 20.00     0.044 C 
HETATM    3  C3  UNL     1     -32.777   7.069   4.413  1.00 20.00     0.057 C 
HETATM    4  C4  UNL     1     -32.760   6.582   2.953  1.00 20.00     0.007 C 
HETATM    5  C5  UNL     1     -33.670   5.335   2.889  1.00 20.00     0.016 C 
HETATM    6  C6  UNL     1     -34.764   5.658   3.880  1.00 20.00     0.077 C 
HETATM    7  N7  UNL     1     -35.111   4.786   6.006  1.00 20.00    -0.166 NA
HETATM    8  N8  UNL     1     -34.135   5.839   6.123  1.00 20.00    -0.159 NA
ENDROOT
TORSDOF 0
ENDMDL
MODEL 3
REMARK VINA RESULT:      -4.2     12.035     13.012
REMARK  0 active torsions:
REMARK  status: ('A' for Active; 'I' for Inactive)
ROOT
HETATM    1  C1  UNL     1     -35.004  13.650  -5.565  1.00 20.00     0.124 C 
HETATM    2  C2  UNL     1     -34.231  14.636  -3.745  1.00 20.00     0.044 C 
HETATM    3  C3  UNL     1     -33.555  15.739  -3.029  1.00 20.00     0.057 C 
HETATM    4  C4  UNL     1     -33.480  16.765  -4.173  1.00 20.00     0.007 C 
HETATM    5  C5  UNL     1     -33.846  16.013  -5.472  1.00 20.00     0.016 C 
HETATM    6  C6  UNL     1     -34.889  15.021  -5.010  1.00 20.00     0.077 C 
HETATM    7  N7  UNL     1     -34.691  12.726  -4.711  1.00 20.00    -0.166 NA
HETATM    8  N8  UNL     1     -34.185  13.363  -3.522  1.00 20.00    -0.159 NA
ENDROOT
TORSDOF 0
ENDMDL
MODEL 4
REMARK VINA RESULT:      -4.2      0.926      1.869
REMARK  0 active torsions:
REMARK  status: ('A' for Active; 'I' for Inactive)
ROOT
HETATM    1  C1  UNL     1     -33.567   5.758   2.813  1.00 20.00     0.124 C 
HETATM    2  C2  UNL     1     -33.523   6.124   4.991  1.00 20.00     0.044 C 
HETATM    3  C3  UNL     1     -34.075   6.013   6.358  1.00 20.00     0.057 C 
HETATM    4  C4  UNL     1     -35.202   5.001   6.087  1.00 20.00     0.007 C 
HETATM    5  C5  UNL     1     -35.345   4.894   4.552  1.00 20.00     0.016 C 
HETATM    6  C6  UNL     1     -33.922   5.045   4.065  1.00 20.00     0.077 C 
HETATM    7  N7  UNL     1     -32.922   6.864   3.021  1.00 20.00    -0.166 NA
HETATM    8  N8  UNL     1     -32.891   7.108   4.440  1.00 20.00    -0.159 NA
ENDROOT
TORSDOF 0
ENDMDL
MODEL 5
REMARK VINA RESULT:      -4.1     11.807     12.127
REMARK  0 active torsions:
REMARK  status: ('A' for Active; 'I' for Inactive)
ROOT
HETATM    1  C1  UNL     1     -33.159  14.171  -3.716  1.00 20.00     0.124 C 
HETATM    2  C2  UNL     1     -35.310  14.023  -4.197  1.00 20.00     0.044 C 
HETATM    3  C3  UNL     1     -36.725  14.424  -4.047  1.00 20.00     0.057 C 
HETATM    4  C4  UNL     1     -36.534  15.690  -3.193  1.00 20.00     0.007 C 
HETATM    5  C5  UNL     1     -35.066  15.682  -2.710  1.00 20.00     0.016 C 
HETATM    6  C6  UNL     1     -34.324  15.076  -3.879  1.00 20.00     0.077 C 
HETATM    7  N7  UNL     1     -33.405  12.952  -4.080  1.00 20.00    -0.166 NA
HETATM    8  N8  UNL     1     -34.806  12.849  -4.395  1.00 20.00    -0.159 NA
ENDROOT
TORSDOF 0
ENDMDL
MODEL 6
REMARK VINA RESULT:      -4.0     11.723     12.376
REMARK  0 active torsions:
REMARK  status: ('A' for Active; 'I' for Inactive)
ROOT
HETATM    1  C1  UNL     1     -36.553  15.151  -3.440  1.00 20.00     0.124 C 
HETATM    2  C2  UNL     1     -34.755  13.894  -3.699  1.00 20.00     0.044 C 
HETATM    3  C3  UNL     1     -33.301  13.695  -3.883  1.00 20.00     0.057 C 
HETATM    4  C4  UNL     1     -32.821  15.135  -3.632  1.00 20.00     0.007 C 
HETATM    5  C5  UNL     1     -34.079  16.031  -3.637  1.00 20.00     0.016 C 
HETATM    6  C6  UNL     1     -35.132  15.146  -3.011  1.00 20.00     0.077 C 
HETATM    7  N7  UNL     1     -36.913  14.053  -4.028  1.00 20.00    -0.166 NA
HETATM    8  N8  UNL     1     -35.744  13.230  -4.200  1.00 20.00    -0.159 NA
ENDROOT
TORSDOF 0
ENDMDL
MODEL 7
REMARK VINA RESULT:      -3.9     11.969     13.267
REMARK  0 active torsions:
REMARK  status: ('A' for Active; 'I' for Inactive)
ROOT
HETATM    1  C1  UNL     1     -34.221  13.551  -3.525  1.00 20.00     0.124 C 
HETATM    2  C2  UNL     1     -34.204  14.673  -5.428  1.00 20.00     0.044 C 
HETATM    3  C3  UNL     1     -34.050  15.906  -6.230  1.00 20.00     0.057 C 
HETATM    4  C4  UNL     1     -33.488  16.839  -5.144  1.00 20.00     0.007 C 
HETATM    5  C5  UNL     1     -33.677  16.113  -3.793  1.00 20.00     0.016 C 
HETATM    6  C6  UNL     1     -33.461  14.661  -4.151  1.00 20.00     0.077 C 
HETATM    7  N7  UNL     1     -35.028  12.958  -4.348  1.00 20.00    -0.166 NA
HETATM    8  N8  UNL     1     -35.022  13.686  -5.590  1.00 20.00    -0.159 NA
ENDROOT
TORSDOF 0
ENDMDL
MODEL 8
REMARK VINA RESULT:      -3.9      9.404     10.388
REMARK  0 active torsions:
REMARK  status: ('A' for Active; 'I' for Inactive)
ROOT
HETATM    1  C1  UNL     1     -42.659   4.123  -2.674  1.00 20.00     0.124 C 
HETATM    2  C2  UNL     1     -41.796   6.080  -2.122  1.00 20.00     0.044 C 
HETATM    3  C3  UNL     1     -41.150   7.017  -1.178  1.00 20.00     0.057 C 
HETATM    4  C4  UNL     1     -40.813   6.032  -0.045  1.00 20.00     0.007 C 
HETATM    5  C5  UNL     1     -41.575   4.723  -0.351  1.00 20.00     0.016 C 
HETATM    6  C6  UNL     1     -41.536   4.649  -1.860  1.00 20.00     0.077 C 
HETATM    7  N7  UNL     1     -43.246   5.034  -3.385  1.00 20.00    -0.166 NA
HETATM    8  N8  UNL     1     -42.687   6.313  -3.029  1.00 20.00    -0.159 NA
ENDROOT
TORSDOF 0
ENDMDL
MODEL 9
REMARK VINA RESULT:      -3.8      1.309      1.735
REMARK  0 active torsions:
REMARK  status: ('A' for Active; 'I' for Inactive)
ROOT
HETATM    1  C1  UNL     1     -33.324   6.906   6.448  1.00 20.00     0.124 C 
HETATM    2  C2  UNL     1     -34.162   5.945   4.643  1.00 20.00     0.044 C 
HETATM    3  C3  UNL     1     -34.846   4.844   3.933  1.00 20.00     0.057 C 
HETATM    4  C4  UNL     1     -35.304   4.016   5.146  1.00 20.00     0.007 C 
HETATM    5  C5  UNL     1     -34.565   4.584   6.378  1.00 20.00     0.016 C 
HETATM    6  C6  UNL     1     -34.489   6.064   6.079  1.00 20.00     0.077 C 
HETATM    7  N7  UNL     1     -32.654   7.328   5.422  1.00 20.00    -0.166 NA
HETATM    8  N8  UNL     1     -33.195   6.704   4.242  1.00 20.00    -0.159 NA
ENDROOT
TORSDOF 0
ENDMDL
