MODEL 1
REMARK VINA RESULT:      -4.7      0.000      0.000
REMARK  2 active torsions:
REMARK  status: ('A' for Active; 'I' for Inactive)
REMARK    1  A    between atoms: C7_7  and  O10_10 
REMARK    2  A    between atoms: C8_8  and  O10_10 
ROOT
HETATM    1  C1  UNL     1     -36.030  14.886  -4.270  1.00 20.00     0.024 C 
HETATM    2  C2  UNL     1     -35.745  13.608  -4.556  1.00 20.00     0.118 C 
HETATM    3  C3  UNL     1     -33.600  13.706  -3.822  1.00 20.00     0.188 C 
HETATM    4  C4  UNL     1     -33.612  15.212  -3.750  1.00 20.00     0.127 C 
HETATM    5  C7  UNL     1     -35.025  15.765  -3.600  1.00 20.00     0.154 C 
HETATM    6  N9  UNL     1     -34.580  12.964  -4.232  1.00 20.00    -0.237 NA
HETATM    7  F11 UNL     1     -32.462  13.084  -3.484  1.00 20.00    -0.189 F 
ENDROOT
BRANCH   5   8
HETATM    8  O10 UNL     1     -35.343  15.870  -2.215  1.00 20.00    -0.376 OA
BRANCH   8   9
HETATM    9  C8  UNL     1     -34.308  16.521  -1.493  1.00 20.00     0.122 A 
HETATM   10  C5  UNL     1     -34.448  18.007  -1.330  1.00 20.00     0.034 A 
HETATM   11  C6  UNL     1     -34.695  17.099  -0.161  1.00 20.00     0.034 A 
ENDBRANCH   8   9
ENDBRANCH   5   8
TORSDOF 2
ENDMDL
MODEL 2
REMARK VINA RESULT:      -4.5     10.289     11.067
REMARK  2 active torsions:
REMARK  status: ('A' for Active; 'I' for Inactive)
REMARK    1  A    between atoms: C7_7  and  O10_10 
REMARK    2  A    between atoms: C8_8  and  O10_10 
ROOT
HETATM    1  C1  UNL     1     -34.009   5.398   2.871  1.00 20.00     0.024 C 
HETATM    2  C2  UNL     1     -34.923   5.048   3.786  1.00 20.00     0.118 C 
HETATM    3  C3  UNL     1     -34.032   6.300   5.457  1.00 20.00     0.188 C 
HETATM    4  C4  UNL     1     -32.750   6.537   4.699  1.00 20.00     0.127 C 
HETATM    5  C7  UNL     1     -32.941   6.393   3.194  1.00 20.00     0.154 C 
HETATM    6  N9  UNL     1     -35.026   5.577   5.046  1.00 20.00    -0.237 NA
HETATM    7  F11 UNL     1     -34.130   6.837   6.680  1.00 20.00    -0.189 F 
ENDROOT
BRANCH   5   8
HETATM    8  O10 UNL     1     -33.298   7.658   2.643  1.00 20.00    -0.376 OA
BRANCH   8   9
HETATM    9  C8  UNL     1     -32.148   8.412   2.289  1.00 20.00     0.122 A 
HETATM   10  C5  UNL     1     -31.818   8.469   0.825  1.00 20.00     0.034 A 
HETATM   11  C6  UNL     1     -32.399   9.672   1.509  1.00 20.00     0.034 A 
ENDBRANCH   8   9
ENDBRANCH   5   8
TORSDOF 2
ENDMDL
MODEL 3
REMARK VINA RESULT:      -4.5      1.729      1.973
REMARK  2 active torsions:
REMARK  status: ('A' for Active; 'I' for Inactive)
REMARK    1  A    between atoms: C7_7  and  O10_10 
REMARK    2  A    between atoms: C8_8  and  O10_10 
ROOT
HETATM    1  C1  UNL     1     -33.537  16.252  -5.617  1.00 20.00     0.024 C 
HETATM    2  C2  UNL     1     -34.335  15.440  -6.323  1.00 20.00     0.118 C 
HETATM    3  C3  UNL     1     -34.556  13.888  -4.682  1.00 20.00     0.188 C 
HETATM    4  C4  UNL     1     -33.426  14.472  -3.872  1.00 20.00     0.127 C 
HETATM    5  C7  UNL     1     -33.193  15.943  -4.195  1.00 20.00     0.154 C 
HETATM    6  N9  UNL     1     -34.953  14.317  -5.838  1.00 20.00    -0.237 NA
HETATM    7  F11 UNL     1     -35.167  12.801  -4.190  1.00 20.00    -0.189 F 
ENDROOT
BRANCH   5   8
HETATM    8  O10 UNL     1     -33.995  16.746  -3.334  1.00 20.00    -0.376 OA
BRANCH   8   9
HETATM    9  C8  UNL     1     -33.675  16.521  -1.968  1.00 20.00     0.122 A 
HETATM   10  C5  UNL     1     -33.727  17.722  -1.069  1.00 20.00     0.034 A 
HETATM   11  C6  UNL     1     -34.804  16.681  -0.991  1.00 20.00     0.034 A 
ENDBRANCH   8   9
ENDBRANCH   5   8
TORSDOF 2
ENDMDL
MODEL 4
REMARK VINA RESULT:      -4.3      1.003      1.347
REMARK  2 active torsions:
REMARK  status: ('A' for Active; 'I' for Inactive)
REMARK    1  A    between atoms: C7_7  and  O10_10 
REMARK    2  A    between atoms: C8_8  and  O10_10 
ROOT
HETATM    1  C1  UNL     1     -35.480  16.137  -3.231  1.00 20.00     0.024 C 
HETATM    2  C2  UNL     1     -35.829  14.888  -3.568  1.00 20.00     0.118 C 
HETATM    3  C3  UNL     1     -33.701  14.120  -3.748  1.00 20.00     0.188 C 
HETATM    4  C4  UNL     1     -33.116  15.509  -3.724  1.00 20.00     0.127 C 
HETATM    5  C7  UNL     1     -34.044  16.508  -3.043  1.00 20.00     0.154 C 
HETATM    6  N9  UNL     1     -34.964  13.835  -3.713  1.00 20.00    -0.237 NA
HETATM    7  F11 UNL     1     -32.846  13.095  -3.870  1.00 20.00    -0.189 F 
ENDROOT
BRANCH   5   8
HETATM    8  O10 UNL     1     -33.750  16.547  -1.649  1.00 20.00    -0.376 OA
BRANCH   8   9
HETATM    9  C8  UNL     1     -34.439  17.608  -1.003  1.00 20.00     0.122 A 
HETATM   10  C5  UNL     1     -34.976  17.311   0.367  1.00 20.00     0.034 A 
HETATM   11  C6  UNL     1     -33.769  18.188   0.210  1.00 20.00     0.034 A 
ENDBRANCH   8   9
ENDBRANCH   5   8
TORSDOF 2
ENDMDL
MODEL 5
REMARK VINA RESULT:      -4.3      2.268      4.107
REMARK  2 active torsions:
REMARK  status: ('A' for Active; 'I' for Inactive)
REMARK    1  A    between atoms: C7_7  and  O10_10 
REMARK    2  A    between atoms: C8_8  and  O10_10 
ROOT
HETATM    1  C1  UNL     1     -36.050  15.463  -3.042  1.00 20.00     0.024 C 
HETATM    2  C2  UNL     1     -35.055  16.098  -2.408  1.00 20.00     0.118 C 
HETATM    3  C3  UNL     1     -33.392  14.905  -3.388  1.00 20.00     0.188 C 
HETATM    4  C4  UNL     1     -34.347  13.868  -3.924  1.00 20.00     0.127 C 
HETATM    5  C7  UNL     1     -35.762  14.416  -4.068  1.00 20.00     0.154 C 
HETATM    6  N9  UNL     1     -33.719  15.920  -2.652  1.00 20.00    -0.237 NA
HETATM    7  F11 UNL     1     -32.089  14.732  -3.648  1.00 20.00    -0.189 F 
ENDROOT
BRANCH   5   8
HETATM    8  O10 UNL     1     -35.916  14.978  -5.369  1.00 20.00    -0.376 OA
BRANCH   8   9
HETATM    9  C8  UNL     1     -35.168  14.258  -6.338  1.00 20.00     0.122 A 
HETATM   10  C5  UNL     1     -35.602  14.422  -7.766  1.00 20.00     0.034 A 
HETATM   11  C6  UNL     1     -34.345  15.085  -7.284  1.00 20.00     0.034 A 
ENDBRANCH   8   9
ENDBRANCH   5   8
TORSDOF 2
ENDMDL
MODEL 6
REMARK VINA RESULT:      -4.1     11.474     12.218
REMARK  2 active torsions:
REMARK  status: ('A' for Active; 'I' for Inactive)
REMARK    1  A    between atoms: C7_7  and  O10_10 
REMARK    2  A    between atoms: C8_8  and  O10_10 
ROOT
HETATM    1  C1  UNL     1     -34.017   6.755   5.867  1.00 20.00     0.024 C 
HETATM    2  C2  UNL     1     -34.441   5.735   6.625  1.00 20.00     0.118 C 
HETATM    3  C3  UNL     1     -34.929   4.368   4.881  1.00 20.00     0.188 C 
HETATM    4  C4  UNL     1     -34.824   5.488   3.875  1.00 20.00     0.127 C 
HETATM    5  C7  UNL     1     -33.948   6.628   4.379  1.00 20.00     0.154 C 
HETATM    6  N9  UNL     1     -34.787   4.493   6.162  1.00 20.00    -0.237 NA
HETATM    7  F11 UNL     1     -35.248   3.153   4.416  1.00 20.00    -0.189 F 
ENDROOT
BRANCH   5   8
HETATM    8  O10 UNL     1     -32.597   6.388   3.992  1.00 20.00    -0.376 OA
BRANCH   8   9
HETATM    9  C8  UNL     1     -32.353   6.826   2.664  1.00 20.00     0.122 A 
HETATM   10  C5  UNL     1     -32.860   8.196   2.315  1.00 20.00     0.034 A 
HETATM   11  C6  UNL     1     -31.390   7.970   2.514  1.00 20.00     0.034 A 
ENDBRANCH   8   9
ENDBRANCH   5   8
TORSDOF 2
ENDMDL
MODEL 7
REMARK VINA RESULT:      -4.1      2.240      2.655
REMARK  2 active torsions:
REMARK  status: ('A' for Active; 'I' for Inactive)
REMARK    1  A    between atoms: C7_7  and  O10_10 
REMARK    2  A    between atoms: C8_8  and  O10_10 
ROOT
HETATM    1  C1  UNL     1     -34.957  13.844  -3.839  1.00 20.00     0.024 C 
HETATM    2  C2  UNL     1     -34.470  13.643  -5.071  1.00 20.00     0.118 C 
HETATM    3  C3  UNL     1     -36.016  14.933  -6.117  1.00 20.00     0.188 C 
HETATM    4  C4  UNL     1     -36.897  15.003  -4.895  1.00 20.00     0.127 C 
HETATM    5  C7  UNL     1     -36.112  14.765  -3.611  1.00 20.00     0.154 C 
HETATM    6  N9  UNL     1     -34.907  14.270  -6.208  1.00 20.00    -0.237 NA
HETATM    7  F11 UNL     1     -36.443  15.566  -7.219  1.00 20.00    -0.189 F 
ENDROOT
BRANCH   5   8
HETATM    8  O10 UNL     1     -35.627  16.012  -3.119  1.00 20.00    -0.376 OA
BRANCH   8   9
HETATM    9  C8  UNL     1     -34.598  15.825  -2.158  1.00 20.00     0.122 A 
HETATM   10  C5  UNL     1     -33.699  17.003  -1.913  1.00 20.00     0.034 A 
HETATM   11  C6  UNL     1     -34.729  16.621  -0.890  1.00 20.00     0.034 A 
ENDBRANCH   8   9
ENDBRANCH   5   8
TORSDOF 2
ENDMDL
MODEL 8
REMARK VINA RESULT:      -4.1      2.357      2.731
REMARK  2 active torsions:
REMARK  status: ('A' for Active; 'I' for Inactive)
REMARK    1  A    between atoms: C7_7  and  O10_10 
REMARK    2  A    between atoms: C8_8  and  O10_10 
ROOT
HETATM    1  C1  UNL     1     -34.236  15.155  -3.138  1.00 20.00     0.024 C 
HETATM    2  C2  UNL     1     -33.104  15.241  -3.849  1.00 20.00     0.118 C 
HETATM    3  C3  UNL     1     -33.798  16.981  -5.131  1.00 20.00     0.188 C 
HETATM    4  C4  UNL     1     -35.234  16.829  -4.695  1.00 20.00     0.127 C 
HETATM    5  C7  UNL     1     -35.350  16.129  -3.346  1.00 20.00     0.154 C 
HETATM    6  N9  UNL     1     -32.816  16.219  -4.765  1.00 20.00    -0.237 NA
HETATM    7  F11 UNL     1     -33.523  17.953  -6.012  1.00 20.00    -0.189 F 
ENDROOT
BRANCH   5   8
HETATM    8  O10 UNL     1     -35.320  17.105  -2.308  1.00 20.00    -0.376 OA
BRANCH   8   9
HETATM    9  C8  UNL     1     -34.558  16.656  -1.196  1.00 20.00     0.122 A 
HETATM   10  C5  UNL     1     -33.665  17.676  -0.550  1.00 20.00     0.034 A 
HETATM   11  C6  UNL     1     -34.927  17.241   0.137  1.00 20.00     0.034 A 
ENDBRANCH   8   9
ENDBRANCH   5   8
TORSDOF 2
ENDMDL
MODEL 9
REMARK VINA RESULT:      -4.0      2.818      4.460
REMARK  2 active torsions:
REMARK  status: ('A' for Active; 'I' for Inactive)
REMARK    1  A    between atoms: C7_7  and  O10_10 
REMARK    2  A    between atoms: C8_8  and  O10_10 
ROOT
HETATM    1  C1  UNL     1     -34.415  17.460  -3.833  1.00 20.00     0.024 C 
HETATM    2  C2  UNL     1     -33.848  18.507  -3.219  1.00 20.00     0.118 C 
HETATM    3  C3  UNL     1     -33.838  17.556  -1.158  1.00 20.00     0.188 C 
HETATM    4  C4  UNL     1     -34.769  16.447  -1.581  1.00 20.00     0.127 C 
HETATM    5  C7  UNL     1     -34.719  16.203  -3.084  1.00 20.00     0.154 C 
HETATM    6  N9  UNL     1     -33.441  18.533  -1.910  1.00 20.00    -0.237 NA
HETATM    7  F11 UNL     1     -33.430  17.563   0.119  1.00 20.00    -0.189 F 
ENDROOT
BRANCH   5   8
HETATM    8  O10 UNL     1     -33.714  15.233  -3.369  1.00 20.00    -0.376 OA
BRANCH   8   9
HETATM    9  C8  UNL     1     -34.259  13.923  -3.428  1.00 20.00     0.122 A 
HETATM   10  C5  UNL     1     -35.553  13.777  -4.176  1.00 20.00     0.034 A 
HETATM   11  C6  UNL     1     -34.276  13.276  -4.784  1.00 20.00     0.034 A 
ENDBRANCH   8   9
ENDBRANCH   5   8
TORSDOF 2
ENDMDL
