MODEL 1
REMARK VINA RESULT:      -5.0      0.000      0.000
REMARK  1 active torsions:
REMARK  status: ('A' for Active; 'I' for Inactive)
REMARK    1  A    between atoms: C4_4  and  C6_6 
ROOT
HETATM    1  C1  UNL     1     -34.065   5.186   4.068  1.00 20.00     0.070 A 
HETATM    2  C2  UNL     1     -33.370   6.962   5.486  1.00 20.00     0.129 A 
HETATM    3  C3  UNL     1     -34.774   5.353   6.332  1.00 20.00     0.170 A 
HETATM    4  C4  UNL     1     -33.332   6.354   4.242  1.00 20.00     0.027 A 
HETATM    5  C5  UNL     1     -34.803   4.669   5.128  1.00 20.00     0.190 A 
HETATM    6  N7  UNL     1     -34.074   6.491   6.539  1.00 20.00    -0.268 NA
HETATM    7  O8  UNL     1     -35.486   3.595   4.994  1.00 20.00    -0.287 OA
ENDROOT
BRANCH   4   8
HETATM    8  C6  UNL     1     -32.533   6.933   3.129  1.00 20.00     0.388 C 
HETATM    9  F9  UNL     1     -31.943   5.953   2.393  1.00 20.00    -0.209 F 
HETATM   10  F10 UNL     1     -31.525   7.711   3.607  1.00 20.00    -0.209 F 
ENDBRANCH   4   8
TORSDOF 1
ENDMDL
MODEL 2
REMARK VINA RESULT:      -4.9      1.779      2.221
REMARK  1 active torsions:
REMARK  status: ('A' for Active; 'I' for Inactive)
REMARK    1  A    between atoms: C4_4  and  C6_6 
ROOT
HETATM    1  C1  UNL     1     -33.322   6.491   5.037  1.00 20.00     0.070 A 
HETATM    2  C2  UNL     1     -33.893   5.687   2.873  1.00 20.00     0.129 A 
HETATM    3  C3  UNL     1     -35.187   5.062   4.665  1.00 20.00     0.170 A 
HETATM    4  C4  UNL     1     -33.053   6.444   3.674  1.00 20.00     0.027 A 
HETATM    5  C5  UNL     1     -34.409   5.790   5.550  1.00 20.00     0.190 A 
HETATM    6  N7  UNL     1     -34.956   4.993   3.334  1.00 20.00    -0.268 NA
HETATM    7  O8  UNL     1     -34.679   5.816   6.800  1.00 20.00    -0.287 OA
ENDROOT
BRANCH   4   8
HETATM    8  C6  UNL     1     -31.899   7.183   3.093  1.00 20.00     0.388 C 
HETATM    9  F9  UNL     1     -31.232   7.876   4.054  1.00 20.00    -0.209 F 
HETATM   10  F10 UNL     1     -32.318   8.101   2.181  1.00 20.00    -0.209 F 
ENDBRANCH   4   8
TORSDOF 1
ENDMDL
MODEL 3
REMARK VINA RESULT:      -4.7     11.873     12.250
REMARK  1 active torsions:
REMARK  status: ('A' for Active; 'I' for Inactive)
REMARK    1  A    between atoms: C4_4  and  C6_6 
ROOT
HETATM    1  C1  UNL     1     -33.921  14.724  -3.010  1.00 20.00     0.070 A 
HETATM    2  C2  UNL     1     -36.185  15.442  -3.120  1.00 20.00     0.129 A 
HETATM    3  C3  UNL     1     -35.533  13.633  -4.376  1.00 20.00     0.170 A 
HETATM    4  C4  UNL     1     -34.912  15.609  -2.600  1.00 20.00     0.027 A 
HETATM    5  C5  UNL     1     -34.230  13.714  -3.915  1.00 20.00     0.190 A 
HETATM    6  N7  UNL     1     -36.523  14.475  -4.000  1.00 20.00    -0.268 NA
HETATM    7  O8  UNL     1     -33.337  12.886  -4.309  1.00 20.00    -0.287 OA
ENDROOT
BRANCH   4   8
HETATM    8  C6  UNL     1     -34.614  16.700  -1.633  1.00 20.00     0.388 C 
HETATM    9  F9  UNL     1     -33.305  17.064  -1.697  1.00 20.00    -0.209 F 
HETATM   10  F10 UNL     1     -34.834  16.291  -0.354  1.00 20.00    -0.209 F 
ENDBRANCH   4   8
TORSDOF 1
ENDMDL
MODEL 4
REMARK VINA RESULT:      -4.6     12.062     12.766
REMARK  1 active torsions:
REMARK  status: ('A' for Active; 'I' for Inactive)
REMARK    1  A    between atoms: C4_4  and  C6_6 
ROOT
HETATM    1  C1  UNL     1     -34.673  14.696  -2.960  1.00 20.00     0.070 A 
HETATM    2  C2  UNL     1     -33.869  16.610  -4.118  1.00 20.00     0.129 A 
HETATM    3  C3  UNL     1     -34.190  14.660  -5.288  1.00 20.00     0.170 A 
HETATM    4  C4  UNL     1     -34.289  16.031  -2.931  1.00 20.00     0.027 A 
HETATM    5  C5  UNL     1     -34.625  13.989  -4.157  1.00 20.00     0.190 A 
HETATM    6  N7  UNL     1     -33.809  15.957  -5.299  1.00 20.00    -0.268 NA
HETATM    7  O8  UNL     1     -34.972  12.759  -4.212  1.00 20.00    -0.287 OA
ENDROOT
BRANCH   4   8
HETATM    8  C6  UNL     1     -34.328  16.815  -1.667  1.00 20.00     0.388 C 
HETATM    9  F9  UNL     1     -33.079  17.206  -1.298  1.00 20.00    -0.209 F 
HETATM   10  F10 UNL     1     -34.811  16.061  -0.642  1.00 20.00    -0.209 F 
ENDBRANCH   4   8
TORSDOF 1
ENDMDL
MODEL 5
REMARK VINA RESULT:      -4.6     11.993     12.415
REMARK  1 active torsions:
REMARK  status: ('A' for Active; 'I' for Inactive)
REMARK    1  A    between atoms: C4_4  and  C6_6 
ROOT
HETATM    1  C1  UNL     1     -35.642  15.315  -3.159  1.00 20.00     0.070 A 
HETATM    2  C2  UNL     1     -33.464  14.454  -3.565  1.00 20.00     0.129 A 
HETATM    3  C3  UNL     1     -35.281  13.296  -4.363  1.00 20.00     0.170 A 
HETATM    4  C4  UNL     1     -34.265  15.439  -3.011  1.00 20.00     0.027 A 
HETATM    5  C5  UNL     1     -36.168  14.226  -3.846  1.00 20.00     0.190 A 
HETATM    6  N7  UNL     1     -33.937  13.382  -4.239  1.00 20.00    -0.268 NA
HETATM    7  O8  UNL     1     -37.431  14.089  -3.997  1.00 20.00    -0.287 OA
ENDROOT
BRANCH   4   8
HETATM    8  C6  UNL     1     -33.672  16.591  -2.281  1.00 20.00     0.388 C 
HETATM    9  F9  UNL     1     -33.991  16.548  -0.960  1.00 20.00    -0.209 F 
HETATM   10  F10 UNL     1     -34.159  17.770  -2.754  1.00 20.00    -0.209 F 
ENDBRANCH   4   8
TORSDOF 1
ENDMDL
MODEL 6
REMARK VINA RESULT:      -4.5      3.298      4.195
REMARK  1 active torsions:
REMARK  status: ('A' for Active; 'I' for Inactive)
REMARK    1  A    between atoms: C4_4  and  C6_6 
ROOT
HETATM    1  C1  UNL     1     -33.250   6.419   4.879  1.00 20.00     0.070 A 
HETATM    2  C2  UNL     1     -34.684   5.069   3.548  1.00 20.00     0.129 A 
HETATM    3  C3  UNL     1     -32.957   6.190   2.530  1.00 20.00     0.170 A 
HETATM    4  C4  UNL     1     -34.346   5.568   4.795  1.00 20.00     0.027 A 
HETATM    5  C5  UNL     1     -32.536   6.741   3.729  1.00 20.00     0.190 A 
HETATM    6  N7  UNL     1     -34.017   5.359   2.409  1.00 20.00    -0.268 NA
HETATM    7  O8  UNL     1     -31.524   7.522   3.778  1.00 20.00    -0.287 OA
ENDROOT
BRANCH   4   8
HETATM    8  C6  UNL     1     -35.129   5.204   6.006  1.00 20.00     0.388 C 
HETATM    9  F9  UNL     1     -34.743   5.947   7.078  1.00 20.00    -0.209 F 
HETATM   10  F10 UNL     1     -34.921   3.904   6.348  1.00 20.00    -0.209 F 
ENDBRANCH   4   8
TORSDOF 1
ENDMDL
MODEL 7
REMARK VINA RESULT:      -4.5      1.996      2.473
REMARK  1 active torsions:
REMARK  status: ('A' for Active; 'I' for Inactive)
REMARK    1  A    between atoms: C4_4  and  C6_6 
ROOT
HETATM    1  C1  UNL     1     -33.536   6.673   5.004  1.00 20.00     0.070 A 
HETATM    2  C2  UNL     1     -34.789   4.709   4.525  1.00 20.00     0.129 A 
HETATM    3  C3  UNL     1     -34.777   5.520   6.674  1.00 20.00     0.170 A 
HETATM    4  C4  UNL     1     -33.960   5.726   4.078  1.00 20.00     0.027 A 
HETATM    5  C5  UNL     1     -33.948   6.575   6.330  1.00 20.00     0.190 A 
HETATM    6  N7  UNL     1     -35.209   4.581   5.802  1.00 20.00    -0.268 NA
HETATM    7  O8  UNL     1     -33.573   7.432   7.202  1.00 20.00    -0.287 OA
ENDROOT
BRANCH   4   8
HETATM    8  C6  UNL     1     -33.538   5.802   2.654  1.00 20.00     0.388 C 
HETATM    9  F9  UNL     1     -34.069   4.779   1.933  1.00 20.00    -0.209 F 
HETATM   10  F10 UNL     1     -32.187   5.689   2.540  1.00 20.00    -0.209 F 
ENDBRANCH   4   8
TORSDOF 1
ENDMDL
MODEL 8
REMARK VINA RESULT:      -4.3     12.751     13.761
REMARK  1 active torsions:
REMARK  status: ('A' for Active; 'I' for Inactive)
REMARK    1  A    between atoms: C4_4  and  C6_6 
ROOT
HETATM    1  C1  UNL     1     -34.652  14.667  -5.650  1.00 20.00     0.070 A 
HETATM    2  C2  UNL     1     -33.120  16.073  -4.496  1.00 20.00     0.129 A 
HETATM    3  C3  UNL     1     -33.403  13.911  -3.773  1.00 20.00     0.170 A 
HETATM    4  C4  UNL     1     -34.038  15.908  -5.520  1.00 20.00     0.027 A 
HETATM    5  C5  UNL     1     -34.334  13.644  -4.763  1.00 20.00     0.190 A 
HETATM    6  N7  UNL     1     -32.785  15.104  -3.616  1.00 20.00    -0.268 NA
HETATM    7  O8  UNL     1     -34.883  12.493  -4.860  1.00 20.00    -0.287 OA
ENDROOT
BRANCH   4   8
HETATM    8  C6  UNL     1     -34.356  17.023  -6.452  1.00 20.00     0.388 C 
HETATM    9  F9  UNL     1     -34.259  16.618  -7.747  1.00 20.00    -0.209 F 
HETATM   10  F10 UNL     1     -33.473  18.047  -6.305  1.00 20.00    -0.209 F 
ENDBRANCH   4   8
TORSDOF 1
ENDMDL
MODEL 9
REMARK VINA RESULT:      -4.3     12.086     13.095
REMARK  1 active torsions:
REMARK  status: ('A' for Active; 'I' for Inactive)
REMARK    1  A    between atoms: C4_4  and  C6_6 
ROOT
HETATM    1  C1  UNL     1     -34.093  15.543  -5.035  1.00 20.00     0.070 A 
HETATM    2  C2  UNL     1     -34.452  13.822  -3.434  1.00 20.00     0.129 A 
HETATM    3  C3  UNL     1     -34.825  13.366  -5.654  1.00 20.00     0.170 A 
HETATM    4  C4  UNL     1     -34.081  15.129  -3.708  1.00 20.00     0.027 A 
HETATM    5  C5  UNL     1     -34.471  14.651  -6.034  1.00 20.00     0.190 A 
HETATM    6  N7  UNL     1     -34.826  12.928  -4.375  1.00 20.00    -0.268 NA
HETATM    7  O8  UNL     1     -34.491  15.006  -7.262  1.00 20.00    -0.287 OA
ENDROOT
BRANCH   4   8
HETATM    8  C6  UNL     1     -33.681  16.058  -2.618  1.00 20.00     0.388 C 
HETATM    9  F9  UNL     1     -34.508  15.933  -1.544  1.00 20.00    -0.209 F 
HETATM   10  F10 UNL     1     -33.775  17.353  -3.023  1.00 20.00    -0.209 F 
ENDBRANCH   4   8
TORSDOF 1
ENDMDL
