MODEL 1
REMARK VINA RESULT:      -4.4      0.000      0.000
REMARK  2 active torsions:
REMARK  status: ('A' for Active; 'I' for Inactive)
REMARK    1  A    between atoms: C7_7  and  O10_10 
REMARK    2  A    between atoms: C8_8  and  O10_10 
ROOT
HETATM    1  C1  UNL     1     -34.869  13.725  -5.066  1.00 20.00     0.155 C 
HETATM    2  C2  UNL     1     -35.232  14.328  -6.433  1.00 20.00     0.084 C 
HETATM    3  C3  UNL     1     -35.108  15.718  -5.769  1.00 20.00     0.047 C 
HETATM    4  C7  UNL     1     -34.457  15.099  -4.505  1.00 20.00     0.191 C 
HETATM    5  O9  UNL     1     -34.904  12.602  -4.607  1.00 20.00    -0.295 OA
ENDROOT
BRANCH   4   6
HETATM    6  O10 UNL     1     -35.063  15.412  -3.266  1.00 20.00    -0.373 OA
BRANCH   6   7
HETATM    7  C8  UNL     1     -34.115  16.010  -2.367  1.00 20.00     0.122 C 
HETATM    8  C5  UNL     1     -33.750  17.485  -2.654  1.00 20.00     0.032 C 
HETATM    9  C4  UNL     1     -33.734  17.711  -1.130  1.00 20.00     0.005 C 
HETATM   10  C6  UNL     1     -34.675  16.496  -1.009  1.00 20.00     0.032 C 
ENDBRANCH   6   7
ENDBRANCH   4   6
TORSDOF 2
ENDMDL
MODEL 2
REMARK VINA RESULT:      -4.4      1.540      1.885
REMARK  2 active torsions:
REMARK  status: ('A' for Active; 'I' for Inactive)
REMARK    1  A    between atoms: C7_7  and  O10_10 
REMARK    2  A    between atoms: C8_8  and  O10_10 
ROOT
HETATM    1  C1  UNL     1     -35.953  14.123  -3.909  1.00 20.00     0.155 C 
HETATM    2  C2  UNL     1     -34.827  13.292  -4.546  1.00 20.00     0.084 C 
HETATM    3  C3  UNL     1     -33.862  14.433  -4.151  1.00 20.00     0.047 C 
HETATM    4  C7  UNL     1     -34.947  15.094  -3.263  1.00 20.00     0.191 C 
HETATM    5  O9  UNL     1     -37.164  14.046  -3.920  1.00 20.00    -0.295 OA
ENDROOT
BRANCH   4   6
HETATM    6  O10 UNL     1     -35.228  16.457  -3.519  1.00 20.00    -0.373 OA
BRANCH   6   7
HETATM    7  C8  UNL     1     -35.066  17.247  -2.330  1.00 20.00     0.122 C 
HETATM    8  C5  UNL     1     -34.631  16.477  -1.061  1.00 20.00     0.032 C 
HETATM    9  C4  UNL     1     -33.745  17.687  -0.708  1.00 20.00     0.005 C 
HETATM   10  C6  UNL     1     -33.740  18.035  -2.210  1.00 20.00     0.032 C 
ENDBRANCH   6   7
ENDBRANCH   4   6
TORSDOF 2
ENDMDL
MODEL 3
REMARK VINA RESULT:      -4.3     11.642     12.619
REMARK  2 active torsions:
REMARK  status: ('A' for Active; 'I' for Inactive)
REMARK    1  A    between atoms: C7_7  and  O10_10 
REMARK    2  A    between atoms: C8_8  and  O10_10 
ROOT
HETATM    1  C1  UNL     1     -34.224   5.969   6.080  1.00 20.00     0.155 C 
HETATM    2  C2  UNL     1     -35.124   4.746   6.320  1.00 20.00     0.084 C 
HETATM    3  C3  UNL     1     -35.041   4.480   4.800  1.00 20.00     0.047 C 
HETATM    4  C7  UNL     1     -33.906   5.524   4.640  1.00 20.00     0.191 C 
HETATM    5  O9  UNL     1     -33.899   6.920   6.760  1.00 20.00    -0.295 OA
ENDROOT
BRANCH   4   6
HETATM    6  O10 UNL     1     -34.112   6.537   3.674  1.00 20.00    -0.373 OA
BRANCH   6   7
HETATM    7  C8  UNL     1     -32.914   6.774   2.916  1.00 20.00     0.122 C 
HETATM    8  C5  UNL     1     -32.891   8.074   2.079  1.00 20.00     0.032 C 
HETATM    9  C4  UNL     1     -31.407   8.221   2.465  1.00 20.00     0.005 C 
HETATM   10  C6  UNL     1     -31.713   7.353   3.700  1.00 20.00     0.032 C 
ENDBRANCH   6   7
ENDBRANCH   4   6
TORSDOF 2
ENDMDL
MODEL 4
REMARK VINA RESULT:      -4.3      1.395      4.382
REMARK  2 active torsions:
REMARK  status: ('A' for Active; 'I' for Inactive)
REMARK    1  A    between atoms: C7_7  and  O10_10 
REMARK    2  A    between atoms: C8_8  and  O10_10 
ROOT
HETATM    1  C1  UNL     1     -33.873  17.166  -2.785  1.00 20.00     0.155 C 
HETATM    2  C2  UNL     1     -33.667  17.629  -1.334  1.00 20.00     0.084 C 
HETATM    3  C3  UNL     1     -34.667  16.527  -0.918  1.00 20.00     0.047 C 
HETATM    4  C7  UNL     1     -34.619  15.896  -2.334  1.00 20.00     0.191 C 
HETATM    5  O9  UNL     1     -33.571  17.628  -3.866  1.00 20.00    -0.295 OA
ENDROOT
BRANCH   4   6
HETATM    6  O10 UNL     1     -35.862  15.706  -2.982  1.00 20.00    -0.373 OA
BRANCH   6   7
HETATM    7  C8  UNL     1     -35.844  14.517  -3.788  1.00 20.00     0.122 C 
HETATM    8  C5  UNL     1     -35.523  14.721  -5.287  1.00 20.00     0.032 C 
HETATM    9  C4  UNL     1     -34.710  13.414  -5.225  1.00 20.00     0.005 C 
HETATM   10  C6  UNL     1     -34.559  13.660  -3.712  1.00 20.00     0.032 C 
ENDBRANCH   6   7
ENDBRANCH   4   6
TORSDOF 2
ENDMDL
MODEL 5
REMARK VINA RESULT:      -4.2      1.945      4.770
REMARK  2 active torsions:
REMARK  status: ('A' for Active; 'I' for Inactive)
REMARK    1  A    between atoms: C7_7  and  O10_10 
REMARK    2  A    between atoms: C8_8  and  O10_10 
ROOT
HETATM    1  C1  UNL     1     -33.595  18.275  -1.622  1.00 20.00     0.155 C 
HETATM    2  C2  UNL     1     -34.044  18.027  -0.172  1.00 20.00     0.084 C 
HETATM    3  C3  UNL     1     -34.629  16.683  -0.662  1.00 20.00     0.047 C 
HETATM    4  C7  UNL     1     -33.906  16.822  -2.027  1.00 20.00     0.191 C 
HETATM    5  O9  UNL     1     -33.169  19.244  -2.215  1.00 20.00    -0.295 OA
ENDROOT
BRANCH   4   6
HETATM    6  O10 UNL     1     -34.716  16.716  -3.182  1.00 20.00    -0.373 OA
BRANCH   6   7
HETATM    7  C8  UNL     1     -34.311  15.598  -3.991  1.00 20.00     0.122 C 
HETATM    8  C5  UNL     1     -32.946  14.966  -3.635  1.00 20.00     0.032 C 
HETATM    9  C4  UNL     1     -33.576  13.592  -3.931  1.00 20.00     0.005 C 
HETATM   10  C6  UNL     1     -34.946  14.233  -3.634  1.00 20.00     0.032 C 
ENDBRANCH   6   7
ENDBRANCH   4   6
TORSDOF 2
ENDMDL
MODEL 6
REMARK VINA RESULT:      -3.9      2.376      4.321
REMARK  2 active torsions:
REMARK  status: ('A' for Active; 'I' for Inactive)
REMARK    1  A    between atoms: C7_7  and  O10_10 
REMARK    2  A    between atoms: C8_8  and  O10_10 
ROOT
HETATM    1  C1  UNL     1     -34.212  13.604  -4.602  1.00 20.00     0.155 C 
HETATM    2  C2  UNL     1     -33.228  13.975  -3.479  1.00 20.00     0.084 C 
HETATM    3  C3  UNL     1     -33.109  15.365  -4.145  1.00 20.00     0.047 C 
HETATM    4  C7  UNL     1     -34.317  15.067  -5.072  1.00 20.00     0.191 C 
HETATM    5  O9  UNL     1     -34.706  12.560  -4.975  1.00 20.00    -0.295 OA
ENDROOT
BRANCH   4   6
HETATM    6  O10 UNL     1     -34.103  15.234  -6.460  1.00 20.00    -0.373 OA
BRANCH   6   7
HETATM    7  C8  UNL     1     -35.302  15.679  -7.115  1.00 20.00     0.122 C 
HETATM    8  C5  UNL     1     -36.092  14.595  -7.886  1.00 20.00     0.032 C 
HETATM    9  C4  UNL     1     -37.383  15.269  -7.383  1.00 20.00     0.005 C 
HETATM   10  C6  UNL     1     -36.552  15.835  -6.216  1.00 20.00     0.032 C 
ENDBRANCH   6   7
ENDBRANCH   4   6
TORSDOF 2
ENDMDL
MODEL 7
REMARK VINA RESULT:      -3.8      1.735      2.389
REMARK  2 active torsions:
REMARK  status: ('A' for Active; 'I' for Inactive)
REMARK    1  A    between atoms: C7_7  and  O10_10 
REMARK    2  A    between atoms: C8_8  and  O10_10 
ROOT
HETATM    1  C1  UNL     1     -33.935  14.918  -3.590  1.00 20.00     0.155 C 
HETATM    2  C2  UNL     1     -35.116  14.277  -4.338  1.00 20.00     0.084 C 
HETATM    3  C3  UNL     1     -36.048  15.047  -3.376  1.00 20.00     0.047 C 
HETATM    4  C7  UNL     1     -34.863  15.899  -2.850  1.00 20.00     0.191 C 
HETATM    5  O9  UNL     1     -32.738  14.720  -3.582  1.00 20.00    -0.295 OA
ENDROOT
BRANCH   4   6
HETATM    6  O10 UNL     1     -34.672  15.915  -1.448  1.00 20.00    -0.373 OA
BRANCH   6   7
HETATM    7  C8  UNL     1     -34.717  17.258  -0.939  1.00 20.00     0.122 C 
HETATM    8  C5  UNL     1     -35.012  17.398   0.573  1.00 20.00     0.032 C 
HETATM    9  C4  UNL     1     -33.994  18.553   0.600  1.00 20.00     0.005 C 
HETATM   10  C6  UNL     1     -33.351  17.925  -0.652  1.00 20.00     0.032 C 
ENDBRANCH   6   7
ENDBRANCH   4   6
TORSDOF 2
ENDMDL
MODEL 8
REMARK VINA RESULT:      -3.8     12.397     14.378
REMARK  2 active torsions:
REMARK  status: ('A' for Active; 'I' for Inactive)
REMARK    1  A    between atoms: C7_7  and  O10_10 
REMARK    2  A    between atoms: C8_8  and  O10_10 
ROOT
HETATM    1  C1  UNL     1     -41.616   6.111  -1.894  1.00 20.00     0.155 C 
HETATM    2  C2  UNL     1     -40.925   6.235  -0.526  1.00 20.00     0.084 C 
HETATM    3  C3  UNL     1     -41.220   4.731  -0.324  1.00 20.00     0.047 C 
HETATM    4  C7  UNL     1     -41.630   4.573  -1.811  1.00 20.00     0.191 C 
HETATM    5  O9  UNL     1     -42.005   6.915  -2.715  1.00 20.00    -0.295 OA
ENDROOT
BRANCH   4   6
HETATM    6  O10 UNL     1     -42.901   4.002  -2.057  1.00 20.00    -0.373 OA
BRANCH   6   7
HETATM    7  C8  UNL     1     -42.819   2.981  -3.064  1.00 20.00     0.122 C 
HETATM    8  C5  UNL     1     -41.406   2.415  -3.339  1.00 20.00     0.032 C 
HETATM    9  C4  UNL     1     -42.061   1.029  -3.495  1.00 20.00     0.005 C 
HETATM   10  C6  UNL     1     -43.217   1.553  -2.621  1.00 20.00     0.032 C 
ENDBRANCH   6   7
ENDBRANCH   4   6
TORSDOF 2
ENDMDL
MODEL 9
REMARK VINA RESULT:      -3.8      1.755      4.868
REMARK  2 active torsions:
REMARK  status: ('A' for Active; 'I' for Inactive)
REMARK    1  A    between atoms: C7_7  and  O10_10 
REMARK    2  A    between atoms: C8_8  and  O10_10 
ROOT
HETATM    1  C1  UNL     1     -33.737  17.736  -2.119  1.00 20.00     0.155 C 
HETATM    2  C2  UNL     1     -34.377  16.921  -0.982  1.00 20.00     0.084 C 
HETATM    3  C3  UNL     1     -34.790  15.888  -2.055  1.00 20.00     0.047 C 
HETATM    4  C7  UNL     1     -33.885  16.570  -3.114  1.00 20.00     0.191 C 
HETATM    5  O9  UNL     1     -33.295  18.863  -2.199  1.00 20.00    -0.295 OA
ENDROOT
BRANCH   4   6
HETATM    6  O10 UNL     1     -34.506  16.937  -4.331  1.00 20.00    -0.373 OA
BRANCH   6   7
HETATM    7  C8  UNL     1     -33.932  16.222  -5.437  1.00 20.00     0.122 C 
HETATM    8  C5  UNL     1     -34.429  14.770  -5.634  1.00 20.00     0.032 C 
HETATM    9  C4  UNL     1     -34.385  15.028  -7.152  1.00 20.00     0.005 C 
HETATM   10  C6  UNL     1     -34.527  16.529  -6.831  1.00 20.00     0.032 C 
ENDBRANCH   6   7
ENDBRANCH   4   6
TORSDOF 2
ENDMDL
