MODEL 1
REMARK VINA RESULT:      -4.9      0.000      0.000
REMARK  1 active torsions:
REMARK  status: ('A' for Active; 'I' for Inactive)
REMARK    1  A    between atoms: C4_4  and  C9_9 
ROOT
HETATM    1  C1  UNL     1     -33.950  14.952  -3.012  1.00 20.00     0.065 A 
HETATM    2  C2  UNL     1     -36.279  15.362  -3.371  1.00 20.00     0.095 A 
HETATM    3  C3  UNL     1     -35.300  13.421  -4.261  1.00 20.00     0.142 A 
HETATM    4  C4  UNL     1     -35.067  15.760  -2.825  1.00 20.00    -0.031 A 
HETATM    5  C5  UNL     1     -34.063  13.770  -3.737  1.00 20.00     0.187 A 
HETATM    6  N10 UNL     1     -36.359  14.218  -4.065  1.00 20.00    -0.371 N 
HETATM    7  O11 UNL     1     -33.046  13.013  -3.920  1.00 20.00    -0.287 OA
HETATM    8  H24 UNL     1     -37.260  13.945  -4.459  1.00 20.00     0.164 HD
ENDROOT
BRANCH   4   9
HETATM    9  C9  UNL     1     -34.964  17.071  -2.028  1.00 20.00    -0.023 C 
HETATM   10  C6  UNL     1     -34.669  16.757  -0.546  1.00 20.00     0.019 C 
HETATM   11  C7  UNL     1     -36.296  17.845  -2.127  1.00 20.00     0.019 C 
HETATM   12  C8  UNL     1     -33.849  18.018  -2.525  1.00 20.00     0.019 C 
ENDBRANCH   4   9
TORSDOF 1
ENDMDL
MODEL 2
REMARK VINA RESULT:      -4.7      1.515      2.280
REMARK  1 active torsions:
REMARK  status: ('A' for Active; 'I' for Inactive)
REMARK    1  A    between atoms: C4_4  and  C9_9 
ROOT
HETATM    1  C1  UNL     1     -35.337  14.932  -3.193  1.00 20.00     0.065 A 
HETATM    2  C2  UNL     1     -33.051  15.636  -3.179  1.00 20.00     0.095 A 
HETATM    3  C3  UNL     1     -33.640  13.652  -4.290  1.00 20.00     0.142 A 
HETATM    4  C4  UNL     1     -34.368  15.853  -2.804  1.00 20.00    -0.031 A 
HETATM    5  C5  UNL     1     -34.973  13.819  -3.943  1.00 20.00     0.187 A 
HETATM    6  N10 UNL     1     -32.729  14.555  -3.902  1.00 20.00    -0.371 N 
HETATM    7  O11 UNL     1     -35.850  12.961  -4.309  1.00 20.00    -0.287 OA
HETATM    8  H24 UNL     1     -31.753  14.413  -4.166  1.00 20.00     0.164 HD
ENDROOT
BRANCH   4   9
HETATM    9  C9  UNL     1     -34.749  17.090  -1.974  1.00 20.00    -0.023 C 
HETATM   10  C6  UNL     1     -36.181  17.539  -2.335  1.00 20.00     0.019 C 
HETATM   11  C7  UNL     1     -33.766  18.242  -2.277  1.00 20.00     0.019 C 
HETATM   12  C8  UNL     1     -34.716  16.853  -0.447  1.00 20.00     0.019 C 
ENDBRANCH   4   9
TORSDOF 1
ENDMDL
MODEL 3
REMARK VINA RESULT:      -4.7      2.892      3.577
REMARK  1 active torsions:
REMARK  status: ('A' for Active; 'I' for Inactive)
REMARK    1  A    between atoms: C4_4  and  C9_9 
ROOT
HETATM    1  C1  UNL     1     -34.906  14.737  -5.234  1.00 20.00     0.065 A 
HETATM    2  C2  UNL     1     -32.980  15.988  -4.565  1.00 20.00     0.095 A 
HETATM    3  C3  UNL     1     -33.270  13.800  -3.762  1.00 20.00     0.142 A 
HETATM    4  C4  UNL     1     -34.162  15.912  -5.287  1.00 20.00    -0.031 A 
HETATM    5  C5  UNL     1     -34.460  13.668  -4.464  1.00 20.00     0.187 A 
HETATM    6  N10 UNL     1     -32.574  14.943  -3.832  1.00 20.00    -0.371 N 
HETATM    7  O11 UNL     1     -35.131  12.580  -4.402  1.00 20.00    -0.287 OA
HETATM    8  H24 UNL     1     -31.702  15.020  -3.307  1.00 20.00     0.164 HD
ENDROOT
BRANCH   4   9
HETATM    9  C9  UNL     1     -34.639  17.106  -6.131  1.00 20.00    -0.023 C 
HETATM   10  C6  UNL     1     -33.708  18.315  -5.894  1.00 20.00     0.019 C 
HETATM   11  C7  UNL     1     -36.078  17.488  -5.724  1.00 20.00     0.019 C 
HETATM   12  C8  UNL     1     -34.653  16.832  -7.651  1.00 20.00     0.019 C 
ENDBRANCH   4   9
TORSDOF 1
ENDMDL
MODEL 4
REMARK VINA RESULT:      -4.5      1.575      2.122
REMARK  1 active torsions:
REMARK  status: ('A' for Active; 'I' for Inactive)
REMARK    1  A    between atoms: C4_4  and  C9_9 
ROOT
HETATM    1  C1  UNL     1     -34.977  14.800  -3.321  1.00 20.00     0.065 A 
HETATM    2  C2  UNL     1     -34.002  16.516  -4.673  1.00 20.00     0.095 A 
HETATM    3  C3  UNL     1     -34.218  14.345  -5.544  1.00 20.00     0.142 A 
HETATM    4  C4  UNL     1     -34.576  16.124  -3.472  1.00 20.00    -0.031 A 
HETATM    5  C5  UNL     1     -34.798  13.898  -4.365  1.00 20.00     0.187 A 
HETATM    6  N10 UNL     1     -33.842  15.626  -5.662  1.00 20.00    -0.371 N 
HETATM    7  O11 UNL     1     -35.160  12.676  -4.244  1.00 20.00    -0.287 OA
HETATM    8  H24 UNL     1     -33.416  15.935  -6.537  1.00 20.00     0.164 HD
ENDROOT
BRANCH   4   9
HETATM    9  C9  UNL     1     -34.763  17.137  -2.331  1.00 20.00    -0.023 C 
HETATM   10  C6  UNL     1     -36.180  17.748  -2.405  1.00 20.00     0.019 C 
HETATM   11  C7  UNL     1     -33.718  18.266  -2.460  1.00 20.00     0.019 C 
HETATM   12  C8  UNL     1     -34.603  16.527  -0.920  1.00 20.00     0.019 C 
ENDBRANCH   4   9
TORSDOF 1
ENDMDL
MODEL 5
REMARK VINA RESULT:      -4.5      2.596      4.260
REMARK  1 active torsions:
REMARK  status: ('A' for Active; 'I' for Inactive)
REMARK    1  A    between atoms: C4_4  and  C9_9 
ROOT
HETATM    1  C1  UNL     1     -34.703  15.907  -1.897  1.00 20.00     0.065 A 
HETATM    2  C2  UNL     1     -33.767  17.172  -3.698  1.00 20.00     0.095 A 
HETATM    3  C3  UNL     1     -33.983  18.166  -1.580  1.00 20.00     0.142 A 
HETATM    4  C4  UNL     1     -34.316  15.987  -3.231  1.00 20.00    -0.031 A 
HETATM    5  C5  UNL     1     -34.537  17.005  -1.060  1.00 20.00     0.187 A 
HETATM    6  N10 UNL     1     -33.619  18.215  -2.869  1.00 20.00    -0.371 N 
HETATM    7  O11 UNL     1     -34.889  16.951   0.171  1.00 20.00    -0.287 OA
HETATM    8  H24 UNL     1     -33.214  19.079  -3.233  1.00 20.00     0.164 HD
ENDROOT
BRANCH   4   9
HETATM    9  C9  UNL     1     -34.491  14.785  -4.173  1.00 20.00    -0.023 C 
HETATM   10  C6  UNL     1     -33.464  13.689  -3.816  1.00 20.00     0.019 C 
HETATM   11  C7  UNL     1     -34.266  15.232  -5.634  1.00 20.00     0.019 C 
HETATM   12  C8  UNL     1     -35.892  14.137  -4.106  1.00 20.00     0.019 C 
ENDBRANCH   4   9
TORSDOF 1
ENDMDL
MODEL 6
REMARK VINA RESULT:      -4.4      2.302      3.979
REMARK  1 active torsions:
REMARK  status: ('A' for Active; 'I' for Inactive)
REMARK    1  A    between atoms: C4_4  and  C9_9 
ROOT
HETATM    1  C1  UNL     1     -33.816  16.267  -2.271  1.00 20.00     0.065 A 
HETATM    2  C2  UNL     1     -36.105  16.100  -2.946  1.00 20.00     0.095 A 
HETATM    3  C3  UNL     1     -35.507  17.630  -1.267  1.00 20.00     0.142 A 
HETATM    4  C4  UNL     1     -34.789  15.682  -3.077  1.00 20.00    -0.031 A 
HETATM    5  C5  UNL     1     -34.175  17.250  -1.355  1.00 20.00     0.187 A 
HETATM    6  N10 UNL     1     -36.422  17.050  -2.056  1.00 20.00    -0.371 N 
HETATM    7  O11 UNL     1     -33.294  17.799  -0.604  1.00 20.00    -0.287 OA
HETATM    8  H24 UNL     1     -37.397  17.342  -1.974  1.00 20.00     0.164 HD
ENDROOT
BRANCH   4   9
HETATM    9  C9  UNL     1     -34.414  14.593  -4.095  1.00 20.00    -0.023 C 
HETATM   10  C6  UNL     1     -34.142  15.237  -5.471  1.00 20.00     0.019 C 
HETATM   11  C7  UNL     1     -35.577  13.585  -4.229  1.00 20.00     0.019 C 
HETATM   12  C8  UNL     1     -33.154  13.785  -3.712  1.00 20.00     0.019 C 
ENDBRANCH   4   9
TORSDOF 1
ENDMDL
MODEL 7
REMARK VINA RESULT:      -4.3      1.842      2.442
REMARK  1 active torsions:
REMARK  status: ('A' for Active; 'I' for Inactive)
REMARK    1  A    between atoms: C4_4  and  C9_9 
ROOT
HETATM    1  C1  UNL     1     -35.176  15.414  -5.102  1.00 20.00     0.065 A 
HETATM    2  C2  UNL     1     -34.293  14.251  -3.208  1.00 20.00     0.095 A 
HETATM    3  C3  UNL     1     -34.608  13.094  -5.227  1.00 20.00     0.142 A 
HETATM    4  C4  UNL     1     -34.772  15.425  -3.770  1.00 20.00    -0.031 A 
HETATM    5  C5  UNL     1     -35.096  14.239  -5.841  1.00 20.00     0.187 A 
HETATM    6  N10 UNL     1     -34.226  13.133  -3.944  1.00 20.00    -0.371 N 
HETATM    7  O11 UNL     1     -35.464  14.210  -7.068  1.00 20.00    -0.287 OA
HETATM    8  H24 UNL     1     -33.872  12.279  -3.510  1.00 20.00     0.164 HD
ENDROOT
BRANCH   4   9
HETATM    9  C9  UNL     1     -34.854  16.713  -2.935  1.00 20.00    -0.023 C 
HETATM   10  C6  UNL     1     -33.828  17.740  -3.460  1.00 20.00     0.019 C 
HETATM   11  C7  UNL     1     -34.540  16.394  -1.457  1.00 20.00     0.019 C 
HETATM   12  C8  UNL     1     -36.240  17.394  -2.969  1.00 20.00     0.019 C 
ENDBRANCH   4   9
TORSDOF 1
ENDMDL
MODEL 8
REMARK VINA RESULT:      -4.2      2.513      3.506
REMARK  1 active torsions:
REMARK  status: ('A' for Active; 'I' for Inactive)
REMARK    1  A    between atoms: C4_4  and  C9_9 
ROOT
HETATM    1  C1  UNL     1     -36.542  14.782  -3.740  1.00 20.00     0.065 A 
HETATM    2  C2  UNL     1     -35.690  15.896  -5.677  1.00 20.00     0.095 A 
HETATM    3  C3  UNL     1     -37.972  15.354  -5.570  1.00 20.00     0.142 A 
HETATM    4  C4  UNL     1     -35.467  15.342  -4.425  1.00 20.00    -0.031 A 
HETATM    5  C5  UNL     1     -37.808  14.785  -4.314  1.00 20.00     0.187 A 
HETATM    6  N10 UNL     1     -36.921  15.886  -6.207  1.00 20.00    -0.371 N 
HETATM    7  O11 UNL     1     -38.808  14.274  -3.699  1.00 20.00    -0.287 OA
HETATM    8  H24 UNL     1     -37.062  16.298  -7.130  1.00 20.00     0.164 HD
ENDROOT
BRANCH   4   9
HETATM    9  C9  UNL     1     -34.059  15.348  -3.809  1.00 20.00    -0.023 C 
HETATM   10  C6  UNL     1     -34.123  15.908  -2.371  1.00 20.00     0.019 C 
HETATM   11  C7  UNL     1     -33.124  16.236  -4.658  1.00 20.00     0.019 C 
HETATM   12  C8  UNL     1     -33.407  13.949  -3.725  1.00 20.00     0.019 C 
ENDBRANCH   4   9
TORSDOF 1
ENDMDL
MODEL 9
REMARK VINA RESULT:      -4.2      2.529      3.611
REMARK  1 active torsions:
REMARK  status: ('A' for Active; 'I' for Inactive)
REMARK    1  A    between atoms: C4_4  and  C9_9 
ROOT
HETATM    1  C1  UNL     1     -36.524  14.801  -3.781  1.00 20.00     0.065 A 
HETATM    2  C2  UNL     1     -35.709  15.985  -5.693  1.00 20.00     0.095 A 
HETATM    3  C3  UNL     1     -37.979  15.392  -5.585  1.00 20.00     0.142 A 
HETATM    4  C4  UNL     1     -35.467  15.402  -4.458  1.00 20.00    -0.031 A 
HETATM    5  C5  UNL     1     -37.794  14.794  -4.347  1.00 20.00     0.187 A 
HETATM    6  N10 UNL     1     -36.943  15.963  -6.214  1.00 20.00    -0.371 N 
HETATM    7  O11 UNL     1     -38.779  14.245  -3.739  1.00 20.00    -0.287 OA
HETATM    8  H24 UNL     1     -37.100  16.397  -7.125  1.00 20.00     0.164 HD
ENDROOT
BRANCH   4   9
HETATM    9  C9  UNL     1     -34.054  15.421  -3.851  1.00 20.00    -0.023 C 
HETATM   10  C6  UNL     1     -33.116  16.264  -4.741  1.00 20.00     0.019 C 
HETATM   11  C7  UNL     1     -33.507  13.979  -3.762  1.00 20.00     0.019 C 
HETATM   12  C8  UNL     1     -33.993  16.019  -2.427  1.00 20.00     0.019 C 
ENDBRANCH   4   9
TORSDOF 1
ENDMDL
