MODEL 1
REMARK VINA RESULT:      -4.6      0.000      0.000
REMARK  0 active torsions:
REMARK  status: ('A' for Active; 'I' for Inactive)
ROOT
HETATM    1  C1  UNL     1     -34.450  16.803  -0.758  1.00 20.00     0.013 C 
HETATM    2  C2  UNL     1     -34.530  16.237  -1.814  1.00 20.00    -0.107 C 
HETATM    3  C3  UNL     1     -36.050  14.961  -3.275  1.00 20.00     0.048 C 
HETATM    4  C4  UNL     1     -33.608  14.382  -3.149  1.00 20.00     0.048 C 
HETATM    5  C5  UNL     1     -36.149  13.975  -4.435  1.00 20.00     0.169 C 
HETATM    6  C6  UNL     1     -33.847  13.430  -4.316  1.00 20.00     0.169 C 
HETATM    7  C7  UNL     1     -34.629  15.539  -3.116  1.00 20.00     0.023 C 
HETATM    8  C8  UNL     1     -34.329  16.561  -4.227  1.00 20.00     0.029 C 
HETATM    9  O9  UNL     1     -35.185  12.934  -4.298  1.00 20.00    -0.391 OA
ENDROOT
TORSDOF 0
ENDMDL
MODEL 2
REMARK VINA RESULT:      -4.5      1.364      1.843
REMARK  0 active torsions:
REMARK  status: ('A' for Active; 'I' for Inactive)
ROOT
HETATM    1  C1  UNL     1     -34.678  16.415  -1.359  1.00 20.00     0.013 C 
HETATM    2  C2  UNL     1     -34.385  15.852  -2.377  1.00 20.00    -0.107 C 
HETATM    3  C3  UNL     1     -34.414  16.042  -4.834  1.00 20.00     0.048 C 
HETATM    4  C4  UNL     1     -34.801  13.825  -3.717  1.00 20.00     0.048 C 
HETATM    5  C5  UNL     1     -34.361  15.284  -6.157  1.00 20.00     0.169 C 
HETATM    6  C6  UNL     1     -34.725  13.195  -5.103  1.00 20.00     0.169 C 
HETATM    7  C7  UNL     1     -34.024  15.156  -3.634  1.00 20.00     0.023 C 
HETATM    8  C8  UNL     1     -32.506  14.900  -3.616  1.00 20.00     0.029 C 
HETATM    9  O9  UNL     1     -35.170  14.112  -6.102  1.00 20.00    -0.391 OA
ENDROOT
TORSDOF 0
ENDMDL
MODEL 3
REMARK VINA RESULT:      -4.3     11.274     12.996
REMARK  0 active torsions:
REMARK  status: ('A' for Active; 'I' for Inactive)
ROOT
HETATM    1  C1  UNL     1     -41.720   2.022  -3.467  1.00 20.00     0.013 C 
HETATM    2  C2  UNL     1     -41.851   2.987  -2.767  1.00 20.00    -0.107 C 
HETATM    3  C3  UNL     1     -42.352   5.401  -2.781  1.00 20.00     0.048 C 
HETATM    4  C4  UNL     1     -40.686   4.448  -1.159  1.00 20.00     0.048 C 
HETATM    5  C5  UNL     1     -42.234   6.716  -2.017  1.00 20.00     0.169 C 
HETATM    6  C6  UNL     1     -40.664   5.818  -0.489  1.00 20.00     0.169 C 
HETATM    7  C7  UNL     1     -42.012   4.179  -1.903  1.00 20.00     0.023 C 
HETATM    8  C8  UNL     1     -43.148   3.893  -0.904  1.00 20.00     0.029 C 
HETATM    9  O9  UNL     1     -40.940   6.849  -1.435  1.00 20.00    -0.391 OA
ENDROOT
TORSDOF 0
ENDMDL
MODEL 4
REMARK VINA RESULT:      -4.2      1.318      2.033
REMARK  0 active torsions:
REMARK  status: ('A' for Active; 'I' for Inactive)
ROOT
HETATM    1  C1  UNL     1     -34.470  16.520  -1.234  1.00 20.00     0.013 C 
HETATM    2  C2  UNL     1     -34.841  15.980  -2.240  1.00 20.00    -0.107 C 
HETATM    3  C3  UNL     1     -34.604  13.943  -3.607  1.00 20.00     0.048 C 
HETATM    4  C4  UNL     1     -34.917  16.186  -4.694  1.00 20.00     0.048 C 
HETATM    5  C5  UNL     1     -34.779  13.328  -4.992  1.00 20.00     0.169 C 
HETATM    6  C6  UNL     1     -35.075  15.442  -6.016  1.00 20.00     0.169 C 
HETATM    7  C7  UNL     1     -35.300  15.313  -3.480  1.00 20.00     0.023 C 
HETATM    8  C8  UNL     1     -36.827  15.143  -3.392  1.00 20.00     0.029 C 
HETATM    9  O9  UNL     1     -34.331  14.225  -6.005  1.00 20.00    -0.391 OA
ENDROOT
TORSDOF 0
ENDMDL
MODEL 5
REMARK VINA RESULT:      -4.0      1.137      2.563
REMARK  0 active torsions:
REMARK  status: ('A' for Active; 'I' for Inactive)
ROOT
HETATM    1  C1  UNL     1     -33.642  18.305  -4.602  1.00 20.00     0.013 C 
HETATM    2  C2  UNL     1     -33.869  17.202  -4.186  1.00 20.00    -0.107 C 
HETATM    3  C3  UNL     1     -32.866  14.989  -3.772  1.00 20.00     0.048 C 
HETATM    4  C4  UNL     1     -35.251  15.192  -4.534  1.00 20.00     0.048 C 
HETATM    5  C5  UNL     1     -33.138  13.503  -3.555  1.00 20.00     0.169 C 
HETATM    6  C6  UNL     1     -35.386  13.695  -4.273  1.00 20.00     0.169 C 
HETATM    7  C7  UNL     1     -34.148  15.841  -3.673  1.00 20.00     0.023 C 
HETATM    8  C8  UNL     1     -34.605  15.969  -2.208  1.00 20.00     0.029 C 
HETATM    9  O9  UNL     1     -34.136  13.034  -4.459  1.00 20.00    -0.391 OA
ENDROOT
TORSDOF 0
ENDMDL
MODEL 6
REMARK VINA RESULT:      -4.0      1.997      2.732
REMARK  0 active torsions:
REMARK  status: ('A' for Active; 'I' for Inactive)
ROOT
HETATM    1  C1  UNL     1     -34.787  17.020  -0.039  1.00 20.00     0.013 C 
HETATM    2  C2  UNL     1     -34.736  16.845  -1.226  1.00 20.00    -0.107 C 
HETATM    3  C3  UNL     1     -33.889  15.333  -2.978  1.00 20.00     0.048 C 
HETATM    4  C4  UNL     1     -33.939  17.818  -3.345  1.00 20.00     0.048 C 
HETATM    5  C5  UNL     1     -33.515  15.196  -4.450  1.00 20.00     0.169 C 
HETATM    6  C6  UNL     1     -33.562  17.538  -4.796  1.00 20.00     0.169 C 
HETATM    7  C7  UNL     1     -34.673  16.629  -2.689  1.00 20.00     0.023 C 
HETATM    8  C8  UNL     1     -36.116  16.523  -3.217  1.00 20.00     0.029 C 
HETATM    9  O9  UNL     1     -32.793  16.341  -4.898  1.00 20.00    -0.391 OA
ENDROOT
TORSDOF 0
ENDMDL
MODEL 7
REMARK VINA RESULT:      -4.0     12.178     13.662
REMARK  0 active torsions:
REMARK  status: ('A' for Active; 'I' for Inactive)
ROOT
HETATM    1  C1  UNL     1     -41.518   2.082  -3.600  1.00 20.00     0.013 C 
HETATM    2  C2  UNL     1     -41.801   3.002  -2.883  1.00 20.00    -0.107 C 
HETATM    3  C3  UNL     1     -40.890   4.586  -1.229  1.00 20.00     0.048 C 
HETATM    4  C4  UNL     1     -43.220   3.679  -0.985  1.00 20.00     0.048 C 
HETATM    5  C5  UNL     1     -41.218   5.536  -0.081  1.00 20.00     0.169 C 
HETATM    6  C6  UNL     1     -43.415   4.681   0.148  1.00 20.00     0.169 C 
HETATM    7  C7  UNL     1     -42.149   4.137  -1.997  1.00 20.00     0.023 C 
HETATM    8  C8  UNL     1     -42.686   5.280  -2.878  1.00 20.00     0.029 C 
HETATM    9  O9  UNL     1     -42.176   4.954   0.800  1.00 20.00    -0.391 OA
ENDROOT
TORSDOF 0
ENDMDL
MODEL 8
REMARK VINA RESULT:      -3.9      2.106      3.879
REMARK  0 active torsions:
REMARK  status: ('A' for Active; 'I' for Inactive)
ROOT
HETATM    1  C1  UNL     1     -35.917  14.524  -7.916  1.00 20.00     0.013 C 
HETATM    2  C2  UNL     1     -35.526  14.668  -6.790  1.00 20.00    -0.107 C 
HETATM    3  C3  UNL     1     -33.913  15.896  -5.388  1.00 20.00     0.048 C 
HETATM    4  C4  UNL     1     -34.489  13.503  -4.882  1.00 20.00     0.048 C 
HETATM    5  C5  UNL     1     -33.157  15.917  -4.063  1.00 20.00     0.169 C 
HETATM    6  C6  UNL     1     -33.701  13.663  -3.587  1.00 20.00     0.169 C 
HETATM    7  C7  UNL     1     -35.043  14.847  -5.401  1.00 20.00     0.023 C 
HETATM    8  C8  UNL     1     -36.231  15.315  -4.541  1.00 20.00     0.029 C 
HETATM    9  O9  UNL     1     -32.656  14.621  -3.744  1.00 20.00    -0.391 OA
ENDROOT
TORSDOF 0
ENDMDL
MODEL 9
REMARK VINA RESULT:      -3.8      1.927      3.370
REMARK  0 active torsions:
REMARK  status: ('A' for Active; 'I' for Inactive)
ROOT
HETATM    1  C1  UNL     1     -38.274  14.776  -3.787  1.00 20.00     0.013 C 
HETATM    2  C2  UNL     1     -37.083  14.795  -3.928  1.00 20.00    -0.107 C 
HETATM    3  C3  UNL     1     -34.965  15.464  -2.859  1.00 20.00     0.048 C 
HETATM    4  C4  UNL     1     -35.262  15.661  -5.346  1.00 20.00     0.048 C 
HETATM    5  C5  UNL     1     -33.495  15.805  -3.081  1.00 20.00     0.169 C 
HETATM    6  C6  UNL     1     -33.775  15.989  -5.425  1.00 20.00     0.169 C 
HETATM    7  C7  UNL     1     -35.612  14.818  -4.101  1.00 20.00     0.023 C 
HETATM    8  C8  UNL     1     -35.130  13.366  -4.273  1.00 20.00     0.029 C 
HETATM    9  O9  UNL     1     -33.335  16.633  -4.230  1.00 20.00    -0.391 OA
ENDROOT
TORSDOF 0
ENDMDL
