MODEL 1
REMARK VINA RESULT:      -4.7      0.000      0.000
REMARK  2 active torsions:
REMARK  status: ('A' for Active; 'I' for Inactive)
REMARK    1  A    between atoms: C1_1  and  C3_3 
REMARK    2  A    between atoms: C1_1  and  C5_5 
ROOT
HETATM    1  C2  UNL     1     -34.381   6.177   5.983  1.00 20.00     0.098 A 
HETATM    2  C3  UNL     1     -33.552   5.399   4.982  1.00 20.00     0.134 A 
HETATM    3  C4  UNL     1     -34.948   4.992   5.293  1.00 20.00     0.255 A 
HETATM    4  F7  UNL     1     -35.199   3.833   5.991  1.00 20.00    -0.205 F 
HETATM    5  F8  UNL     1     -35.956   5.141   4.368  1.00 20.00    -0.205 F 
ENDROOT
BRANCH   2   6
HETATM    6  C1  UNL     1     -33.243   6.006   3.684  1.00 20.00     0.146 C 
HETATM    7  O6  UNL     1     -33.889   5.698   2.685  1.00 20.00    -0.297 OA
BRANCH   6   8
HETATM    8  C5  UNL     1     -32.110   7.004   3.686  1.00 20.00     0.164 C 
HETATM    9 BR9  UNL     1     -32.166   8.087   2.080  1.00 20.00    -0.089 Br
ENDBRANCH   6   8
ENDBRANCH   2   6
TORSDOF 2
ENDMDL
MODEL 2
REMARK VINA RESULT:      -4.6      1.230      1.521
REMARK  2 active torsions:
REMARK  status: ('A' for Active; 'I' for Inactive)
REMARK    1  A    between atoms: C1_1  and  C3_3 
REMARK    2  A    between atoms: C1_1  and  C5_5 
ROOT
HETATM    1  C2  UNL     1     -35.624   5.085   4.478  1.00 20.00     0.098 A 
HETATM    2  C3  UNL     1     -34.541   6.124   4.277  1.00 20.00     0.134 A 
HETATM    3  C4  UNL     1     -34.565   5.276   5.498  1.00 20.00     0.255 A 
HETATM    4  F7  UNL     1     -34.868   5.824   6.724  1.00 20.00    -0.205 F 
HETATM    5  F8  UNL     1     -33.615   4.302   5.707  1.00 20.00    -0.205 F 
ENDROOT
BRANCH   2   6
HETATM    6  C1  UNL     1     -33.515   5.899   3.255  1.00 20.00     0.146 C 
HETATM    7  O6  UNL     1     -33.739   5.152   2.304  1.00 20.00    -0.297 OA
BRANCH   6   8
HETATM    8  C5  UNL     1     -32.215   6.638   3.464  1.00 20.00     0.164 C 
HETATM    9 BR9  UNL     1     -32.066   8.104   2.206  1.00 20.00    -0.089 Br
ENDBRANCH   6   8
ENDBRANCH   2   6
TORSDOF 2
ENDMDL
MODEL 3
REMARK VINA RESULT:      -4.5      1.882      2.047
REMARK  2 active torsions:
REMARK  status: ('A' for Active; 'I' for Inactive)
REMARK    1  A    between atoms: C1_1  and  C3_3 
REMARK    2  A    between atoms: C1_1  and  C5_5 
ROOT
HETATM    1  C2  UNL     1     -35.253   4.530   6.491  1.00 20.00     0.098 A 
HETATM    2  C3  UNL     1     -34.031   5.011   5.736  1.00 20.00     0.134 A 
HETATM    3  C4  UNL     1     -35.182   4.405   5.015  1.00 20.00     0.255 A 
HETATM    4  F7  UNL     1     -35.063   3.166   4.425  1.00 20.00    -0.205 F 
HETATM    5  F8  UNL     1     -35.999   5.166   4.210  1.00 20.00    -0.205 F 
ENDROOT
BRANCH   2   6
HETATM    6  C1  UNL     1     -33.780   6.451   5.625  1.00 20.00     0.146 C 
HETATM    7  O6  UNL     1     -33.580   7.126   6.632  1.00 20.00    -0.297 OA
BRANCH   6   8
HETATM    8  C5  UNL     1     -33.787   7.006   4.220  1.00 20.00     0.164 C 
HETATM    9 BR9  UNL     1     -32.303   6.282   3.206  1.00 20.00    -0.089 Br
ENDBRANCH   6   8
ENDBRANCH   2   6
TORSDOF 2
ENDMDL
MODEL 4
REMARK VINA RESULT:      -4.1     12.307     12.865
REMARK  2 active torsions:
REMARK  status: ('A' for Active; 'I' for Inactive)
REMARK    1  A    between atoms: C1_1  and  C3_3 
REMARK    2  A    between atoms: C1_1  and  C5_5 
ROOT
HETATM    1  C2  UNL     1     -32.717  14.142  -3.459  1.00 20.00     0.098 A 
HETATM    2  C3  UNL     1     -34.223  14.286  -3.530  1.00 20.00     0.134 A 
HETATM    3  C4  UNL     1     -33.335  15.458  -3.754  1.00 20.00     0.255 A 
HETATM    4  F7  UNL     1     -33.278  16.478  -2.832  1.00 20.00    -0.205 F 
HETATM    5  F8  UNL     1     -33.204  16.025  -5.002  1.00 20.00    -0.205 F 
ENDROOT
BRANCH   2   6
HETATM    6  C1  UNL     1     -34.945  13.694  -4.660  1.00 20.00     0.146 C 
HETATM    7  O6  UNL     1     -34.819  12.500  -4.921  1.00 20.00    -0.297 OA
BRANCH   6   8
HETATM    8  C5  UNL     1     -35.822  14.644  -5.441  1.00 20.00     0.164 C 
HETATM    9 BR9  UNL     1     -35.349  14.603  -7.320  1.00 20.00    -0.089 Br
ENDBRANCH   6   8
ENDBRANCH   2   6
TORSDOF 2
ENDMDL
MODEL 5
REMARK VINA RESULT:      -4.0     12.002     12.603
REMARK  2 active torsions:
REMARK  status: ('A' for Active; 'I' for Inactive)
REMARK    1  A    between atoms: C1_1  and  C3_3 
REMARK    2  A    between atoms: C1_1  and  C5_5 
ROOT
HETATM    1  C2  UNL     1     -34.103  13.624  -4.302  1.00 20.00     0.098 A 
HETATM    2  C3  UNL     1     -34.439  14.507  -3.118  1.00 20.00     0.134 A 
HETATM    3  C4  UNL     1     -33.240  14.780  -3.954  1.00 20.00     0.255 A 
HETATM    4  F7  UNL     1     -31.975  14.578  -3.450  1.00 20.00    -0.205 F 
HETATM    5  F8  UNL     1     -33.183  15.879  -4.781  1.00 20.00    -0.205 F 
ENDROOT
BRANCH   2   6
HETATM    6  C1  UNL     1     -35.599  15.399  -3.198  1.00 20.00     0.146 C 
HETATM    7  O6  UNL     1     -36.667  14.990  -3.649  1.00 20.00    -0.297 OA
BRANCH   6   8
HETATM    8  C5  UNL     1     -35.375  16.805  -2.695  1.00 20.00     0.164 C 
HETATM    9 BR9  UNL     1     -34.548  16.767  -0.943  1.00 20.00    -0.089 Br
ENDBRANCH   6   8
ENDBRANCH   2   6
TORSDOF 2
ENDMDL
MODEL 6
REMARK VINA RESULT:      -4.0     12.034     12.544
REMARK  2 active torsions:
REMARK  status: ('A' for Active; 'I' for Inactive)
REMARK    1  A    between atoms: C1_1  and  C3_3 
REMARK    2  A    between atoms: C1_1  and  C5_5 
ROOT
HETATM    1  C2  UNL     1     -34.329  17.525  -2.568  1.00 20.00     0.098 A 
HETATM    2  C3  UNL     1     -33.402  16.327  -2.573  1.00 20.00     0.134 A 
HETATM    3  C4  UNL     1     -34.734  16.256  -1.916  1.00 20.00     0.255 A 
HETATM    4  F7  UNL     1     -34.834  16.178  -0.545  1.00 20.00    -0.205 F 
HETATM    5  F8  UNL     1     -35.751  15.494  -2.446  1.00 20.00    -0.205 F 
ENDROOT
BRANCH   2   6
HETATM    6  C1  UNL     1     -33.172  15.608  -3.829  1.00 20.00     0.146 C 
HETATM    7  O6  UNL     1     -32.877  16.222  -4.852  1.00 20.00    -0.297 OA
BRANCH   6   8
HETATM    8  C5  UNL     1     -33.320  14.107  -3.755  1.00 20.00     0.164 C 
HETATM    9 BR9  UNL     1     -34.715  13.510  -4.960  1.00 20.00    -0.089 Br
ENDBRANCH   6   8
ENDBRANCH   2   6
TORSDOF 2
ENDMDL
MODEL 7
REMARK VINA RESULT:      -4.0     11.964     12.438
REMARK  2 active torsions:
REMARK  status: ('A' for Active; 'I' for Inactive)
REMARK    1  A    between atoms: C1_1  and  C3_3 
REMARK    2  A    between atoms: C1_1  and  C5_5 
ROOT
HETATM    1  C2  UNL     1     -33.771  15.780  -3.404  1.00 20.00     0.098 A 
HETATM    2  C3  UNL     1     -34.551  14.523  -3.076  1.00 20.00     0.134 A 
HETATM    3  C4  UNL     1     -34.885  15.818  -2.426  1.00 20.00     0.255 A 
HETATM    4  F7  UNL     1     -34.632  16.014  -1.087  1.00 20.00    -0.205 F 
HETATM    5  F8  UNL     1     -36.052  16.485  -2.725  1.00 20.00    -0.205 F 
ENDROOT
BRANCH   2   6
HETATM    6  C1  UNL     1     -35.454  13.960  -4.083  1.00 20.00     0.146 C 
HETATM    7  O6  UNL     1     -36.668  13.940  -3.887  1.00 20.00    -0.297 OA
BRANCH   6   8
HETATM    8  C5  UNL     1     -34.788  13.432  -5.331  1.00 20.00     0.164 C 
HETATM    9 BR9  UNL     1     -35.091  14.640  -6.816  1.00 20.00    -0.089 Br
ENDBRANCH   6   8
ENDBRANCH   2   6
TORSDOF 2
ENDMDL
MODEL 8
REMARK VINA RESULT:      -4.0      3.266      4.107
REMARK  2 active torsions:
REMARK  status: ('A' for Active; 'I' for Inactive)
REMARK    1  A    between atoms: C1_1  and  C3_3 
REMARK    2  A    between atoms: C1_1  and  C5_5 
ROOT
HETATM    1  C2  UNL     1     -31.849   7.325   4.058  1.00 20.00     0.098 A 
HETATM    2  C3  UNL     1     -33.280   7.206   3.574  1.00 20.00     0.134 A 
HETATM    3  C4  UNL     1     -32.142   6.919   2.662  1.00 20.00     0.255 A 
HETATM    4  F7  UNL     1     -31.854   7.765   1.615  1.00 20.00    -0.205 F 
HETATM    5  F8  UNL     1     -31.874   5.637   2.239  1.00 20.00    -0.205 F 
ENDROOT
BRANCH   2   6
HETATM    6  C1  UNL     1     -34.112   6.105   4.068  1.00 20.00     0.146 C 
HETATM    7  O6  UNL     1     -34.659   5.337   3.279  1.00 20.00    -0.297 OA
BRANCH   6   8
HETATM    8  C5  UNL     1     -34.230   6.002   5.570  1.00 20.00     0.164 C 
HETATM    9 BR9  UNL     1     -34.975   4.284   6.068  1.00 20.00    -0.089 Br
ENDBRANCH   6   8
ENDBRANCH   2   6
TORSDOF 2
ENDMDL
MODEL 9
REMARK VINA RESULT:      -3.9      9.328      9.980
REMARK  2 active torsions:
REMARK  status: ('A' for Active; 'I' for Inactive)
REMARK    1  A    between atoms: C1_1  and  C3_3 
REMARK    2  A    between atoms: C1_1  and  C5_5 
ROOT
HETATM    1  C2  UNL     1     -42.629   6.471  -0.534  1.00 20.00     0.098 A 
HETATM    2  C3  UNL     1     -41.724   5.989  -1.648  1.00 20.00     0.134 A 
HETATM    3  C4  UNL     1     -41.182   6.795  -0.523  1.00 20.00     0.255 A 
HETATM    4  F7  UNL     1     -40.756   8.088  -0.731  1.00 20.00    -0.205 F 
HETATM    5  F8  UNL     1     -40.349   6.235   0.419  1.00 20.00    -0.205 F 
ENDROOT
BRANCH   2   6
HETATM    6  C1  UNL     1     -41.402   4.562  -1.741  1.00 20.00     0.146 C 
HETATM    7  O6  UNL     1     -40.298   4.149  -1.392  1.00 20.00    -0.297 OA
BRANCH   6   8
HETATM    8  C5  UNL     1     -42.505   3.681  -2.278  1.00 20.00     0.164 C 
HETATM    9 BR9  UNL     1     -41.759   2.261  -3.367  1.00 20.00    -0.089 Br
ENDBRANCH   6   8
ENDBRANCH   2   6
TORSDOF 2
ENDMDL
