MODEL 1
REMARK VINA RESULT:      -6.1      0.000      0.000
REMARK  0 active torsions:
REMARK  status: ('A' for Active; 'I' for Inactive)
ROOT
HETATM    1  C1  UNL     1     -34.542   5.645   6.846  1.00 20.00     0.047 C 
HETATM    2  C2  UNL     1     -34.982   4.493   6.075  1.00 20.00     0.042 C 
HETATM    3  C3  UNL     1     -33.676   5.600   2.800  1.00 20.00     0.010 C 
HETATM    4  C4  UNL     1     -32.578   6.341   2.986  1.00 20.00     0.114 C 
HETATM    5  C5  UNL     1     -33.833   6.627   6.277  1.00 20.00     0.142 C 
HETATM    6  C6  UNL     1     -34.967   4.510   4.731  1.00 20.00     0.107 C 
HETATM    7  C7  UNL     1     -33.550   6.502   4.839  1.00 20.00     0.087 C 
HETATM    8  C8  UNL     1     -34.558   5.740   3.988  1.00 20.00     0.127 C 
HETATM    9  N9  UNL     1     -32.486   6.918   4.225  1.00 20.00    -0.262 NA
HETATM   10  F10 UNL     1     -33.279   7.649   6.949  1.00 20.00    -0.204 F 
HETATM   11  F11 UNL     1     -35.380   3.419   4.051  1.00 20.00    -0.210 F 
ENDROOT
TORSDOF 0
ENDMDL
MODEL 2
REMARK VINA RESULT:      -5.2      1.631      3.967
REMARK  0 active torsions:
REMARK  status: ('A' for Active; 'I' for Inactive)
ROOT
HETATM    1  C1  UNL     1     -33.031   6.477   3.077  1.00 20.00     0.047 C 
HETATM    2  C2  UNL     1     -32.573   7.003   4.353  1.00 20.00     0.042 C 
HETATM    3  C3  UNL     1     -34.911   5.108   6.500  1.00 20.00     0.010 C 
HETATM    4  C4  UNL     1     -35.192   3.934   5.924  1.00 20.00     0.114 C 
HETATM    5  C5  UNL     1     -33.986   5.542   3.017  1.00 20.00     0.142 C 
HETATM    6  C6  UNL     1     -33.283   6.808   5.479  1.00 20.00     0.107 C 
HETATM    7  C7  UNL     1     -34.570   5.099   4.292  1.00 20.00     0.087 C 
HETATM    8  C8  UNL     1     -34.598   6.101   5.439  1.00 20.00     0.127 C 
HETATM    9  N9  UNL     1     -35.004   3.908   4.567  1.00 20.00    -0.262 NA
HETATM   10  F10 UNL     1     -34.363   4.915   1.892  1.00 20.00    -0.204 F 
HETATM   11  F11 UNL     1     -32.822   7.309   6.646  1.00 20.00    -0.210 F 
ENDROOT
TORSDOF 0
ENDMDL
MODEL 3
REMARK VINA RESULT:      -4.9     12.156     12.855
REMARK  0 active torsions:
REMARK  status: ('A' for Active; 'I' for Inactive)
ROOT
HETATM    1  C1  UNL     1     -35.191  13.388  -4.432  1.00 20.00     0.047 C 
HETATM    2  C2  UNL     1     -33.770  13.394  -4.126  1.00 20.00     0.042 C 
HETATM    3  C3  UNL     1     -33.701  16.610  -2.307  1.00 20.00     0.010 C 
HETATM    4  C4  UNL     1     -34.875  16.801  -1.695  1.00 20.00     0.114 C 
HETATM    5  C5  UNL     1     -35.997  14.361  -3.992  1.00 20.00     0.142 C 
HETATM    6  C6  UNL     1     -33.163  14.502  -3.668  1.00 20.00     0.107 C 
HETATM    7  C7  UNL     1     -35.375  15.446  -3.219  1.00 20.00     0.087 C 
HETATM    8  C8  UNL     1     -33.921  15.781  -3.522  1.00 20.00     0.127 C 
HETATM    9  N9  UNL     1     -35.921  16.108  -2.246  1.00 20.00    -0.262 NA
HETATM   10  F10 UNL     1     -37.334  14.353  -4.119  1.00 20.00    -0.204 F 
HETATM   11  F11 UNL     1     -31.842  14.467  -3.391  1.00 20.00    -0.210 F 
ENDROOT
TORSDOF 0
ENDMDL
MODEL 4
REMARK VINA RESULT:      -4.7     12.463     13.579
REMARK  0 active torsions:
REMARK  status: ('A' for Active; 'I' for Inactive)
ROOT
HETATM    1  C1  UNL     1     -33.972  13.509  -3.737  1.00 20.00     0.047 C 
HETATM    2  C2  UNL     1     -35.301  13.576  -4.323  1.00 20.00     0.042 C 
HETATM    3  C3  UNL     1     -35.162  17.112  -5.387  1.00 20.00     0.010 C 
HETATM    4  C4  UNL     1     -33.900  17.437  -5.687  1.00 20.00     0.114 C 
HETATM    5  C5  UNL     1     -33.144  14.558  -3.783  1.00 20.00     0.142 C 
HETATM    6  C6  UNL     1     -35.858  14.755  -4.650  1.00 20.00     0.107 C 
HETATM    7  C7  UNL     1     -33.650  15.784  -4.419  1.00 20.00     0.087 C 
HETATM    8  C8  UNL     1     -35.150  16.038  -4.359  1.00 20.00     0.127 C 
HETATM    9  N9  UNL     1     -32.953  16.645  -5.093  1.00 20.00    -0.262 NA
HETATM   10  F10 UNL     1     -31.861  14.529  -3.387  1.00 20.00    -0.204 F 
HETATM   11  F11 UNL     1     -37.093  14.776  -5.195  1.00 20.00    -0.210 F 
ENDROOT
TORSDOF 0
ENDMDL
MODEL 5
REMARK VINA RESULT:      -4.6     12.906     14.283
REMARK  0 active torsions:
REMARK  status: ('A' for Active; 'I' for Inactive)
ROOT
HETATM    1  C1  UNL     1     -34.705  13.639  -4.714  1.00 20.00     0.047 C 
HETATM    2  C2  UNL     1     -34.322  14.293  -3.473  1.00 20.00     0.042 C 
HETATM    3  C3  UNL     1     -33.481  17.586  -4.926  1.00 20.00     0.010 C 
HETATM    4  C4  UNL     1     -34.248  17.808  -6.000  1.00 20.00     0.114 C 
HETATM    5  C5  UNL     1     -34.716  14.307  -5.873  1.00 20.00     0.142 C 
HETATM    6  C6  UNL     1     -33.682  15.476  -3.481  1.00 20.00     0.107 C 
HETATM    7  C7  UNL     1     -34.293  15.715  -5.837  1.00 20.00     0.087 C 
HETATM    8  C8  UNL     1     -33.287  16.121  -4.768  1.00 20.00     0.127 C 
HETATM    9  N9  UNL     1     -34.745  16.673  -6.586  1.00 20.00    -0.262 NA
HETATM   10  F10 UNL     1     -35.183  13.811  -7.029  1.00 20.00    -0.204 F 
HETATM   11  F11 UNL     1     -33.347  16.054  -2.307  1.00 20.00    -0.210 F 
ENDROOT
TORSDOF 0
ENDMDL
MODEL 6
REMARK VINA RESULT:      -4.6     12.795     14.115
REMARK  0 active torsions:
REMARK  status: ('A' for Active; 'I' for Inactive)
ROOT
HETATM    1  C1  UNL     1     -34.444  14.798  -6.464  1.00 20.00     0.047 C 
HETATM    2  C2  UNL     1     -34.599  13.887  -5.342  1.00 20.00     0.042 C 
HETATM    3  C3  UNL     1     -33.600  16.253  -2.684  1.00 20.00     0.010 C 
HETATM    4  C4  UNL     1     -33.943  17.495  -3.042  1.00 20.00     0.114 C 
HETATM    5  C5  UNL     1     -34.097  16.076  -6.275  1.00 20.00     0.142 C 
HETATM    6  C6  UNL     1     -34.113  14.194  -4.126  1.00 20.00     0.107 C 
HETATM    7  C7  UNL     1     -33.849  16.503  -4.889  1.00 20.00     0.087 C 
HETATM    8  C8  UNL     1     -33.340  15.454  -3.910  1.00 20.00     0.127 C 
HETATM    9  N9  UNL     1     -34.087  17.677  -4.392  1.00 20.00    -0.262 NA
HETATM   10  F10 UNL     1     -34.066  17.005  -7.243  1.00 20.00    -0.204 F 
HETATM   11  F11 UNL     1     -34.281  13.323  -3.108  1.00 20.00    -0.210 F 
ENDROOT
TORSDOF 0
ENDMDL
MODEL 7
REMARK VINA RESULT:      -4.6     12.748     13.852
REMARK  0 active torsions:
REMARK  status: ('A' for Active; 'I' for Inactive)
ROOT
HETATM    1  C1  UNL     1     -34.469  13.887  -3.592  1.00 20.00     0.047 C 
HETATM    2  C2  UNL     1     -34.603  13.485  -4.982  1.00 20.00     0.042 C 
HETATM    3  C3  UNL     1     -34.439  16.868  -6.462  1.00 20.00     0.010 C 
HETATM    4  C4  UNL     1     -33.669  17.650  -5.698  1.00 20.00     0.114 C 
HETATM    5  C5  UNL     1     -34.285  15.170  -3.258  1.00 20.00     0.142 C 
HETATM    6  C6  UNL     1     -34.853  14.389  -5.946  1.00 20.00     0.107 C 
HETATM    7  C7  UNL     1     -34.259  16.149  -4.355  1.00 20.00     0.087 C 
HETATM    8  C8  UNL     1     -35.066  15.827  -5.605  1.00 20.00     0.127 C 
HETATM    9  N9  UNL     1     -33.555  17.238  -4.396  1.00 20.00    -0.262 NA
HETATM   10  F10 UNL     1     -34.020  15.598  -2.014  1.00 20.00    -0.204 F 
HETATM   11  F11 UNL     1     -34.967  13.976  -7.227  1.00 20.00    -0.210 F 
ENDROOT
TORSDOF 0
ENDMDL
MODEL 8
REMARK VINA RESULT:      -4.5     12.946     14.085
REMARK  0 active torsions:
REMARK  status: ('A' for Active; 'I' for Inactive)
ROOT
HETATM    1  C1  UNL     1     -33.094  15.500  -3.837  1.00 20.00     0.047 C 
HETATM    2  C2  UNL     1     -33.496  14.107  -3.943  1.00 20.00     0.042 C 
HETATM    3  C3  UNL     1     -35.476  14.433  -7.047  1.00 20.00     0.010 C 
HETATM    4  C4  UNL     1     -34.956  15.404  -7.807  1.00 20.00     0.114 C 
HETATM    5  C5  UNL     1     -33.434  16.392  -4.774  1.00 20.00     0.142 C 
HETATM    6  C6  UNL     1     -34.461  13.727  -4.799  1.00 20.00     0.107 C 
HETATM    7  C7  UNL     1     -34.257  15.906  -5.892  1.00 20.00     0.087 C 
HETATM    8  C8  UNL     1     -35.194  14.737  -5.620  1.00 20.00     0.127 C 
HETATM    9  N9  UNL     1     -34.216  16.329  -7.118  1.00 20.00    -0.262 NA
HETATM   10  F10 UNL     1     -32.988  17.657  -4.814  1.00 20.00    -0.204 F 
HETATM   11  F11 UNL     1     -34.804  12.422  -4.872  1.00 20.00    -0.210 F 
ENDROOT
TORSDOF 0
ENDMDL
MODEL 9
REMARK VINA RESULT:      -4.5      9.840     10.702
REMARK  0 active torsions:
REMARK  status: ('A' for Active; 'I' for Inactive)
ROOT
HETATM    1  C1  UNL     1     -40.764   4.461  -1.005  1.00 20.00     0.047 C 
HETATM    2  C2  UNL     1     -41.409   3.842  -2.152  1.00 20.00     0.042 C 
HETATM    3  C3  UNL     1     -43.416   6.766  -3.191  1.00 20.00     0.010 C 
HETATM    4  C4  UNL     1     -42.763   7.889  -2.875  1.00 20.00     0.114 C 
HETATM    5  C5  UNL     1     -40.978   5.747  -0.703  1.00 20.00     0.142 C 
HETATM    6  C6  UNL     1     -42.457   4.426  -2.759  1.00 20.00     0.107 C 
HETATM    7  C7  UNL     1     -41.915   6.489  -1.561  1.00 20.00     0.087 C 
HETATM    8  C8  UNL     1     -43.031   5.699  -2.230  1.00 20.00     0.127 C 
HETATM    9  N9  UNL     1     -41.847   7.748  -1.866  1.00 20.00    -0.262 NA
HETATM   10  F10 UNL     1     -40.319   6.421   0.253  1.00 20.00    -0.204 F 
HETATM   11  F11 UNL     1     -43.026   3.821  -3.824  1.00 20.00    -0.210 F 
ENDROOT
TORSDOF 0
ENDMDL
