MODEL 1
REMARK VINA RESULT:      -4.2      0.000      0.000
REMARK  1 active torsions:
REMARK  status: ('A' for Active; 'I' for Inactive)
REMARK    1  A    between atoms: C1_1  and  C4_4 
ROOT
HETATM    1  C2  UNL     1     -34.056  13.809  -3.545  1.00 20.00     0.038 C 
HETATM    2  C3  UNL     1     -34.571  13.318  -4.885  1.00 20.00     0.169 C 
HETATM    3  C4  UNL     1     -35.699  15.300  -4.367  1.00 20.00     0.190 C 
HETATM    4  C5  UNL     1     -34.388  15.296  -3.574  1.00 20.00    -0.013 C 
HETATM    5  C6  UNL     1     -33.308  16.071  -4.356  1.00 20.00     0.018 C 
HETATM    6  C7  UNL     1     -34.490  15.897  -2.170  1.00 20.00     0.018 C 
HETATM    7  O9  UNL     1     -35.653  14.179  -5.264  1.00 20.00    -0.378 OA
ENDROOT
BRANCH   3   8
HETATM    8  C1  UNL     1     -36.933  15.066  -3.551  1.00 20.00     0.263 C 
HETATM    9  O8  UNL     1     -37.735  14.166  -3.780  1.00 20.00    -0.304 OA
ENDBRANCH   3   8
TORSDOF 1
ENDMDL
MODEL 2
REMARK VINA RESULT:      -4.0      1.551      2.554
REMARK  1 active torsions:
REMARK  status: ('A' for Active; 'I' for Inactive)
REMARK    1  A    between atoms: C1_1  and  C4_4 
ROOT
HETATM    1  C2  UNL     1     -33.313  16.479  -4.926  1.00 20.00     0.038 C 
HETATM    2  C3  UNL     1     -34.706  16.918  -5.333  1.00 20.00     0.169 C 
HETATM    3  C4  UNL     1     -34.906  14.910  -4.151  1.00 20.00     0.190 C 
HETATM    4  C5  UNL     1     -33.576  15.553  -3.743  1.00 20.00    -0.013 C 
HETATM    5  C6  UNL     1     -33.774  16.375  -2.454  1.00 20.00     0.018 C 
HETATM    6  C7  UNL     1     -32.432  14.563  -3.513  1.00 20.00     0.018 C 
HETATM    7  O9  UNL     1     -35.608  15.867  -4.960  1.00 20.00    -0.378 OA
ENDROOT
BRANCH   3   8
HETATM    8  C1  UNL     1     -34.782  13.706  -5.034  1.00 20.00     0.263 C 
HETATM    9  O8  UNL     1     -34.966  12.558  -4.641  1.00 20.00    -0.304 OA
ENDBRANCH   3   8
TORSDOF 1
ENDMDL
MODEL 3
REMARK VINA RESULT:      -4.0      1.347      1.865
REMARK  1 active torsions:
REMARK  status: ('A' for Active; 'I' for Inactive)
REMARK    1  A    between atoms: C1_1  and  C4_4 
ROOT
HETATM    1  C2  UNL     1     -33.765  14.972  -4.314  1.00 20.00     0.038 C 
HETATM    2  C3  UNL     1     -33.772  13.477  -4.059  1.00 20.00     0.169 C 
HETATM    3  C4  UNL     1     -35.883  14.075  -4.868  1.00 20.00     0.190 C 
HETATM    4  C5  UNL     1     -34.894  15.154  -5.322  1.00 20.00    -0.013 C 
HETATM    5  C6  UNL     1     -34.397  14.834  -6.746  1.00 20.00     0.018 C 
HETATM    6  C7  UNL     1     -35.454  16.578  -5.316  1.00 20.00     0.018 C 
HETATM    7  O9  UNL     1     -35.113  13.016  -4.279  1.00 20.00    -0.378 OA
ENDROOT
BRANCH   3   8
HETATM    8  C1  UNL     1     -36.821  14.496  -3.779  1.00 20.00     0.263 C 
HETATM    9  O8  UNL     1     -38.011  14.197  -3.759  1.00 20.00    -0.304 OA
ENDBRANCH   3   8
TORSDOF 1
ENDMDL
MODEL 4
REMARK VINA RESULT:      -3.9      1.597      2.899
REMARK  1 active torsions:
REMARK  status: ('A' for Active; 'I' for Inactive)
REMARK    1  A    between atoms: C1_1  and  C4_4 
ROOT
HETATM    1  C2  UNL     1     -35.739  16.165  -4.761  1.00 20.00     0.038 C 
HETATM    2  C3  UNL     1     -35.696  15.824  -3.284  1.00 20.00     0.169 C 
HETATM    3  C4  UNL     1     -33.926  14.709  -4.329  1.00 20.00     0.190 C 
HETATM    4  C5  UNL     1     -34.310  15.896  -5.219  1.00 20.00    -0.013 C 
HETATM    5  C6  UNL     1     -33.407  17.102  -4.891  1.00 20.00     0.018 C 
HETATM    6  C7  UNL     1     -34.222  15.622  -6.722  1.00 20.00     0.018 C 
HETATM    7  O9  UNL     1     -34.670  14.837  -3.107  1.00 20.00    -0.378 OA
ENDROOT
BRANCH   3   8
HETATM    8  C1  UNL     1     -34.322  13.366  -4.860  1.00 20.00     0.263 C 
HETATM    9  O8  UNL     1     -35.133  12.631  -4.305  1.00 20.00    -0.304 OA
ENDBRANCH   3   8
TORSDOF 1
ENDMDL
MODEL 5
REMARK VINA RESULT:      -3.9      1.281      2.625
REMARK  1 active torsions:
REMARK  status: ('A' for Active; 'I' for Inactive)
REMARK    1  A    between atoms: C1_1  and  C4_4 
ROOT
HETATM    1  C2  UNL     1     -35.162  16.855  -4.155  1.00 20.00     0.038 C 
HETATM    2  C3  UNL     1     -36.655  16.610  -4.056  1.00 20.00     0.169 C 
HETATM    3  C4  UNL     1     -35.563  14.634  -3.444  1.00 20.00     0.190 C 
HETATM    4  C5  UNL     1     -34.576  15.788  -3.237  1.00 20.00    -0.013 C 
HETATM    5  C6  UNL     1     -34.631  16.257  -1.769  1.00 20.00     0.018 C 
HETATM    6  C7  UNL     1     -33.123  15.456  -3.583  1.00 20.00     0.018 C 
HETATM    7  O9  UNL     1     -36.837  15.218  -3.758  1.00 20.00    -0.378 OA
ENDROOT
BRANCH   3   8
HETATM    8  C1  UNL     1     -35.266  13.751  -4.617  1.00 20.00     0.263 C 
HETATM    9  O8  UNL     1     -34.993  12.560  -4.514  1.00 20.00    -0.304 OA
ENDBRANCH   3   8
TORSDOF 1
ENDMDL
MODEL 6
REMARK VINA RESULT:      -3.8      1.466      2.238
REMARK  1 active torsions:
REMARK  status: ('A' for Active; 'I' for Inactive)
REMARK    1  A    between atoms: C1_1  and  C4_4 
ROOT
HETATM    1  C2  UNL     1     -33.359  16.361  -5.060  1.00 20.00     0.038 C 
HETATM    2  C3  UNL     1     -34.081  15.865  -6.297  1.00 20.00     0.169 C 
HETATM    3  C4  UNL     1     -35.200  15.018  -4.426  1.00 20.00     0.190 C 
HETATM    4  C5  UNL     1     -34.425  16.260  -3.974  1.00 20.00    -0.013 C 
HETATM    5  C6  UNL     1     -35.350  17.492  -4.018  1.00 20.00     0.018 C 
HETATM    6  C7  UNL     1     -33.820  16.160  -2.572  1.00 20.00     0.018 C 
HETATM    7  O9  UNL     1     -35.096  14.952  -5.857  1.00 20.00    -0.378 OA
ENDROOT
BRANCH   3   8
HETATM    8  C1  UNL     1     -34.635  13.713  -3.957  1.00 20.00     0.263 C 
HETATM    9  O8  UNL     1     -35.018  12.623  -4.368  1.00 20.00    -0.304 OA
ENDBRANCH   3   8
TORSDOF 1
ENDMDL
MODEL 7
REMARK VINA RESULT:      -3.7      1.387      2.487
REMARK  1 active torsions:
REMARK  status: ('A' for Active; 'I' for Inactive)
REMARK    1  A    between atoms: C1_1  and  C4_4 
ROOT
HETATM    1  C2  UNL     1     -33.854  15.986  -4.441  1.00 20.00     0.038 C 
HETATM    2  C3  UNL     1     -34.030  16.527  -3.036  1.00 20.00     0.169 C 
HETATM    3  C4  UNL     1     -35.425  14.664  -3.266  1.00 20.00     0.190 C 
HETATM    4  C5  UNL     1     -34.313  14.538  -4.313  1.00 20.00    -0.013 C 
HETATM    5  C6  UNL     1     -33.173  13.663  -3.755  1.00 20.00     0.018 C 
HETATM    6  C7  UNL     1     -34.761  13.950  -5.653  1.00 20.00     0.018 C 
HETATM    7  O9  UNL     1     -35.087  15.776  -2.422  1.00 20.00    -0.378 OA
ENDROOT
BRANCH   3   8
HETATM    8  C1  UNL     1     -36.773  15.017  -3.815  1.00 20.00     0.263 C 
HETATM    9  O8  UNL     1     -37.756  14.289  -3.713  1.00 20.00    -0.304 OA
ENDBRANCH   3   8
TORSDOF 1
ENDMDL
MODEL 8
REMARK VINA RESULT:      -3.7      2.097      2.855
REMARK  1 active torsions:
REMARK  status: ('A' for Active; 'I' for Inactive)
REMARK    1  A    between atoms: C1_1  and  C4_4 
ROOT
HETATM    1  C2  UNL     1     -33.962  14.217  -3.386  1.00 20.00     0.038 C 
HETATM    2  C3  UNL     1     -32.599  14.789  -3.722  1.00 20.00     0.169 C 
HETATM    3  C4  UNL     1     -34.208  16.373  -4.328  1.00 20.00     0.190 C 
HETATM    4  C5  UNL     1     -34.838  15.460  -3.271  1.00 20.00    -0.013 C 
HETATM    5  C6  UNL     1     -34.680  16.098  -1.877  1.00 20.00     0.018 C 
HETATM    6  C7  UNL     1     -36.320  15.150  -3.495  1.00 20.00     0.018 C 
HETATM    7  O9  UNL     1     -32.817  16.027  -4.412  1.00 20.00    -0.378 OA
ENDROOT
BRANCH   3   8
HETATM    8  C1  UNL     1     -34.720  16.172  -5.722  1.00 20.00     0.263 C 
HETATM    9  O8  UNL     1     -33.997  15.894  -6.674  1.00 20.00    -0.304 OA
ENDBRANCH   3   8
TORSDOF 1
ENDMDL
MODEL 9
REMARK VINA RESULT:      -3.7      1.707      2.935
REMARK  1 active torsions:
REMARK  status: ('A' for Active; 'I' for Inactive)
REMARK    1  A    between atoms: C1_1  and  C4_4 
ROOT
HETATM    1  C2  UNL     1     -35.488  15.389  -5.502  1.00 20.00     0.038 C 
HETATM    2  C3  UNL     1     -35.307  14.094  -6.269  1.00 20.00     0.169 C 
HETATM    3  C4  UNL     1     -35.188  13.597  -3.987  1.00 20.00     0.190 C 
HETATM    4  C5  UNL     1     -35.957  14.915  -4.131  1.00 20.00    -0.013 C 
HETATM    5  C6  UNL     1     -37.472  14.630  -4.153  1.00 20.00     0.018 C 
HETATM    6  C7  UNL     1     -35.676  15.942  -3.033  1.00 20.00     0.018 C 
HETATM    7  O9  UNL     1     -34.994  13.074  -5.310  1.00 20.00    -0.378 OA
ENDROOT
BRANCH   3   8
HETATM    8  C1  UNL     1     -33.801  13.731  -3.438  1.00 20.00     0.263 C 
HETATM    9  O8  UNL     1     -32.869  13.008  -3.773  1.00 20.00    -0.304 OA
ENDBRANCH   3   8
TORSDOF 1
ENDMDL
