MODEL 1
REMARK VINA RESULT:      -4.4      0.000      0.000
REMARK  0 active torsions:
REMARK  status: ('A' for Active; 'I' for Inactive)
ROOT
HETATM    1  C1  UNL     1     -33.736   5.711   2.719  1.00 20.00     0.006 A 
HETATM    2  C2  UNL     1     -34.271   5.399   3.896  1.00 20.00    -0.008 A 
HETATM    3  C3  UNL     1     -33.530   6.253   4.824  1.00 20.00     0.038 A 
HETATM    4  C4  UNL     1     -32.698   6.772   2.869  1.00 20.00     0.177 A 
HETATM    5  C5  UNL     1     -35.307   4.447   4.348  1.00 20.00     0.310 C 
HETATM    6  C6  UNL     1     -33.793   6.126   6.299  1.00 20.00     0.089 C 
HETATM    7  C7  UNL     1     -35.090   5.361   6.580  1.00 20.00     0.276 C 
HETATM    8  N8  UNL     1     -32.634   7.056   4.324  1.00 20.00    -0.290 NA
HETATM    9  N9  UNL     1     -35.195   4.132   5.781  1.00 20.00     0.087 N 
HETATM   10  H19 UNL     1     -36.023   3.612   6.071  1.00 20.00     0.316 HD
ENDROOT
TORSDOF 0
ENDMDL
MODEL 2
REMARK VINA RESULT:      -4.3     12.064     12.667
REMARK  0 active torsions:
REMARK  status: ('A' for Active; 'I' for Inactive)
ROOT
HETATM    1  C1  UNL     1     -33.979  16.515  -2.340  1.00 20.00     0.006 A 
HETATM    2  C2  UNL     1     -33.913  15.427  -3.103  1.00 20.00    -0.008 A 
HETATM    3  C3  UNL     1     -35.321  15.140  -3.379  1.00 20.00     0.038 A 
HETATM    4  C4  UNL     1     -35.394  16.950  -2.155  1.00 20.00     0.177 A 
HETATM    5  C5  UNL     1     -32.816  14.574  -3.607  1.00 20.00     0.310 C 
HETATM    6  C6  UNL     1     -35.672  13.905  -4.160  1.00 20.00     0.089 C 
HETATM    7  C7  UNL     1     -34.452  13.319  -4.876  1.00 20.00     0.276 C 
HETATM    8  N8  UNL     1     -36.212  15.952  -2.886  1.00 20.00    -0.290 NA
HETATM    9  N9  UNL     1     -33.278  13.233  -3.995  1.00 20.00     0.087 N 
HETATM   10  H19 UNL     1     -32.525  12.753  -4.485  1.00 20.00     0.316 HD
ENDROOT
TORSDOF 0
ENDMDL
MODEL 3
REMARK VINA RESULT:      -4.1      1.191      2.063
REMARK  0 active torsions:
REMARK  status: ('A' for Active; 'I' for Inactive)
ROOT
HETATM    1  C1  UNL     1     -32.552   7.088   4.052  1.00 20.00     0.006 A 
HETATM    2  C2  UNL     1     -33.342   6.383   4.858  1.00 20.00    -0.008 A 
HETATM    3  C3  UNL     1     -34.047   5.500   3.928  1.00 20.00     0.038 A 
HETATM    4  C4  UNL     1     -32.709   6.650   2.635  1.00 20.00     0.177 A 
HETATM    5  C5  UNL     1     -33.606   6.377   6.312  1.00 20.00     0.310 C 
HETATM    6  C6  UNL     1     -35.117   4.588   4.460  1.00 20.00     0.089 C 
HETATM    7  C7  UNL     1     -35.046   4.459   5.984  1.00 20.00     0.276 C 
HETATM    8  N8  UNL     1     -33.744   5.587   2.664  1.00 20.00    -0.290 NA
HETATM    9  N9  UNL     1     -34.899   5.762   6.647  1.00 20.00     0.087 N 
HETATM   10  H19 UNL     1     -34.953   5.634   7.657  1.00 20.00     0.316 HD
ENDROOT
TORSDOF 0
ENDMDL
MODEL 4
REMARK VINA RESULT:      -4.0     12.104     13.758
REMARK  0 active torsions:
REMARK  status: ('A' for Active; 'I' for Inactive)
ROOT
HETATM    1  C1  UNL     1     -34.521  16.282  -6.664  1.00 20.00     0.006 A 
HETATM    2  C2  UNL     1     -34.356  15.317  -5.763  1.00 20.00    -0.008 A 
HETATM    3  C3  UNL     1     -33.516  15.958  -4.752  1.00 20.00     0.038 A 
HETATM    4  C4  UNL     1     -33.837  17.535  -6.233  1.00 20.00     0.177 A 
HETATM    5  C5  UNL     1     -34.790  13.908  -5.657  1.00 20.00     0.310 C 
HETATM    6  C6  UNL     1     -33.029  15.144  -3.586  1.00 20.00     0.089 C 
HETATM    7  C7  UNL     1     -33.810  13.835  -3.444  1.00 20.00     0.276 C 
HETATM    8  N8  UNL     1     -33.186  17.204  -4.942  1.00 20.00    -0.290 NA
HETATM    9  N9  UNL     1     -33.956  13.132  -4.726  1.00 20.00     0.087 N 
HETATM   10  H19 UNL     1     -34.396  12.226  -4.565  1.00 20.00     0.316 HD
ENDROOT
TORSDOF 0
ENDMDL
MODEL 5
REMARK VINA RESULT:      -4.0     12.117     13.764
REMARK  0 active torsions:
REMARK  status: ('A' for Active; 'I' for Inactive)
ROOT
HETATM    1  C1  UNL     1     -35.353  14.387  -7.094  1.00 20.00     0.006 A 
HETATM    2  C2  UNL     1     -34.796  14.285  -5.891  1.00 20.00    -0.008 A 
HETATM    3  C3  UNL     1     -34.126  15.576  -5.735  1.00 20.00     0.038 A 
HETATM    4  C4  UNL     1     -35.085  15.726  -7.694  1.00 20.00     0.177 A 
HETATM    5  C5  UNL     1     -34.727  13.226  -4.862  1.00 20.00     0.310 C 
HETATM    6  C6  UNL     1     -33.292  15.821  -4.508  1.00 20.00     0.089 C 
HETATM    7  C7  UNL     1     -33.579  14.790  -3.412  1.00 20.00     0.276 C 
HETATM    8  N8  UNL     1     -34.246  16.440  -6.702  1.00 20.00    -0.290 NA
HETATM    9  N9  UNL     1     -33.601  13.416  -3.934  1.00 20.00     0.087 N 
HETATM   10  H19 UNL     1     -33.700  12.763  -3.157  1.00 20.00     0.316 HD
ENDROOT
TORSDOF 0
ENDMDL
MODEL 6
REMARK VINA RESULT:      -3.9      9.966     10.994
REMARK  0 active torsions:
REMARK  status: ('A' for Active; 'I' for Inactive)
ROOT
HETATM    1  C1  UNL     1     -41.558   3.880  -2.026  1.00 20.00     0.006 A 
HETATM    2  C2  UNL     1     -41.640   5.182  -1.769  1.00 20.00    -0.008 A 
HETATM    3  C3  UNL     1     -42.684   5.629  -2.690  1.00 20.00     0.038 A 
HETATM    4  C4  UNL     1     -42.552   3.478  -3.063  1.00 20.00     0.177 A 
HETATM    5  C5  UNL     1     -40.927   6.111  -0.866  1.00 20.00     0.310 C 
HETATM    6  C6  UNL     1     -43.014   7.094  -2.762  1.00 20.00     0.089 C 
HETATM    7  C7  UNL     1     -42.445   7.863  -1.566  1.00 20.00     0.276 C 
HETATM    8  N8  UNL     1     -43.248   4.731  -3.446  1.00 20.00    -0.290 NA
HETATM    9  N9  UNL     1     -41.043   7.513  -1.295  1.00 20.00     0.087 N 
HETATM   10  H19 UNL     1     -40.682   8.116  -0.557  1.00 20.00     0.316 HD
ENDROOT
TORSDOF 0
ENDMDL
MODEL 7
REMARK VINA RESULT:      -3.9     12.211     13.996
REMARK  0 active torsions:
REMARK  status: ('A' for Active; 'I' for Inactive)
ROOT
HETATM    1  C1  UNL     1     -34.377  16.355  -6.905  1.00 20.00     0.006 A 
HETATM    2  C2  UNL     1     -34.029  15.718  -5.791  1.00 20.00    -0.008 A 
HETATM    3  C3  UNL     1     -34.678  14.416  -5.947  1.00 20.00     0.038 A 
HETATM    4  C4  UNL     1     -35.201  15.478  -7.786  1.00 20.00     0.177 A 
HETATM    5  C5  UNL     1     -33.243  16.074  -4.590  1.00 20.00     0.310 C 
HETATM    6  C6  UNL     1     -34.589  13.419  -4.826  1.00 20.00     0.089 C 
HETATM    7  C7  UNL     1     -33.497  13.793  -3.819  1.00 20.00     0.276 C 
HETATM    8  N8  UNL     1     -35.350  14.203  -7.043  1.00 20.00    -0.290 NA
HETATM    9  N9  UNL     1     -33.553  15.211  -3.439  1.00 20.00     0.087 N 
HETATM   10  H19 UNL     1     -32.873  15.389  -2.701  1.00 20.00     0.316 HD
ENDROOT
TORSDOF 0
ENDMDL
MODEL 8
REMARK VINA RESULT:      -3.8      9.628     10.365
REMARK  0 active torsions:
REMARK  status: ('A' for Active; 'I' for Inactive)
ROOT
HETATM    1  C1  UNL     1     -43.102   5.804  -3.388  1.00 20.00     0.006 A 
HETATM    2  C2  UNL     1     -42.266   5.435  -2.422  1.00 20.00    -0.008 A 
HETATM    3  C3  UNL     1     -41.855   6.714  -1.843  1.00 20.00     0.038 A 
HETATM    4  C4  UNL     1     -43.263   7.286  -3.416  1.00 20.00     0.177 A 
HETATM    5  C5  UNL     1     -41.740   4.140  -1.939  1.00 20.00     0.310 C 
HETATM    6  C6  UNL     1     -40.821   6.722  -0.752  1.00 20.00     0.089 C 
HETATM    7  C7  UNL     1     -40.623   5.328  -0.148  1.00 20.00     0.276 C 
HETATM    8  N8  UNL     1     -42.375   7.798  -2.344  1.00 20.00    -0.290 NA
HETATM    9  N9  UNL     1     -40.489   4.290  -1.179  1.00 20.00     0.087 N 
HETATM   10  H19 UNL     1     -40.265   3.400  -0.734  1.00 20.00     0.316 HD
ENDROOT
TORSDOF 0
ENDMDL
MODEL 9
REMARK VINA RESULT:      -3.8     12.024     12.631
REMARK  0 active torsions:
REMARK  status: ('A' for Active; 'I' for Inactive)
ROOT
HETATM    1  C1  UNL     1     -35.614  13.757  -4.420  1.00 20.00     0.006 A 
HETATM    2  C2  UNL     1     -35.628  14.881  -3.709  1.00 20.00    -0.008 A 
HETATM    3  C3  UNL     1     -34.222  15.048  -3.340  1.00 20.00     0.038 A 
HETATM    4  C4  UNL     1     -34.227  13.223  -4.545  1.00 20.00     0.177 A 
HETATM    5  C5  UNL     1     -36.680  15.823  -3.270  1.00 20.00     0.310 C 
HETATM    6  C6  UNL     1     -33.835  16.187  -2.439  1.00 20.00     0.089 C 
HETATM    7  C7  UNL     1     -34.947  17.236  -2.341  1.00 20.00     0.276 C 
HETATM    8  N8  UNL     1     -33.374  14.160  -3.775  1.00 20.00    -0.290 NA
HETATM    9  N9  UNL     1     -36.266  16.629  -2.112  1.00 20.00     0.087 N 
HETATM   10  H19 UNL     1     -36.953  17.366  -1.959  1.00 20.00     0.316 HD
ENDROOT
TORSDOF 0
ENDMDL
