MODEL 1
REMARK VINA RESULT:      -3.9      0.000      0.000
REMARK  0 active torsions:
REMARK  status: ('A' for Active; 'I' for Inactive)
ROOT
HETATM    1  C1  UNL     1     -33.218   6.756   3.957  1.00 20.00     0.050 C 
HETATM    2  C2  UNL     1     -33.640   5.751   2.906  1.00 20.00     0.171 C 
HETATM    3  C3  UNL     1     -33.565   6.015   5.227  1.00 20.00     0.128 C 
HETATM    4  C4  UNL     1     -34.877   5.353   4.839  1.00 20.00     0.235 C 
HETATM    5  O5  UNL     1     -34.778   5.053   3.437  1.00 20.00    -0.369 OA
HETATM    6 CL6  UNL     1     -33.716   7.088   6.624  1.00 20.00    -0.121 Cl
HETATM    7 CL7  UNL     1     -35.176   3.871   5.760  1.00 20.00    -0.094 Cl
ENDROOT
TORSDOF 0
ENDMDL
MODEL 2
REMARK VINA RESULT:      -3.8      1.261      2.517
REMARK  0 active torsions:
REMARK  status: ('A' for Active; 'I' for Inactive)
ROOT
HETATM    1  C1  UNL     1     -33.969   5.443   2.970  1.00 20.00     0.050 C 
HETATM    2  C2  UNL     1     -33.068   6.661   2.957  1.00 20.00     0.171 C 
HETATM    3  C3  UNL     1     -34.590   5.554   4.342  1.00 20.00     0.128 C 
HETATM    4  C4  UNL     1     -33.406   6.022   5.171  1.00 20.00     0.235 C 
HETATM    5  O5  UNL     1     -32.610   6.847   4.306  1.00 20.00    -0.369 OA
HETATM    6 CL6  UNL     1     -35.271   4.023   4.908  1.00 20.00    -0.121 Cl
HETATM    7 CL7  UNL     1     -33.911   6.942   6.598  1.00 20.00    -0.094 Cl
ENDROOT
TORSDOF 0
ENDMDL
MODEL 3
REMARK VINA RESULT:      -3.7      2.113      2.863
REMARK  0 active torsions:
REMARK  status: ('A' for Active; 'I' for Inactive)
ROOT
HETATM    1  C1  UNL     1     -34.629   4.710   4.182  1.00 20.00     0.050 C 
HETATM    2  C2  UNL     1     -35.044   4.220   5.554  1.00 20.00     0.171 C 
HETATM    3  C3  UNL     1     -33.649   5.800   4.545  1.00 20.00     0.128 C 
HETATM    4  C4  UNL     1     -34.331   6.429   5.749  1.00 20.00     0.235 C 
HETATM    5  O5  UNL     1     -35.019   5.364   6.423  1.00 20.00    -0.369 OA
HETATM    6 CL6  UNL     1     -33.380   6.944   3.224  1.00 20.00    -0.121 Cl
HETATM    7 CL7  UNL     1     -33.175   7.200   6.846  1.00 20.00    -0.094 Cl
ENDROOT
TORSDOF 0
ENDMDL
MODEL 4
REMARK VINA RESULT:      -3.7      1.698      2.472
REMARK  0 active torsions:
REMARK  status: ('A' for Active; 'I' for Inactive)
ROOT
HETATM    1  C1  UNL     1     -34.942   5.204   5.837  1.00 20.00     0.050 C 
HETATM    2  C2  UNL     1     -35.272   4.605   4.485  1.00 20.00     0.171 C 
HETATM    3  C3  UNL     1     -34.188   6.448   5.429  1.00 20.00     0.128 C 
HETATM    4  C4  UNL     1     -33.374   5.934   4.254  1.00 20.00     0.235 C 
HETATM    5  O5  UNL     1     -34.180   4.933   3.612  1.00 20.00    -0.369 OA
HETATM    6 CL6  UNL     1     -33.189   7.098   6.735  1.00 20.00    -0.121 Cl
HETATM    7 CL7  UNL     1     -32.970   7.221   3.107  1.00 20.00    -0.094 Cl
ENDROOT
TORSDOF 0
ENDMDL
MODEL 5
REMARK VINA RESULT:      -3.5      2.308      3.418
REMARK  0 active torsions:
REMARK  status: ('A' for Active; 'I' for Inactive)
ROOT
HETATM    1  C1  UNL     1     -35.105   4.830   4.992  1.00 20.00     0.050 C 
HETATM    2  C2  UNL     1     -34.520   5.437   6.250  1.00 20.00     0.171 C 
HETATM    3  C3  UNL     1     -34.058   5.209   3.971  1.00 20.00     0.128 C 
HETATM    4  C4  UNL     1     -33.698   6.616   4.417  1.00 20.00     0.235 C 
HETATM    5  O5  UNL     1     -33.828   6.630   5.848  1.00 20.00    -0.369 OA
HETATM    6 CL6  UNL     1     -34.668   5.142   2.312  1.00 20.00    -0.121 Cl
HETATM    7 CL7  UNL     1     -32.051   7.066   3.949  1.00 20.00    -0.094 Cl
ENDROOT
TORSDOF 0
ENDMDL
MODEL 6
REMARK VINA RESULT:      -3.2     13.029     13.692
REMARK  0 active torsions:
REMARK  status: ('A' for Active; 'I' for Inactive)
ROOT
HETATM    1  C1  UNL     1     -34.383  15.108  -6.077  1.00 20.00     0.050 C 
HETATM    2  C2  UNL     1     -33.702  16.461  -6.118  1.00 20.00     0.171 C 
HETATM    3  C3  UNL     1     -34.667  14.970  -4.600  1.00 20.00     0.128 C 
HETATM    4  C4  UNL     1     -33.403  15.555  -3.994  1.00 20.00     0.235 C 
HETATM    5  O5  UNL     1     -32.968  16.590  -4.890  1.00 20.00    -0.369 OA
HETATM    6 CL6  UNL     1     -34.958  13.294  -4.116  1.00 20.00    -0.121 Cl
HETATM    7 CL7  UNL     1     -33.683  16.224  -2.379  1.00 20.00    -0.094 Cl
ENDROOT
TORSDOF 0
ENDMDL
MODEL 7
REMARK VINA RESULT:      -3.2     12.093     12.528
REMARK  0 active torsions:
REMARK  status: ('A' for Active; 'I' for Inactive)
ROOT
HETATM    1  C1  UNL     1     -35.600  13.990  -4.317  1.00 20.00     0.050 C 
HETATM    2  C2  UNL     1     -36.857  14.688  -3.838  1.00 20.00     0.171 C 
HETATM    3  C3  UNL     1     -34.629  14.352  -3.218  1.00 20.00     0.128 C 
HETATM    4  C4  UNL     1     -35.016  15.794  -2.937  1.00 20.00     0.235 C 
HETATM    5  O5  UNL     1     -36.432  15.882  -3.162  1.00 20.00    -0.369 OA
HETATM    6 CL6  UNL     1     -32.941  14.170  -3.713  1.00 20.00    -0.121 Cl
HETATM    7 CL7  UNL     1     -34.630  16.279  -1.279  1.00 20.00    -0.094 Cl
ENDROOT
TORSDOF 0
ENDMDL
MODEL 8
REMARK VINA RESULT:      -3.2     12.801     13.340
REMARK  0 active torsions:
REMARK  status: ('A' for Active; 'I' for Inactive)
ROOT
HETATM    1  C1  UNL     1     -33.872  17.498  -3.777  1.00 20.00     0.050 C 
HETATM    2  C2  UNL     1     -33.406  17.085  -5.158  1.00 20.00     0.171 C 
HETATM    3  C3  UNL     1     -33.668  16.215  -3.005  1.00 20.00     0.128 C 
HETATM    4  C4  UNL     1     -34.111  15.178  -4.022  1.00 20.00     0.235 C 
HETATM    5  O5  UNL     1     -33.752  15.699  -5.312  1.00 20.00    -0.369 OA
HETATM    6 CL6  UNL     1     -34.607  16.165  -1.507  1.00 20.00    -0.121 Cl
HETATM    7 CL7  UNL     1     -33.333  13.609  -3.760  1.00 20.00    -0.094 Cl
ENDROOT
TORSDOF 0
ENDMDL
MODEL 9
REMARK VINA RESULT:      -3.2     11.887     12.268
REMARK  0 active torsions:
REMARK  status: ('A' for Active; 'I' for Inactive)
ROOT
HETATM    1  C1  UNL     1     -36.026  14.405  -4.019  1.00 20.00     0.050 C 
HETATM    2  C2  UNL     1     -35.382  13.407  -4.960  1.00 20.00     0.171 C 
HETATM    3  C3  UNL     1     -34.815  15.162  -3.524  1.00 20.00     0.128 C 
HETATM    4  C4  UNL     1     -33.801  14.041  -3.371  1.00 20.00     0.235 C 
HETATM    5  O5  UNL     1     -34.097  13.086  -4.403  1.00 20.00    -0.369 OA
HETATM    6 CL6  UNL     1     -35.124  16.029  -2.015  1.00 20.00    -0.121 Cl
HETATM    7 CL7  UNL     1     -32.136  14.619  -3.534  1.00 20.00    -0.094 Cl
ENDROOT
TORSDOF 0
ENDMDL
