MODEL 1
REMARK VINA RESULT:      -4.6      0.000      0.000
REMARK  1 active torsions:
REMARK  status: ('A' for Active; 'I' for Inactive)
REMARK    1  A    between atoms: C5_5  and  C7_7 
ROOT
HETATM    1  C1  UNL     1     -32.760   7.185   4.593  1.00 20.00     0.071 A 
HETATM    2  C2  UNL     1     -34.323   5.171   3.618  1.00 20.00     0.126 A 
HETATM    3  C3  UNL     1     -34.368   5.437   4.978  1.00 20.00    -0.006 A 
HETATM    4  C4  UNL     1     -33.569   6.466   5.466  1.00 20.00     0.125 A 
HETATM    5  C5  UNL     1     -32.788   6.841   3.252  1.00 20.00     0.051 A 
HETATM    6  C6  UNL     1     -35.244   4.647   5.882  1.00 20.00     0.053 C 
HETATM    7  N8  UNL     1     -33.550   5.849   2.740  1.00 20.00    -0.264 NA
HETATM    8  F9  UNL     1     -33.572   6.768   6.771  1.00 20.00    -0.205 F 
ENDROOT
BRANCH   5   9
HETATM    9  C7  UNL     1     -31.931   7.592   2.287  1.00 20.00     0.173 C 
HETATM   10 CL10 UNL     1     -32.624   9.196   1.951  1.00 20.00    -0.124 Cl
ENDBRANCH   5   9
TORSDOF 1
ENDMDL
MODEL 2
REMARK VINA RESULT:      -4.2     10.387     11.261
REMARK  1 active torsions:
REMARK  status: ('A' for Active; 'I' for Inactive)
REMARK    1  A    between atoms: C5_5  and  C7_7 
ROOT
HETATM    1  C1  UNL     1     -41.457   3.979  -1.955  1.00 20.00     0.071 A 
HETATM    2  C2  UNL     1     -42.924   6.132  -2.770  1.00 20.00     0.126 A 
HETATM    3  C3  UNL     1     -41.954   6.328  -1.799  1.00 20.00    -0.006 A 
HETATM    4  C4  UNL     1     -41.211   5.226  -1.390  1.00 20.00     0.125 A 
HETATM    5  C5  UNL     1     -42.448   3.889  -2.919  1.00 20.00     0.051 A 
HETATM    6  C6  UNL     1     -41.719   7.675  -1.216  1.00 20.00     0.053 C 
HETATM    7  N8  UNL     1     -43.190   4.936  -3.342  1.00 20.00    -0.264 NA
HETATM    8  F9  UNL     1     -40.260   5.356  -0.455  1.00 20.00    -0.205 F 
ENDROOT
BRANCH   5   9
HETATM    9  C7  UNL     1     -42.738   2.566  -3.546  1.00 20.00     0.173 C 
HETATM   10 CL10 UNL     1     -41.229   1.744  -4.006  1.00 20.00    -0.124 Cl
ENDBRANCH   5   9
TORSDOF 1
ENDMDL
MODEL 3
REMARK VINA RESULT:      -4.2     11.562     11.890
REMARK  1 active torsions:
REMARK  status: ('A' for Active; 'I' for Inactive)
REMARK    1  A    between atoms: C5_5  and  C7_7 
ROOT
HETATM    1  C1  UNL     1     -33.786  16.076  -2.522  1.00 20.00     0.071 A 
HETATM    2  C2  UNL     1     -35.917  14.805  -3.659  1.00 20.00     0.126 A 
HETATM    3  C3  UNL     1     -34.644  14.343  -3.953  1.00 20.00    -0.006 A 
HETATM    4  C4  UNL     1     -33.564  14.996  -3.369  1.00 20.00     0.125 A 
HETATM    5  C5  UNL     1     -35.097  16.460  -2.293  1.00 20.00     0.051 A 
HETATM    6  C6  UNL     1     -34.443  13.185  -4.864  1.00 20.00     0.053 C 
HETATM    7  N8  UNL     1     -36.172  15.851  -2.842  1.00 20.00    -0.264 NA
HETATM    8  F9  UNL     1     -32.310  14.592  -3.616  1.00 20.00    -0.205 F 
ENDROOT
BRANCH   5   9
HETATM    9  C7  UNL     1     -35.372  17.616  -1.389  1.00 20.00     0.173 C 
HETATM   10 CL10 UNL     1     -34.949  17.214   0.291  1.00 20.00    -0.124 Cl
ENDBRANCH   5   9
TORSDOF 1
ENDMDL
MODEL 4
REMARK VINA RESULT:      -4.2     11.715     12.610
REMARK  1 active torsions:
REMARK  status: ('A' for Active; 'I' for Inactive)
REMARK    1  A    between atoms: C5_5  and  C7_7 
ROOT
HETATM    1  C1  UNL     1     -34.582  15.142  -3.018  1.00 20.00     0.071 A 
HETATM    2  C2  UNL     1     -33.804  16.286  -5.371  1.00 20.00     0.126 A 
HETATM    3  C3  UNL     1     -34.471  15.072  -5.420  1.00 20.00    -0.006 A 
HETATM    4  C4  UNL     1     -34.865  14.497  -4.217  1.00 20.00     0.125 A 
HETATM    5  C5  UNL     1     -33.910  16.352  -3.077  1.00 20.00     0.051 A 
HETATM    6  C6  UNL     1     -34.756  14.410  -6.721  1.00 20.00     0.053 C 
HETATM    7  N8  UNL     1     -33.512  16.943  -4.226  1.00 20.00    -0.264 NA
HETATM    8  F9  UNL     1     -35.514  13.325  -4.204  1.00 20.00    -0.205 F 
ENDROOT
BRANCH   5   9
HETATM    9  C7  UNL     1     -33.590  17.072  -1.808  1.00 20.00     0.173 C 
HETATM   10 CL10 UNL     1     -34.736  16.621  -0.525  1.00 20.00    -0.124 Cl
ENDBRANCH   5   9
TORSDOF 1
ENDMDL
MODEL 5
REMARK VINA RESULT:      -4.1      1.671      2.056
REMARK  1 active torsions:
REMARK  status: ('A' for Active; 'I' for Inactive)
REMARK    1  A    between atoms: C5_5  and  C7_7 
ROOT
HETATM    1  C1  UNL     1     -33.560   5.928   3.040  1.00 20.00     0.071 A 
HETATM    2  C2  UNL     1     -33.306   6.716   5.640  1.00 20.00     0.126 A 
HETATM    3  C3  UNL     1     -34.224   5.721   5.342  1.00 20.00    -0.006 A 
HETATM    4  C4  UNL     1     -34.346   5.326   4.015  1.00 20.00     0.125 A 
HETATM    5  C5  UNL     1     -32.672   6.913   3.441  1.00 20.00     0.051 A 
HETATM    6  C6  UNL     1     -35.050   5.099   6.411  1.00 20.00     0.053 C 
HETATM    7  N8  UNL     1     -32.525   7.325   4.720  1.00 20.00    -0.264 NA
HETATM    8  F9  UNL     1     -35.217   4.368   3.668  1.00 20.00    -0.205 F 
ENDROOT
BRANCH   5   9
HETATM    9  C7  UNL     1     -31.812   7.582   2.420  1.00 20.00     0.173 C 
HETATM   10 CL10 UNL     1     -32.566   9.091   1.857  1.00 20.00    -0.124 Cl
ENDBRANCH   5   9
TORSDOF 1
ENDMDL
MODEL 6
REMARK VINA RESULT:      -4.1     11.219     11.934
REMARK  1 active torsions:
REMARK  status: ('A' for Active; 'I' for Inactive)
REMARK    1  A    between atoms: C5_5  and  C7_7 
ROOT
HETATM    1  C1  UNL     1     -35.947  15.875  -2.871  1.00 20.00     0.071 A 
HETATM    2  C2  UNL     1     -35.410  13.515  -4.133  1.00 20.00     0.126 A 
HETATM    3  C3  UNL     1     -34.359  14.196  -3.537  1.00 20.00    -0.006 A 
HETATM    4  C4  UNL     1     -34.642  15.397  -2.896  1.00 20.00     0.125 A 
HETATM    5  C5  UNL     1     -36.926  15.120  -3.496  1.00 20.00     0.051 A 
HETATM    6  C6  UNL     1     -32.974  13.655  -3.584  1.00 20.00     0.053 C 
HETATM    7  N8  UNL     1     -36.690  13.948  -4.129  1.00 20.00    -0.264 NA
HETATM    8  F9  UNL     1     -33.666  16.097  -2.302  1.00 20.00    -0.205 F 
ENDROOT
BRANCH   5   9
HETATM    9  C7  UNL     1     -38.338  15.604  -3.489  1.00 20.00     0.173 C 
HETATM   10 CL10 UNL     1     -39.386  14.493  -4.400  1.00 20.00    -0.124 Cl
ENDBRANCH   5   9
TORSDOF 1
ENDMDL
MODEL 7
REMARK VINA RESULT:      -4.0     11.621     12.500
REMARK  1 active torsions:
REMARK  status: ('A' for Active; 'I' for Inactive)
REMARK    1  A    between atoms: C5_5  and  C7_7 
ROOT
HETATM    1  C1  UNL     1     -34.565  15.717  -2.326  1.00 20.00     0.071 A 
HETATM    2  C2  UNL     1     -33.662  18.201  -3.003  1.00 20.00     0.126 A 
HETATM    3  C3  UNL     1     -33.994  17.962  -1.678  1.00 20.00    -0.006 A 
HETATM    4  C4  UNL     1     -34.453  16.693  -1.342  1.00 20.00     0.125 A 
HETATM    5  C5  UNL     1     -34.207  16.056  -3.620  1.00 20.00     0.051 A 
HETATM    6  C6  UNL     1     -33.862  19.030  -0.652  1.00 20.00     0.053 C 
HETATM    7  N8  UNL     1     -33.757  17.278  -3.985  1.00 20.00    -0.264 NA
HETATM    8  F9  UNL     1     -34.789  16.404  -0.078  1.00 20.00    -0.205 F 
ENDROOT
BRANCH   5   9
HETATM    9  C7  UNL     1     -34.316  15.033  -4.701  1.00 20.00     0.173 C 
HETATM   10 CL10 UNL     1     -34.816  13.463  -4.030  1.00 20.00    -0.124 Cl
ENDBRANCH   5   9
TORSDOF 1
ENDMDL
MODEL 8
REMARK VINA RESULT:      -3.9     12.061     12.946
REMARK  1 active torsions:
REMARK  status: ('A' for Active; 'I' for Inactive)
REMARK    1  A    between atoms: C5_5  and  C7_7 
ROOT
HETATM    1  C1  UNL     1     -33.736  16.905  -4.872  1.00 20.00     0.071 A 
HETATM    2  C2  UNL     1     -34.895  15.036  -3.256  1.00 20.00     0.126 A 
HETATM    3  C3  UNL     1     -34.433  16.208  -2.678  1.00 20.00    -0.006 A 
HETATM    4  C4  UNL     1     -33.845  17.155  -3.509  1.00 20.00     0.125 A 
HETATM    5  C5  UNL     1     -34.230  15.703  -5.351  1.00 20.00     0.051 A 
HETATM    6  C6  UNL     1     -34.564  16.442  -1.215  1.00 20.00     0.053 C 
HETATM    7  N8  UNL     1     -34.808  14.758  -4.576  1.00 20.00    -0.264 NA
HETATM    8  F9  UNL     1     -33.380  18.307  -3.006  1.00 20.00    -0.205 F 
ENDROOT
BRANCH   5   9
HETATM    9  C7  UNL     1     -34.129  15.401  -6.810  1.00 20.00     0.173 C 
HETATM   10 CL10 UNL     1     -35.451  14.326  -7.320  1.00 20.00    -0.124 Cl
ENDBRANCH   5   9
TORSDOF 1
ENDMDL
MODEL 9
REMARK VINA RESULT:      -3.9     10.522     11.404
REMARK  1 active torsions:
REMARK  status: ('A' for Active; 'I' for Inactive)
REMARK    1  A    between atoms: C5_5  and  C7_7 
ROOT
HETATM    1  C1  UNL     1     -42.940   5.021  -3.087  1.00 20.00     0.071 A 
HETATM    2  C2  UNL     1     -40.949   5.007  -1.220  1.00 20.00     0.126 A 
HETATM    3  C3  UNL     1     -41.559   6.215  -1.521  1.00 20.00    -0.006 A 
HETATM    4  C4  UNL     1     -42.573   6.213  -2.472  1.00 20.00     0.125 A 
HETATM    5  C5  UNL     1     -42.269   3.868  -2.716  1.00 20.00     0.051 A 
HETATM    6  C6  UNL     1     -41.139   7.472  -0.845  1.00 20.00     0.053 C 
HETATM    7  N8  UNL     1     -41.279   3.830  -1.796  1.00 20.00    -0.264 NA
HETATM    8  F9  UNL     1     -43.198   7.352  -2.803  1.00 20.00    -0.205 F 
ENDROOT
BRANCH   5   9
HETATM    9  C7  UNL     1     -42.638   2.570  -3.356  1.00 20.00     0.173 C 
HETATM   10 CL10 UNL     1     -41.193   1.750  -3.990  1.00 20.00    -0.124 Cl
ENDBRANCH   5   9
TORSDOF 1
ENDMDL
