MODEL 1
REMARK VINA RESULT:      -5.3      0.000      0.000
REMARK  0 active torsions:
REMARK  status: ('A' for Active; 'I' for Inactive)
ROOT
HETATM    1  C1  UNL     1     -32.516   7.237   4.381  1.00 20.00     0.047 C 
HETATM    2  C2  UNL     1     -32.774   6.466   3.175  1.00 20.00     0.042 C 
HETATM    3  C3  UNL     1     -35.383   4.261   4.585  1.00 20.00     0.010 C 
HETATM    4  C4  UNL     1     -35.145   4.065   5.886  1.00 20.00     0.114 C 
HETATM    5  C5  UNL     1     -33.142   6.955   5.529  1.00 20.00     0.142 C 
HETATM    6  C6  UNL     1     -33.847   5.662   3.081  1.00 20.00     0.107 C 
HETATM    7  C7  UNL     1     -34.120   5.857   5.505  1.00 20.00     0.087 C 
HETATM    8  C8  UNL     1     -34.844   5.588   4.191  1.00 20.00     0.127 C 
HETATM    9  N9  UNL     1     -34.385   5.041   6.477  1.00 20.00    -0.262 NA
HETATM   10  F10 UNL     1     -32.859   7.531   6.707  1.00 20.00    -0.204 F 
HETATM   11  F11 UNL     1     -34.050   4.958   1.947  1.00 20.00    -0.210 F 
ENDROOT
TORSDOF 0
ENDMDL
MODEL 2
REMARK VINA RESULT:      -5.0      1.551      3.957
REMARK  0 active torsions:
REMARK  status: ('A' for Active; 'I' for Inactive)
ROOT
HETATM    1  C1  UNL     1     -35.135   4.765   5.993  1.00 20.00     0.047 C 
HETATM    2  C2  UNL     1     -34.349   5.697   6.785  1.00 20.00     0.042 C 
HETATM    3  C3  UNL     1     -32.501   7.242   3.982  1.00 20.00     0.010 C 
HETATM    4  C4  UNL     1     -32.333   6.341   3.008  1.00 20.00     0.114 C 
HETATM    5  C5  UNL     1     -34.970   4.673   4.668  1.00 20.00     0.142 C 
HETATM    6  C6  UNL     1     -33.664   6.697   6.203  1.00 20.00     0.107 C 
HETATM    7  C7  UNL     1     -33.986   5.575   4.053  1.00 20.00     0.087 C 
HETATM    8  C8  UNL     1     -33.744   6.919   4.729  1.00 20.00     0.127 C 
HETATM    9  N9  UNL     1     -33.243   5.316   3.021  1.00 20.00    -0.262 NA
HETATM   10  F10 UNL     1     -35.560   3.749   3.894  1.00 20.00    -0.204 F 
HETATM   11  F11 UNL     1     -32.941   7.539   6.973  1.00 20.00    -0.210 F 
ENDROOT
TORSDOF 0
ENDMDL
MODEL 3
REMARK VINA RESULT:      -4.9     12.255     12.984
REMARK  0 active torsions:
REMARK  status: ('A' for Active; 'I' for Inactive)
ROOT
HETATM    1  C1  UNL     1     -35.347  13.397  -4.357  1.00 20.00     0.047 C 
HETATM    2  C2  UNL     1     -33.905  13.577  -4.300  1.00 20.00     0.042 C 
HETATM    3  C3  UNL     1     -33.916  16.890  -2.661  1.00 20.00     0.010 C 
HETATM    4  C4  UNL     1     -35.012  17.564  -3.027  1.00 20.00     0.114 C 
HETATM    5  C5  UNL     1     -36.180  14.353  -3.929  1.00 20.00     0.142 C 
HETATM    6  C6  UNL     1     -33.355  14.550  -3.552  1.00 20.00     0.107 C 
HETATM    7  C7  UNL     1     -35.572  15.570  -3.373  1.00 20.00     0.087 C 
HETATM    8  C8  UNL     1     -34.210  15.434  -2.704  1.00 20.00     0.127 C 
HETATM    9  N9  UNL     1     -36.048  16.774  -3.452  1.00 20.00    -0.262 NA
HETATM   10  F10 UNL     1     -37.514  14.314  -4.073  1.00 20.00    -0.204 F 
HETATM   11  F11 UNL     1     -32.012  14.688  -3.528  1.00 20.00    -0.210 F 
ENDROOT
TORSDOF 0
ENDMDL
MODEL 4
REMARK VINA RESULT:      -4.8     12.610     13.804
REMARK  0 active torsions:
REMARK  status: ('A' for Active; 'I' for Inactive)
ROOT
HETATM    1  C1  UNL     1     -33.724  17.397  -5.342  1.00 20.00     0.047 C 
HETATM    2  C2  UNL     1     -33.740  17.361  -3.888  1.00 20.00     0.042 C 
HETATM    3  C3  UNL     1     -34.278  13.723  -3.522  1.00 20.00     0.010 C 
HETATM    4  C4  UNL     1     -34.992  13.272  -4.559  1.00 20.00     0.114 C 
HETATM    5  C5  UNL     1     -33.938  16.291  -6.063  1.00 20.00     0.142 C 
HETATM    6  C6  UNL     1     -33.664  16.196  -3.221  1.00 20.00     0.107 C 
HETATM    7  C7  UNL     1     -34.157  15.041  -5.321  1.00 20.00     0.087 C 
HETATM    8  C8  UNL     1     -33.493  14.907  -3.956  1.00 20.00     0.127 C 
HETATM    9  N9  UNL     1     -34.920  14.056  -5.681  1.00 20.00    -0.262 NA
HETATM   10  F10 UNL     1     -34.071  16.272  -7.399  1.00 20.00    -0.204 F 
HETATM   11  F11 UNL     1     -33.686  16.203  -1.871  1.00 20.00    -0.210 F 
ENDROOT
TORSDOF 0
ENDMDL
MODEL 5
REMARK VINA RESULT:      -4.8      9.721     11.111
REMARK  0 active torsions:
REMARK  status: ('A' for Active; 'I' for Inactive)
ROOT
HETATM    1  C1  UNL     1     -41.494   3.783  -2.036  1.00 20.00     0.047 C 
HETATM    2  C2  UNL     1     -40.703   4.506  -1.053  1.00 20.00     0.042 C 
HETATM    3  C3  UNL     1     -42.273   7.816  -1.542  1.00 20.00     0.010 C 
HETATM    4  C4  UNL     1     -42.675   7.935  -2.812  1.00 20.00     0.114 C 
HETATM    5  C5  UNL     1     -42.400   4.412  -2.792  1.00 20.00     0.142 C 
HETATM    6  C6  UNL     1     -41.052   5.741  -0.653  1.00 20.00     0.107 C 
HETATM    7  C7  UNL     1     -42.579   5.853  -2.562  1.00 20.00     0.087 C 
HETATM    8  C8  UNL     1     -42.304   6.381  -1.159  1.00 20.00     0.127 C 
HETATM    9  N9  UNL     1     -42.885   6.743  -3.454  1.00 20.00    -0.262 NA
HETATM   10  F10 UNL     1     -43.068   3.840  -3.807  1.00 20.00    -0.204 F 
HETATM   11  F11 UNL     1     -40.290   6.383   0.257  1.00 20.00    -0.210 F 
ENDROOT
TORSDOF 0
ENDMDL
MODEL 6
REMARK VINA RESULT:      -4.7     12.021     12.645
REMARK  0 active torsions:
REMARK  status: ('A' for Active; 'I' for Inactive)
ROOT
HETATM    1  C1  UNL     1     -33.813  13.475  -4.203  1.00 20.00     0.047 C 
HETATM    2  C2  UNL     1     -35.262  13.361  -4.235  1.00 20.00     0.042 C 
HETATM    3  C3  UNL     1     -36.018  16.642  -2.712  1.00 20.00     0.010 C 
HETATM    4  C4  UNL     1     -35.042  16.973  -1.860  1.00 20.00     0.114 C 
HETATM    5  C5  UNL     1     -33.215  14.541  -3.659  1.00 20.00     0.142 C 
HETATM    6  C6  UNL     1     -36.048  14.428  -4.007  1.00 20.00     0.107 C 
HETATM    7  C7  UNL     1     -34.088  15.598  -3.127  1.00 20.00     0.087 C 
HETATM    8  C8  UNL     1     -35.452  15.779  -3.780  1.00 20.00     0.127 C 
HETATM    9  N9  UNL     1     -33.842  16.357  -2.104  1.00 20.00    -0.262 NA
HETATM   10  F10 UNL     1     -31.890  14.654  -3.473  1.00 20.00    -0.204 F 
HETATM   11  F11 UNL     1     -37.389  14.281  -4.041  1.00 20.00    -0.210 F 
ENDROOT
TORSDOF 0
ENDMDL
MODEL 7
REMARK VINA RESULT:      -4.7      9.683     10.819
REMARK  0 active torsions:
REMARK  status: ('A' for Active; 'I' for Inactive)
ROOT
HETATM    1  C1  UNL     1     -41.394   7.326  -1.202  1.00 20.00     0.047 C 
HETATM    2  C2  UNL     1     -41.385   6.347  -0.127  1.00 20.00     0.042 C 
HETATM    3  C3  UNL     1     -42.608   3.476  -2.107  1.00 20.00     0.010 C 
HETATM    4  C4  UNL     1     -43.417   3.916  -3.076  1.00 20.00     0.114 C 
HETATM    5  C5  UNL     1     -41.833   7.007  -2.425  1.00 20.00     0.142 C 
HETATM    6  C6  UNL     1     -41.520   5.034  -0.383  1.00 20.00     0.107 C 
HETATM    7  C7  UNL     1     -42.273   5.620  -2.636  1.00 20.00     0.087 C 
HETATM    8  C8  UNL     1     -41.618   4.537  -1.788  1.00 20.00     0.127 C 
HETATM    9  N9  UNL     1     -43.220   5.225  -3.429  1.00 20.00    -0.262 NA
HETATM   10  F10 UNL     1     -41.996   7.887  -3.425  1.00 20.00    -0.204 F 
HETATM   11  F11 UNL     1     -41.512   4.156   0.643  1.00 20.00    -0.210 F 
ENDROOT
TORSDOF 0
ENDMDL
MODEL 8
REMARK VINA RESULT:      -4.7     12.670     13.875
REMARK  0 active torsions:
REMARK  status: ('A' for Active; 'I' for Inactive)
ROOT
HETATM    1  C1  UNL     1     -34.242  13.700  -3.680  1.00 20.00     0.047 C 
HETATM    2  C2  UNL     1     -35.558  13.879  -4.274  1.00 20.00     0.042 C 
HETATM    3  C3  UNL     1     -34.733  16.823  -6.350  1.00 20.00     0.010 C 
HETATM    4  C4  UNL     1     -33.783  17.544  -5.743  1.00 20.00     0.114 C 
HETATM    5  C5  UNL     1     -33.243  14.549  -3.945  1.00 20.00     0.142 C 
HETATM    6  C6  UNL     1     -35.740  14.698  -5.324  1.00 20.00     0.107 C 
HETATM    7  C7  UNL     1     -33.529  15.646  -4.882  1.00 20.00     0.087 C 
HETATM    8  C8  UNL     1     -34.582  15.399  -5.955  1.00 20.00     0.127 C 
HETATM    9  N9  UNL     1     -33.020  16.839  -4.849  1.00 20.00    -0.262 NA
HETATM   10  F10 UNL     1     -32.048  14.527  -3.334  1.00 20.00    -0.204 F 
HETATM   11  F11 UNL     1     -36.978  14.842  -5.844  1.00 20.00    -0.210 F 
ENDROOT
TORSDOF 0
ENDMDL
MODEL 9
REMARK VINA RESULT:      -4.6      9.548     10.556
REMARK  0 active torsions:
REMARK  status: ('A' for Active; 'I' for Inactive)
ROOT
HETATM    1  C1  UNL     1     -40.775   4.668  -0.880  1.00 20.00     0.047 C 
HETATM    2  C2  UNL     1     -41.667   4.115  -1.887  1.00 20.00     0.042 C 
HETATM    3  C3  UNL     1     -43.372   7.271  -2.776  1.00 20.00     0.010 C 
HETATM    4  C4  UNL     1     -43.417   8.071  -1.705  1.00 20.00     0.114 C 
HETATM    5  C5  UNL     1     -40.833   5.961  -0.540  1.00 20.00     0.142 C 
HETATM    6  C6  UNL     1     -42.357   4.916  -2.718  1.00 20.00     0.107 C 
HETATM    7  C7  UNL     1     -41.812   6.796  -1.250  1.00 20.00     0.087 C 
HETATM    8  C8  UNL     1     -42.175   6.397  -2.675  1.00 20.00     0.127 C 
HETATM    9  N9  UNL     1     -42.459   7.808  -0.761  1.00 20.00    -0.262 NA
HETATM   10  F10 UNL     1     -40.138   6.510   0.469  1.00 20.00    -0.204 F 
HETATM   11  F11 UNL     1     -43.179   4.365  -3.636  1.00 20.00    -0.210 F 
ENDROOT
TORSDOF 0
ENDMDL
