MODEL 1
REMARK VINA RESULT:      -4.6      0.000      0.000
REMARK  1 active torsions:
REMARK  status: ('A' for Active; 'I' for Inactive)
REMARK    1  A    between atoms: C2_2  and  C7_7 
ROOT
HETATM    1  C1  UNL     1     -33.581   5.813   2.542  1.00 20.00     0.149 A 
HETATM    2  C2  UNL     1     -32.882   6.612   3.491  1.00 20.00    -0.001 A 
HETATM    3  C3  UNL     1     -33.445   6.252   4.682  1.00 20.00     0.039 A 
HETATM    4  C4  UNL     1     -33.399   6.502   6.134  1.00 20.00     0.061 C 
HETATM    5  C5  UNL     1     -34.717   5.829   6.613  1.00 20.00     0.028 C 
HETATM    6  C6  UNL     1     -35.106   4.807   5.526  1.00 20.00     0.151 C 
HETATM    7  N8  UNL     1     -34.509   5.014   3.098  1.00 20.00    -0.184 NA
HETATM    8  N9  UNL     1     -34.382   5.322   4.384  1.00 20.00    -0.274 N 
ENDROOT
BRANCH   2   9
HETATM    9  C7  UNL     1     -31.811   7.589   3.242  1.00 20.00     0.156 C 
HETATM   10 CL10 UNL     1     -32.053   8.436   1.689  1.00 20.00    -0.125 Cl
ENDBRANCH   2   9
TORSDOF 1
ENDMDL
MODEL 2
REMARK VINA RESULT:      -4.4     11.439     12.892
REMARK  1 active torsions:
REMARK  status: ('A' for Active; 'I' for Inactive)
REMARK    1  A    between atoms: C2_2  and  C7_7 
ROOT
HETATM    1  C1  UNL     1     -34.312  13.636  -3.575  1.00 20.00     0.149 A 
HETATM    2  C2  UNL     1     -34.038  15.020  -3.766  1.00 20.00    -0.001 A 
HETATM    3  C3  UNL     1     -34.351  15.225  -5.080  1.00 20.00     0.039 A 
HETATM    4  C4  UNL     1     -34.402  16.251  -6.136  1.00 20.00     0.061 C 
HETATM    5  C5  UNL     1     -34.571  15.382  -7.415  1.00 20.00     0.028 C 
HETATM    6  C6  UNL     1     -35.144  14.028  -6.950  1.00 20.00     0.151 C 
HETATM    7  N8  UNL     1     -34.762  13.023  -4.684  1.00 20.00    -0.184 NA
HETATM    8  N9  UNL     1     -34.763  14.026  -5.554  1.00 20.00    -0.274 N 
ENDROOT
BRANCH   2   9
HETATM    9  C7  UNL     1     -33.539  15.992  -2.782  1.00 20.00     0.156 C 
HETATM   10 CL10 UNL     1     -34.691  16.198  -1.432  1.00 20.00    -0.125 Cl
ENDBRANCH   2   9
TORSDOF 1
ENDMDL
MODEL 3
REMARK VINA RESULT:      -4.3     11.284     11.971
REMARK  1 active torsions:
REMARK  status: ('A' for Active; 'I' for Inactive)
REMARK    1  A    between atoms: C2_2  and  C7_7 
ROOT
HETATM    1  C1  UNL     1     -37.121  15.427  -3.180  1.00 20.00     0.149 A 
HETATM    2  C2  UNL     1     -35.871  15.987  -2.791  1.00 20.00    -0.001 A 
HETATM    3  C3  UNL     1     -34.958  15.126  -3.331  1.00 20.00     0.039 A 
HETATM    4  C4  UNL     1     -33.513  14.871  -3.470  1.00 20.00     0.061 C 
HETATM    5  C5  UNL     1     -33.499  13.404  -3.987  1.00 20.00     0.028 C 
HETATM    6  C6  UNL     1     -34.886  13.147  -4.610  1.00 20.00     0.151 C 
HETATM    7  N8  UNL     1     -36.998  14.303  -3.909  1.00 20.00    -0.184 NA
HETATM    8  N9  UNL     1     -35.678  14.171  -3.965  1.00 20.00    -0.274 N 
ENDROOT
BRANCH   2   9
HETATM    9  C7  UNL     1     -35.627  17.201  -1.999  1.00 20.00     0.156 C 
HETATM   10 CL10 UNL     1     -34.743  16.827  -0.493  1.00 20.00    -0.125 Cl
ENDBRANCH   2   9
TORSDOF 1
ENDMDL
MODEL 4
REMARK VINA RESULT:      -4.3     11.889     12.850
REMARK  1 active torsions:
REMARK  status: ('A' for Active; 'I' for Inactive)
REMARK    1  A    between atoms: C2_2  and  C7_7 
ROOT
HETATM    1  C1  UNL     1     -33.239  16.267  -4.904  1.00 20.00     0.149 A 
HETATM    2  C2  UNL     1     -33.593  15.394  -3.835  1.00 20.00    -0.001 A 
HETATM    3  C3  UNL     1     -33.962  16.250  -2.837  1.00 20.00     0.039 A 
HETATM    4  C4  UNL     1     -34.452  16.305  -1.449  1.00 20.00     0.061 C 
HETATM    5  C5  UNL     1     -34.227  17.801  -1.091  1.00 20.00     0.028 C 
HETATM    6  C6  UNL     1     -34.156  18.565  -2.429  1.00 20.00     0.151 C 
HETATM    7  N8  UNL     1     -33.378  17.569  -4.596  1.00 20.00    -0.184 NA
HETATM    8  N9  UNL     1     -33.814  17.497  -3.344  1.00 20.00    -0.274 N 
ENDROOT
BRANCH   2   9
HETATM    9  C7  UNL     1     -33.565  13.925  -3.817  1.00 20.00     0.156 C 
HETATM   10 CL10 UNL     1     -35.162  13.240  -4.233  1.00 20.00    -0.125 Cl
ENDBRANCH   2   9
TORSDOF 1
ENDMDL
MODEL 5
REMARK VINA RESULT:      -4.1     11.663     12.829
REMARK  1 active torsions:
REMARK  status: ('A' for Active; 'I' for Inactive)
REMARK    1  A    between atoms: C2_2  and  C7_7 
ROOT
HETATM    1  C1  UNL     1     -34.519  17.416  -4.486  1.00 20.00     0.149 A 
HETATM    2  C2  UNL     1     -34.091  16.596  -3.403  1.00 20.00    -0.001 A 
HETATM    3  C3  UNL     1     -34.207  15.329  -3.901  1.00 20.00     0.039 A 
HETATM    4  C4  UNL     1     -34.015  13.907  -3.568  1.00 20.00     0.061 C 
HETATM    5  C5  UNL     1     -34.782  13.204  -4.724  1.00 20.00     0.028 C 
HETATM    6  C6  UNL     1     -34.865  14.224  -5.877  1.00 20.00     0.151 C 
HETATM    7  N8  UNL     1     -34.875  16.714  -5.577  1.00 20.00    -0.184 NA
HETATM    8  N9  UNL     1     -34.668  15.469  -5.166  1.00 20.00    -0.274 N 
ENDROOT
BRANCH   2   9
HETATM    9  C7  UNL     1     -33.632  17.017  -2.072  1.00 20.00     0.156 C 
HETATM   10 CL10 UNL     1     -34.740  16.446  -0.793  1.00 20.00    -0.125 Cl
ENDBRANCH   2   9
TORSDOF 1
ENDMDL
MODEL 6
REMARK VINA RESULT:      -4.0     12.329     13.576
REMARK  1 active torsions:
REMARK  status: ('A' for Active; 'I' for Inactive)
REMARK    1  A    between atoms: C2_2  and  C7_7 
ROOT
HETATM    1  C1  UNL     1     -34.222  16.530  -6.687  1.00 20.00     0.149 A 
HETATM    2  C2  UNL     1     -34.745  15.208  -6.777  1.00 20.00    -0.001 A 
HETATM    3  C3  UNL     1     -34.374  14.640  -5.592  1.00 20.00     0.039 A 
HETATM    4  C4  UNL     1     -34.444  13.397  -4.804  1.00 20.00     0.061 C 
HETATM    5  C5  UNL     1     -33.383  13.662  -3.698  1.00 20.00     0.028 C 
HETATM    6  C6  UNL     1     -33.209  15.192  -3.618  1.00 20.00     0.151 C 
HETATM    7  N8  UNL     1     -33.574  16.770  -5.533  1.00 20.00    -0.184 NA
HETATM    8  N9  UNL     1     -33.697  15.600  -4.917  1.00 20.00    -0.274 N 
ENDROOT
BRANCH   2   9
HETATM    9  C7  UNL     1     -35.504  14.605  -7.883  1.00 20.00     0.156 C 
HETATM   10 CL10 UNL     1     -37.255  14.912  -7.713  1.00 20.00    -0.125 Cl
ENDBRANCH   2   9
TORSDOF 1
ENDMDL
MODEL 7
REMARK VINA RESULT:      -4.0      9.903     10.788
REMARK  1 active torsions:
REMARK  status: ('A' for Active; 'I' for Inactive)
REMARK    1  A    between atoms: C2_2  and  C7_7 
ROOT
HETATM    1  C1  UNL     1     -43.140   5.108  -3.352  1.00 20.00     0.149 A 
HETATM    2  C2  UNL     1     -42.853   6.472  -3.059  1.00 20.00    -0.001 A 
HETATM    3  C3  UNL     1     -41.930   6.391  -2.055  1.00 20.00     0.039 A 
HETATM    4  C4  UNL     1     -41.089   7.201  -1.156  1.00 20.00     0.061 C 
HETATM    5  C5  UNL     1     -40.635   6.143  -0.110  1.00 20.00     0.028 C 
HETATM    6  C6  UNL     1     -40.787   4.766  -0.786  1.00 20.00     0.151 C 
HETATM    7  N8  UNL     1     -42.448   4.242  -2.590  1.00 20.00    -0.184 NA
HETATM    8  N9  UNL     1     -41.741   5.070  -1.830  1.00 20.00    -0.274 N 
ENDROOT
BRANCH   2   9
HETATM    9  C7  UNL     1     -43.417   7.674  -3.689  1.00 20.00     0.156 C 
HETATM   10 CL10 UNL     1     -42.154   8.627  -4.517  1.00 20.00    -0.125 Cl
ENDBRANCH   2   9
TORSDOF 1
ENDMDL
MODEL 8
REMARK VINA RESULT:      -4.0      9.846     10.925
REMARK  1 active torsions:
REMARK  status: ('A' for Active; 'I' for Inactive)
REMARK    1  A    between atoms: C2_2  and  C7_7 
ROOT
HETATM    1  C1  UNL     1     -40.802   4.236  -1.373  1.00 20.00     0.149 A 
HETATM    2  C2  UNL     1     -41.886   4.304  -2.295  1.00 20.00    -0.001 A 
HETATM    3  C3  UNL     1     -42.234   5.625  -2.276  1.00 20.00     0.039 A 
HETATM    4  C4  UNL     1     -43.169   6.608  -2.849  1.00 20.00     0.061 C 
HETATM    5  C5  UNL     1     -42.976   7.822  -1.897  1.00 20.00     0.028 C 
HETATM    6  C6  UNL     1     -41.598   7.640  -1.230  1.00 20.00     0.151 C 
HETATM    7  N8  UNL     1     -40.497   5.424  -0.821  1.00 20.00    -0.184 NA
HETATM    8  N9  UNL     1     -41.390   6.218  -1.399  1.00 20.00    -0.274 N 
ENDROOT
BRANCH   2   9
HETATM    9  C7  UNL     1     -42.481   3.212  -3.078  1.00 20.00     0.156 C 
HETATM   10 CL10 UNL     1     -41.235   2.069  -3.651  1.00 20.00    -0.125 Cl
ENDBRANCH   2   9
TORSDOF 1
ENDMDL
MODEL 9
REMARK VINA RESULT:      -3.9     11.919     13.044
REMARK  1 active torsions:
REMARK  status: ('A' for Active; 'I' for Inactive)
REMARK    1  A    between atoms: C2_2  and  C7_7 
ROOT
HETATM    1  C1  UNL     1     -34.713  13.178  -4.979  1.00 20.00     0.149 A 
HETATM    2  C2  UNL     1     -34.773  14.274  -5.886  1.00 20.00    -0.001 A 
HETATM    3  C3  UNL     1     -34.258  15.311  -5.163  1.00 20.00     0.039 A 
HETATM    4  C4  UNL     1     -33.928  16.746  -5.226  1.00 20.00     0.061 C 
HETATM    5  C5  UNL     1     -33.700  17.085  -3.725  1.00 20.00     0.028 C 
HETATM    6  C6  UNL     1     -33.380  15.751  -3.019  1.00 20.00     0.151 C 
HETATM    7  N8  UNL     1     -34.198  13.506  -3.780  1.00 20.00    -0.184 NA
HETATM    8  N9  UNL     1     -33.946  14.798  -3.949  1.00 20.00    -0.274 N 
ENDROOT
BRANCH   2   9
HETATM    9  C7  UNL     1     -35.270  14.280  -7.270  1.00 20.00     0.156 C 
HETATM   10 CL10 UNL     1     -36.898  15.009  -7.372  1.00 20.00    -0.125 Cl
ENDBRANCH   2   9
TORSDOF 1
ENDMDL
