MODEL 1
REMARK VINA RESULT:      -4.8      0.000      0.000
REMARK  2 active torsions:
REMARK  status: ('A' for Active; 'I' for Inactive)
REMARK    1  A    between atoms: C7_7  and  O10_10 
REMARK    2  A    between atoms: C9_9  and  O10_10 
ROOT
HETATM    1  C1  UNL     1     -34.871  13.366  -4.105  1.00 20.00     0.000 C 
HETATM    2  C2  UNL     1     -34.905  13.561  -5.535  1.00 20.00     0.022 C 
HETATM    3  C3  UNL     1     -34.217  14.220  -3.304  1.00 20.00     0.008 C 
HETATM    4  C4  UNL     1     -34.530  14.730  -6.073  1.00 20.00     0.048 C 
HETATM    5  C7  UNL     1     -33.505  15.428  -3.860  1.00 20.00     0.184 C 
HETATM    6  C8  UNL     1     -34.054  15.879  -5.229  1.00 20.00     0.247 C 
HETATM    7  F11 UNL     1     -35.105  16.728  -5.018  1.00 20.00    -0.240 F 
HETATM    8 CL12 UNL     1     -34.590  14.993  -7.775  1.00 20.00    -0.086 Cl
ENDROOT
BRANCH   5   9
HETATM    9  O10 UNL     1     -33.601  16.519  -2.949  1.00 20.00    -0.373 OA
BRANCH   9  10
HETATM   10  C9  UNL     1     -34.521  16.237  -1.905  1.00 20.00     0.122 A 
HETATM   11  C5  UNL     1     -34.334  17.012  -0.632  1.00 20.00     0.034 A 
HETATM   12  C6  UNL     1     -35.474  17.343  -1.549  1.00 20.00     0.034 A 
ENDBRANCH   9  10
ENDBRANCH   5   9
TORSDOF 2
ENDMDL
MODEL 2
REMARK VINA RESULT:      -4.6     11.621     12.563
REMARK  2 active torsions:
REMARK  status: ('A' for Active; 'I' for Inactive)
REMARK    1  A    between atoms: C7_7  and  O10_10 
REMARK    2  A    between atoms: C9_9  and  O10_10 
ROOT
HETATM    1  C1  UNL     1     -33.443   7.115   6.149  1.00 20.00     0.000 C 
HETATM    2  C2  UNL     1     -34.166   5.888   6.393  1.00 20.00     0.022 C 
HETATM    3  C3  UNL     1     -32.893   7.368   4.952  1.00 20.00     0.008 C 
HETATM    4  C4  UNL     1     -34.544   5.105   5.373  1.00 20.00     0.048 C 
HETATM    5  C7  UNL     1     -33.019   6.395   3.808  1.00 20.00     0.184 C 
HETATM    6  C8  UNL     1     -34.234   5.453   3.944  1.00 20.00     0.247 C 
HETATM    7  F11 UNL     1     -35.325   6.070   3.399  1.00 20.00    -0.240 F 
HETATM    8 CL12 UNL     1     -35.431   3.653   5.640  1.00 20.00    -0.086 Cl
ENDROOT
BRANCH   5   9
HETATM    9  O10 UNL     1     -33.124   7.097   2.573  1.00 20.00    -0.373 OA
BRANCH   9  10
HETATM   10  C9  UNL     1     -32.088   8.058   2.438  1.00 20.00     0.122 A 
HETATM   11  C5  UNL     1     -31.707   8.428   1.034  1.00 20.00     0.034 A 
HETATM   12  C6  UNL     1     -32.494   9.390   1.875  1.00 20.00     0.034 A 
ENDBRANCH   9  10
ENDBRANCH   5   9
TORSDOF 2
ENDMDL
MODEL 3
REMARK VINA RESULT:      -4.5      1.436      1.487
REMARK  2 active torsions:
REMARK  status: ('A' for Active; 'I' for Inactive)
REMARK    1  A    between atoms: C7_7  and  O10_10 
REMARK    2  A    between atoms: C9_9  and  O10_10 
ROOT
HETATM    1  C1  UNL     1     -34.172  13.645  -4.196  1.00 20.00     0.000 C 
HETATM    2  C2  UNL     1     -34.847  13.725  -5.470  1.00 20.00     0.022 C 
HETATM    3  C3  UNL     1     -34.166  14.685  -3.349  1.00 20.00     0.008 C 
HETATM    4  C4  UNL     1     -35.710  14.719  -5.724  1.00 20.00     0.048 C 
HETATM    5  C7  UNL     1     -34.878  15.972  -3.681  1.00 20.00     0.184 C 
HETATM    6  C8  UNL     1     -36.010  15.791  -4.713  1.00 20.00     0.247 C 
HETATM    7  F11 UNL     1     -37.155  15.453  -4.047  1.00 20.00    -0.240 F 
HETATM    8 CL12 UNL     1     -36.549  14.816  -7.225  1.00 20.00    -0.086 Cl
ENDROOT
BRANCH   5   9
HETATM    9  O10 UNL     1     -35.427  16.550  -2.500  1.00 20.00    -0.373 OA
BRANCH   9  10
HETATM   10  C9  UNL     1     -34.576  16.342  -1.382  1.00 20.00     0.122 A 
HETATM   11  C5  UNL     1     -33.682  17.489  -1.009  1.00 20.00     0.034 A 
HETATM   12  C6  UNL     1     -34.878  17.165  -0.163  1.00 20.00     0.034 A 
ENDBRANCH   9  10
ENDBRANCH   5   9
TORSDOF 2
ENDMDL
MODEL 4
REMARK VINA RESULT:      -4.4      1.717      2.444
REMARK  2 active torsions:
REMARK  status: ('A' for Active; 'I' for Inactive)
REMARK    1  A    between atoms: C7_7  and  O10_10 
REMARK    2  A    between atoms: C9_9  and  O10_10 
ROOT
HETATM    1  C1  UNL     1     -34.039  16.742  -6.166  1.00 20.00     0.000 C 
HETATM    2  C2  UNL     1     -34.322  15.326  -6.176  1.00 20.00     0.022 C 
HETATM    3  C3  UNL     1     -34.043  17.442  -5.022  1.00 20.00     0.008 C 
HETATM    4  C4  UNL     1     -34.321  14.623  -5.035  1.00 20.00     0.048 C 
HETATM    5  C7  UNL     1     -34.323  16.778  -3.697  1.00 20.00     0.184 C 
HETATM    6  C8  UNL     1     -34.036  15.263  -3.705  1.00 20.00     0.247 C 
HETATM    7  F11 UNL     1     -32.718  15.069  -3.402  1.00 20.00    -0.240 F 
HETATM    8 CL12 UNL     1     -34.627  12.927  -5.027  1.00 20.00    -0.086 Cl
ENDROOT
BRANCH   5   9
HETATM    9  O10 UNL     1     -33.546  17.384  -2.669  1.00 20.00    -0.373 OA
BRANCH   9  10
HETATM   10  C9  UNL     1     -34.368  17.838  -1.603  1.00 20.00     0.122 A 
HETATM   11  C5  UNL     1     -34.649  16.841  -0.515  1.00 20.00     0.034 A 
HETATM   12  C6  UNL     1     -33.697  17.974  -0.266  1.00 20.00     0.034 A 
ENDBRANCH   9  10
ENDBRANCH   5   9
TORSDOF 2
ENDMDL
MODEL 5
REMARK VINA RESULT:      -4.3     12.414     14.001
REMARK  2 active torsions:
REMARK  status: ('A' for Active; 'I' for Inactive)
REMARK    1  A    between atoms: C7_7  and  O10_10 
REMARK    2  A    between atoms: C9_9  and  O10_10 
ROOT
HETATM    1  C1  UNL     1     -40.564   5.385  -0.705  1.00 20.00     0.000 C 
HETATM    2  C2  UNL     1     -41.322   6.596  -0.496  1.00 20.00     0.022 C 
HETATM    3  C3  UNL     1     -41.086   4.349  -1.380  1.00 20.00     0.008 C 
HETATM    4  C4  UNL     1     -42.443   6.829  -1.194  1.00 20.00     0.048 C 
HETATM    5  C7  UNL     1     -42.475   4.411  -1.962  1.00 20.00     0.184 C 
HETATM    6  C8  UNL     1     -42.965   5.852  -2.211  1.00 20.00     0.247 C 
HETATM    7  F11 UNL     1     -42.543   6.247  -3.450  1.00 20.00    -0.240 F 
HETATM    8 CL12 UNL     1     -43.346   8.280  -0.981  1.00 20.00    -0.086 Cl
ENDROOT
BRANCH   5   9
HETATM    9  O10 UNL     1     -42.526   3.694  -3.192  1.00 20.00    -0.373 OA
BRANCH   9  10
HETATM   10  C9  UNL     1     -41.743   2.511  -3.131  1.00 20.00     0.122 A 
HETATM   11  C5  UNL     1     -42.502   1.215  -3.142  1.00 20.00     0.034 A 
HETATM   12  C6  UNL     1     -41.749   1.653  -4.363  1.00 20.00     0.034 A 
ENDBRANCH   9  10
ENDBRANCH   5   9
TORSDOF 2
ENDMDL
MODEL 6
REMARK VINA RESULT:      -4.2      2.749      4.727
REMARK  2 active torsions:
REMARK  status: ('A' for Active; 'I' for Inactive)
REMARK    1  A    between atoms: C7_7  and  O10_10 
REMARK    2  A    between atoms: C9_9  and  O10_10 
ROOT
HETATM    1  C1  UNL     1     -33.642  18.109  -4.041  1.00 20.00     0.000 C 
HETATM    2  C2  UNL     1     -33.910  18.009  -2.625  1.00 20.00     0.022 C 
HETATM    3  C3  UNL     1     -33.465  17.011  -4.791  1.00 20.00     0.008 C 
HETATM    4  C4  UNL     1     -34.263  16.837  -2.078  1.00 20.00     0.048 C 
HETATM    5  C7  UNL     1     -33.556  15.629  -4.194  1.00 20.00     0.184 C 
HETATM    6  C8  UNL     1     -34.389  15.582  -2.897  1.00 20.00     0.247 C 
HETATM    7  F11 UNL     1     -35.703  15.410  -3.229  1.00 20.00    -0.240 F 
HETATM    8 CL12 UNL     1     -34.616  16.703  -0.398  1.00 20.00    -0.086 Cl
ENDROOT
BRANCH   5   9
HETATM    9  O10 UNL     1     -34.127  14.724  -5.134  1.00 20.00    -0.373 OA
BRANCH   9  10
HETATM   10  C9  UNL     1     -34.721  15.417  -6.221  1.00 20.00     0.122 A 
HETATM   11  C5  UNL     1     -34.639  14.741  -7.560  1.00 20.00     0.034 A 
HETATM   12  C6  UNL     1     -35.943  14.781  -6.819  1.00 20.00     0.034 A 
ENDBRANCH   9  10
ENDBRANCH   5   9
TORSDOF 2
ENDMDL
MODEL 7
REMARK VINA RESULT:      -4.1     13.373     14.978
REMARK  2 active torsions:
REMARK  status: ('A' for Active; 'I' for Inactive)
REMARK    1  A    between atoms: C7_7  and  O10_10 
REMARK    2  A    between atoms: C9_9  and  O10_10 
ROOT
HETATM    1  C1  UNL     1     -43.326   3.622  -0.077  1.00 20.00     0.000 C 
HETATM    2  C2  UNL     1     -42.601   4.766   0.424  1.00 20.00     0.022 C 
HETATM    3  C3  UNL     1     -43.166   3.198  -1.339  1.00 20.00     0.008 C 
HETATM    4  C4  UNL     1     -41.556   5.261  -0.254  1.00 20.00     0.048 C 
HETATM    5  C7  UNL     1     -42.211   3.884  -2.282  1.00 20.00     0.184 C 
HETATM    6  C8  UNL     1     -41.096   4.665  -1.556  1.00 20.00     0.247 C 
HETATM    7  F11 UNL     1     -40.061   3.809  -1.301  1.00 20.00    -0.240 F 
HETATM    8 CL12 UNL     1     -40.659   6.607   0.339  1.00 20.00    -0.086 Cl
ENDROOT
BRANCH   5   9
HETATM    9  O10 UNL     1     -41.607   2.932  -3.152  1.00 20.00    -0.373 OA
BRANCH   9  10
HETATM   10  C9  UNL     1     -42.430   1.786  -3.311  1.00 20.00     0.122 A 
HETATM   11  C5  UNL     1     -42.682   1.344  -4.724  1.00 20.00     0.034 A 
HETATM   12  C6  UNL     1     -41.753   0.557  -3.848  1.00 20.00     0.034 A 
ENDBRANCH   9  10
ENDBRANCH   5   9
TORSDOF 2
ENDMDL
MODEL 8
REMARK VINA RESULT:      -4.1      3.199      3.976
REMARK  2 active torsions:
REMARK  status: ('A' for Active; 'I' for Inactive)
REMARK    1  A    between atoms: C7_7  and  O10_10 
REMARK    2  A    between atoms: C9_9  and  O10_10 
ROOT
HETATM    1  C1  UNL     1     -35.219  15.877  -6.030  1.00 20.00     0.000 C 
HETATM    2  C2  UNL     1     -33.920  15.674  -5.434  1.00 20.00     0.022 C 
HETATM    3  C3  UNL     1     -36.285  15.170  -5.625  1.00 20.00     0.008 C 
HETATM    4  C4  UNL     1     -33.794  14.988  -4.289  1.00 20.00     0.048 C 
HETATM    5  C7  UNL     1     -36.177  14.148  -4.522  1.00 20.00     0.184 C 
HETATM    6  C8  UNL     1     -34.981  14.397  -3.580  1.00 20.00     0.247 C 
HETATM    7  F11 UNL     1     -35.375  15.260  -2.596  1.00 20.00    -0.240 F 
HETATM    8 CL12 UNL     1     -32.257  14.759  -3.546  1.00 20.00    -0.086 Cl
ENDROOT
BRANCH   5   9
HETATM    9  O10 UNL     1     -37.371  14.132  -3.747  1.00 20.00    -0.373 OA
BRANCH   9  10
HETATM   10  C9  UNL     1     -38.324  15.057  -4.250  1.00 20.00     0.122 A 
HETATM   11  C5  UNL     1     -39.724  14.540  -4.414  1.00 20.00     0.034 A 
HETATM   12  C6  UNL     1     -39.400  15.481  -3.291  1.00 20.00     0.034 A 
ENDBRANCH   9  10
ENDBRANCH   5   9
TORSDOF 2
ENDMDL
MODEL 9
REMARK VINA RESULT:      -4.1      1.576      1.988
REMARK  2 active torsions:
REMARK  status: ('A' for Active; 'I' for Inactive)
REMARK    1  A    between atoms: C7_7  and  O10_10 
REMARK    2  A    between atoms: C9_9  and  O10_10 
ROOT
HETATM    1  C1  UNL     1     -36.731  16.709  -4.557  1.00 20.00     0.000 C 
HETATM    2  C2  UNL     1     -36.192  16.175  -5.786  1.00 20.00     0.022 C 
HETATM    3  C3  UNL     1     -36.212  16.368  -3.367  1.00 20.00     0.008 C 
HETATM    4  C4  UNL     1     -35.003  15.557  -5.797  1.00 20.00     0.048 C 
HETATM    5  C7  UNL     1     -35.035  15.432  -3.264  1.00 20.00     0.184 C 
HETATM    6  C8  UNL     1     -34.184  15.382  -4.549  1.00 20.00     0.247 C 
HETATM    7  F11 UNL     1     -33.255  16.384  -4.494  1.00 20.00    -0.240 F 
HETATM    8 CL12 UNL     1     -34.328  14.940  -7.257  1.00 20.00    -0.086 Cl
ENDROOT
BRANCH   5   9
HETATM    9  O10 UNL     1     -34.197  15.812  -2.177  1.00 20.00    -0.373 OA
BRANCH   9  10
HETATM   10  C9  UNL     1     -34.633  17.031  -1.593  1.00 20.00     0.122 A 
HETATM   11  C5  UNL     1     -34.750  17.041  -0.096  1.00 20.00     0.034 A 
HETATM   12  C6  UNL     1     -33.618  17.764  -0.764  1.00 20.00     0.034 A 
ENDBRANCH   9  10
ENDBRANCH   5   9
TORSDOF 2
ENDMDL
