MODEL 1
REMARK VINA RESULT:      -3.8      0.000      0.000
REMARK  2 active torsions:
REMARK  status: ('A' for Active; 'I' for Inactive)
REMARK    1  A    between atoms: C7_7  and  P9_9 
REMARK    2  A    between atoms: C8_8  and  P9_9 
ROOT
HETATM    1  P9  UNL     1     -35.824  15.992  -4.522  1.00 20.00    -0.001 P 
HETATM    2 CL10 UNL     1     -37.286  14.679  -3.800  1.00 20.00    -0.094 Cl
ENDROOT
BRANCH   1   3
HETATM    3  C7  UNL     1     -35.396  15.100  -6.124  1.00 20.00    -0.014 C 
HETATM    4  C1  UNL     1     -36.625  15.110  -7.044  1.00 20.00     0.021 C 
HETATM    5  C2  UNL     1     -34.230  15.830  -6.806  1.00 20.00     0.021 C 
HETATM    6  C3  UNL     1     -34.992  13.651  -5.813  1.00 20.00     0.021 C 
ENDBRANCH   1   3
BRANCH   1   7
HETATM    7  C8  UNL     1     -34.376  15.464  -3.539  1.00 20.00    -0.014 C 
HETATM    8  C4  UNL     1     -34.511  16.021  -2.115  1.00 20.00     0.021 C 
HETATM    9  C5  UNL     1     -34.336  13.931  -3.496  1.00 20.00     0.021 C 
HETATM   10  C6  UNL     1     -33.092  16.001  -4.188  1.00 20.00     0.021 C 
ENDBRANCH   1   7
TORSDOF 2
ENDMDL
MODEL 2
REMARK VINA RESULT:      -3.8      0.062      1.364
REMARK  2 active torsions:
REMARK  status: ('A' for Active; 'I' for Inactive)
REMARK    1  A    between atoms: C7_7  and  P9_9 
REMARK    2  A    between atoms: C8_8  and  P9_9 
ROOT
HETATM    1  P9  UNL     1     -35.868  15.962  -4.545  1.00 20.00    -0.001 P 
HETATM    2 CL10 UNL     1     -37.311  14.619  -3.841  1.00 20.00    -0.094 Cl
ENDROOT
BRANCH   1   3
HETATM    3  C7  UNL     1     -35.392  15.073  -6.135  1.00 20.00    -0.014 C 
HETATM    4  C1  UNL     1     -36.593  15.085  -7.093  1.00 20.00     0.021 C 
HETATM    5  C2  UNL     1     -34.206  15.804  -6.780  1.00 20.00     0.021 C 
HETATM    6  C3  UNL     1     -34.998  13.623  -5.815  1.00 20.00     0.021 C 
ENDBRANCH   1   3
BRANCH   1   7
HETATM    7  C8  UNL     1     -34.426  15.473  -3.535  1.00 20.00    -0.014 C 
HETATM    8  C4  UNL     1     -33.156  16.069  -4.159  1.00 20.00     0.021 C 
HETATM    9  C5  UNL     1     -34.609  16.015  -2.111  1.00 20.00     0.021 C 
HETATM   10  C6  UNL     1     -34.319  13.942  -3.501  1.00 20.00     0.021 C 
ENDBRANCH   1   7
TORSDOF 2
ENDMDL
MODEL 3
REMARK VINA RESULT:      -3.7      0.070      1.932
REMARK  2 active torsions:
REMARK  status: ('A' for Active; 'I' for Inactive)
REMARK    1  A    between atoms: C7_7  and  P9_9 
REMARK    2  A    between atoms: C8_8  and  P9_9 
ROOT
HETATM    1  P9  UNL     1     -35.858  15.948  -4.558  1.00 20.00    -0.001 P 
HETATM    2 CL10 UNL     1     -37.297  14.607  -3.841  1.00 20.00    -0.094 Cl
ENDROOT
BRANCH   1   3
HETATM    3  C7  UNL     1     -35.384  15.048  -6.143  1.00 20.00    -0.014 C 
HETATM    4  C1  UNL     1     -35.011  13.598  -5.802  1.00 20.00     0.021 C 
HETATM    5  C2  UNL     1     -36.582  15.064  -7.103  1.00 20.00     0.021 C 
HETATM    6  C3  UNL     1     -34.186  15.753  -6.796  1.00 20.00     0.021 C 
ENDBRANCH   1   3
BRANCH   1   7
HETATM    7  C8  UNL     1     -34.412  15.468  -3.548  1.00 20.00    -0.014 C 
HETATM    8  C4  UNL     1     -33.144  16.061  -4.180  1.00 20.00     0.021 C 
HETATM    9  C5  UNL     1     -34.592  16.021  -2.127  1.00 20.00     0.021 C 
HETATM   10  C6  UNL     1     -34.303  13.937  -3.502  1.00 20.00     0.021 C 
ENDBRANCH   1   7
TORSDOF 2
ENDMDL
MODEL 4
REMARK VINA RESULT:      -3.6      1.343      1.522
REMARK  2 active torsions:
REMARK  status: ('A' for Active; 'I' for Inactive)
REMARK    1  A    between atoms: C7_7  and  P9_9 
REMARK    2  A    between atoms: C8_8  and  P9_9 
ROOT
HETATM    1  P9  UNL     1     -35.667  15.313  -3.998  1.00 20.00    -0.001 P 
HETATM    2 CL10 UNL     1     -35.132  13.299  -4.200  1.00 20.00    -0.094 Cl
ENDROOT
BRANCH   1   3
HETATM    3  C7  UNL     1     -35.556  15.827  -5.807  1.00 20.00    -0.014 C 
HETATM    4  C1  UNL     1     -36.740  15.217  -6.572  1.00 20.00     0.021 C 
HETATM    5  C2  UNL     1     -35.615  17.359  -5.894  1.00 20.00     0.021 C 
HETATM    6  C3  UNL     1     -34.235  15.323  -6.405  1.00 20.00     0.021 C 
ENDBRANCH   1   3
BRANCH   1   7
HETATM    7  C8  UNL     1     -34.085  16.030  -3.430  1.00 20.00    -0.014 C 
HETATM    8  C4  UNL     1     -34.189  16.341  -1.930  1.00 20.00     0.021 C 
HETATM    9  C5  UNL     1     -32.961  15.013  -3.674  1.00 20.00     0.021 C 
HETATM   10  C6  UNL     1     -33.797  17.322  -4.209  1.00 20.00     0.021 C 
ENDBRANCH   1   7
TORSDOF 2
ENDMDL
MODEL 5
REMARK VINA RESULT:      -3.6      2.129      2.700
REMARK  2 active torsions:
REMARK  status: ('A' for Active; 'I' for Inactive)
REMARK    1  A    between atoms: C7_7  and  P9_9 
REMARK    2  A    between atoms: C8_8  and  P9_9 
ROOT
HETATM    1  P9  UNL     1     -34.668  14.989  -3.525  1.00 20.00    -0.001 P 
HETATM    2 CL10 UNL     1     -32.584  14.793  -3.559  1.00 20.00    -0.094 Cl
ENDROOT
BRANCH   1   3
HETATM    3  C7  UNL     1     -34.937  15.555  -5.301  1.00 20.00    -0.014 C 
HETATM    4  C1  UNL     1     -33.810  16.520  -5.694  1.00 20.00     0.021 C 
HETATM    5  C2  UNL     1     -34.915  14.328  -6.224  1.00 20.00     0.021 C 
HETATM    6  C3  UNL     1     -36.294  16.265  -5.414  1.00 20.00     0.021 C 
ENDBRANCH   1   3
BRANCH   1   7
HETATM    7  C8  UNL     1     -34.844  16.615  -2.708  1.00 20.00    -0.014 C 
HETATM    8  C4  UNL     1     -36.260  17.150  -2.963  1.00 20.00     0.021 C 
HETATM    9  C5  UNL     1     -34.617  16.441  -1.200  1.00 20.00     0.021 C 
HETATM   10  C6  UNL     1     -33.808  17.592  -3.282  1.00 20.00     0.021 C 
ENDBRANCH   1   7
TORSDOF 2
ENDMDL
MODEL 6
REMARK VINA RESULT:      -3.6      2.009      3.808
REMARK  2 active torsions:
REMARK  status: ('A' for Active; 'I' for Inactive)
REMARK    1  A    between atoms: C7_7  and  P9_9 
REMARK    2  A    between atoms: C8_8  and  P9_9 
ROOT
HETATM    1  P9  UNL     1     -33.749  16.117  -4.597  1.00 20.00    -0.001 P 
HETATM    2 CL10 UNL     1     -32.535  14.671  -3.692  1.00 20.00    -0.094 Cl
ENDROOT
BRANCH   1   3
HETATM    3  C7  UNL     1     -34.977  16.386  -3.194  1.00 20.00    -0.014 C 
HETATM    4  C1  UNL     1     -34.208  16.482  -1.869  1.00 20.00     0.021 C 
HETATM    5  C2  UNL     1     -35.743  17.693  -3.446  1.00 20.00     0.021 C 
HETATM    6  C3  UNL     1     -35.961  15.208  -3.140  1.00 20.00     0.021 C 
ENDBRANCH   1   3
BRANCH   1   7
HETATM    7  C8  UNL     1     -34.799  15.063  -5.659  1.00 20.00    -0.014 C 
HETATM    8  C4  UNL     1     -34.238  15.080  -7.088  1.00 20.00     0.021 C 
HETATM    9  C5  UNL     1     -34.783  13.630  -5.110  1.00 20.00     0.021 C 
HETATM   10  C6  UNL     1     -36.236  15.605  -5.659  1.00 20.00     0.021 C 
ENDBRANCH   1   7
TORSDOF 2
ENDMDL
MODEL 7
REMARK VINA RESULT:      -3.6      2.240      3.182
REMARK  2 active torsions:
REMARK  status: ('A' for Active; 'I' for Inactive)
REMARK    1  A    between atoms: C7_7  and  P9_9 
REMARK    2  A    between atoms: C8_8  and  P9_9 
ROOT
HETATM    1  P9  UNL     1     -33.337  15.991  -4.293  1.00 20.00    -0.001 P 
HETATM    2 CL10 UNL     1     -33.803  16.453  -2.304  1.00 20.00    -0.094 Cl
ENDROOT
BRANCH   1   3
HETATM    3  C7  UNL     1     -34.313  17.357  -5.146  1.00 20.00    -0.014 C 
HETATM    4  C1  UNL     1     -33.542  18.678  -5.015  1.00 20.00     0.021 C 
HETATM    5  C2  UNL     1     -34.481  16.999  -6.629  1.00 20.00     0.021 C 
HETATM    6  C3  UNL     1     -35.693  17.493  -4.485  1.00 20.00     0.021 C 
ENDBRANCH   1   3
BRANCH   1   7
HETATM    7  C8  UNL     1     -34.497  14.614  -4.603  1.00 20.00    -0.014 C 
HETATM    8  C4  UNL     1     -33.882  13.313  -4.067  1.00 20.00     0.021 C 
HETATM    9  C5  UNL     1     -35.818  14.902  -3.876  1.00 20.00     0.021 C 
HETATM   10  C6  UNL     1     -34.750  14.486  -6.113  1.00 20.00     0.021 C 
ENDBRANCH   1   7
TORSDOF 2
ENDMDL
