MODEL 1
REMARK VINA RESULT:      -4.0      0.000      0.000
REMARK  1 active torsions:
REMARK  status: ('A' for Active; 'I' for Inactive)
REMARK    1  A    between atoms: C1_1  and  C4_4 
ROOT
HETATM    1  C2  UNL     1     -33.970  16.710  -2.915  1.00 20.00     0.038 C 
HETATM    2  C3  UNL     1     -34.892  15.843  -2.080  1.00 20.00     0.169 C 
HETATM    3  C4  UNL     1     -34.959  15.087  -4.280  1.00 20.00     0.190 C 
HETATM    4  C5  UNL     1     -33.616  15.802  -4.088  1.00 20.00    -0.013 C 
HETATM    5  C6  UNL     1     -32.467  14.856  -3.694  1.00 20.00     0.018 C 
HETATM    6  C7  UNL     1     -33.207  16.599  -5.329  1.00 20.00     0.018 C 
HETATM    7  O9  UNL     1     -35.535  14.927  -2.979  1.00 20.00    -0.378 OA
ENDROOT
BRANCH   3   8
HETATM    8  C1  UNL     1     -34.873  13.733  -4.906  1.00 20.00     0.263 C 
HETATM    9  O8  UNL     1     -35.110  12.692  -4.302  1.00 20.00    -0.304 OA
ENDBRANCH   3   8
TORSDOF 1
ENDMDL
MODEL 2
REMARK VINA RESULT:      -4.0      1.525      2.789
REMARK  1 active torsions:
REMARK  status: ('A' for Active; 'I' for Inactive)
REMARK    1  A    between atoms: C1_1  and  C4_4 
ROOT
HETATM    1  C2  UNL     1     -33.533  14.249  -3.831  1.00 20.00     0.038 C 
HETATM    2  C3  UNL     1     -34.181  13.222  -4.739  1.00 20.00     0.169 C 
HETATM    3  C4  UNL     1     -35.848  14.260  -3.490  1.00 20.00     0.190 C 
HETATM    4  C5  UNL     1     -34.666  15.235  -3.565  1.00 20.00    -0.013 C 
HETATM    5  C6  UNL     1     -34.773  16.241  -4.727  1.00 20.00     0.018 C 
HETATM    6  C7  UNL     1     -34.468  16.000  -2.255  1.00 20.00     0.018 C 
HETATM    7  O9  UNL     1     -35.581  13.210  -4.426  1.00 20.00    -0.378 OA
ENDROOT
BRANCH   3   8
HETATM    8  C1  UNL     1     -37.178  14.848  -3.835  1.00 20.00     0.263 C 
HETATM    9  O8  UNL     1     -38.225  14.209  -3.815  1.00 20.00    -0.304 OA
ENDBRANCH   3   8
TORSDOF 1
ENDMDL
MODEL 3
REMARK VINA RESULT:      -3.9      1.598      2.734
REMARK  1 active torsions:
REMARK  status: ('A' for Active; 'I' for Inactive)
REMARK    1  A    between atoms: C1_1  and  C4_4 
ROOT
HETATM    1  C2  UNL     1     -33.993  17.741  -3.321  1.00 20.00     0.038 C 
HETATM    2  C3  UNL     1     -33.487  17.333  -4.692  1.00 20.00     0.169 C 
HETATM    3  C4  UNL     1     -33.529  15.448  -3.328  1.00 20.00     0.190 C 
HETATM    4  C5  UNL     1     -34.554  16.438  -2.762  1.00 20.00    -0.013 C 
HETATM    5  C6  UNL     1     -35.983  16.210  -3.288  1.00 20.00     0.018 C 
HETATM    6  C7  UNL     1     -34.575  16.431  -1.232  1.00 20.00     0.018 C 
HETATM    7  O9  UNL     1     -33.136  15.944  -4.612  1.00 20.00    -0.378 OA
ENDROOT
BRANCH   3   8
HETATM    8  C1  UNL     1     -34.030  14.053  -3.515  1.00 20.00     0.263 C 
HETATM    9  O8  UNL     1     -33.306  13.107  -3.809  1.00 20.00    -0.304 OA
ENDBRANCH   3   8
TORSDOF 1
ENDMDL
MODEL 4
REMARK VINA RESULT:      -3.9      1.223      2.133
REMARK  1 active torsions:
REMARK  status: ('A' for Active; 'I' for Inactive)
REMARK    1  A    between atoms: C1_1  and  C4_4 
ROOT
HETATM    1  C2  UNL     1     -33.283  16.752  -4.763  1.00 20.00     0.038 C 
HETATM    2  C3  UNL     1     -34.541  17.001  -5.573  1.00 20.00     0.169 C 
HETATM    3  C4  UNL     1     -34.415  14.729  -5.085  1.00 20.00     0.190 C 
HETATM    4  C5  UNL     1     -33.612  15.467  -4.007  1.00 20.00    -0.013 C 
HETATM    5  C6  UNL     1     -34.432  15.793  -2.745  1.00 20.00     0.018 C 
HETATM    6  C7  UNL     1     -32.351  14.700  -3.603  1.00 20.00     0.018 C 
HETATM    7  O9  UNL     1     -35.144  15.721  -5.814  1.00 20.00    -0.378 OA
ENDROOT
BRANCH   3   8
HETATM    8  C1  UNL     1     -35.399  13.730  -4.569  1.00 20.00     0.263 C 
HETATM    9  O8  UNL     1     -35.104  12.574  -4.284  1.00 20.00    -0.304 OA
ENDBRANCH   3   8
TORSDOF 1
ENDMDL
MODEL 5
REMARK VINA RESULT:      -3.9      1.341      2.524
REMARK  1 active torsions:
REMARK  status: ('A' for Active; 'I' for Inactive)
REMARK    1  A    between atoms: C1_1  and  C4_4 
ROOT
HETATM    1  C2  UNL     1     -33.714  17.153  -3.797  1.00 20.00     0.038 C 
HETATM    2  C3  UNL     1     -33.470  16.590  -5.184  1.00 20.00     0.169 C 
HETATM    3  C4  UNL     1     -34.181  14.860  -3.800  1.00 20.00     0.190 C 
HETATM    4  C5  UNL     1     -34.713  16.167  -3.199  1.00 20.00    -0.013 C 
HETATM    5  C6  UNL     1     -36.140  16.519  -3.659  1.00 20.00     0.018 C 
HETATM    6  C7  UNL     1     -34.666  16.157  -1.670  1.00 20.00     0.018 C 
HETATM    7  O9  UNL     1     -33.685  15.174  -5.106  1.00 20.00    -0.378 OA
ENDROOT
BRANCH   3   8
HETATM    8  C1  UNL     1     -35.195  13.772  -3.951  1.00 20.00     0.263 C 
HETATM    9  O8  UNL     1     -34.957  12.695  -4.485  1.00 20.00    -0.304 OA
ENDBRANCH   3   8
TORSDOF 1
ENDMDL
MODEL 6
REMARK VINA RESULT:      -3.9      1.790      3.189
REMARK  1 active torsions:
REMARK  status: ('A' for Active; 'I' for Inactive)
REMARK    1  A    between atoms: C1_1  and  C4_4 
ROOT
HETATM    1  C2  UNL     1     -34.855  13.692  -3.817  1.00 20.00     0.038 C 
HETATM    2  C3  UNL     1     -34.744  13.430  -5.307  1.00 20.00     0.169 C 
HETATM    3  C4  UNL     1     -34.399  15.700  -4.929  1.00 20.00     0.190 C 
HETATM    4  C5  UNL     1     -34.036  14.966  -3.632  1.00 20.00    -0.013 C 
HETATM    5  C6  UNL     1     -32.539  14.619  -3.521  1.00 20.00     0.018 C 
HETATM    6  C7  UNL     1     -34.463  15.749  -2.389  1.00 20.00     0.018 C 
HETATM    7  O9  UNL     1     -34.554  14.702  -5.943  1.00 20.00    -0.378 OA
ENDROOT
BRANCH   3   8
HETATM    8  C1  UNL     1     -33.378  16.680  -5.410  1.00 20.00     0.263 C 
HETATM    9  O8  UNL     1     -33.369  17.862  -5.083  1.00 20.00    -0.304 OA
ENDBRANCH   3   8
TORSDOF 1
ENDMDL
MODEL 7
REMARK VINA RESULT:      -3.9      1.755      2.688
REMARK  1 active torsions:
REMARK  status: ('A' for Active; 'I' for Inactive)
REMARK    1  A    between atoms: C1_1  and  C4_4 
ROOT
HETATM    1  C2  UNL     1     -34.698  17.031  -5.711  1.00 20.00     0.038 C 
HETATM    2  C3  UNL     1     -33.312  16.915  -5.105  1.00 20.00     0.169 C 
HETATM    3  C4  UNL     1     -34.509  14.989  -4.583  1.00 20.00     0.190 C 
HETATM    4  C5  UNL     1     -35.129  15.574  -5.857  1.00 20.00    -0.013 C 
HETATM    5  C6  UNL     1     -34.547  14.980  -7.153  1.00 20.00     0.018 C 
HETATM    6  C7  UNL     1     -36.652  15.425  -5.876  1.00 20.00     0.018 C 
HETATM    7  O9  UNL     1     -33.283  15.692  -4.355  1.00 20.00    -0.378 OA
ENDROOT
BRANCH   3   8
HETATM    8  C1  UNL     1     -34.190  13.531  -4.644  1.00 20.00     0.263 C 
HETATM    9  O8  UNL     1     -35.017  12.648  -4.438  1.00 20.00    -0.304 OA
ENDBRANCH   3   8
TORSDOF 1
ENDMDL
MODEL 8
REMARK VINA RESULT:      -3.8      1.859      2.719
REMARK  1 active torsions:
REMARK  status: ('A' for Active; 'I' for Inactive)
REMARK    1  A    between atoms: C1_1  and  C4_4 
ROOT
HETATM    1  C2  UNL     1     -36.948  15.222  -5.790  1.00 20.00     0.038 C 
HETATM    2  C3  UNL     1     -37.598  14.865  -4.467  1.00 20.00     0.169 C 
HETATM    3  C4  UNL     1     -35.508  13.847  -4.561  1.00 20.00     0.190 C 
HETATM    4  C5  UNL     1     -35.460  15.064  -5.493  1.00 20.00    -0.013 C 
HETATM    5  C6  UNL     1     -34.919  16.337  -4.815  1.00 20.00     0.018 C 
HETATM    6  C7  UNL     1     -34.648  14.786  -6.760  1.00 20.00     0.018 C 
HETATM    7  O9  UNL     1     -36.714  13.954  -3.798  1.00 20.00    -0.378 OA
ENDROOT
BRANCH   3   8
HETATM    8  C1  UNL     1     -34.370  13.741  -3.598  1.00 20.00     0.263 C 
HETATM    9  O8  UNL     1     -33.341  13.117  -3.833  1.00 20.00    -0.304 OA
ENDBRANCH   3   8
TORSDOF 1
ENDMDL
MODEL 9
REMARK VINA RESULT:      -3.8      1.486      1.717
REMARK  1 active torsions:
REMARK  status: ('A' for Active; 'I' for Inactive)
REMARK    1  A    between atoms: C1_1  and  C4_4 
ROOT
HETATM    1  C2  UNL     1     -33.628  16.009  -3.405  1.00 20.00     0.038 C 
HETATM    2  C3  UNL     1     -34.492  15.984  -2.158  1.00 20.00     0.169 C 
HETATM    3  C4  UNL     1     -35.840  15.525  -3.998  1.00 20.00     0.190 C 
HETATM    4  C5  UNL     1     -34.408  15.129  -4.378  1.00 20.00    -0.013 C 
HETATM    5  C6  UNL     1     -34.091  13.645  -4.115  1.00 20.00     0.018 C 
HETATM    6  C7  UNL     1     -34.087  15.461  -5.836  1.00 20.00     0.018 C 
HETATM    7  O9  UNL     1     -35.844  15.773  -2.588  1.00 20.00    -0.378 OA
ENDROOT
BRANCH   3   8
HETATM    8  C1  UNL     1     -36.880  14.490  -4.280  1.00 20.00     0.263 C 
HETATM    9  O8  UNL     1     -37.862  14.307  -3.568  1.00 20.00    -0.304 OA
ENDBRANCH   3   8
TORSDOF 1
ENDMDL
