MODEL 1
REMARK VINA RESULT:      -4.3      0.000      0.000
REMARK  1 active torsions:
REMARK  status: ('A' for Active; 'I' for Inactive)
REMARK    1  A    between atoms: C1_1  and  C5_5 
ROOT
HETATM    1  C3  UNL     1     -34.746   3.804   5.213  1.00 20.00     0.009 A 
HETATM    2  C4  UNL     1     -35.067   4.687   6.380  1.00 20.00     0.009 A 
HETATM    3  C5  UNL     1     -35.071   5.255   4.987  1.00 20.00     0.009 A 
ENDROOT
BRANCH   3   4
HETATM    4  C1  UNL     1     -34.006   6.164   4.593  1.00 20.00    -0.015 C 
HETATM    5  C2  UNL     1     -33.403   6.124   3.400  1.00 20.00     0.052 C 
HETATM    6 BR6  UNL     1     -32.044   7.273   2.876  1.00 20.00    -0.064 Br
ENDBRANCH   3   4
TORSDOF 1
ENDMDL
MODEL 2
REMARK VINA RESULT:      -4.2      0.840      1.227
REMARK  1 active torsions:
REMARK  status: ('A' for Active; 'I' for Inactive)
REMARK    1  A    between atoms: C1_1  and  C5_5 
ROOT
HETATM    1  C3  UNL     1     -34.766   5.351   6.128  1.00 20.00     0.009 A 
HETATM    2  C4  UNL     1     -35.315   4.674   4.909  1.00 20.00     0.009 A 
HETATM    3  C5  UNL     1     -33.905   5.201   4.904  1.00 20.00     0.009 A 
ENDROOT
BRANCH   3   4
HETATM    4  C1  UNL     1     -33.595   6.379   4.109  1.00 20.00    -0.015 C 
HETATM    5  C2  UNL     1     -32.503   6.490   3.346  1.00 20.00     0.052 C 
HETATM    6 BR6  UNL     1     -32.088   7.982   2.325  1.00 20.00    -0.064 Br
ENDBRANCH   3   4
TORSDOF 1
ENDMDL
MODEL 3
REMARK VINA RESULT:      -3.5      2.475      4.016
REMARK  1 active torsions:
REMARK  status: ('A' for Active; 'I' for Inactive)
REMARK    1  A    between atoms: C1_1  and  C5_5 
ROOT
HETATM    1  C3  UNL     1     -31.681   7.445   3.671  1.00 20.00     0.009 A 
HETATM    2  C4  UNL     1     -32.144   7.135   2.280  1.00 20.00     0.009 A 
HETATM    3  C5  UNL     1     -33.142   7.205   3.404  1.00 20.00     0.009 A 
ENDROOT
BRANCH   3   4
HETATM    4  C1  UNL     1     -33.754   5.975   3.882  1.00 20.00    -0.015 C 
HETATM    5  C2  UNL     1     -34.162   5.793   5.142  1.00 20.00     0.052 C 
HETATM    6 BR6  UNL     1     -34.947   4.235   5.772  1.00 20.00    -0.064 Br
ENDBRANCH   3   4
TORSDOF 1
ENDMDL
MODEL 4
REMARK VINA RESULT:      -3.4      2.843      4.819
REMARK  1 active torsions:
REMARK  status: ('A' for Active; 'I' for Inactive)
REMARK    1  A    between atoms: C1_1  and  C5_5 
ROOT
HETATM    1  C3  UNL     1     -31.746   8.374   0.951  1.00 20.00     0.009 A 
HETATM    2  C4  UNL     1     -32.441   9.360   1.840  1.00 20.00     0.009 A 
HETATM    3  C5  UNL     1     -31.989   8.037   2.397  1.00 20.00     0.009 A 
ENDROOT
BRANCH   3   4
HETATM    4  C1  UNL     1     -32.989   7.034   2.730  1.00 20.00    -0.015 C 
HETATM    5  C2  UNL     1     -33.219   6.605   3.975  1.00 20.00     0.052 C 
HETATM    6 BR6  UNL     1     -34.488   5.328   4.422  1.00 20.00    -0.064 Br
ENDBRANCH   3   4
TORSDOF 1
ENDMDL
MODEL 5
REMARK VINA RESULT:      -3.3     12.053     12.434
REMARK  1 active torsions:
REMARK  status: ('A' for Active; 'I' for Inactive)
REMARK    1  A    between atoms: C1_1  and  C5_5 
ROOT
HETATM    1  C3  UNL     1     -33.492  13.717  -3.809  1.00 20.00     0.009 A 
HETATM    2  C4  UNL     1     -34.924  13.440  -4.156  1.00 20.00     0.009 A 
HETATM    3  C5  UNL     1     -34.485  14.846  -3.848  1.00 20.00     0.009 A 
ENDROOT
BRANCH   3   4
HETATM    4  C1  UNL     1     -34.908  15.459  -2.598  1.00 20.00    -0.015 C 
HETATM    5  C2  UNL     1     -34.184  16.370  -1.940  1.00 20.00     0.052 C 
HETATM    6 BR6  UNL     1     -34.704  17.165  -0.347  1.00 20.00    -0.064 Br
ENDBRANCH   3   4
TORSDOF 1
ENDMDL
MODEL 6
REMARK VINA RESULT:      -3.2     12.391     12.755
REMARK  1 active torsions:
REMARK  status: ('A' for Active; 'I' for Inactive)
REMARK    1  A    between atoms: C1_1  and  C5_5 
ROOT
HETATM    1  C3  UNL     1     -34.779  17.018  -0.160  1.00 20.00     0.009 A 
HETATM    2  C4  UNL     1     -33.591  17.725  -0.740  1.00 20.00     0.009 A 
HETATM    3  C5  UNL     1     -34.604  17.088  -1.652  1.00 20.00     0.009 A 
ENDROOT
BRANCH   3   4
HETATM    4  C1  UNL     1     -34.239  15.881  -2.378  1.00 20.00    -0.015 C 
HETATM    5  C2  UNL     1     -35.100  15.174  -3.116  1.00 20.00     0.052 C 
HETATM    6 BR6  UNL     1     -34.656  13.634  -4.050  1.00 20.00    -0.064 Br
ENDBRANCH   3   4
TORSDOF 1
ENDMDL
MODEL 7
REMARK VINA RESULT:      -3.1     12.302     12.732
REMARK  1 active torsions:
REMARK  status: ('A' for Active; 'I' for Inactive)
REMARK    1  A    between atoms: C1_1  and  C5_5 
ROOT
HETATM    1  C3  UNL     1     -34.744  17.913  -1.518  1.00 20.00     0.009 A 
HETATM    2  C4  UNL     1     -34.671  16.975  -0.351  1.00 20.00     0.009 A 
HETATM    3  C5  UNL     1     -34.099  16.564  -1.681  1.00 20.00     0.009 A 
ENDROOT
BRANCH   3   4
HETATM    4  C1  UNL     1     -34.785  15.543  -2.458  1.00 20.00    -0.015 C 
HETATM    5  C2  UNL     1     -34.175  14.762  -3.355  1.00 20.00     0.052 C 
HETATM    6 BR6  UNL     1     -35.028  13.454  -4.356  1.00 20.00    -0.064 Br
ENDBRANCH   3   4
TORSDOF 1
ENDMDL
MODEL 8
REMARK VINA RESULT:      -3.1      9.749     10.192
REMARK  1 active torsions:
REMARK  status: ('A' for Active; 'I' for Inactive)
REMARK    1  A    between atoms: C1_1  and  C5_5 
ROOT
HETATM    1  C3  UNL     1     -40.718   6.111  -0.051  1.00 20.00     0.009 A 
HETATM    2  C4  UNL     1     -41.149   6.803  -1.308  1.00 20.00     0.009 A 
HETATM    3  C5  UNL     1     -41.719   5.454  -0.961  1.00 20.00     0.009 A 
ENDROOT
BRANCH   3   4
HETATM    4  C1  UNL     1     -41.311   4.295  -1.739  1.00 20.00    -0.015 C 
HETATM    5  C2  UNL     1     -42.151   3.577  -2.492  1.00 20.00     0.052 C 
HETATM    6 BR6  UNL     1     -41.654   2.097  -3.493  1.00 20.00    -0.064 Br
ENDBRANCH   3   4
TORSDOF 1
ENDMDL
MODEL 9
REMARK VINA RESULT:      -3.1     12.088     12.656
REMARK  1 active torsions:
REMARK  status: ('A' for Active; 'I' for Inactive)
REMARK    1  A    between atoms: C1_1  and  C5_5 
ROOT
HETATM    1  C3  UNL     1     -34.337  14.602  -4.756  1.00 20.00     0.009 A 
HETATM    2  C4  UNL     1     -33.668  13.657  -3.804  1.00 20.00     0.009 A 
HETATM    3  C5  UNL     1     -34.588  14.725  -3.278  1.00 20.00     0.009 A 
ENDROOT
BRANCH   3   4
HETATM    4  C1  UNL     1     -34.019  15.852  -2.556  1.00 20.00    -0.015 C 
HETATM    5  C2  UNL     1     -34.562  16.371  -1.450  1.00 20.00     0.052 C 
HETATM    6 BR6  UNL     1     -33.855  17.807  -0.513  1.00 20.00    -0.064 Br
ENDBRANCH   3   4
TORSDOF 1
ENDMDL
