MODEL 1
REMARK VINA RESULT:      -4.5      0.000      0.000
REMARK  1 active torsions:
REMARK  status: ('A' for Active; 'I' for Inactive)
REMARK    1  A    between atoms: C3_3  and  C6_6 
ROOT
HETATM    1  C1  UNL     1     -34.347  14.675  -3.246  1.00 20.00     0.068 A 
HETATM    2  C2  UNL     1     -34.115  16.670  -4.521  1.00 20.00     0.126 A 
HETATM    3  C3  UNL     1     -34.028  16.028  -3.295  1.00 20.00    -0.023 A 
HETATM    4  C4  UNL     1     -34.736  14.016  -4.406  1.00 20.00     0.212 A 
HETATM    5  C5  UNL     1     -34.791  14.747  -5.581  1.00 20.00     0.175 A 
HETATM    6  N7  UNL     1     -34.489  16.062  -5.669  1.00 20.00    -0.244 NA
HETATM    7  O8  UNL     1     -35.029  12.769  -4.356  1.00 20.00    -0.285 OA
HETATM    8 CL9  UNL     1     -35.255  14.083  -7.109  1.00 20.00    -0.058 Cl
ENDROOT
BRANCH   3   9
HETATM    9  C6  UNL     1     -33.608  16.762  -2.073  1.00 20.00     0.154 C 
HETATM   10 CL10 UNL     1     -34.748  16.470  -0.737  1.00 20.00    -0.126 Cl
ENDBRANCH   3   9
TORSDOF 1
ENDMDL
MODEL 2
REMARK VINA RESULT:      -4.2      1.067      1.067
REMARK  1 active torsions:
REMARK  status: ('A' for Active; 'I' for Inactive)
REMARK    1  A    between atoms: C3_3  and  C6_6 
ROOT
HETATM    1  C1  UNL     1     -35.292  15.469  -2.769  1.00 20.00     0.068 A 
HETATM    2  C2  UNL     1     -33.478  16.348  -4.033  1.00 20.00     0.126 A 
HETATM    3  C3  UNL     1     -34.163  16.280  -2.830  1.00 20.00    -0.023 A 
HETATM    4  C4  UNL     1     -35.694  14.763  -3.896  1.00 20.00     0.212 A 
HETATM    5  C5  UNL     1     -34.941  14.899  -5.051  1.00 20.00     0.175 A 
HETATM    6  N7  UNL     1     -33.839  15.676  -5.149  1.00 20.00    -0.244 NA
HETATM    7  O8  UNL     1     -36.735  14.017  -3.836  1.00 20.00    -0.285 OA
HETATM    8 CL9  UNL     1     -35.302  14.092  -6.538  1.00 20.00    -0.058 Cl
ENDROOT
BRANCH   3   9
HETATM    9  C6  UNL     1     -33.706  17.049  -1.642  1.00 20.00     0.154 C 
HETATM   10 CL10 UNL     1     -34.809  16.802  -0.267  1.00 20.00    -0.126 Cl
ENDBRANCH   3   9
TORSDOF 1
ENDMDL
MODEL 3
REMARK VINA RESULT:      -4.1     11.520     12.449
REMARK  1 active torsions:
REMARK  status: ('A' for Active; 'I' for Inactive)
REMARK    1  A    between atoms: C3_3  and  C6_6 
ROOT
HETATM    1  C1  UNL     1     -32.817   7.212   4.528  1.00 20.00     0.068 A 
HETATM    2  C2  UNL     1     -33.500   5.856   2.696  1.00 20.00     0.126 A 
HETATM    3  C3  UNL     1     -32.745   6.917   3.171  1.00 20.00    -0.023 A 
HETATM    4  C4  UNL     1     -33.631   6.448   5.357  1.00 20.00     0.212 A 
HETATM    5  C5  UNL     1     -34.346   5.408   4.785  1.00 20.00     0.175 A 
HETATM    6  N7  UNL     1     -34.301   5.091   3.472  1.00 20.00    -0.244 NA
HETATM    7  O8  UNL     1     -33.695   6.723   6.607  1.00 20.00    -0.285 OA
HETATM    8 CL9  UNL     1     -35.402   4.364   5.671  1.00 20.00    -0.058 Cl
ENDROOT
BRANCH   3   9
HETATM    9  C6  UNL     1     -31.884   7.715   2.258  1.00 20.00     0.154 C 
HETATM   10 CL10 UNL     1     -32.654   9.270   1.861  1.00 20.00    -0.126 Cl
ENDBRANCH   3   9
TORSDOF 1
ENDMDL
MODEL 4
REMARK VINA RESULT:      -4.1      2.005      2.259
REMARK  1 active torsions:
REMARK  status: ('A' for Active; 'I' for Inactive)
REMARK    1  A    between atoms: C3_3  and  C6_6 
ROOT
HETATM    1  C1  UNL     1     -33.779  16.129  -2.513  1.00 20.00     0.068 A 
HETATM    2  C2  UNL     1     -36.114  15.804  -2.833  1.00 20.00     0.126 A 
HETATM    3  C3  UNL     1     -35.086  16.514  -2.232  1.00 20.00    -0.023 A 
HETATM    4  C4  UNL     1     -33.544  15.062  -3.374  1.00 20.00     0.212 A 
HETATM    5  C5  UNL     1     -34.641  14.419  -3.923  1.00 20.00     0.175 A 
HETATM    6  N7  UNL     1     -35.924  14.763  -3.674  1.00 20.00    -0.244 NA
HETATM    7  O8  UNL     1     -32.338  14.711  -3.630  1.00 20.00    -0.285 OA
HETATM    8 CL9  UNL     1     -34.526  13.077  -5.009  1.00 20.00    -0.058 Cl
ENDROOT
BRANCH   3   9
HETATM    9  C6  UNL     1     -35.370  17.650  -1.317  1.00 20.00     0.154 C 
HETATM   10 CL10 UNL     1     -34.976  17.221   0.366  1.00 20.00    -0.126 Cl
ENDBRANCH   3   9
TORSDOF 1
ENDMDL
MODEL 5
REMARK VINA RESULT:      -4.0      2.810      3.380
REMARK  1 active torsions:
REMARK  status: ('A' for Active; 'I' for Inactive)
REMARK    1  A    between atoms: C3_3  and  C6_6 
ROOT
HETATM    1  C1  UNL     1     -36.432  14.118  -4.165  1.00 20.00     0.068 A 
HETATM    2  C2  UNL     1     -35.788  16.043  -2.923  1.00 20.00     0.126 A 
HETATM    3  C3  UNL     1     -36.791  15.303  -3.530  1.00 20.00    -0.023 A 
HETATM    4  C4  UNL     1     -35.101  13.717  -4.174  1.00 20.00     0.212 A 
HETATM    5  C5  UNL     1     -34.174  14.528  -3.539  1.00 20.00     0.175 A 
HETATM    6  N7  UNL     1     -34.485  15.685  -2.912  1.00 20.00    -0.244 NA
HETATM    7  O8  UNL     1     -34.775  12.625  -4.761  1.00 20.00    -0.285 OA
HETATM    8 CL9  UNL     1     -32.483  14.177  -3.458  1.00 20.00    -0.058 Cl
ENDROOT
BRANCH   3   9
HETATM    9  C6  UNL     1     -38.205  15.760  -3.502  1.00 20.00     0.154 C 
HETATM   10 CL10 UNL     1     -39.268  14.576  -4.301  1.00 20.00    -0.126 Cl
ENDBRANCH   3   9
TORSDOF 1
ENDMDL
MODEL 6
REMARK VINA RESULT:      -4.0     12.190     13.435
REMARK  1 active torsions:
REMARK  status: ('A' for Active; 'I' for Inactive)
REMARK    1  A    between atoms: C3_3  and  C6_6 
ROOT
HETATM    1  C1  UNL     1     -42.895   4.825  -2.945  1.00 20.00     0.068 A 
HETATM    2  C2  UNL     1     -41.047   4.038  -1.670  1.00 20.00     0.126 A 
HETATM    3  C3  UNL     1     -42.091   3.765  -2.540  1.00 20.00    -0.023 A 
HETATM    4  C4  UNL     1     -42.634   6.107  -2.474  1.00 20.00     0.212 A 
HETATM    5  C5  UNL     1     -41.567   6.275  -1.607  1.00 20.00     0.175 A 
HETATM    6  N7  UNL     1     -40.763   5.270  -1.192  1.00 20.00    -0.244 NA
HETATM    7  O8  UNL     1     -43.378   7.081  -2.849  1.00 20.00    -0.285 OA
HETATM    8 CL9  UNL     1     -41.106   7.799  -0.930  1.00 20.00    -0.058 Cl
ENDROOT
BRANCH   3   9
HETATM    9  C6  UNL     1     -42.343   2.382  -3.025  1.00 20.00     0.154 C 
HETATM   10 CL10 UNL     1     -40.998   1.815  -4.044  1.00 20.00    -0.126 Cl
ENDBRANCH   3   9
TORSDOF 1
ENDMDL
MODEL 7
REMARK VINA RESULT:      -3.9      2.177      2.585
REMARK  1 active torsions:
REMARK  status: ('A' for Active; 'I' for Inactive)
REMARK    1  A    between atoms: C3_3  and  C6_6 
ROOT
HETATM    1  C1  UNL     1     -33.917  17.266  -3.372  1.00 20.00     0.068 A 
HETATM    2  C2  UNL     1     -34.771  15.060  -3.116  1.00 20.00     0.126 A 
HETATM    3  C3  UNL     1     -34.414  16.269  -2.539  1.00 20.00    -0.023 A 
HETATM    4  C4  UNL     1     -33.792  17.026  -4.736  1.00 20.00     0.212 A 
HETATM    5  C5  UNL     1     -34.177  15.784  -5.214  1.00 20.00     0.175 A 
HETATM    6  N7  UNL     1     -34.665  14.791  -4.437  1.00 20.00    -0.244 NA
HETATM    7  O8  UNL     1     -33.333  17.947  -5.500  1.00 20.00    -0.285 OA
HETATM    8 CL9  UNL     1     -34.087  15.323  -6.879  1.00 20.00    -0.058 Cl
ENDROOT
BRANCH   3   9
HETATM    9  C6  UNL     1     -34.560  16.493  -1.077  1.00 20.00     0.154 C 
HETATM   10 CL10 UNL     1     -33.501  17.817  -0.532  1.00 20.00    -0.126 Cl
ENDBRANCH   3   9
TORSDOF 1
ENDMDL
MODEL 8
REMARK VINA RESULT:      -3.8      4.527      6.538
REMARK  1 active torsions:
REMARK  status: ('A' for Active; 'I' for Inactive)
REMARK    1  A    between atoms: C3_3  and  C6_6 
ROOT
HETATM    1  C1  UNL     1     -33.167  18.152  -1.056  1.00 20.00     0.068 A 
HETATM    2  C2  UNL     1     -34.987  17.447   0.304  1.00 20.00     0.126 A 
HETATM    3  C3  UNL     1     -34.402  17.521  -0.950  1.00 20.00    -0.023 A 
HETATM    4  C4  UNL     1     -32.564  18.682   0.079  1.00 20.00     0.212 A 
HETATM    5  C5  UNL     1     -33.231  18.556   1.287  1.00 20.00     0.175 A 
HETATM    6  N7  UNL     1     -34.431  17.950   1.430  1.00 20.00    -0.244 NA
HETATM    7  O8  UNL     1     -31.426  19.263  -0.023  1.00 20.00    -0.285 OA
HETATM    8 CL9  UNL     1     -32.623  19.158   2.790  1.00 20.00    -0.058 Cl
ENDROOT
BRANCH   3   9
HETATM    9  C6  UNL     1     -35.073  16.943  -2.144  1.00 20.00     0.154 C 
HETATM   10 CL10 UNL     1     -34.208  15.497  -2.718  1.00 20.00    -0.126 Cl
ENDBRANCH   3   9
TORSDOF 1
ENDMDL
MODEL 9
REMARK VINA RESULT:      -3.8     12.277     13.514
REMARK  1 active torsions:
REMARK  status: ('A' for Active; 'I' for Inactive)
REMARK    1  A    between atoms: C3_3  and  C6_6 
ROOT
HETATM    1  C1  UNL     1     -41.106   4.242  -1.570  1.00 20.00     0.068 A 
HETATM    2  C2  UNL     1     -42.931   4.690  -3.029  1.00 20.00     0.126 A 
HETATM    3  C3  UNL     1     -41.963   3.807  -2.575  1.00 20.00    -0.023 A 
HETATM    4  C4  UNL     1     -41.240   5.528  -1.058  1.00 20.00     0.212 A 
HETATM    5  C5  UNL     1     -42.239   6.333  -1.580  1.00 20.00     0.175 A 
HETATM    6  N7  UNL     1     -43.091   5.946  -2.556  1.00 20.00    -0.244 NA
HETATM    7  O8  UNL     1     -40.448   5.925  -0.132  1.00 20.00    -0.285 OA
HETATM    8 CL9  UNL     1     -42.542   7.954  -1.058  1.00 20.00    -0.058 Cl
ENDROOT
BRANCH   3   9
HETATM    9  C6  UNL     1     -41.847   2.438  -3.144  1.00 20.00     0.154 C 
HETATM   10 CL10 UNL     1     -42.901   2.252  -4.566  1.00 20.00    -0.126 Cl
ENDBRANCH   3   9
TORSDOF 1
ENDMDL
