MODEL 1
REMARK VINA RESULT:      -4.7      0.000      0.000
REMARK  0 active torsions:
REMARK  status: ('A' for Active; 'I' for Inactive)
ROOT
HETATM    1  C1  UNL     1     -34.386   5.788   6.461  1.00 20.00     0.032 A 
HETATM    2  C2  UNL     1     -33.059   6.935   4.616  1.00 20.00     0.037 A 
HETATM    3  C3  UNL     1     -33.350   6.001   2.375  1.00 20.00     0.003 A 
HETATM    4  C4  UNL     1     -35.212   4.738   6.314  1.00 20.00     0.118 A 
HETATM    5  C5  UNL     1     -33.897   6.047   5.149  1.00 20.00    -0.008 A 
HETATM    6  C6  UNL     1     -32.783   6.906   3.194  1.00 20.00     0.031 A 
HETATM    7  C7  UNL     1     -34.554   5.027   4.313  1.00 20.00     0.048 A 
HETATM    8  C8  UNL     1     -34.315   4.940   2.834  1.00 20.00     0.088 A 
HETATM    9  N9  UNL     1     -35.338   4.251   5.018  1.00 20.00    -0.264 NA
HETATM   10 CL10 UNL     1     -31.688   8.086   2.568  1.00 20.00    -0.085 Cl
ENDROOT
TORSDOF 0
ENDMDL
MODEL 2
REMARK VINA RESULT:      -4.5     12.195     13.137
REMARK  0 active torsions:
REMARK  status: ('A' for Active; 'I' for Inactive)
ROOT
HETATM    1  C1  UNL     1     -34.438  16.633  -1.100  1.00 20.00     0.032 A 
HETATM    2  C2  UNL     1     -34.595  14.940  -2.994  1.00 20.00     0.037 A 
HETATM    3  C3  UNL     1     -33.873  15.744  -5.187  1.00 20.00     0.003 A 
HETATM    4  C4  UNL     1     -34.004  17.901  -1.198  1.00 20.00     0.118 A 
HETATM    5  C5  UNL     1     -34.332  16.113  -2.421  1.00 20.00    -0.008 A 
HETATM    6  C6  UNL     1     -34.358  14.757  -4.412  1.00 20.00     0.031 A 
HETATM    7  C7  UNL     1     -33.799  17.239  -3.209  1.00 20.00     0.048 A 
HETATM    8  C8  UNL     1     -33.530  17.120  -4.680  1.00 20.00     0.088 A 
HETATM    9  N9  UNL     1     -33.606  18.302  -2.469  1.00 20.00    -0.264 NA
HETATM   10 CL10 UNL     1     -34.720  13.211  -5.091  1.00 20.00    -0.085 Cl
ENDROOT
TORSDOF 0
ENDMDL
MODEL 3
REMARK VINA RESULT:      -4.4     12.003     13.039
REMARK  0 active torsions:
REMARK  status: ('A' for Active; 'I' for Inactive)
ROOT
HETATM    1  C1  UNL     1     -35.092  13.569  -4.167  1.00 20.00     0.032 A 
HETATM    2  C2  UNL     1     -34.566  15.385  -2.462  1.00 20.00     0.037 A 
HETATM    3  C3  UNL     1     -33.647  17.457  -3.380  1.00 20.00     0.003 A 
HETATM    4  C4  UNL     1     -34.913  13.648  -5.496  1.00 20.00     0.118 A 
HETATM    5  C5  UNL     1     -34.651  14.828  -3.668  1.00 20.00    -0.008 A 
HETATM    6  C6  UNL     1     -34.050  16.732  -2.320  1.00 20.00     0.031 A 
HETATM    7  C7  UNL     1     -34.228  15.563  -4.874  1.00 20.00     0.048 A 
HETATM    8  C8  UNL     1     -33.686  16.960  -4.802  1.00 20.00     0.088 A 
HETATM    9  N9  UNL     1     -34.389  14.849  -5.960  1.00 20.00    -0.264 NA
HETATM   10 CL10 UNL     1     -33.967  17.394  -0.727  1.00 20.00    -0.085 Cl
ENDROOT
TORSDOF 0
ENDMDL
MODEL 4
REMARK VINA RESULT:      -4.3     12.489     13.672
REMARK  0 active torsions:
REMARK  status: ('A' for Active; 'I' for Inactive)
ROOT
HETATM    1  C1  UNL     1     -33.474  14.668  -3.690  1.00 20.00     0.032 A 
HETATM    2  C2  UNL     1     -33.821  16.360  -5.560  1.00 20.00     0.037 A 
HETATM    3  C3  UNL     1     -35.100  15.556  -7.482  1.00 20.00     0.003 A 
HETATM    4  C4  UNL     1     -33.922  13.401  -3.668  1.00 20.00     0.118 A 
HETATM    5  C5  UNL     1     -33.925  15.188  -4.936  1.00 20.00    -0.008 A 
HETATM    6  C6  UNL     1     -34.425  16.542  -6.865  1.00 20.00     0.031 A 
HETATM    7  C7  UNL     1     -34.651  14.063  -5.553  1.00 20.00     0.048 A 
HETATM    8  C8  UNL     1     -35.301  14.181  -6.900  1.00 20.00     0.088 A 
HETATM    9  N9  UNL     1     -34.643  13.001  -4.787  1.00 20.00    -0.264 NA
HETATM   10 CL10 UNL     1     -34.252  18.087  -7.617  1.00 20.00    -0.085 Cl
ENDROOT
TORSDOF 0
ENDMDL
MODEL 5
REMARK VINA RESULT:      -4.3      9.904     11.065
REMARK  0 active torsions:
REMARK  status: ('A' for Active; 'I' for Inactive)
ROOT
HETATM    1  C1  UNL     1     -41.662   2.337  -3.068  1.00 20.00     0.032 A 
HETATM    2  C2  UNL     1     -41.035   4.282  -1.549  1.00 20.00     0.037 A 
HETATM    3  C3  UNL     1     -42.420   6.284  -1.776  1.00 20.00     0.003 A 
HETATM    4  C4  UNL     1     -42.664   2.316  -3.963  1.00 20.00     0.118 A 
HETATM    5  C5  UNL     1     -41.729   3.634  -2.483  1.00 20.00    -0.008 A 
HETATM    6  C6  UNL     1     -41.394   5.639  -1.191  1.00 20.00     0.031 A 
HETATM    7  C7  UNL     1     -42.866   4.277  -3.166  1.00 20.00     0.048 A 
HETATM    8  C8  UNL     1     -43.293   5.679  -2.845  1.00 20.00     0.088 A 
HETATM    9  N9  UNL     1     -43.417   3.481  -4.048  1.00 20.00    -0.264 NA
HETATM   10 CL10 UNL     1     -40.453   6.421   0.029  1.00 20.00    -0.085 Cl
ENDROOT
TORSDOF 0
ENDMDL
MODEL 6
REMARK VINA RESULT:      -4.2     12.233     13.325
REMARK  0 active torsions:
REMARK  status: ('A' for Active; 'I' for Inactive)
ROOT
HETATM    1  C1  UNL     1     -34.570  14.133  -5.833  1.00 20.00     0.032 A 
HETATM    2  C2  UNL     1     -34.022  16.578  -5.385  1.00 20.00     0.037 A 
HETATM    3  C3  UNL     1     -33.725  17.177  -3.033  1.00 20.00     0.003 A 
HETATM    4  C4  UNL     1     -34.708  13.165  -4.911  1.00 20.00     0.118 A 
HETATM    5  C5  UNL     1     -34.269  15.305  -5.083  1.00 20.00    -0.008 A 
HETATM    6  C6  UNL     1     -33.744  17.533  -4.330  1.00 20.00     0.031 A 
HETATM    7  C7  UNL     1     -34.264  14.844  -3.683  1.00 20.00     0.048 A 
HETATM    8  C8  UNL     1     -33.985  15.777  -2.541  1.00 20.00     0.088 A 
HETATM    9  N9  UNL     1     -34.527  13.564  -3.591  1.00 20.00    -0.264 NA
HETATM   10 CL10 UNL     1     -33.431  19.167  -4.793  1.00 20.00    -0.085 Cl
ENDROOT
TORSDOF 0
ENDMDL
MODEL 7
REMARK VINA RESULT:      -4.2     12.248     13.656
REMARK  0 active torsions:
REMARK  status: ('A' for Active; 'I' for Inactive)
ROOT
HETATM    1  C1  UNL     1     -34.381  16.207  -7.059  1.00 20.00     0.032 A 
HETATM    2  C2  UNL     1     -34.040  16.485  -4.552  1.00 20.00     0.037 A 
HETATM    3  C3  UNL     1     -34.593  14.530  -3.191  1.00 20.00     0.003 A 
HETATM    4  C4  UNL     1     -34.829  15.105  -7.685  1.00 20.00     0.118 A 
HETATM    5  C5  UNL     1     -34.370  15.857  -5.679  1.00 20.00    -0.008 A 
HETATM    6  C6  UNL     1     -34.157  15.800  -3.280  1.00 20.00     0.031 A 
HETATM    7  C7  UNL     1     -34.855  14.465  -5.657  1.00 20.00     0.048 A 
HETATM    8  C8  UNL     1     -35.000  13.696  -4.377  1.00 20.00     0.088 A 
HETATM    9  N9  UNL     1     -35.126  14.026  -6.861  1.00 20.00    -0.264 NA
HETATM   10 CL10 UNL     1     -33.711  16.672  -1.857  1.00 20.00    -0.085 Cl
ENDROOT
TORSDOF 0
ENDMDL
MODEL 8
REMARK VINA RESULT:      -4.2      9.701     10.711
REMARK  0 active torsions:
REMARK  status: ('A' for Active; 'I' for Inactive)
ROOT
HETATM    1  C1  UNL     1     -40.590   6.057  -0.464  1.00 20.00     0.032 A 
HETATM    2  C2  UNL     1     -41.210   3.941  -1.737  1.00 20.00     0.037 A 
HETATM    3  C3  UNL     1     -43.019   4.183  -3.364  1.00 20.00     0.003 A 
HETATM    4  C4  UNL     1     -41.158   7.267  -0.605  1.00 20.00     0.118 A 
HETATM    5  C5  UNL     1     -41.283   5.225  -1.388  1.00 20.00    -0.008 A 
HETATM    6  C6  UNL     1     -42.102   3.414  -2.750  1.00 20.00     0.031 A 
HETATM    7  C7  UNL     1     -42.263   6.127  -2.019  1.00 20.00     0.048 A 
HETATM    8  C8  UNL     1     -43.217   5.648  -3.074  1.00 20.00     0.088 A 
HETATM    9  N9  UNL     1     -42.180   7.344  -1.544  1.00 20.00    -0.264 NA
HETATM   10 CL10 UNL     1     -41.952   1.741  -3.155  1.00 20.00    -0.085 Cl
ENDROOT
TORSDOF 0
ENDMDL
MODEL 9
REMARK VINA RESULT:      -4.1     12.325     13.382
REMARK  0 active torsions:
REMARK  status: ('A' for Active; 'I' for Inactive)
ROOT
HETATM    1  C1  UNL     1     -34.615  15.464  -2.747  1.00 20.00     0.032 A 
HETATM    2  C2  UNL     1     -34.644  16.702  -0.522  1.00 20.00     0.037 A 
HETATM    3  C3  UNL     1     -33.734  18.971  -0.569  1.00 20.00     0.003 A 
HETATM    4  C4  UNL     1     -34.153  15.937  -3.917  1.00 20.00     0.118 A 
HETATM    5  C5  UNL     1     -34.409  16.526  -1.822  1.00 20.00    -0.008 A 
HETATM    6  C6  UNL     1     -34.295  17.956   0.114  1.00 20.00     0.031 A 
HETATM    7  C7  UNL     1     -33.797  17.595  -2.632  1.00 20.00     0.048 A 
HETATM    8  C8  UNL     1     -33.412  18.918  -2.039  1.00 20.00     0.088 A 
HETATM    9  N9  UNL     1     -33.649  17.233  -3.882  1.00 20.00    -0.264 NA
HETATM   10 CL10 UNL     1     -34.627  18.117   1.801  1.00 20.00    -0.085 Cl
ENDROOT
TORSDOF 0
ENDMDL
