MODEL 1
REMARK VINA RESULT:      -4.7      0.000      0.000
REMARK  0 active torsions:
REMARK  status: ('A' for Active; 'I' for Inactive)
ROOT
HETATM    1  C1  UNL     1     -32.605   6.597   2.697  1.00 20.00     0.004 A 
HETATM    2  C2  UNL     1     -33.469   6.020   3.529  1.00 20.00    -0.036 A 
HETATM    3  C3  UNL     1     -33.144   6.646   4.812  1.00 20.00     0.035 A 
HETATM    4  C4  UNL     1     -31.716   7.549   3.419  1.00 20.00     0.177 A 
HETATM    5  C5  UNL     1     -34.541   5.019   3.345  1.00 20.00     0.040 C 
HETATM    6  C6  UNL     1     -33.963   6.329   6.033  1.00 20.00     0.059 C 
HETATM    7  C7  UNL     1     -35.533   5.051   4.510  1.00 20.00     0.005 C 
HETATM    8  C8  UNL     1     -34.808   5.067   5.858  1.00 20.00     0.006 C 
HETATM    9  N9  UNL     1     -32.169   7.510   4.829  1.00 20.00    -0.290 NA
ENDROOT
TORSDOF 0
ENDMDL
MODEL 2
REMARK VINA RESULT:      -4.6      1.135      2.127
REMARK  0 active torsions:
REMARK  status: ('A' for Active; 'I' for Inactive)
ROOT
HETATM    1  C1  UNL     1     -32.376   7.432   4.349  1.00 20.00     0.004 A 
HETATM    2  C2  UNL     1     -33.295   6.624   4.873  1.00 20.00    -0.036 A 
HETATM    3  C3  UNL     1     -33.675   5.789   3.732  1.00 20.00     0.035 A 
HETATM    4  C4  UNL     1     -32.183   7.157   2.898  1.00 20.00     0.177 A 
HETATM    5  C5  UNL     1     -33.863   6.478   6.230  1.00 20.00     0.040 C 
HETATM    6  C6  UNL     1     -34.653   4.661   3.917  1.00 20.00     0.059 C 
HETATM    7  C7  UNL     1     -34.528   5.111   6.407  1.00 20.00     0.005 C 
HETATM    8  C8  UNL     1     -35.438   4.778   5.222  1.00 20.00     0.006 C 
HETATM    9  N9  UNL     1     -33.096   6.032   2.590  1.00 20.00    -0.290 NA
ENDROOT
TORSDOF 0
ENDMDL
MODEL 3
REMARK VINA RESULT:      -4.5      9.794     11.072
REMARK  0 active torsions:
REMARK  status: ('A' for Active; 'I' for Inactive)
ROOT
HETATM    1  C1  UNL     1     -42.033   3.266  -2.561  1.00 20.00     0.004 A 
HETATM    2  C2  UNL     1     -41.633   4.376  -1.947  1.00 20.00    -0.036 A 
HETATM    3  C3  UNL     1     -42.503   5.398  -2.533  1.00 20.00     0.035 A 
HETATM    4  C4  UNL     1     -43.112   3.555  -3.547  1.00 20.00     0.177 A 
HETATM    5  C5  UNL     1     -40.614   4.653  -0.913  1.00 20.00     0.040 C 
HETATM    6  C6  UNL     1     -42.434   6.818  -2.042  1.00 20.00     0.059 C 
HETATM    7  C7  UNL     1     -40.875   5.993  -0.222  1.00 20.00     0.005 C 
HETATM    8  C8  UNL     1     -41.162   7.098  -1.243  1.00 20.00     0.006 C 
HETATM    9  N9  UNL     1     -43.355   5.013  -3.441  1.00 20.00    -0.290 NA
ENDROOT
TORSDOF 0
ENDMDL
MODEL 4
REMARK VINA RESULT:      -4.5      1.247      3.121
REMARK  0 active torsions:
REMARK  status: ('A' for Active; 'I' for Inactive)
ROOT
HETATM    1  C1  UNL     1     -35.225   4.626   4.929  1.00 20.00     0.004 A 
HETATM    2  C2  UNL     1     -34.389   5.309   4.150  1.00 20.00    -0.036 A 
HETATM    3  C3  UNL     1     -33.737   6.216   5.097  1.00 20.00     0.035 A 
HETATM    4  C4  UNL     1     -35.147   5.094   6.341  1.00 20.00     0.177 A 
HETATM    5  C5  UNL     1     -34.078   5.259   2.706  1.00 20.00     0.040 C 
HETATM    6  C6  UNL     1     -32.634   7.126   4.630  1.00 20.00     0.059 C 
HETATM    7  C7  UNL     1     -32.728   5.913   2.407  1.00 20.00     0.005 C 
HETATM    8  C8  UNL     1     -32.600   7.268   3.109  1.00 20.00     0.006 C 
HETATM    9  N9  UNL     1     -34.113   6.155   6.343  1.00 20.00    -0.290 NA
ENDROOT
TORSDOF 0
ENDMDL
MODEL 5
REMARK VINA RESULT:      -4.3     11.276     12.328
REMARK  0 active torsions:
REMARK  status: ('A' for Active; 'I' for Inactive)
ROOT
HETATM    1  C1  UNL     1     -36.583  16.128  -3.018  1.00 20.00     0.004 A 
HETATM    2  C2  UNL     1     -35.406  15.534  -3.195  1.00 20.00    -0.036 A 
HETATM    3  C3  UNL     1     -35.771  14.297  -3.886  1.00 20.00     0.035 A 
HETATM    4  C4  UNL     1     -37.694  15.289  -3.549  1.00 20.00     0.177 A 
HETATM    5  C5  UNL     1     -34.017  15.914  -2.857  1.00 20.00     0.040 C 
HETATM    6  C6  UNL     1     -34.699  13.352  -4.356  1.00 20.00     0.059 C 
HETATM    7  C7  UNL     1     -33.008  15.116  -3.687  1.00 20.00     0.005 C 
HETATM    8  C8  UNL     1     -33.350  13.624  -3.693  1.00 20.00     0.006 C 
HETATM    9  N9  UNL     1     -37.037  14.088  -4.116  1.00 20.00    -0.290 NA
ENDROOT
TORSDOF 0
ENDMDL
MODEL 6
REMARK VINA RESULT:      -4.3      1.639      3.663
REMARK  0 active torsions:
REMARK  status: ('A' for Active; 'I' for Inactive)
ROOT
HETATM    1  C1  UNL     1     -34.163   6.086   6.316  1.00 20.00     0.004 A 
HETATM    2  C2  UNL     1     -33.610   6.266   5.119  1.00 20.00    -0.036 A 
HETATM    3  C3  UNL     1     -34.339   5.310   4.283  1.00 20.00     0.035 A 
HETATM    4  C4  UNL     1     -35.202   5.020   6.275  1.00 20.00     0.177 A 
HETATM    5  C5  UNL     1     -32.552   7.166   4.615  1.00 20.00     0.040 C 
HETATM    6  C6  UNL     1     -34.074   5.249   2.804  1.00 20.00     0.059 C 
HETATM    7  C7  UNL     1     -32.623   7.306   3.093  1.00 20.00     0.005 C 
HETATM    8  C8  UNL     1     -32.768   5.940   2.416  1.00 20.00     0.006 C 
HETATM    9  N9  UNL     1     -35.245   4.574   4.862  1.00 20.00    -0.290 NA
ENDROOT
TORSDOF 0
ENDMDL
MODEL 7
REMARK VINA RESULT:      -4.3     12.067     13.297
REMARK  0 active torsions:
REMARK  status: ('A' for Active; 'I' for Inactive)
ROOT
HETATM    1  C1  UNL     1     -34.605  16.440  -6.645  1.00 20.00     0.004 A 
HETATM    2  C2  UNL     1     -34.406  15.422  -5.811  1.00 20.00    -0.036 A 
HETATM    3  C3  UNL     1     -33.538  16.010  -4.789  1.00 20.00     0.035 A 
HETATM    4  C4  UNL     1     -33.860  17.652  -6.202  1.00 20.00     0.177 A 
HETATM    5  C5  UNL     1     -34.888  14.025  -5.783  1.00 20.00     0.040 C 
HETATM    6  C6  UNL     1     -33.135  15.201  -3.587  1.00 20.00     0.059 C 
HETATM    7  C7  UNL     1     -34.755  13.422  -4.382  1.00 20.00     0.005 C 
HETATM    8  C8  UNL     1     -33.374  13.704  -3.785  1.00 20.00     0.006 C 
HETATM    9  N9  UNL     1     -33.186  17.255  -4.943  1.00 20.00    -0.290 NA
ENDROOT
TORSDOF 0
ENDMDL
MODEL 8
REMARK VINA RESULT:      -4.2     12.162     13.514
REMARK  0 active torsions:
REMARK  status: ('A' for Active; 'I' for Inactive)
ROOT
HETATM    1  C1  UNL     1     -34.312  16.260  -6.999  1.00 20.00     0.004 A 
HETATM    2  C2  UNL     1     -34.097  15.662  -5.830  1.00 20.00    -0.036 A 
HETATM    3  C3  UNL     1     -34.772  14.373  -6.001  1.00 20.00     0.035 A 
HETATM    4  C4  UNL     1     -35.133  15.403  -7.900  1.00 20.00     0.177 A 
HETATM    5  C5  UNL     1     -33.371  16.058  -4.605  1.00 20.00     0.040 C 
HETATM    6  C6  UNL     1     -34.698  13.335  -4.916  1.00 20.00     0.059 C 
HETATM    7  C7  UNL     1     -33.029  14.839  -3.746  1.00 20.00     0.005 C 
HETATM    8  C8  UNL     1     -34.240  13.918  -3.580  1.00 20.00     0.006 C 
HETATM    9  N9  UNL     1     -35.379  14.159  -7.134  1.00 20.00    -0.290 NA
ENDROOT
TORSDOF 0
ENDMDL
MODEL 9
REMARK VINA RESULT:      -4.2     12.152     13.448
REMARK  0 active torsions:
REMARK  status: ('A' for Active; 'I' for Inactive)
ROOT
HETATM    1  C1  UNL     1     -35.322  14.406  -7.107  1.00 20.00     0.004 A 
HETATM    2  C2  UNL     1     -34.702  14.358  -5.930  1.00 20.00    -0.036 A 
HETATM    3  C3  UNL     1     -34.092  15.685  -5.834  1.00 20.00     0.035 A 
HETATM    4  C4  UNL     1     -35.096  15.716  -7.780  1.00 20.00     0.177 A 
HETATM    5  C5  UNL     1     -34.593  13.320  -4.883  1.00 20.00     0.040 C 
HETATM    6  C6  UNL     1     -33.350  16.085  -4.588  1.00 20.00     0.059 C 
HETATM    7  C7  UNL     1     -34.172  13.928  -3.543  1.00 20.00     0.005 C 
HETATM    8  C8  UNL     1     -32.989  14.885  -3.714  1.00 20.00     0.006 C 
HETATM    9  N9  UNL     1     -34.266  16.501  -6.836  1.00 20.00    -0.290 NA
ENDROOT
TORSDOF 0
ENDMDL
