MODEL 1
REMARK VINA RESULT:      -4.6      0.000      0.000
REMARK  1 active torsions:
REMARK  status: ('A' for Active; 'I' for Inactive)
REMARK    1  A    between atoms: C3_3  and  C6_6 
ROOT
HETATM    1  C1  UNL     1     -34.121  15.037  -2.977  1.00 20.00     0.055 A 
HETATM    2  C2  UNL     1     -35.131  13.329  -4.287  1.00 20.00     0.160 A 
HETATM    3  C3  UNL     1     -35.363  15.651  -2.873  1.00 20.00    -0.001 A 
HETATM    4  C4  UNL     1     -33.993  13.854  -3.695  1.00 20.00     0.134 A 
HETATM    5  C5  UNL     1     -36.440  15.046  -3.502  1.00 20.00     0.133 A 
HETATM    6  N7  UNL     1     -36.355  13.896  -4.209  1.00 20.00    -0.245 NA
HETATM    7  F8  UNL     1     -32.810  13.241  -3.813  1.00 20.00    -0.205 F 
HETATM    8 CL9  UNL     1     -38.026  15.708  -3.448  1.00 20.00    -0.062 Cl
ENDROOT
BRANCH   3   9
HETATM    9  C6  UNL     1     -35.494  16.918  -2.099  1.00 20.00     0.156 C 
HETATM   10 CL10 UNL     1     -34.698  16.774  -0.515  1.00 20.00    -0.125 Cl
ENDBRANCH   3   9
TORSDOF 1
ENDMDL
MODEL 2
REMARK VINA RESULT:      -4.3      2.382      2.974
REMARK  1 active torsions:
REMARK  status: ('A' for Active; 'I' for Inactive)
REMARK    1  A    between atoms: C3_3  and  C6_6 
ROOT
HETATM    1  C1  UNL     1     -35.958  15.511  -3.070  1.00 20.00     0.055 A 
HETATM    2  C2  UNL     1     -35.681  13.592  -4.447  1.00 20.00     0.160 A 
HETATM    3  C3  UNL     1     -34.576  15.577  -2.936  1.00 20.00    -0.001 A 
HETATM    4  C4  UNL     1     -36.529  14.502  -3.838  1.00 20.00     0.134 A 
HETATM    5  C5  UNL     1     -33.815  14.618  -3.585  1.00 20.00     0.133 A 
HETATM    6  N7  UNL     1     -34.334  13.624  -4.340  1.00 20.00    -0.245 NA
HETATM    7  F8  UNL     1     -37.856  14.413  -3.985  1.00 20.00    -0.205 F 
HETATM    8 CL9  UNL     1     -32.097  14.593  -3.495  1.00 20.00    -0.062 Cl
ENDROOT
BRANCH   3   9
HETATM    9  C6  UNL     1     -33.970  16.661  -2.113  1.00 20.00     0.156 C 
HETATM   10 CL10 UNL     1     -34.678  16.684  -0.481  1.00 20.00    -0.125 Cl
ENDBRANCH   3   9
TORSDOF 1
ENDMDL
MODEL 3
REMARK VINA RESULT:      -4.2      2.343      2.595
REMARK  1 active torsions:
REMARK  status: ('A' for Active; 'I' for Inactive)
REMARK    1  A    between atoms: C3_3  and  C6_6 
ROOT
HETATM    1  C1  UNL     1     -34.406  14.856  -3.138  1.00 20.00     0.055 A 
HETATM    2  C2  UNL     1     -34.483  14.585  -5.499  1.00 20.00     0.160 A 
HETATM    3  C3  UNL     1     -34.003  16.171  -3.331  1.00 20.00    -0.001 A 
HETATM    4  C4  UNL     1     -34.652  14.040  -4.237  1.00 20.00     0.134 A 
HETATM    5  C5  UNL     1     -33.862  16.621  -4.635  1.00 20.00     0.133 A 
HETATM    6  N7  UNL     1     -34.092  15.859  -5.728  1.00 20.00    -0.245 NA
HETATM    7  F8  UNL     1     -35.040  12.770  -4.081  1.00 20.00    -0.205 F 
HETATM    8 CL9  UNL     1     -33.368  18.227  -5.004  1.00 20.00    -0.062 Cl
ENDROOT
BRANCH   3   9
HETATM    9  C6  UNL     1     -33.742  17.041  -2.150  1.00 20.00     0.156 C 
HETATM   10 CL10 UNL     1     -34.693  16.500  -0.748  1.00 20.00    -0.125 Cl
ENDBRANCH   3   9
TORSDOF 1
ENDMDL
MODEL 4
REMARK VINA RESULT:      -4.1      3.552      4.343
REMARK  1 active torsions:
REMARK  status: ('A' for Active; 'I' for Inactive)
REMARK    1  A    between atoms: C3_3  and  C6_6 
ROOT
HETATM    1  C1  UNL     1     -34.608  15.892  -1.931  1.00 20.00     0.055 A 
HETATM    2  C2  UNL     1     -34.020  18.154  -1.489  1.00 20.00     0.160 A 
HETATM    3  C3  UNL     1     -34.272  16.096  -3.264  1.00 20.00    -0.001 A 
HETATM    4  C4  UNL     1     -34.483  16.935  -1.020  1.00 20.00     0.134 A 
HETATM    5  C5  UNL     1     -33.819  17.353  -3.633  1.00 20.00     0.133 A 
HETATM    6  N7  UNL     1     -33.684  18.391  -2.777  1.00 20.00    -0.245 NA
HETATM    7  F8  UNL     1     -34.800  16.768   0.269  1.00 20.00    -0.205 F 
HETATM    8 CL9  UNL     1     -33.373  17.730  -5.251  1.00 20.00    -0.062 Cl
ENDROOT
BRANCH   3   9
HETATM    9  C6  UNL     1     -34.406  14.974  -4.235  1.00 20.00     0.156 C 
HETATM   10 CL10 UNL     1     -33.317  13.635  -3.805  1.00 20.00    -0.125 Cl
ENDBRANCH   3   9
TORSDOF 1
ENDMDL
MODEL 5
REMARK VINA RESULT:      -4.1     11.706     12.137
REMARK  1 active torsions:
REMARK  status: ('A' for Active; 'I' for Inactive)
REMARK    1  A    between atoms: C3_3  and  C6_6 
ROOT
HETATM    1  C1  UNL     1     -33.535   6.673   5.167  1.00 20.00     0.055 A 
HETATM    2  C2  UNL     1     -35.172   4.970   5.438  1.00 20.00     0.160 A 
HETATM    3  C3  UNL     1     -33.460   6.345   3.819  1.00 20.00    -0.001 A 
HETATM    4  C4  UNL     1     -34.405   5.977   6.000  1.00 20.00     0.134 A 
HETATM    5  C5  UNL     1     -34.270   5.320   3.355  1.00 20.00     0.133 A 
HETATM    6  N7  UNL     1     -35.128   4.622   4.133  1.00 20.00    -0.245 NA
HETATM    7  F8  UNL     1     -34.497   6.270   7.302  1.00 20.00    -0.205 F 
HETATM    8 CL9  UNL     1     -34.268   4.821   1.709  1.00 20.00    -0.062 Cl
ENDROOT
BRANCH   3   9
HETATM    9  C6  UNL     1     -32.527   7.095   2.932  1.00 20.00     0.156 C 
HETATM   10 CL10 UNL     1     -31.180   7.780   3.870  1.00 20.00    -0.125 Cl
ENDBRANCH   3   9
TORSDOF 1
ENDMDL
MODEL 6
REMARK VINA RESULT:      -4.1     10.770     11.679
REMARK  1 active torsions:
REMARK  status: ('A' for Active; 'I' for Inactive)
REMARK    1  A    between atoms: C3_3  and  C6_6 
ROOT
HETATM    1  C1  UNL     1     -41.639   6.776  -1.466  1.00 20.00     0.055 A 
HETATM    2  C2  UNL     1     -40.791   4.665  -0.774  1.00 20.00     0.160 A 
HETATM    3  C3  UNL     1     -42.380   6.125  -2.444  1.00 20.00    -0.001 A 
HETATM    4  C4  UNL     1     -40.827   6.040  -0.610  1.00 20.00     0.134 A 
HETATM    5  C5  UNL     1     -42.275   4.745  -2.527  1.00 20.00     0.133 A 
HETATM    6  N7  UNL     1     -41.496   3.995  -1.714  1.00 20.00    -0.245 NA
HETATM    7  F8  UNL     1     -40.102   6.640   0.340  1.00 20.00    -0.205 F 
HETATM    8 CL9  UNL     1     -43.139   3.826  -3.695  1.00 20.00    -0.062 Cl
ENDROOT
BRANCH   3   9
HETATM    9  C6  UNL     1     -43.250   6.919  -3.357  1.00 20.00     0.156 C 
HETATM   10 CL10 UNL     1     -42.310   8.186  -4.179  1.00 20.00    -0.125 Cl
ENDBRANCH   3   9
TORSDOF 1
ENDMDL
MODEL 7
REMARK VINA RESULT:      -4.0     11.084     11.861
REMARK  1 active torsions:
REMARK  status: ('A' for Active; 'I' for Inactive)
REMARK    1  A    between atoms: C3_3  and  C6_6 
ROOT
HETATM    1  C1  UNL     1     -42.609   4.705  -2.934  1.00 20.00     0.055 A 
HETATM    2  C2  UNL     1     -40.814   4.140  -1.480  1.00 20.00     0.160 A 
HETATM    3  C3  UNL     1     -42.499   6.024  -2.508  1.00 20.00    -0.001 A 
HETATM    4  C4  UNL     1     -41.754   3.739  -2.415  1.00 20.00     0.134 A 
HETATM    5  C5  UNL     1     -41.525   6.323  -1.568  1.00 20.00     0.133 A 
HETATM    6  N7  UNL     1     -40.676   5.411  -1.041  1.00 20.00    -0.245 NA
HETATM    7  F8  UNL     1     -41.838   2.462  -2.805  1.00 20.00    -0.205 F 
HETATM    8 CL9  UNL     1     -41.291   7.915  -0.963  1.00 20.00    -0.062 Cl
ENDROOT
BRANCH   3   9
HETATM    9  C6  UNL     1     -43.416   7.055  -3.069  1.00 20.00     0.156 C 
HETATM   10 CL10 UNL     1     -42.571   8.068  -4.262  1.00 20.00    -0.125 Cl
ENDBRANCH   3   9
TORSDOF 1
ENDMDL
MODEL 8
REMARK VINA RESULT:      -4.0      3.385      4.257
REMARK  1 active torsions:
REMARK  status: ('A' for Active; 'I' for Inactive)
REMARK    1  A    between atoms: C3_3  and  C6_6 
ROOT
HETATM    1  C1  UNL     1     -33.250  16.650  -5.115  1.00 20.00     0.055 A 
HETATM    2  C2  UNL     1     -34.149  18.696  -4.302  1.00 20.00     0.160 A 
HETATM    3  C3  UNL     1     -33.520  16.075  -3.879  1.00 20.00    -0.001 A 
HETATM    4  C4  UNL     1     -33.567  17.985  -5.339  1.00 20.00     0.134 A 
HETATM    5  C5  UNL     1     -34.104  16.872  -2.907  1.00 20.00     0.133 A 
HETATM    6  N7  UNL     1     -34.427  18.173  -3.087  1.00 20.00    -0.245 NA
HETATM    7  F8  UNL     1     -33.317  18.566  -6.518  1.00 20.00    -0.205 F 
HETATM    8 CL9  UNL     1     -34.486  16.277  -1.338  1.00 20.00    -0.062 Cl
ENDROOT
BRANCH   3   9
HETATM    9  C6  UNL     1     -33.180  14.644  -3.645  1.00 20.00     0.156 C 
HETATM   10 CL10 UNL     1     -34.633  13.624  -3.758  1.00 20.00    -0.125 Cl
ENDBRANCH   3   9
TORSDOF 1
ENDMDL
MODEL 9
REMARK VINA RESULT:      -3.9      3.380      4.360
REMARK  1 active torsions:
REMARK  status: ('A' for Active; 'I' for Inactive)
REMARK    1  A    between atoms: C3_3  and  C6_6 
ROOT
HETATM    1  C1  UNL     1     -34.567  13.974  -5.375  1.00 20.00     0.055 A 
HETATM    2  C2  UNL     1     -33.329  15.648  -4.226  1.00 20.00     0.160 A 
HETATM    3  C3  UNL     1     -34.738  14.865  -6.428  1.00 20.00    -0.001 A 
HETATM    4  C4  UNL     1     -33.851  14.364  -4.249  1.00 20.00     0.134 A 
HETATM    5  C5  UNL     1     -34.177  16.127  -6.307  1.00 20.00     0.133 A 
HETATM    6  N7  UNL     1     -33.474  16.543  -5.228  1.00 20.00    -0.245 NA
HETATM    7  F8  UNL     1     -33.671  13.528  -3.221  1.00 20.00    -0.205 F 
HETATM    8 CL9  UNL     1     -34.320  17.318  -7.539  1.00 20.00    -0.062 Cl
ENDROOT
BRANCH   3   9
HETATM    9  C6  UNL     1     -35.505  14.441  -7.632  1.00 20.00     0.156 C 
HETATM   10 CL10 UNL     1     -37.189  15.005  -7.538  1.00 20.00    -0.125 Cl
ENDBRANCH   3   9
TORSDOF 1
ENDMDL
