MODEL 1
REMARK VINA RESULT:      -4.5      0.000      0.000
REMARK  2 active torsions:
REMARK  status: ('A' for Active; 'I' for Inactive)
REMARK    1  A    between atoms: C7_7  and  O10_10 
REMARK    2  A    between atoms: C8_8  and  O10_10 
ROOT
HETATM    1  C1  UNL     1     -34.869  13.427  -4.012  1.00 20.00     0.153 C 
HETATM    2  C2  UNL     1     -35.999  15.383  -3.764  1.00 20.00     0.121 C 
HETATM    3  C3  UNL     1     -33.667  13.947  -3.735  1.00 20.00     0.114 C 
HETATM    4  C4  UNL     1     -33.489  15.411  -3.505  1.00 20.00     0.109 C 
HETATM    5  C7  UNL     1     -34.812  16.075  -3.138  1.00 20.00     0.168 C 
HETATM    6  N9  UNL     1     -36.029  14.144  -4.148  1.00 20.00    -0.272 NA
HETATM    7  F11 UNL     1     -32.597  13.127  -3.651  1.00 20.00    -0.209 F 
ENDROOT
BRANCH   5   8
HETATM    8  O10 UNL     1     -35.010  15.995  -1.733  1.00 20.00    -0.375 OA
BRANCH   8   9
HETATM    9  C8  UNL     1     -35.043  17.284  -1.137  1.00 20.00     0.122 A 
HETATM   10  C5  UNL     1     -34.923  17.326   0.360  1.00 20.00     0.034 A 
HETATM   11  C6  UNL     1     -33.765  17.748  -0.497  1.00 20.00     0.034 A 
ENDBRANCH   8   9
ENDBRANCH   5   8
TORSDOF 2
ENDMDL
MODEL 2
REMARK VINA RESULT:      -4.4      1.168      1.298
REMARK  2 active torsions:
REMARK  status: ('A' for Active; 'I' for Inactive)
REMARK    1  A    between atoms: C7_7  and  O10_10 
REMARK    2  A    between atoms: C8_8  and  O10_10 
ROOT
HETATM    1  C1  UNL     1     -33.701  13.298  -3.825  1.00 20.00     0.153 C 
HETATM    2  C2  UNL     1     -35.781  14.086  -4.290  1.00 20.00     0.121 C 
HETATM    3  C3  UNL     1     -33.114  14.501  -3.823  1.00 20.00     0.114 C 
HETATM    4  C4  UNL     1     -33.874  15.736  -4.179  1.00 20.00     0.109 C 
HETATM    5  C7  UNL     1     -35.376  15.518  -4.032  1.00 20.00     0.168 C 
HETATM    6  N9  UNL     1     -35.004  13.054  -4.170  1.00 20.00    -0.272 NA
HETATM    7  F11 UNL     1     -31.811  14.599  -3.482  1.00 20.00    -0.209 F 
ENDROOT
BRANCH   5   8
HETATM    8  O10 UNL     1     -35.769  15.799  -2.695  1.00 20.00    -0.375 OA
BRANCH   8   9
HETATM    9  C8  UNL     1     -35.005  16.861  -2.140  1.00 20.00     0.122 A 
HETATM   10  C5  UNL     1     -35.680  17.676  -1.074  1.00 20.00     0.034 A 
HETATM   11  C6  UNL     1     -34.601  16.701  -0.702  1.00 20.00     0.034 A 
ENDBRANCH   8   9
ENDBRANCH   5   8
TORSDOF 2
ENDMDL
MODEL 3
REMARK VINA RESULT:      -4.4      1.808      2.146
REMARK  2 active torsions:
REMARK  status: ('A' for Active; 'I' for Inactive)
REMARK    1  A    between atoms: C7_7  and  O10_10 
REMARK    2  A    between atoms: C8_8  and  O10_10 
ROOT
HETATM    1  C1  UNL     1     -34.989  14.504  -5.736  1.00 20.00     0.153 C 
HETATM    2  C2  UNL     1     -33.565  16.269  -5.603  1.00 20.00     0.121 C 
HETATM    3  C3  UNL     1     -34.558  13.917  -4.614  1.00 20.00     0.114 C 
HETATM    4  C4  UNL     1     -33.405  14.468  -3.843  1.00 20.00     0.109 C 
HETATM    5  C7  UNL     1     -33.166  15.935  -4.186  1.00 20.00     0.168 C 
HETATM    6  N9  UNL     1     -34.431  15.615  -6.313  1.00 20.00    -0.272 NA
HETATM    7  F11 UNL     1     -35.188  12.810  -4.164  1.00 20.00    -0.209 F 
ENDROOT
BRANCH   5   8
HETATM    8  O10 UNL     1     -33.969  16.757  -3.350  1.00 20.00    -0.375 OA
BRANCH   8   9
HETATM    9  C8  UNL     1     -33.623  16.604  -1.981  1.00 20.00     0.122 A 
HETATM   10  C5  UNL     1     -33.910  17.779  -1.089  1.00 20.00     0.034 A 
HETATM   11  C6  UNL     1     -34.771  16.551  -1.012  1.00 20.00     0.034 A 
ENDBRANCH   8   9
ENDBRANCH   5   8
TORSDOF 2
ENDMDL
MODEL 4
REMARK VINA RESULT:      -4.3      2.413      4.351
REMARK  2 active torsions:
REMARK  status: ('A' for Active; 'I' for Inactive)
REMARK    1  A    between atoms: C7_7  and  O10_10 
REMARK    2  A    between atoms: C8_8  and  O10_10 
ROOT
HETATM    1  C1  UNL     1     -33.775  15.974  -2.803  1.00 20.00     0.153 C 
HETATM    2  C2  UNL     1     -35.989  15.532  -3.065  1.00 20.00     0.121 C 
HETATM    3  C3  UNL     1     -33.357  14.866  -3.426  1.00 20.00     0.114 C 
HETATM    4  C4  UNL     1     -34.323  13.832  -3.904  1.00 20.00     0.109 C 
HETATM    5  C7  UNL     1     -35.725  14.414  -4.045  1.00 20.00     0.168 C 
HETATM    6  N9  UNL     1     -35.080  16.271  -2.507  1.00 20.00    -0.272 NA
HETATM    7  F11 UNL     1     -32.035  14.686  -3.636  1.00 20.00    -0.209 F 
ENDROOT
BRANCH   5   8
HETATM    8  O10 UNL     1     -35.875  14.986  -5.338  1.00 20.00    -0.375 OA
BRANCH   8   9
HETATM    9  C8  UNL     1     -35.158  14.250  -6.319  1.00 20.00     0.122 A 
HETATM   10  C5  UNL     1     -35.614  14.421  -7.741  1.00 20.00     0.034 A 
HETATM   11  C6  UNL     1     -34.335  15.059  -7.281  1.00 20.00     0.034 A 
ENDBRANCH   8   9
ENDBRANCH   5   8
TORSDOF 2
ENDMDL
MODEL 5
REMARK VINA RESULT:      -4.1     11.942     13.776
REMARK  2 active torsions:
REMARK  status: ('A' for Active; 'I' for Inactive)
REMARK    1  A    between atoms: C7_7  and  O10_10 
REMARK    2  A    between atoms: C8_8  and  O10_10 
ROOT
HETATM    1  C1  UNL     1     -41.207   6.820  -1.435  1.00 20.00     0.153 C 
HETATM    2  C2  UNL     1     -42.672   5.465  -2.521  1.00 20.00     0.121 C 
HETATM    3  C3  UNL     1     -41.060   6.014  -0.377  1.00 20.00     0.114 C 
HETATM    4  C4  UNL     1     -41.858   4.761  -0.239  1.00 20.00     0.109 C 
HETATM    5  C7  UNL     1     -42.409   4.308  -1.587  1.00 20.00     0.168 C 
HETATM    6  N9  UNL     1     -42.094   6.624  -2.462  1.00 20.00    -0.272 NA
HETATM    7  F11 UNL     1     -40.162   6.338   0.579  1.00 20.00    -0.209 F 
ENDROOT
BRANCH   5   8
HETATM    8  O10 UNL     1     -41.449   3.489  -2.241  1.00 20.00    -0.375 OA
BRANCH   8   9
HETATM    9  C8  UNL     1     -42.007   2.835  -3.373  1.00 20.00     0.122 A 
HETATM   10  C5  UNL     1     -41.242   1.654  -3.900  1.00 20.00     0.034 A 
HETATM   11  C6  UNL     1     -42.522   1.443  -3.144  1.00 20.00     0.034 A 
ENDBRANCH   8   9
ENDBRANCH   5   8
TORSDOF 2
ENDMDL
MODEL 6
REMARK VINA RESULT:      -4.1      2.626      3.503
REMARK  2 active torsions:
REMARK  status: ('A' for Active; 'I' for Inactive)
REMARK    1  A    between atoms: C7_7  and  O10_10 
REMARK    2  A    between atoms: C8_8  and  O10_10 
ROOT
HETATM    1  C1  UNL     1     -35.041  13.347  -4.277  1.00 20.00     0.153 C 
HETATM    2  C2  UNL     1     -33.002  14.118  -3.636  1.00 20.00     0.121 C 
HETATM    3  C3  UNL     1     -35.721  14.396  -3.801  1.00 20.00     0.114 C 
HETATM    4  C4  UNL     1     -35.039  15.483  -3.039  1.00 20.00     0.109 C 
HETATM    5  C7  UNL     1     -33.540  15.493  -3.319  1.00 20.00     0.168 C 
HETATM    6  N9  UNL     1     -33.699  13.129  -4.104  1.00 20.00    -0.272 NA
HETATM    7  F11 UNL     1     -37.051  14.478  -4.026  1.00 20.00    -0.209 F 
ENDROOT
BRANCH   5   8
HETATM    8  O10 UNL     1     -33.276  16.289  -4.466  1.00 20.00    -0.375 OA
BRANCH   8   9
HETATM    9  C8  UNL     1     -34.073  17.465  -4.479  1.00 20.00     0.122 A 
HETATM   10  C5  UNL     1     -33.532  18.624  -5.267  1.00 20.00     0.034 A 
HETATM   11  C6  UNL     1     -34.689  17.830  -5.800  1.00 20.00     0.034 A 
ENDBRANCH   8   9
ENDBRANCH   5   8
TORSDOF 2
ENDMDL
MODEL 7
REMARK VINA RESULT:      -4.1     10.306     11.056
REMARK  2 active torsions:
REMARK  status: ('A' for Active; 'I' for Inactive)
REMARK    1  A    between atoms: C7_7  and  O10_10 
REMARK    2  A    between atoms: C8_8  and  O10_10 
ROOT
HETATM    1  C1  UNL     1     -34.913   5.685   4.836  1.00 20.00     0.153 C 
HETATM    2  C2  UNL     1     -33.884   5.342   2.840  1.00 20.00     0.121 C 
HETATM    3  C3  UNL     1     -33.911   6.395   5.368  1.00 20.00     0.114 C 
HETATM    4  C4  UNL     1     -32.626   6.593   4.635  1.00 20.00     0.109 C 
HETATM    5  C7  UNL     1     -32.804   6.354   3.139  1.00 20.00     0.168 C 
HETATM    6  N9  UNL     1     -34.877   5.050   3.622  1.00 20.00    -0.272 NA
HETATM    7  F11 UNL     1     -34.072   6.952   6.588  1.00 20.00    -0.209 F 
ENDROOT
BRANCH   5   8
HETATM    8  O10 UNL     1     -33.216   7.561   2.511  1.00 20.00    -0.375 OA
BRANCH   8   9
HETATM    9  C8  UNL     1     -32.102   8.349   2.115  1.00 20.00     0.122 A 
HETATM   10  C5  UNL     1     -32.008   8.677   0.651  1.00 20.00     0.034 A 
HETATM   11  C6  UNL     1     -32.414   9.738   1.633  1.00 20.00     0.034 A 
ENDBRANCH   8   9
ENDBRANCH   5   8
TORSDOF 2
ENDMDL
MODEL 8
REMARK VINA RESULT:      -4.1      2.550      4.453
REMARK  2 active torsions:
REMARK  status: ('A' for Active; 'I' for Inactive)
REMARK    1  A    between atoms: C7_7  and  O10_10 
REMARK    2  A    between atoms: C8_8  and  O10_10 
ROOT
HETATM    1  C1  UNL     1     -33.594  18.539  -2.075  1.00 20.00     0.153 C 
HETATM    2  C2  UNL     1     -35.133  17.320  -3.220  1.00 20.00     0.121 C 
HETATM    3  C3  UNL     1     -33.630  17.775  -0.976  1.00 20.00     0.114 C 
HETATM    4  C4  UNL     1     -34.589  16.638  -0.852  1.00 20.00     0.109 C 
HETATM    5  C7  UNL     1     -35.089  16.189  -2.221  1.00 20.00     0.168 C 
HETATM    6  N9  UNL     1     -34.419  18.401  -3.161  1.00 20.00    -0.272 NA
HETATM    7  F11 UNL     1     -32.773  18.034   0.035  1.00 20.00    -0.209 F 
ENDROOT
BRANCH   5   8
HETATM    8  O10 UNL     1     -34.194  15.225  -2.761  1.00 20.00    -0.375 OA
BRANCH   8   9
HETATM    9  C8  UNL     1     -34.575  14.840  -4.075  1.00 20.00     0.122 A 
HETATM   10  C5  UNL     1     -34.123  13.479  -4.523  1.00 20.00     0.034 A 
HETATM   11  C6  UNL     1     -35.563  13.713  -4.172  1.00 20.00     0.034 A 
ENDBRANCH   8   9
ENDBRANCH   5   8
TORSDOF 2
ENDMDL
MODEL 9
REMARK VINA RESULT:      -4.1      2.083      2.426
REMARK  2 active torsions:
REMARK  status: ('A' for Active; 'I' for Inactive)
REMARK    1  A    between atoms: C7_7  and  O10_10 
REMARK    2  A    between atoms: C8_8  and  O10_10 
ROOT
HETATM    1  C1  UNL     1     -34.453  14.711  -5.979  1.00 20.00     0.153 C 
HETATM    2  C2  UNL     1     -35.431  13.641  -4.229  1.00 20.00     0.121 C 
HETATM    3  C3  UNL     1     -34.973  15.910  -5.692  1.00 20.00     0.114 C 
HETATM    4  C4  UNL     1     -35.946  16.088  -4.574  1.00 20.00     0.109 C 
HETATM    5  C7  UNL     1     -35.854  14.936  -3.578  1.00 20.00     0.168 C 
HETATM    6  N9  UNL     1     -34.759  13.541  -5.334  1.00 20.00    -0.272 NA
HETATM    7  F11 UNL     1     -34.600  16.983  -6.423  1.00 20.00    -0.209 F 
ENDROOT
BRANCH   5   8
HETATM    8  O10 UNL     1     -34.859  15.227  -2.606  1.00 20.00    -0.375 OA
BRANCH   8   9
HETATM    9  C8  UNL     1     -35.023  16.530  -2.065  1.00 20.00     0.122 A 
HETATM   10  C5  UNL     1     -34.640  16.703  -0.622  1.00 20.00     0.034 A 
HETATM   11  C6  UNL     1     -33.760  17.260  -1.704  1.00 20.00     0.034 A 
ENDBRANCH   8   9
ENDBRANCH   5   8
TORSDOF 2
ENDMDL
