MODEL 1
REMARK VINA RESULT:      -4.6      0.000      0.000
REMARK  0 active torsions:
REMARK  status: ('A' for Active; 'I' for Inactive)
ROOT
HETATM    1  C1  UNL     1     -32.169   7.733   2.507  1.00 20.00     0.012 C 
HETATM    2  C2  UNL     1     -32.692   6.884   3.174  1.00 20.00    -0.110 C 
HETATM    3  C3  UNL     1     -34.674   5.411   3.446  1.00 20.00     0.045 C 
HETATM    4  C4  UNL     1     -35.331   4.824   4.675  1.00 20.00     0.169 C 
HETATM    5  C5  UNL     1     -33.703   6.333   5.379  1.00 20.00     0.184 C 
HETATM    6  C6  UNL     1     -33.330   5.848   3.988  1.00 20.00     0.090 C 
HETATM    7  O7  UNL     1     -34.854   5.582   5.794  1.00 20.00    -0.390 OA
ENDROOT
TORSDOF 0
ENDMDL
MODEL 2
REMARK VINA RESULT:      -4.5      1.083      1.673
REMARK  0 active torsions:
REMARK  status: ('A' for Active; 'I' for Inactive)
ROOT
HETATM    1  C1  UNL     1     -32.162   6.979   2.911  1.00 20.00     0.012 C 
HETATM    2  C2  UNL     1     -33.090   6.655   3.599  1.00 20.00    -0.110 C 
HETATM    3  C3  UNL     1     -33.863   6.153   5.906  1.00 20.00     0.045 C 
HETATM    4  C4  UNL     1     -34.949   5.239   6.427  1.00 20.00     0.169 C 
HETATM    5  C5  UNL     1     -34.721   4.858   4.141  1.00 20.00     0.184 C 
HETATM    6  C6  UNL     1     -34.222   6.261   4.440  1.00 20.00     0.090 C 
HETATM    7  O7  UNL     1     -35.268   4.335   5.362  1.00 20.00    -0.390 OA
ENDROOT
TORSDOF 0
ENDMDL
MODEL 3
REMARK VINA RESULT:      -3.9     11.211     11.672
REMARK  0 active torsions:
REMARK  status: ('A' for Active; 'I' for Inactive)
ROOT
HETATM    1  C1  UNL     1     -34.423  16.625  -1.296  1.00 20.00     0.012 C 
HETATM    2  C2  UNL     1     -34.369  15.983  -2.309  1.00 20.00    -0.110 C 
HETATM    3  C3  UNL     1     -35.568  14.412  -3.813  1.00 20.00     0.045 C 
HETATM    4  C4  UNL     1     -35.068  13.328  -4.741  1.00 20.00     0.169 C 
HETATM    5  C5  UNL     1     -33.260  14.098  -3.492  1.00 20.00     0.184 C 
HETATM    6  C6  UNL     1     -34.305  15.200  -3.543  1.00 20.00     0.090 C 
HETATM    7  O7  UNL     1     -33.722  13.037  -4.342  1.00 20.00    -0.390 OA
ENDROOT
TORSDOF 0
ENDMDL
MODEL 4
REMARK VINA RESULT:      -3.8      1.682      3.307
REMARK  0 active torsions:
REMARK  status: ('A' for Active; 'I' for Inactive)
ROOT
HETATM    1  C1  UNL     1     -35.178   4.233   5.839  1.00 20.00     0.012 C 
HETATM    2  C2  UNL     1     -34.702   5.093   5.150  1.00 20.00    -0.110 C 
HETATM    3  C3  UNL     1     -33.502   5.606   3.037  1.00 20.00     0.045 C 
HETATM    4  C4  UNL     1     -32.539   6.712   2.669  1.00 20.00     0.169 C 
HETATM    5  C5  UNL     1     -32.937   6.834   4.961  1.00 20.00     0.184 C 
HETATM    6  C6  UNL     1     -34.122   6.141   4.310  1.00 20.00     0.090 C 
HETATM    7  O7  UNL     1     -32.070   7.272   3.903  1.00 20.00    -0.390 OA
ENDROOT
TORSDOF 0
ENDMDL
MODEL 5
REMARK VINA RESULT:      -3.7      1.545      2.680
REMARK  0 active torsions:
REMARK  status: ('A' for Active; 'I' for Inactive)
ROOT
HETATM    1  C1  UNL     1     -33.537   7.652   7.293  1.00 20.00     0.012 C 
HETATM    2  C2  UNL     1     -33.670   6.821   6.437  1.00 20.00    -0.110 C 
HETATM    3  C3  UNL     1     -34.099   6.404   4.026  1.00 20.00     0.045 C 
HETATM    4  C4  UNL     1     -34.759   5.249   3.306  1.00 20.00     0.169 C 
HETATM    5  C5  UNL     1     -35.061   4.940   5.595  1.00 20.00     0.184 C 
HETATM    6  C6  UNL     1     -33.832   5.809   5.392  1.00 20.00     0.090 C 
HETATM    7  O7  UNL     1     -35.505   4.525   4.294  1.00 20.00    -0.390 OA
ENDROOT
TORSDOF 0
ENDMDL
MODEL 6
REMARK VINA RESULT:      -3.6     11.393     12.217
REMARK  0 active torsions:
REMARK  status: ('A' for Active; 'I' for Inactive)
ROOT
HETATM    1  C1  UNL     1     -34.500  16.521  -1.269  1.00 20.00     0.012 C 
HETATM    2  C2  UNL     1     -34.797  15.846  -2.216  1.00 20.00    -0.110 C 
HETATM    3  C3  UNL     1     -34.302  13.784  -3.509  1.00 20.00     0.045 C 
HETATM    4  C4  UNL     1     -34.468  13.449  -4.974  1.00 20.00     0.169 C 
HETATM    5  C5  UNL     1     -34.908  15.720  -4.698  1.00 20.00     0.184 C 
HETATM    6  C6  UNL     1     -35.159  15.023  -3.371  1.00 20.00     0.090 C 
HETATM    7  O7  UNL     1     -34.616  14.698  -5.663  1.00 20.00    -0.390 OA
ENDROOT
TORSDOF 0
ENDMDL
MODEL 7
REMARK VINA RESULT:      -3.5     11.851     12.706
REMARK  0 active torsions:
REMARK  status: ('A' for Active; 'I' for Inactive)
ROOT
HETATM    1  C1  UNL     1     -34.815  16.959  -0.400  1.00 20.00     0.012 C 
HETATM    2  C2  UNL     1     -34.299  16.562  -1.408  1.00 20.00    -0.110 C 
HETATM    3  C3  UNL     1     -33.684  17.099  -3.754  1.00 20.00     0.045 C 
HETATM    4  C4  UNL     1     -33.526  16.226  -4.978  1.00 20.00     0.169 C 
HETATM    5  C5  UNL     1     -34.419  14.918  -3.271  1.00 20.00     0.184 C 
HETATM    6  C6  UNL     1     -33.669  16.078  -2.637  1.00 20.00     0.090 C 
HETATM    7  O7  UNL     1     -34.189  14.989  -4.686  1.00 20.00    -0.390 OA
ENDROOT
TORSDOF 0
ENDMDL
MODEL 8
REMARK VINA RESULT:      -3.5     11.218     12.251
REMARK  0 active torsions:
REMARK  status: ('A' for Active; 'I' for Inactive)
ROOT
HETATM    1  C1  UNL     1     -34.720  16.356  -1.419  1.00 20.00     0.012 C 
HETATM    2  C2  UNL     1     -34.399  15.787  -2.426  1.00 20.00    -0.110 C 
HETATM    3  C3  UNL     1     -34.642  15.683  -4.895  1.00 20.00     0.045 C 
HETATM    4  C4  UNL     1     -34.557  14.527  -5.868  1.00 20.00     0.169 C 
HETATM    5  C5  UNL     1     -34.501  13.658  -3.708  1.00 20.00     0.184 C 
HETATM    6  C6  UNL     1     -34.007  15.094  -3.654  1.00 20.00     0.090 C 
HETATM    7  O7  UNL     1     -34.697  13.330  -5.092  1.00 20.00    -0.390 OA
ENDROOT
TORSDOF 0
ENDMDL
MODEL 9
REMARK VINA RESULT:      -3.4     11.940     12.695
REMARK  0 active torsions:
REMARK  status: ('A' for Active; 'I' for Inactive)
ROOT
HETATM    1  C1  UNL     1     -34.713  16.956  -0.224  1.00 20.00     0.012 C 
HETATM    2  C2  UNL     1     -34.721  16.683  -1.393  1.00 20.00    -0.110 C 
HETATM    3  C3  UNL     1     -34.318  14.922  -3.097  1.00 20.00     0.045 C 
HETATM    4  C4  UNL     1     -33.876  15.000  -4.542  1.00 20.00     0.169 C 
HETATM    5  C5  UNL     1     -33.701  17.131  -3.617  1.00 20.00     0.184 C 
HETATM    6  C6  UNL     1     -34.732  16.350  -2.818  1.00 20.00     0.090 C 
HETATM    7  O7  UNL     1     -33.312  16.305  -4.725  1.00 20.00    -0.390 OA
ENDROOT
TORSDOF 0
ENDMDL
