MODEL 1
REMARK VINA RESULT:      -4.5      0.000      0.000
REMARK  0 active torsions:
REMARK  status: ('A' for Active; 'I' for Inactive)
ROOT
HETATM    1  C1  UNL     1     -35.350   4.686   5.807  1.00 20.00     0.002 C 
HETATM    2  C2  UNL     1     -35.433   4.658   4.468  1.00 20.00     0.028 C 
HETATM    3  C3  UNL     1     -34.292   5.393   6.507  1.00 20.00    -0.003 C 
HETATM    4  C4  UNL     1     -33.533   6.310   5.883  1.00 20.00    -0.011 C 
HETATM    5  C5  UNL     1     -32.788   5.955   2.501  1.00 20.00     0.132 C 
HETATM    6  C6  UNL     1     -32.660   6.812   3.516  1.00 20.00     0.020 C 
HETATM    7  C7  UNL     1     -34.379   5.422   3.770  1.00 20.00     0.046 C 
HETATM    8  C8  UNL     1     -33.804   6.660   4.454  1.00 20.00     0.102 C 
HETATM    9  N9  UNL     1     -33.849   5.097   2.630  1.00 20.00    -0.263 NA
HETATM   10 BR10 UNL     1     -31.402   8.132   3.727  1.00 20.00    -0.053 Br
ENDROOT
TORSDOF 0
ENDMDL
MODEL 2
REMARK VINA RESULT:      -4.4     12.251     13.547
REMARK  0 active torsions:
REMARK  status: ('A' for Active; 'I' for Inactive)
ROOT
HETATM    1  C1  UNL     1     -34.427  13.292  -4.861  1.00 20.00     0.002 C 
HETATM    2  C2  UNL     1     -33.836  13.810  -3.774  1.00 20.00     0.028 C 
HETATM    3  C3  UNL     1     -34.899  14.117  -5.959  1.00 20.00    -0.003 C 
HETATM    4  C4  UNL     1     -34.492  15.391  -6.100  1.00 20.00    -0.011 C 
HETATM    5  C5  UNL     1     -33.774  17.318  -3.291  1.00 20.00     0.132 C 
HETATM    6  C6  UNL     1     -33.704  17.345  -4.624  1.00 20.00     0.020 C 
HETATM    7  C7  UNL     1     -33.682  15.279  -3.798  1.00 20.00     0.046 C 
HETATM    8  C8  UNL     1     -33.494  15.968  -5.147  1.00 20.00     0.102 C 
HETATM    9  N9  UNL     1     -33.748  16.055  -2.759  1.00 20.00    -0.263 NA
HETATM   10 BR10 UNL     1     -33.684  18.813  -5.724  1.00 20.00    -0.053 Br
ENDROOT
TORSDOF 0
ENDMDL
MODEL 3
REMARK VINA RESULT:      -4.4     12.122     13.132
REMARK  0 active torsions:
REMARK  status: ('A' for Active; 'I' for Inactive)
ROOT
HETATM    1  C1  UNL     1     -33.898  16.865  -2.552  1.00 20.00     0.002 C 
HETATM    2  C2  UNL     1     -34.331  15.619  -2.304  1.00 20.00     0.028 C 
HETATM    3  C3  UNL     1     -33.712  17.371  -3.900  1.00 20.00    -0.003 C 
HETATM    4  C4  UNL     1     -34.256  16.749  -4.961  1.00 20.00    -0.011 C 
HETATM    5  C5  UNL     1     -34.637  13.289  -4.953  1.00 20.00     0.132 C 
HETATM    6  C6  UNL     1     -34.947  14.373  -5.666  1.00 20.00     0.020 C 
HETATM    7  C7  UNL     1     -34.625  14.818  -3.510  1.00 20.00     0.046 C 
HETATM    8  C8  UNL     1     -35.116  15.542  -4.761  1.00 20.00     0.102 C 
HETATM    9  N9  UNL     1     -34.447  13.537  -3.618  1.00 20.00    -0.263 NA
HETATM   10 BR10 UNL     1     -35.303  14.479  -7.463  1.00 20.00    -0.053 Br
ENDROOT
TORSDOF 0
ENDMDL
MODEL 4
REMARK VINA RESULT:      -4.4     11.998     13.217
REMARK  0 active torsions:
REMARK  status: ('A' for Active; 'I' for Inactive)
ROOT
HETATM    1  C1  UNL     1     -34.732  13.904  -5.914  1.00 20.00     0.002 C 
HETATM    2  C2  UNL     1     -34.581  15.208  -6.193  1.00 20.00     0.028 C 
HETATM    3  C3  UNL     1     -34.693  13.387  -4.558  1.00 20.00    -0.003 C 
HETATM    4  C4  UNL     1     -34.823  14.202  -3.496  1.00 20.00    -0.011 C 
HETATM    5  C5  UNL     1     -33.618  17.465  -3.639  1.00 20.00     0.132 C 
HETATM    6  C6  UNL     1     -34.327  16.645  -2.860  1.00 20.00     0.020 C 
HETATM    7  C7  UNL     1     -34.396  16.073  -5.009  1.00 20.00     0.046 C 
HETATM    8  C8  UNL     1     -35.065  15.664  -3.699  1.00 20.00     0.102 C 
HETATM    9  N9  UNL     1     -33.657  17.139  -4.970  1.00 20.00    -0.263 NA
HETATM   10 BR10 UNL     1     -34.560  16.736  -1.043  1.00 20.00    -0.053 Br
ENDROOT
TORSDOF 0
ENDMDL
MODEL 5
REMARK VINA RESULT:      -4.3     12.584     13.750
REMARK  0 active torsions:
REMARK  status: ('A' for Active; 'I' for Inactive)
ROOT
HETATM    1  C1  UNL     1     -33.624  13.694  -3.754  1.00 20.00     0.002 C 
HETATM    2  C2  UNL     1     -34.513  13.439  -4.726  1.00 20.00     0.028 C 
HETATM    3  C3  UNL     1     -32.874  14.935  -3.689  1.00 20.00    -0.003 C 
HETATM    4  C4  UNL     1     -33.249  16.015  -4.397  1.00 20.00    -0.011 C 
HETATM    5  C5  UNL     1     -34.780  15.625  -7.499  1.00 20.00     0.132 C 
HETATM    6  C6  UNL     1     -34.466  16.558  -6.598  1.00 20.00     0.020 C 
HETATM    7  C7  UNL     1     -34.683  14.531  -5.706  1.00 20.00     0.046 C 
HETATM    8  C8  UNL     1     -34.489  15.970  -5.232  1.00 20.00     0.102 C 
HETATM    9  N9  UNL     1     -34.932  14.371  -6.970  1.00 20.00    -0.263 NA
HETATM   10 BR10 UNL     1     -34.199  18.352  -6.875  1.00 20.00    -0.053 Br
ENDROOT
TORSDOF 0
ENDMDL
MODEL 6
REMARK VINA RESULT:      -4.3     11.896     12.624
REMARK  0 active torsions:
REMARK  status: ('A' for Active; 'I' for Inactive)
ROOT
HETATM    1  C1  UNL     1     -33.586  13.732  -3.956  1.00 20.00     0.002 C 
HETATM    2  C2  UNL     1     -34.917  13.564  -3.952  1.00 20.00     0.028 C 
HETATM    3  C3  UNL     1     -32.958  14.991  -3.600  1.00 20.00    -0.003 C 
HETATM    4  C4  UNL     1     -33.638  15.950  -2.947  1.00 20.00    -0.011 C 
HETATM    5  C5  UNL     1     -37.052  16.351  -3.491  1.00 20.00     0.132 C 
HETATM    6  C6  UNL     1     -36.059  16.789  -2.716  1.00 20.00     0.020 C 
HETATM    7  C7  UNL     1     -35.686  14.753  -3.532  1.00 20.00     0.046 C 
HETATM    8  C8  UNL     1     -35.052  15.711  -2.526  1.00 20.00     0.102 C 
HETATM    9  N9  UNL     1     -36.851  15.093  -3.995  1.00 20.00    -0.263 NA
HETATM   10 BR10 UNL     1     -35.939  18.393  -1.832  1.00 20.00    -0.053 Br
ENDROOT
TORSDOF 0
ENDMDL
MODEL 7
REMARK VINA RESULT:      -4.3     12.689     13.939
REMARK  0 active torsions:
REMARK  status: ('A' for Active; 'I' for Inactive)
ROOT
HETATM    1  C1  UNL     1     -33.625  13.661  -3.811  1.00 20.00     0.002 C 
HETATM    2  C2  UNL     1     -32.971  14.824  -3.673  1.00 20.00     0.028 C 
HETATM    3  C3  UNL     1     -34.687  13.474  -4.784  1.00 20.00    -0.003 C 
HETATM    4  C4  UNL     1     -34.858  14.334  -5.803  1.00 20.00    -0.011 C 
HETATM    5  C5  UNL     1     -34.099  17.707  -5.392  1.00 20.00     0.132 C 
HETATM    6  C6  UNL     1     -34.458  16.822  -6.325  1.00 20.00     0.020 C 
HETATM    7  C7  UNL     1     -33.401  15.886  -4.604  1.00 20.00     0.046 C 
HETATM    8  C8  UNL     1     -33.914  15.480  -5.984  1.00 20.00     0.102 C 
HETATM    9  N9  UNL     1     -33.434  17.155  -4.329  1.00 20.00    -0.263 NA
HETATM   10 BR10 UNL     1     -35.336  17.139  -7.904  1.00 20.00    -0.053 Br
ENDROOT
TORSDOF 0
ENDMDL
MODEL 8
REMARK VINA RESULT:      -4.2     12.239     13.340
REMARK  0 active torsions:
REMARK  status: ('A' for Active; 'I' for Inactive)
ROOT
HETATM    1  C1  UNL     1     -34.132  18.203  -1.308  1.00 20.00     0.002 C 
HETATM    2  C2  UNL     1     -33.584  18.480  -2.501  1.00 20.00     0.028 C 
HETATM    3  C3  UNL     1     -34.797  16.943  -1.029  1.00 20.00    -0.003 C 
HETATM    4  C4  UNL     1     -34.626  15.873  -1.824  1.00 20.00    -0.011 C 
HETATM    5  C5  UNL     1     -34.111  16.299  -5.241  1.00 20.00     0.132 C 
HETATM    6  C6  UNL     1     -34.116  15.359  -4.293  1.00 20.00     0.020 C 
HETATM    7  C7  UNL     1     -33.691  17.391  -3.494  1.00 20.00     0.046 C 
HETATM    8  C8  UNL     1     -33.697  15.949  -2.993  1.00 20.00     0.102 C 
HETATM    9  N9  UNL     1     -33.838  17.557  -4.773  1.00 20.00    -0.263 NA
HETATM   10 BR10 UNL     1     -34.411  13.558  -4.490  1.00 20.00    -0.053 Br
ENDROOT
TORSDOF 0
ENDMDL
MODEL 9
REMARK VINA RESULT:      -4.1     12.372     13.495
REMARK  0 active torsions:
REMARK  status: ('A' for Active; 'I' for Inactive)
ROOT
HETATM    1  C1  UNL     1     -34.400  15.130  -7.083  1.00 20.00     0.002 C 
HETATM    2  C2  UNL     1     -35.319  14.343  -6.502  1.00 20.00     0.028 C 
HETATM    3  C3  UNL     1     -33.738  16.210  -6.373  1.00 20.00    -0.003 C 
HETATM    4  C4  UNL     1     -33.765  16.282  -5.030  1.00 20.00    -0.011 C 
HETATM    5  C5  UNL     1     -36.541  15.132  -3.273  1.00 20.00     0.132 C 
HETATM    6  C6  UNL     1     -35.303  15.595  -3.086  1.00 20.00     0.020 C 
HETATM    7  C7  UNL     1     -35.581  14.649  -5.081  1.00 20.00     0.046 C 
HETATM    8  C8  UNL     1     -34.441  15.211  -4.236  1.00 20.00     0.102 C 
HETATM    9  N9  UNL     1     -36.732  14.533  -4.490  1.00 20.00    -0.263 NA
HETATM   10 BR10 UNL     1     -34.623  16.435  -1.603  1.00 20.00    -0.053 Br
ENDROOT
TORSDOF 0
ENDMDL
