MODEL 1
REMARK VINA RESULT:      -4.8      0.000      0.000
REMARK  1 active torsions:
REMARK  status: ('A' for Active; 'I' for Inactive)
REMARK    1  A    between atoms: C1_1  and  C3_3 
ROOT
HETATM    1  C2  UNL     1     -33.724   6.800   3.687  1.00 20.00     0.098 A 
HETATM    2  C3  UNL     1     -33.691   5.543   4.532  1.00 20.00     0.133 A 
HETATM    3  C4  UNL     1     -34.526   5.613   3.302  1.00 20.00     0.255 A 
HETATM    4  F7  UNL     1     -35.900   5.648   3.374  1.00 20.00    -0.205 F 
HETATM    5  F8  UNL     1     -34.191   4.878   2.188  1.00 20.00    -0.205 F 
ENDROOT
BRANCH   2   6
HETATM    6  C1  UNL     1     -34.335   5.551   5.848  1.00 20.00     0.133 C 
HETATM    7  C5  UNL     1     -35.150   4.338   6.210  1.00 20.00     0.091 C 
HETATM    8  O6  UNL     1     -34.214   6.500   6.620  1.00 20.00    -0.298 OA
ENDBRANCH   2   6
TORSDOF 1
ENDMDL
MODEL 2
REMARK VINA RESULT:      -4.8      2.085      2.335
REMARK  1 active torsions:
REMARK  status: ('A' for Active; 'I' for Inactive)
REMARK    1  A    between atoms: C1_1  and  C3_3 
ROOT
HETATM    1  C2  UNL     1     -34.253   5.248   2.577  1.00 20.00     0.098 A 
HETATM    2  C3  UNL     1     -34.736   5.789   3.906  1.00 20.00     0.133 A 
HETATM    3  C4  UNL     1     -33.402   6.169   3.369  1.00 20.00     0.255 A 
HETATM    4  F7  UNL     1     -32.242   5.716   3.955  1.00 20.00    -0.205 F 
HETATM    5  F8  UNL     1     -33.166   7.452   2.928  1.00 20.00    -0.205 F 
ENDROOT
BRANCH   2   6
HETATM    6  C1  UNL     1     -34.826   4.884   5.055  1.00 20.00     0.133 C 
HETATM    7  C5  UNL     1     -34.498   5.467   6.404  1.00 20.00     0.091 C 
HETATM    8  O6  UNL     1     -35.154   3.706   4.925  1.00 20.00    -0.298 OA
ENDBRANCH   2   6
TORSDOF 1
ENDMDL
MODEL 3
REMARK VINA RESULT:      -4.7      1.790      2.024
REMARK  1 active torsions:
REMARK  status: ('A' for Active; 'I' for Inactive)
REMARK    1  A    between atoms: C1_1  and  C3_3 
ROOT
HETATM    1  C2  UNL     1     -34.149   5.392   2.887  1.00 20.00     0.098 A 
HETATM    2  C3  UNL     1     -34.252   6.383   4.028  1.00 20.00     0.133 A 
HETATM    3  C4  UNL     1     -33.022   6.306   3.194  1.00 20.00     0.255 A 
HETATM    4  F7  UNL     1     -31.843   5.813   3.705  1.00 20.00    -0.205 F 
HETATM    5  F8  UNL     1     -32.699   7.329   2.330  1.00 20.00    -0.205 F 
ENDROOT
BRANCH   2   6
HETATM    6  C1  UNL     1     -34.226   5.889   5.407  1.00 20.00     0.133 C 
HETATM    7  C5  UNL     1     -34.885   4.560   5.663  1.00 20.00     0.091 C 
HETATM    8  O6  UNL     1     -33.690   6.527   6.312  1.00 20.00    -0.298 OA
ENDBRANCH   2   6
TORSDOF 1
ENDMDL
MODEL 4
REMARK VINA RESULT:      -4.7      2.401      3.388
REMARK  1 active torsions:
REMARK  status: ('A' for Active; 'I' for Inactive)
REMARK    1  A    between atoms: C1_1  and  C3_3 
ROOT
HETATM    1  C2  UNL     1     -33.908   6.339   6.244  1.00 20.00     0.098 A 
HETATM    2  C3  UNL     1     -34.636   6.093   4.939  1.00 20.00     0.133 A 
HETATM    3  C4  UNL     1     -34.590   5.046   5.996  1.00 20.00     0.255 A 
HETATM    4  F7  UNL     1     -33.859   3.893   5.825  1.00 20.00    -0.205 F 
HETATM    5  F8  UNL     1     -35.727   4.712   6.697  1.00 20.00    -0.205 F 
ENDROOT
BRANCH   2   6
HETATM    6  C1  UNL     1     -33.858   5.919   3.709  1.00 20.00     0.133 C 
HETATM    7  C5  UNL     1     -32.558   6.672   3.618  1.00 20.00     0.091 C 
HETATM    8  O6  UNL     1     -34.248   5.192   2.797  1.00 20.00    -0.298 OA
ENDBRANCH   2   6
TORSDOF 1
ENDMDL
MODEL 5
REMARK VINA RESULT:      -4.6      1.978      2.861
REMARK  1 active torsions:
REMARK  status: ('A' for Active; 'I' for Inactive)
REMARK    1  A    between atoms: C1_1  and  C3_3 
ROOT
HETATM    1  C2  UNL     1     -35.582   5.388   3.965  1.00 20.00     0.098 A 
HETATM    2  C3  UNL     1     -34.079   5.224   4.059  1.00 20.00     0.133 A 
HETATM    3  C4  UNL     1     -34.964   4.792   5.175  1.00 20.00     0.255 A 
HETATM    4  F7  UNL     1     -34.983   5.469   6.373  1.00 20.00    -0.205 F 
HETATM    5  F8  UNL     1     -35.131   3.455   5.456  1.00 20.00    -0.205 F 
ENDROOT
BRANCH   2   6
HETATM    6  C1  UNL     1     -33.239   6.414   4.218  1.00 20.00     0.133 C 
HETATM    7  C5  UNL     1     -32.541   6.920   2.984  1.00 20.00     0.091 C 
HETATM    8  O6  UNL     1     -33.112   6.974   5.305  1.00 20.00    -0.298 OA
ENDBRANCH   2   6
TORSDOF 1
ENDMDL
MODEL 6
REMARK VINA RESULT:      -4.4      2.422      3.276
REMARK  1 active torsions:
REMARK  status: ('A' for Active; 'I' for Inactive)
REMARK    1  A    between atoms: C1_1  and  C3_3 
ROOT
HETATM    1  C2  UNL     1     -35.398   4.904   4.752  1.00 20.00     0.098 A 
HETATM    2  C3  UNL     1     -33.931   5.127   4.446  1.00 20.00     0.133 A 
HETATM    3  C4  UNL     1     -34.439   5.206   5.843  1.00 20.00     0.255 A 
HETATM    4  F7  UNL     1     -34.501   6.407   6.512  1.00 20.00    -0.205 F 
HETATM    5  F8  UNL     1     -34.104   4.239   6.764  1.00 20.00    -0.205 F 
ENDROOT
BRANCH   2   6
HETATM    6  C1  UNL     1     -33.525   6.351   3.751  1.00 20.00     0.133 C 
HETATM    7  C5  UNL     1     -32.122   6.388   3.208  1.00 20.00     0.091 C 
HETATM    8  O6  UNL     1     -34.293   7.302   3.616  1.00 20.00    -0.298 OA
ENDBRANCH   2   6
TORSDOF 1
ENDMDL
MODEL 7
REMARK VINA RESULT:      -4.3      1.786      3.159
REMARK  1 active torsions:
REMARK  status: ('A' for Active; 'I' for Inactive)
REMARK    1  A    between atoms: C1_1  and  C3_3 
ROOT
HETATM    1  C2  UNL     1     -34.165   5.700   4.966  1.00 20.00     0.098 A 
HETATM    2  C3  UNL     1     -33.901   6.701   3.861  1.00 20.00     0.133 A 
HETATM    3  C4  UNL     1     -34.823   5.553   3.645  1.00 20.00     0.255 A 
HETATM    4  F7  UNL     1     -34.484   4.514   2.809  1.00 20.00    -0.205 F 
HETATM    5  F8  UNL     1     -36.178   5.760   3.513  1.00 20.00    -0.205 F 
ENDROOT
BRANCH   2   6
HETATM    6  C1  UNL     1     -32.590   6.713   3.207  1.00 20.00     0.133 C 
HETATM    7  C5  UNL     1     -32.226   7.957   2.442  1.00 20.00     0.091 C 
HETATM    8  O6  UNL     1     -31.824   5.753   3.280  1.00 20.00    -0.298 OA
ENDBRANCH   2   6
TORSDOF 1
ENDMDL
MODEL 8
REMARK VINA RESULT:      -4.0      1.409      2.149
REMARK  1 active torsions:
REMARK  status: ('A' for Active; 'I' for Inactive)
REMARK    1  A    between atoms: C1_1  and  C3_3 
ROOT
HETATM    1  C2  UNL     1     -35.047   3.927   4.408  1.00 20.00     0.098 A 
HETATM    2  C3  UNL     1     -35.253   5.066   5.385  1.00 20.00     0.133 A 
HETATM    3  C4  UNL     1     -35.058   5.333   3.934  1.00 20.00     0.255 A 
HETATM    4  F7  UNL     1     -33.905   5.920   3.466  1.00 20.00    -0.205 F 
HETATM    5  F8  UNL     1     -36.099   5.800   3.164  1.00 20.00    -0.205 F 
ENDROOT
BRANCH   2   6
HETATM    6  C1  UNL     1     -34.186   5.395   6.334  1.00 20.00     0.133 C 
HETATM    7  C5  UNL     1     -33.873   6.855   6.521  1.00 20.00     0.091 C 
HETATM    8  O6  UNL     1     -33.577   4.521   6.948  1.00 20.00    -0.298 OA
ENDBRANCH   2   6
TORSDOF 1
ENDMDL
MODEL 9
REMARK VINA RESULT:      -4.0      2.557      3.038
REMARK  1 active torsions:
REMARK  status: ('A' for Active; 'I' for Inactive)
REMARK    1  A    between atoms: C1_1  and  C3_3 
ROOT
HETATM    1  C2  UNL     1     -31.392   7.600   3.744  1.00 20.00     0.098 A 
HETATM    2  C3  UNL     1     -32.291   6.501   3.215  1.00 20.00     0.133 A 
HETATM    3  C4  UNL     1     -32.176   7.801   2.501  1.00 20.00     0.255 A 
HETATM    4  F7  UNL     1     -33.223   8.694   2.474  1.00 20.00    -0.205 F 
HETATM    5  F8  UNL     1     -31.542   7.874   1.281  1.00 20.00    -0.205 F 
ENDROOT
BRANCH   2   6
HETATM    6  C1  UNL     1     -33.523   6.176   3.939  1.00 20.00     0.133 C 
HETATM    7  C5  UNL     1     -34.601   5.472   3.159  1.00 20.00     0.091 C 
HETATM    8  O6  UNL     1     -33.669   6.463   5.126  1.00 20.00    -0.298 OA
ENDBRANCH   2   6
TORSDOF 1
ENDMDL
