MODEL 1
REMARK VINA RESULT:      -4.7      0.000      0.000
REMARK  0 active torsions:
REMARK  status: ('A' for Active; 'I' for Inactive)
ROOT
HETATM    1  C1  UNL     1     -33.490   5.888   2.721  1.00 20.00     0.057 A 
HETATM    2  C2  UNL     1     -34.911   4.518   4.354  1.00 20.00     0.008 A 
HETATM    3  C3  UNL     1     -33.944   6.291   6.337  1.00 20.00     0.143 A 
HETATM    4  C4  UNL     1     -34.080   5.469   3.946  1.00 20.00    -0.005 A 
HETATM    5  C5  UNL     1     -32.733   6.947   3.061  1.00 20.00     0.127 A 
HETATM    6  C6  UNL     1     -33.554   6.406   4.926  1.00 20.00     0.085 A 
HETATM    7  C7  UNL     1     -35.316   4.394   5.796  1.00 20.00     0.176 A 
HETATM    8  N8  UNL     1     -34.747   5.376   6.740  1.00 20.00    -0.296 NA
HETATM    9  N9  UNL     1     -32.750   7.292   4.410  1.00 20.00    -0.235 NA
HETATM   10 CL10 UNL     1     -31.793   7.842   1.950  1.00 20.00    -0.062 Cl
ENDROOT
TORSDOF 0
ENDMDL
MODEL 2
REMARK VINA RESULT:      -4.4     12.249     13.711
REMARK  0 active torsions:
REMARK  status: ('A' for Active; 'I' for Inactive)
ROOT
HETATM    1  C1  UNL     1     -34.557  16.582  -6.553  1.00 20.00     0.057 A 
HETATM    2  C2  UNL     1     -34.934  14.145  -5.860  1.00 20.00     0.008 A 
HETATM    3  C3  UNL     1     -33.175  14.713  -3.717  1.00 20.00     0.143 A 
HETATM    4  C4  UNL     1     -34.448  15.378  -5.802  1.00 20.00    -0.005 A 
HETATM    5  C5  UNL     1     -33.769  17.454  -5.899  1.00 20.00     0.127 A 
HETATM    6  C6  UNL     1     -33.539  15.721  -4.720  1.00 20.00     0.085 A 
HETATM    7  C7  UNL     1     -34.567  13.106  -4.837  1.00 20.00     0.176 A 
HETATM    8  N8  UNL     1     -33.641  13.519  -3.765  1.00 20.00    -0.296 NA
HETATM    9  N9  UNL     1     -33.127  16.957  -4.767  1.00 20.00    -0.235 NA
HETATM   10 CL10 UNL     1     -33.535  19.075  -6.385  1.00 20.00    -0.062 Cl
ENDROOT
TORSDOF 0
ENDMDL
MODEL 3
REMARK VINA RESULT:      -4.2     11.822     12.647
REMARK  0 active torsions:
REMARK  status: ('A' for Active; 'I' for Inactive)
ROOT
HETATM    1  C1  UNL     1     -36.464  16.280  -3.108  1.00 20.00     0.057 A 
HETATM    2  C2  UNL     1     -34.013  15.555  -3.268  1.00 20.00     0.008 A 
HETATM    3  C3  UNL     1     -35.028  13.136  -4.331  1.00 20.00     0.143 A 
HETATM    4  C4  UNL     1     -35.331  15.464  -3.382  1.00 20.00    -0.005 A 
HETATM    5  C5  UNL     1     -37.515  15.528  -3.480  1.00 20.00     0.127 A 
HETATM    6  C6  UNL     1     -35.904  14.241  -3.922  1.00 20.00     0.085 A 
HETATM    7  C7  UNL     1     -33.108  14.428  -3.684  1.00 20.00     0.176 A 
HETATM    8  N8  UNL     1     -33.752  13.216  -4.225  1.00 20.00    -0.296 NA
HETATM    9  N9  UNL     1     -37.206  14.267  -3.986  1.00 20.00    -0.235 NA
HETATM   10 CL10 UNL     1     -39.141  16.037  -3.361  1.00 20.00    -0.062 Cl
ENDROOT
TORSDOF 0
ENDMDL
MODEL 4
REMARK VINA RESULT:      -4.1     12.213     13.245
REMARK  0 active torsions:
REMARK  status: ('A' for Active; 'I' for Inactive)
ROOT
HETATM    1  C1  UNL     1     -33.987  16.242  -2.223  1.00 20.00     0.057 A 
HETATM    2  C2  UNL     1     -34.463  14.051  -3.462  1.00 20.00     0.008 A 
HETATM    3  C3  UNL     1     -34.228  15.593  -5.824  1.00 20.00     0.143 A 
HETATM    4  C4  UNL     1     -34.200  15.342  -3.305  1.00 20.00    -0.005 A 
HETATM    5  C5  UNL     1     -33.768  17.430  -2.817  1.00 20.00     0.127 A 
HETATM    6  C6  UNL     1     -34.070  16.178  -4.487  1.00 20.00     0.085 A 
HETATM    7  C7  UNL     1     -34.627  13.443  -4.827  1.00 20.00     0.176 A 
HETATM    8  N8  UNL     1     -34.482  14.346  -5.985  1.00 20.00    -0.296 NA
HETATM    9  N9  UNL     1     -33.812  17.426  -4.209  1.00 20.00    -0.235 NA
HETATM   10 CL10 UNL     1     -33.454  18.877  -1.965  1.00 20.00    -0.062 Cl
ENDROOT
TORSDOF 0
ENDMDL
MODEL 5
REMARK VINA RESULT:      -4.1     11.917     12.478
REMARK  0 active torsions:
REMARK  status: ('A' for Active; 'I' for Inactive)
ROOT
HETATM    1  C1  UNL     1     -33.954  16.436  -2.272  1.00 20.00     0.057 A 
HETATM    2  C2  UNL     1     -33.365  14.328  -3.604  1.00 20.00     0.008 A 
HETATM    3  C3  UNL     1     -36.140  14.158  -4.137  1.00 20.00     0.143 A 
HETATM    4  C4  UNL     1     -34.130  15.277  -3.080  1.00 20.00    -0.005 A 
HETATM    5  C5  UNL     1     -35.195  16.932  -2.125  1.00 20.00     0.127 A 
HETATM    6  C6  UNL     1     -35.563  15.236  -3.324  1.00 20.00     0.085 A 
HETATM    7  C7  UNL     1     -33.948  13.221  -4.438  1.00 20.00     0.176 A 
HETATM    8  N8  UNL     1     -35.409  13.237  -4.648  1.00 20.00    -0.296 NA
HETATM    9  N9  UNL     1     -36.209  16.217  -2.760  1.00 20.00    -0.235 NA
HETATM   10 CL10 UNL     1     -35.559  18.340  -1.229  1.00 20.00    -0.062 Cl
ENDROOT
TORSDOF 0
ENDMDL
MODEL 6
REMARK VINA RESULT:      -4.1     12.477     13.189
REMARK  0 active torsions:
REMARK  status: ('A' for Active; 'I' for Inactive)
ROOT
HETATM    1  C1  UNL     1     -34.633  15.221  -2.976  1.00 20.00     0.057 A 
HETATM    2  C2  UNL     1     -34.604  16.605  -0.821  1.00 20.00     0.008 A 
HETATM    3  C3  UNL     1     -33.506  18.666  -2.422  1.00 20.00     0.143 A 
HETATM    4  C4  UNL     1     -34.423  16.327  -2.106  1.00 20.00    -0.005 A 
HETATM    5  C5  UNL     1     -34.211  15.657  -4.177  1.00 20.00     0.127 A 
HETATM    6  C6  UNL     1     -33.862  17.351  -2.972  1.00 20.00     0.085 A 
HETATM    7  C7  UNL     1     -34.242  17.948  -0.250  1.00 20.00     0.176 A 
HETATM    8  N8  UNL     1     -33.678  18.944  -1.182  1.00 20.00    -0.296 NA
HETATM    9  N9  UNL     1     -33.731  16.964  -4.210  1.00 20.00    -0.235 NA
HETATM   10 CL10 UNL     1     -34.241  14.710  -5.598  1.00 20.00    -0.062 Cl
ENDROOT
TORSDOF 0
ENDMDL
MODEL 7
REMARK VINA RESULT:      -4.1     12.483     13.294
REMARK  0 active torsions:
REMARK  status: ('A' for Active; 'I' for Inactive)
ROOT
HETATM    1  C1  UNL     1     -34.578  16.576  -0.797  1.00 20.00     0.057 A 
HETATM    2  C2  UNL     1     -34.882  15.227  -2.954  1.00 20.00     0.008 A 
HETATM    3  C3  UNL     1     -33.618  17.410  -4.236  1.00 20.00     0.143 A 
HETATM    4  C4  UNL     1     -34.516  16.240  -2.179  1.00 20.00    -0.005 A 
HETATM    5  C5  UNL     1     -34.002  17.789  -0.723  1.00 20.00     0.127 A 
HETATM    6  C6  UNL     1     -33.863  17.387  -2.789  1.00 20.00     0.085 A 
HETATM    7  C7  UNL     1     -34.635  15.243  -4.437  1.00 20.00     0.176 A 
HETATM    8  N8  UNL     1     -33.967  16.436  -4.992  1.00 20.00    -0.296 NA
HETATM    9  N9  UNL     1     -33.551  18.318  -1.931  1.00 20.00    -0.235 NA
HETATM   10 CL10 UNL     1     -33.814  18.667   0.730  1.00 20.00    -0.062 Cl
ENDROOT
TORSDOF 0
ENDMDL
MODEL 8
REMARK VINA RESULT:      -4.0     12.336     13.475
REMARK  0 active torsions:
REMARK  status: ('A' for Active; 'I' for Inactive)
ROOT
HETATM    1  C1  UNL     1     -33.867  16.905  -3.326  1.00 20.00     0.057 A 
HETATM    2  C2  UNL     1     -33.744  16.364  -5.827  1.00 20.00     0.008 A 
HETATM    3  C3  UNL     1     -35.405  14.158  -5.206  1.00 20.00     0.143 A 
HETATM    4  C4  UNL     1     -34.096  16.225  -4.555  1.00 20.00    -0.005 A 
HETATM    5  C5  UNL     1     -34.549  16.187  -2.416  1.00 20.00     0.127 A 
HETATM    6  C6  UNL     1     -34.948  15.108  -4.183  1.00 20.00     0.085 A 
HETATM    7  C7  UNL     1     -34.207  15.396  -6.880  1.00 20.00     0.176 A 
HETATM    8  N8  UNL     1     -35.070  14.285  -6.437  1.00 20.00    -0.296 NA
HETATM    9  N9  UNL     1     -35.226  15.074  -2.910  1.00 20.00    -0.235 NA
HETATM   10 CL10 UNL     1     -34.613  16.571  -0.753  1.00 20.00    -0.062 Cl
ENDROOT
TORSDOF 0
ENDMDL
MODEL 9
REMARK VINA RESULT:      -3.9     10.439     11.028
REMARK  0 active torsions:
REMARK  status: ('A' for Active; 'I' for Inactive)
ROOT
HETATM    1  C1  UNL     1     -42.993   4.265  -3.141  1.00 20.00     0.057 A 
HETATM    2  C2  UNL     1     -43.260   6.714  -2.436  1.00 20.00     0.008 A 
HETATM    3  C3  UNL     1     -40.924   6.293  -0.893  1.00 20.00     0.143 A 
HETATM    4  C4  UNL     1     -42.722   5.502  -2.491  1.00 20.00    -0.005 A 
HETATM    5  C5  UNL     1     -42.009   3.447  -2.726  1.00 20.00     0.127 A 
HETATM    6  C6  UNL     1     -41.522   5.233  -1.716  1.00 20.00     0.085 A 
HETATM    7  C7  UNL     1     -42.655   7.804  -1.596  1.00 20.00     0.176 A 
HETATM    8  N8  UNL     1     -41.437   7.467  -0.835  1.00 20.00    -0.296 NA
HETATM    9  N9  UNL     1     -41.086   4.012  -1.848  1.00 20.00    -0.235 NA
HETATM   10 CL10 UNL     1     -41.857   1.817  -3.212  1.00 20.00    -0.062 Cl
ENDROOT
TORSDOF 0
ENDMDL
