MODEL 1
REMARK VINA RESULT:      -3.8      0.000      0.000
REMARK  0 active torsions:
REMARK  status: ('A' for Active; 'I' for Inactive)
ROOT
HETATM    1  C1  UNL     1     -34.172  15.954  -4.707  1.00 20.00     0.029 C 
HETATM    2  C2  UNL     1     -34.554  15.597  -2.610  1.00 20.00     0.029 C 
HETATM    3  C3  UNL     1     -33.750  13.515  -3.931  1.00 20.00     0.179 A 
HETATM    4  C4  UNL     1     -35.761  13.948  -4.223  1.00 20.00     0.179 A 
HETATM    5  C5  UNL     1     -33.644  16.594  -3.388  1.00 20.00     0.059 C 
HETATM    6  C6  UNL     1     -34.568  14.769  -3.867  1.00 20.00     0.005 A 
HETATM    7  O7  UNL     1     -34.940  12.745  -4.270  1.00 20.00    -0.389 OA
HETATM    8 BR8  UNL     1     -34.043  18.468  -3.142  1.00 20.00    -0.091 Br
ENDROOT
TORSDOF 0
ENDMDL
MODEL 2
REMARK VINA RESULT:      -3.7      0.459      1.567
REMARK  0 active torsions:
REMARK  status: ('A' for Active; 'I' for Inactive)
ROOT
HETATM    1  C1  UNL     1     -34.669  15.609  -2.536  1.00 20.00     0.029 C 
HETATM    2  C2  UNL     1     -34.252  16.013  -4.619  1.00 20.00     0.029 C 
HETATM    3  C3  UNL     1     -35.757  13.942  -4.200  1.00 20.00     0.179 A 
HETATM    4  C4  UNL     1     -33.740  13.572  -3.868  1.00 20.00     0.179 A 
HETATM    5  C5  UNL     1     -34.870  16.849  -3.458  1.00 20.00     0.059 C 
HETATM    6  C6  UNL     1     -34.592  14.795  -3.801  1.00 20.00     0.005 A 
HETATM    7  O7  UNL     1     -34.891  12.772  -4.262  1.00 20.00    -0.389 OA
HETATM    8 BR8  UNL     1     -33.897  18.440  -2.956  1.00 20.00    -0.091 Br
ENDROOT
TORSDOF 0
ENDMDL
MODEL 3
REMARK VINA RESULT:      -3.7      1.510      1.842
REMARK  0 active torsions:
REMARK  status: ('A' for Active; 'I' for Inactive)
ROOT
HETATM    1  C1  UNL     1     -35.859  15.483  -3.062  1.00 20.00     0.029 C 
HETATM    2  C2  UNL     1     -33.703  15.372  -3.160  1.00 20.00     0.029 C 
HETATM    3  C3  UNL     1     -34.905  15.064  -5.437  1.00 20.00     0.179 A 
HETATM    4  C4  UNL     1     -34.939  13.357  -4.253  1.00 20.00     0.179 A 
HETATM    5  C5  UNL     1     -34.707  16.441  -2.636  1.00 20.00     0.059 C 
HETATM    6  C6  UNL     1     -34.851  14.818  -3.961  1.00 20.00     0.005 A 
HETATM    7  O7  UNL     1     -34.982  13.629  -5.683  1.00 20.00    -0.389 OA
HETATM    8 BR8  UNL     1     -34.600  16.845  -0.750  1.00 20.00    -0.091 Br
ENDROOT
TORSDOF 0
ENDMDL
MODEL 4
REMARK VINA RESULT:      -3.6     11.509     12.163
REMARK  0 active torsions:
REMARK  status: ('A' for Active; 'I' for Inactive)
ROOT
HETATM    1  C1  UNL     1     -33.290   5.513   2.945  1.00 20.00     0.029 C 
HETATM    2  C2  UNL     1     -33.839   7.130   4.270  1.00 20.00     0.029 C 
HETATM    3  C3  UNL     1     -34.079   4.762   5.299  1.00 20.00     0.179 A 
HETATM    4  C4  UNL     1     -35.645   5.269   4.031  1.00 20.00     0.179 A 
HETATM    5  C5  UNL     1     -32.552   6.783   3.464  1.00 20.00     0.059 C 
HETATM    6  C6  UNL     1     -34.213   5.679   4.123  1.00 20.00     0.005 A 
HETATM    7  O7  UNL     1     -35.484   4.391   5.182  1.00 20.00    -0.389 OA
HETATM    8 BR8  UNL     1     -32.029   8.065   2.117  1.00 20.00    -0.091 Br
ENDROOT
TORSDOF 0
ENDMDL
MODEL 5
REMARK VINA RESULT:      -3.5      1.010      1.875
REMARK  0 active torsions:
REMARK  status: ('A' for Active; 'I' for Inactive)
ROOT
HETATM    1  C1  UNL     1     -34.468  15.982  -3.629  1.00 20.00     0.029 C 
HETATM    2  C2  UNL     1     -34.256  15.539  -5.735  1.00 20.00     0.029 C 
HETATM    3  C3  UNL     1     -35.744  13.867  -4.423  1.00 20.00     0.179 A 
HETATM    4  C4  UNL     1     -33.710  13.545  -4.151  1.00 20.00     0.179 A 
HETATM    5  C5  UNL     1     -34.741  16.785  -4.936  1.00 20.00     0.059 C 
HETATM    6  C6  UNL     1     -34.531  14.744  -4.485  1.00 20.00     0.005 A 
HETATM    7  O7  UNL     1     -34.907  12.717  -4.105  1.00 20.00    -0.389 OA
HETATM    8 BR8  UNL     1     -33.697  18.394  -5.170  1.00 20.00    -0.091 Br
ENDROOT
TORSDOF 0
ENDMDL
MODEL 6
REMARK VINA RESULT:      -3.5      1.894      2.290
REMARK  0 active torsions:
REMARK  status: ('A' for Active; 'I' for Inactive)
ROOT
HETATM    1  C1  UNL     1     -33.353  15.586  -3.683  1.00 20.00     0.029 C 
HETATM    2  C2  UNL     1     -35.475  15.945  -3.890  1.00 20.00     0.029 C 
HETATM    3  C3  UNL     1     -34.506  14.206  -5.552  1.00 20.00     0.179 A 
HETATM    4  C4  UNL     1     -34.120  16.172  -6.103  1.00 20.00     0.179 A 
HETATM    5  C5  UNL     1     -34.564  15.502  -2.706  1.00 20.00     0.059 C 
HETATM    6  C6  UNL     1     -34.362  15.491  -4.797  1.00 20.00     0.005 A 
HETATM    7  O7  UNL     1     -34.273  14.906  -6.809  1.00 20.00    -0.389 OA
HETATM    8 BR8  UNL     1     -34.510  16.699  -1.191  1.00 20.00    -0.091 Br
ENDROOT
TORSDOF 0
ENDMDL
MODEL 7
REMARK VINA RESULT:      -3.4      3.115      3.907
REMARK  0 active torsions:
REMARK  status: ('A' for Active; 'I' for Inactive)
ROOT
HETATM    1  C1  UNL     1     -35.369  15.729  -3.157  1.00 20.00     0.029 C 
HETATM    2  C2  UNL     1     -33.238  15.474  -3.417  1.00 20.00     0.029 C 
HETATM    3  C3  UNL     1     -33.912  16.897  -1.357  1.00 20.00     0.179 A 
HETATM    4  C4  UNL     1     -34.005  17.948  -3.147  1.00 20.00     0.179 A 
HETATM    5  C5  UNL     1     -34.436  14.487  -3.280  1.00 20.00     0.059 C 
HETATM    6  C6  UNL     1     -34.134  16.506  -2.785  1.00 20.00     0.005 A 
HETATM    7  O7  UNL     1     -33.785  18.295  -1.749  1.00 20.00    -0.389 OA
HETATM    8 BR8  UNL     1     -34.759  13.338  -4.799  1.00 20.00    -0.091 Br
ENDROOT
TORSDOF 0
ENDMDL
MODEL 8
REMARK VINA RESULT:      -3.3     12.016     13.270
REMARK  0 active torsions:
REMARK  status: ('A' for Active; 'I' for Inactive)
ROOT
HETATM    1  C1  UNL     1     -42.812   4.879  -2.811  1.00 20.00     0.029 C 
HETATM    2  C2  UNL     1     -41.148   4.410  -1.514  1.00 20.00     0.029 C 
HETATM    3  C3  UNL     1     -42.794   6.175  -0.564  1.00 20.00     0.179 A 
HETATM    4  C4  UNL     1     -41.477   6.952  -1.971  1.00 20.00     0.179 A 
HETATM    5  C5  UNL     1     -42.262   3.559  -2.194  1.00 20.00     0.059 C 
HETATM    6  C6  UNL     1     -42.050   5.596  -1.728  1.00 20.00     0.005 A 
HETATM    7  O7  UNL     1     -42.209   7.483  -0.828  1.00 20.00    -0.389 OA
HETATM    8 BR8  UNL     1     -41.653   2.228  -3.455  1.00 20.00    -0.091 Br
ENDROOT
TORSDOF 0
ENDMDL
MODEL 9
REMARK VINA RESULT:      -3.3      2.211      2.837
REMARK  0 active torsions:
REMARK  status: ('A' for Active; 'I' for Inactive)
ROOT
HETATM    1  C1  UNL     1     -35.591  15.805  -4.834  1.00 20.00     0.029 C 
HETATM    2  C2  UNL     1     -34.451  14.771  -6.352  1.00 20.00     0.029 C 
HETATM    3  C3  UNL     1     -35.174  13.292  -4.348  1.00 20.00     0.179 A 
HETATM    4  C4  UNL     1     -33.530  14.492  -3.932  1.00 20.00     0.179 A 
HETATM    5  C5  UNL     1     -35.767  15.604  -6.369  1.00 20.00     0.059 C 
HETATM    6  C6  UNL     1     -34.682  14.605  -4.873  1.00 20.00     0.005 A 
HETATM    7  O7  UNL     1     -34.031  13.213  -3.447  1.00 20.00    -0.389 OA
HETATM    8 BR8  UNL     1     -35.732  17.211  -7.439  1.00 20.00    -0.091 Br
ENDROOT
TORSDOF 0
ENDMDL
