MODEL 1
REMARK VINA RESULT:      -3.3      0.000      0.000
REMARK  0 active torsions:
REMARK  status: ('A' for Active; 'I' for Inactive)
ROOT
HETATM    1  C1  UNL     1     -33.671   6.682   5.325  1.00 20.00     0.031 C 
HETATM    2  C2  UNL     1     -34.377   5.577   6.094  1.00 20.00     0.075 C 
HETATM    3  C3  UNL     1     -34.450   5.382   3.413  1.00 20.00     0.094 C 
HETATM    4  C4  UNL     1     -33.224   6.057   4.009  1.00 20.00     0.092 C 
HETATM    5  S5  UNL     1     -35.299   4.643   4.840  1.00 20.00    -0.168 SA
HETATM    6 CL6  UNL     1     -32.569   7.285   2.904  1.00 20.00    -0.124 Cl
ENDROOT
TORSDOF 0
ENDMDL
MODEL 2
REMARK VINA RESULT:      -3.3      1.842      2.204
REMARK  0 active torsions:
REMARK  status: ('A' for Active; 'I' for Inactive)
ROOT
HETATM    1  C1  UNL     1     -34.939   4.306   4.797  1.00 20.00     0.031 C 
HETATM    2  C2  UNL     1     -35.145   4.843   6.205  1.00 20.00     0.075 C 
HETATM    3  C3  UNL     1     -33.713   6.400   4.544  1.00 20.00     0.094 C 
HETATM    4  C4  UNL     1     -34.781   5.528   3.902  1.00 20.00     0.092 C 
HETATM    5  S5  UNL     1     -34.043   6.281   6.327  1.00 20.00    -0.168 SA
HETATM    6 CL6  UNL     1     -34.318   5.060   2.251  1.00 20.00    -0.124 Cl
ENDROOT
TORSDOF 0
ENDMDL
MODEL 3
REMARK VINA RESULT:      -3.3      0.950      1.794
REMARK  0 active torsions:
REMARK  status: ('A' for Active; 'I' for Inactive)
ROOT
HETATM    1  C1  UNL     1     -34.411   5.275   3.401  1.00 20.00     0.031 C 
HETATM    2  C2  UNL     1     -35.424   4.816   4.438  1.00 20.00     0.075 C 
HETATM    3  C3  UNL     1     -33.410   6.346   5.351  1.00 20.00     0.094 C 
HETATM    4  C4  UNL     1     -33.853   6.595   3.917  1.00 20.00     0.092 C 
HETATM    5  S5  UNL     1     -34.694   5.262   6.040  1.00 20.00    -0.168 SA
HETATM    6 CL6  UNL     1     -32.494   7.152   2.916  1.00 20.00    -0.124 Cl
ENDROOT
TORSDOF 0
ENDMDL
MODEL 4
REMARK VINA RESULT:      -3.2      1.999      2.324
REMARK  0 active torsions:
REMARK  status: ('A' for Active; 'I' for Inactive)
ROOT
HETATM    1  C1  UNL     1     -34.833   5.255   6.228  1.00 20.00     0.031 C 
HETATM    2  C2  UNL     1     -35.102   4.281   5.092  1.00 20.00     0.075 C 
HETATM    3  C3  UNL     1     -33.978   6.623   4.397  1.00 20.00     0.094 C 
HETATM    4  C4  UNL     1     -33.643   6.096   5.784  1.00 20.00     0.092 C 
HETATM    5  S5  UNL     1     -34.809   5.232   3.574  1.00 20.00    -0.168 SA
HETATM    6 CL6  UNL     1     -33.341   7.431   6.919  1.00 20.00    -0.124 Cl
ENDROOT
TORSDOF 0
ENDMDL
MODEL 5
REMARK VINA RESULT:      -3.0      2.591      3.240
REMARK  0 active torsions:
REMARK  status: ('A' for Active; 'I' for Inactive)
ROOT
HETATM    1  C1  UNL     1     -35.146   5.214   3.916  1.00 20.00     0.031 C 
HETATM    2  C2  UNL     1     -34.220   5.428   2.729  1.00 20.00     0.075 C 
HETATM    3  C3  UNL     1     -33.359   6.389   5.089  1.00 20.00     0.094 C 
HETATM    4  C4  UNL     1     -34.247   5.155   5.144  1.00 20.00     0.092 C 
HETATM    5  S5  UNL     1     -32.940   6.567   3.330  1.00 20.00    -0.168 SA
HETATM    6 CL6  UNL     1     -35.205   5.123   6.641  1.00 20.00    -0.124 Cl
ENDROOT
TORSDOF 0
ENDMDL
MODEL 6
REMARK VINA RESULT:      -2.9      9.286     10.041
REMARK  0 active torsions:
REMARK  status: ('A' for Active; 'I' for Inactive)
ROOT
HETATM    1  C1  UNL     1     -40.651   4.643  -0.990  1.00 20.00     0.031 C 
HETATM    2  C2  UNL     1     -40.827   5.953  -0.239  1.00 20.00     0.075 C 
HETATM    3  C3  UNL     1     -42.212   5.709  -2.532  1.00 20.00     0.094 C 
HETATM    4  C4  UNL     1     -41.946   4.425  -1.762  1.00 20.00     0.092 C 
HETATM    5  S5  UNL     1     -41.734   7.033  -1.382  1.00 20.00    -0.168 SA
HETATM    6 CL6  UNL     1     -41.812   3.036  -2.862  1.00 20.00    -0.124 Cl
ENDROOT
TORSDOF 0
ENDMDL
MODEL 7
REMARK VINA RESULT:      -2.9     12.269     12.683
REMARK  0 active torsions:
REMARK  status: ('A' for Active; 'I' for Inactive)
ROOT
HETATM    1  C1  UNL     1     -34.417  13.944  -3.529  1.00 20.00     0.031 C 
HETATM    2  C2  UNL     1     -34.494  13.232  -4.870  1.00 20.00     0.075 C 
HETATM    3  C3  UNL     1     -34.377  15.917  -4.963  1.00 20.00     0.094 C 
HETATM    4  C4  UNL     1     -33.676  15.249  -3.790  1.00 20.00     0.092 C 
HETATM    5  S5  UNL     1     -34.783  14.548  -6.087  1.00 20.00    -0.168 SA
HETATM    6 CL6  UNL     1     -33.694  16.296  -2.354  1.00 20.00    -0.124 Cl
ENDROOT
TORSDOF 0
ENDMDL
MODEL 8
REMARK VINA RESULT:      -2.8     12.700     13.116
REMARK  0 active torsions:
REMARK  status: ('A' for Active; 'I' for Inactive)
ROOT
HETATM    1  C1  UNL     1     -34.467  15.151  -3.058  1.00 20.00     0.031 C 
HETATM    2  C2  UNL     1     -33.792  15.115  -4.419  1.00 20.00     0.075 C 
HETATM    3  C3  UNL     1     -33.888  17.516  -3.211  1.00 20.00     0.094 C 
HETATM    4  C4  UNL     1     -33.818  16.301  -2.298  1.00 20.00     0.092 C 
HETATM    5  S5  UNL     1     -33.544  16.856  -4.869  1.00 20.00    -0.168 SA
HETATM    6 CL6  UNL     1     -34.654  16.607  -0.760  1.00 20.00    -0.124 Cl
ENDROOT
TORSDOF 0
ENDMDL
MODEL 9
REMARK VINA RESULT:      -2.7     11.936     12.192
REMARK  0 active torsions:
REMARK  status: ('A' for Active; 'I' for Inactive)
ROOT
HETATM    1  C1  UNL     1     -35.789  15.486  -3.512  1.00 20.00     0.031 C 
HETATM    2  C2  UNL     1     -36.242  14.202  -4.190  1.00 20.00     0.075 C 
HETATM    3  C3  UNL     1     -33.594  14.461  -3.797  1.00 20.00     0.094 C 
HETATM    4  C4  UNL     1     -34.499  15.140  -2.781  1.00 20.00     0.092 C 
HETATM    5  S5  UNL     1     -34.715  13.411  -4.769  1.00 20.00    -0.168 SA
HETATM    6 CL6  UNL     1     -33.729  16.597  -2.113  1.00 20.00    -0.124 Cl
ENDROOT
TORSDOF 0
ENDMDL
