MODEL 1
REMARK VINA RESULT:      -5.5      0.000      0.000
REMARK  0 active torsions:
REMARK  status: ('A' for Active; 'I' for Inactive)
ROOT
HETATM    1  C1  UNL     1     -34.772   4.789   6.724  1.00 20.00     0.002 C 
HETATM    2  C2  UNL     1     -34.317   6.024   6.463  1.00 20.00     0.028 C 
HETATM    3  C3  UNL     1     -34.941   3.782   5.690  1.00 20.00    -0.003 C 
HETATM    4  C4  UNL     1     -34.955   4.118   4.387  1.00 20.00    -0.012 C 
HETATM    5  C5  UNL     1     -33.967   5.898   2.839  1.00 20.00     0.027 C 
HETATM    6  C6  UNL     1     -33.051   6.786   3.244  1.00 20.00     0.100 C 
HETATM    7  C7  UNL     1     -34.025   6.283   5.039  1.00 20.00     0.047 C 
HETATM    8  C8  UNL     1     -34.848   5.552   3.987  1.00 20.00     0.085 C 
HETATM    9  N9  UNL     1     -33.079   7.049   4.590  1.00 20.00    -0.245 NA
HETATM   10 BR10 UNL     1     -31.771   7.580   2.179  1.00 20.00    -0.029 Br
ENDROOT
TORSDOF 0
ENDMDL
MODEL 2
REMARK VINA RESULT:      -4.6     12.122     13.667
REMARK  0 active torsions:
REMARK  status: ('A' for Active; 'I' for Inactive)
ROOT
HETATM    1  C1  UNL     1     -34.410  15.480  -7.100  1.00 20.00     0.002 C 
HETATM    2  C2  UNL     1     -33.778  16.303  -6.249  1.00 20.00     0.028 C 
HETATM    3  C3  UNL     1     -35.156  14.315  -6.653  1.00 20.00    -0.003 C 
HETATM    4  C4  UNL     1     -34.997  13.820  -5.413  1.00 20.00    -0.012 C 
HETATM    5  C5  UNL     1     -34.393  14.640  -3.066  1.00 20.00     0.027 C 
HETATM    6  C6  UNL     1     -34.267  15.937  -2.760  1.00 20.00     0.100 C 
HETATM    7  C7  UNL     1     -33.882  15.916  -4.828  1.00 20.00     0.047 C 
HETATM    8  C8  UNL     1     -34.002  14.437  -4.487  1.00 20.00     0.085 C 
HETATM    9  N9  UNL     1     -33.937  16.736  -3.825  1.00 20.00    -0.245 NA
HETATM   10 BR10 UNL     1     -34.564  16.689  -1.102  1.00 20.00    -0.029 Br
ENDROOT
TORSDOF 0
ENDMDL
MODEL 3
REMARK VINA RESULT:      -4.5     11.957     12.544
REMARK  0 active torsions:
REMARK  status: ('A' for Active; 'I' for Inactive)
ROOT
HETATM    1  C1  UNL     1     -35.158  13.489  -4.432  1.00 20.00     0.002 C 
HETATM    2  C2  UNL     1     -35.960  14.457  -3.961  1.00 20.00     0.028 C 
HETATM    3  C3  UNL     1     -33.740  13.427  -4.120  1.00 20.00    -0.003 C 
HETATM    4  C4  UNL     1     -33.091  14.490  -3.611  1.00 20.00    -0.012 C 
HETATM    5  C5  UNL     1     -33.576  16.532  -2.149  1.00 20.00     0.027 C 
HETATM    6  C6  UNL     1     -34.742  16.713  -1.517  1.00 20.00     0.100 C 
HETATM    7  C7  UNL     1     -35.281  15.463  -3.122  1.00 20.00     0.047 C 
HETATM    8  C8  UNL     1     -33.819  15.778  -3.408  1.00 20.00     0.085 C 
HETATM    9  N9  UNL     1     -35.806  16.078  -2.107  1.00 20.00    -0.245 NA
HETATM   10 BR10 UNL     1     -34.987  17.649   0.054  1.00 20.00    -0.029 Br
ENDROOT
TORSDOF 0
ENDMDL
MODEL 4
REMARK VINA RESULT:      -4.4     12.296     13.521
REMARK  0 active torsions:
REMARK  status: ('A' for Active; 'I' for Inactive)
ROOT
HETATM    1  C1  UNL     1     -34.832  14.062  -5.995  1.00 20.00     0.002 C 
HETATM    2  C2  UNL     1     -34.292  15.284  -6.127  1.00 20.00     0.028 C 
HETATM    3  C3  UNL     1     -35.069  13.447  -4.700  1.00 20.00    -0.003 C 
HETATM    4  C4  UNL     1     -34.480  13.918  -3.587  1.00 20.00    -0.012 C 
HETATM    5  C5  UNL     1     -33.610  16.135  -2.651  1.00 20.00     0.027 C 
HETATM    6  C6  UNL     1     -33.808  17.309  -3.262  1.00 20.00     0.100 C 
HETATM    7  C7  UNL     1     -33.936  15.939  -4.853  1.00 20.00     0.047 C 
HETATM    8  C8  UNL     1     -33.524  15.062  -3.678  1.00 20.00     0.085 C 
HETATM    9  N9  UNL     1     -33.995  17.213  -4.618  1.00 20.00    -0.245 NA
HETATM   10 BR10 UNL     1     -33.915  18.954  -2.433  1.00 20.00    -0.029 Br
ENDROOT
TORSDOF 0
ENDMDL
MODEL 5
REMARK VINA RESULT:      -4.3     12.115     13.137
REMARK  0 active torsions:
REMARK  status: ('A' for Active; 'I' for Inactive)
ROOT
HETATM    1  C1  UNL     1     -33.656  13.789  -3.862  1.00 20.00     0.002 C 
HETATM    2  C2  UNL     1     -34.871  13.328  -4.197  1.00 20.00     0.028 C 
HETATM    3  C3  UNL     1     -33.417  15.177  -3.504  1.00 20.00    -0.003 C 
HETATM    4  C4  UNL     1     -34.317  16.135  -3.789  1.00 20.00    -0.012 C 
HETATM    5  C5  UNL     1     -36.847  16.386  -4.076  1.00 20.00     0.027 C 
HETATM    6  C6  UNL     1     -37.711  15.405  -3.792  1.00 20.00     0.100 C 
HETATM    7  C7  UNL     1     -35.937  14.349  -4.196  1.00 20.00     0.047 C 
HETATM    8  C8  UNL     1     -35.564  15.786  -4.532  1.00 20.00     0.085 C 
HETATM    9  N9  UNL     1     -37.177  14.144  -3.875  1.00 20.00    -0.245 NA
HETATM   10 BR10 UNL     1     -39.461  15.629  -3.252  1.00 20.00    -0.029 Br
ENDROOT
TORSDOF 0
ENDMDL
MODEL 6
REMARK VINA RESULT:      -4.3      1.217      2.173
REMARK  0 active torsions:
REMARK  status: ('A' for Active; 'I' for Inactive)
ROOT
HETATM    1  C1  UNL     1     -35.241   4.964   5.229  1.00 20.00     0.002 C 
HETATM    2  C2  UNL     1     -34.826   4.926   3.953  1.00 20.00     0.028 C 
HETATM    3  C3  UNL     1     -34.662   5.863   6.213  1.00 20.00    -0.003 C 
HETATM    4  C4  UNL     1     -33.484   6.474   5.991  1.00 20.00    -0.012 C 
HETATM    5  C5  UNL     1     -32.094   7.334   4.024  1.00 20.00     0.027 C 
HETATM    6  C6  UNL     1     -32.558   7.375   2.769  1.00 20.00     0.100 C 
HETATM    7  C7  UNL     1     -33.722   5.853   3.638  1.00 20.00     0.047 C 
HETATM    8  C8  UNL     1     -32.725   6.191   4.738  1.00 20.00     0.085 C 
HETATM    9  N9  UNL     1     -33.548   6.462   2.506  1.00 20.00    -0.245 NA
HETATM   10 BR10 UNL     1     -32.033   8.565   1.460  1.00 20.00    -0.029 Br
ENDROOT
TORSDOF 0
ENDMDL
MODEL 7
REMARK VINA RESULT:      -4.3     12.602     13.931
REMARK  0 active torsions:
REMARK  status: ('A' for Active; 'I' for Inactive)
ROOT
HETATM    1  C1  UNL     1     -33.373  13.722  -3.811  1.00 20.00     0.002 C 
HETATM    2  C2  UNL     1     -32.930  14.981  -3.672  1.00 20.00     0.028 C 
HETATM    3  C3  UNL     1     -34.471  13.371  -4.697  1.00 20.00    -0.003 C 
HETATM    4  C4  UNL     1     -35.303  14.311  -5.181  1.00 20.00    -0.012 C 
HETATM    5  C5  UNL     1     -35.261  16.791  -5.808  1.00 20.00     0.027 C 
HETATM    6  C6  UNL     1     -34.136  17.515  -5.832  1.00 20.00     0.100 C 
HETATM    7  C7  UNL     1     -33.663  15.982  -4.472  1.00 20.00     0.047 C 
HETATM    8  C8  UNL     1     -35.136  15.736  -4.766  1.00 20.00     0.085 C 
HETATM    9  N9  UNL     1     -33.146  17.045  -5.006  1.00 20.00    -0.245 NA
HETATM   10 BR10 UNL     1     -33.820  18.985  -6.902  1.00 20.00    -0.029 Br
ENDROOT
TORSDOF 0
ENDMDL
MODEL 8
REMARK VINA RESULT:      -4.2     10.017     10.658
REMARK  0 active torsions:
REMARK  status: ('A' for Active; 'I' for Inactive)
ROOT
HETATM    1  C1  UNL     1     -40.501   5.470  -0.354  1.00 20.00     0.002 C 
HETATM    2  C2  UNL     1     -41.042   6.686  -0.525  1.00 20.00     0.028 C 
HETATM    3  C3  UNL     1     -40.770   4.360  -1.254  1.00 20.00    -0.003 C 
HETATM    4  C4  UNL     1     -41.805   4.394  -2.112  1.00 20.00    -0.012 C 
HETATM    5  C5  UNL     1     -43.170   6.113  -3.426  1.00 20.00     0.027 C 
HETATM    6  C6  UNL     1     -42.839   7.408  -3.491  1.00 20.00     0.100 C 
HETATM    7  C7  UNL     1     -41.947   6.798  -1.685  1.00 20.00     0.047 C 
HETATM    8  C8  UNL     1     -42.731   5.565  -2.114  1.00 20.00     0.085 C 
HETATM    9  N9  UNL     1     -42.101   7.854  -2.423  1.00 20.00    -0.245 NA
HETATM   10 BR10 UNL     1     -43.225   8.555  -4.883  1.00 20.00    -0.029 Br
ENDROOT
TORSDOF 0
ENDMDL
MODEL 9
REMARK VINA RESULT:      -4.2      9.963     10.828
REMARK  0 active torsions:
REMARK  status: ('A' for Active; 'I' for Inactive)
ROOT
HETATM    1  C1  UNL     1     -42.551   7.714  -1.667  1.00 20.00     0.002 C 
HETATM    2  C2  UNL     1     -43.269   6.719  -2.211  1.00 20.00     0.028 C 
HETATM    3  C3  UNL     1     -41.245   7.498  -1.067  1.00 20.00    -0.003 C 
HETATM    4  C4  UNL     1     -40.823   6.263  -0.742  1.00 20.00    -0.012 C 
HETATM    5  C5  UNL     1     -41.141   3.846  -1.516  1.00 20.00     0.027 C 
HETATM    6  C6  UNL     1     -41.806   3.521  -2.632  1.00 20.00     0.100 C 
HETATM    7  C7  UNL     1     -42.636   5.388  -2.131  1.00 20.00     0.047 C 
HETATM    8  C8  UNL     1     -41.724   5.091  -0.948  1.00 20.00     0.085 C 
HETATM    9  N9  UNL     1     -42.741   4.448  -3.018  1.00 20.00    -0.245 NA
HETATM   10 BR10 UNL     1     -41.511   2.024  -3.669  1.00 20.00    -0.029 Br
ENDROOT
TORSDOF 0
ENDMDL
