MODEL 1
REMARK VINA RESULT:      -5.5      0.000      0.000
REMARK  0 active torsions:
REMARK  status: ('A' for Active; 'I' for Inactive)
ROOT
HETATM    1  C1  UNL     1     -33.437   5.684   2.569  1.00 20.00    -0.026 C 
HETATM    2  C2  UNL     1     -34.496   5.170   3.212  1.00 20.00    -0.025 C 
HETATM    3  C3  UNL     1     -32.980   7.187   4.544  1.00 20.00     0.012 C 
HETATM    4  C4  UNL     1     -32.452   6.620   3.216  1.00 20.00     0.004 C 
HETATM    5  C5  UNL     1     -34.805   5.429   4.666  1.00 20.00     0.007 C 
HETATM    6  C6  UNL     1     -33.614   6.089   5.413  1.00 20.00    -0.011 C 
HETATM    7  C7  UNL     1     -32.080   7.761   2.269  1.00 20.00     0.014 C 
HETATM    8  C8  UNL     1     -35.226   4.119   5.340  1.00 20.00     0.014 C 
HETATM    9  C9  UNL     1     -34.040   6.676   6.762  1.00 20.00     0.010 C 
ENDROOT
TORSDOF 0
ENDMDL
MODEL 2
REMARK VINA RESULT:      -4.3     11.572     13.161
REMARK  0 active torsions:
REMARK  status: ('A' for Active; 'I' for Inactive)
ROOT
HETATM    1  C1  UNL     1     -34.035  17.330  -3.571  1.00 20.00    -0.026 C 
HETATM    2  C2  UNL     1     -34.442  17.098  -4.827  1.00 20.00    -0.025 C 
HETATM    3  C3  UNL     1     -34.480  14.915  -2.989  1.00 20.00     0.012 C 
HETATM    4  C4  UNL     1     -33.836  16.241  -2.551  1.00 20.00     0.004 C 
HETATM    5  C5  UNL     1     -34.709  15.721  -5.384  1.00 20.00     0.007 C 
HETATM    6  C6  UNL     1     -34.168  14.596  -4.460  1.00 20.00    -0.011 C 
HETATM    7  C7  UNL     1     -34.382  16.665  -1.187  1.00 20.00     0.014 C 
HETATM    8  C8  UNL     1     -34.117  15.615  -6.793  1.00 20.00     0.014 C 
HETATM    9  C9  UNL     1     -34.746  13.227  -4.827  1.00 20.00     0.010 C 
ENDROOT
TORSDOF 0
ENDMDL
MODEL 3
REMARK VINA RESULT:      -4.2      1.003      4.067
REMARK  0 active torsions:
REMARK  status: ('A' for Active; 'I' for Inactive)
ROOT
HETATM    1  C1  UNL     1     -33.801   6.016   6.298  1.00 20.00    -0.026 C 
HETATM    2  C2  UNL     1     -33.421   6.919   5.383  1.00 20.00    -0.025 C 
HETATM    3  C3  UNL     1     -35.005   4.714   4.502  1.00 20.00     0.012 C 
HETATM    4  C4  UNL     1     -34.483   4.721   5.949  1.00 20.00     0.004 C 
HETATM    5  C5  UNL     1     -33.590   6.731   3.894  1.00 20.00     0.007 C 
HETATM    6  C6  UNL     1     -33.957   5.268   3.523  1.00 20.00    -0.011 C 
HETATM    7  C7  UNL     1     -35.628   4.428   6.920  1.00 20.00     0.014 C 
HETATM    8  C8  UNL     1     -32.316   7.184   3.174  1.00 20.00     0.014 C 
HETATM    9  C9  UNL     1     -34.478   5.156   2.088  1.00 20.00     0.010 C 
ENDROOT
TORSDOF 0
ENDMDL
MODEL 4
REMARK VINA RESULT:      -4.1     11.828     13.222
REMARK  0 active torsions:
REMARK  status: ('A' for Active; 'I' for Inactive)
ROOT
HETATM    1  C1  UNL     1     -33.415  15.903  -3.380  1.00 20.00    -0.026 C 
HETATM    2  C2  UNL     1     -33.468  16.013  -4.715  1.00 20.00    -0.025 C 
HETATM    3  C3  UNL     1     -35.933  15.747  -3.302  1.00 20.00     0.012 C 
HETATM    4  C4  UNL     1     -34.614  15.581  -2.529  1.00 20.00     0.004 C 
HETATM    5  C5  UNL     1     -34.719  15.788  -5.529  1.00 20.00     0.007 C 
HETATM    6  C6  UNL     1     -35.848  15.117  -4.702  1.00 20.00    -0.011 C 
HETATM    7  C7  UNL     1     -34.634  16.444  -1.266  1.00 20.00     0.014 C 
HETATM    8  C8  UNL     1     -34.376  14.963  -6.774  1.00 20.00     0.014 C 
HETATM    9  C9  UNL     1     -37.207  15.220  -5.400  1.00 20.00     0.010 C 
ENDROOT
TORSDOF 0
ENDMDL
MODEL 5
REMARK VINA RESULT:      -4.1     11.542     12.988
REMARK  0 active torsions:
REMARK  status: ('A' for Active; 'I' for Inactive)
ROOT
HETATM    1  C1  UNL     1     -34.093  15.611  -5.334  1.00 20.00    -0.026 C 
HETATM    2  C2  UNL     1     -33.519  16.716  -4.835  1.00 20.00    -0.025 C 
HETATM    3  C3  UNL     1     -34.672  14.864  -2.994  1.00 20.00     0.012 C 
HETATM    4  C4  UNL     1     -34.889  14.644  -4.501  1.00 20.00     0.004 C 
HETATM    5  C5  UNL     1     -33.635  17.146  -3.393  1.00 20.00     0.007 C 
HETATM    6  C6  UNL     1     -34.733  16.357  -2.630  1.00 20.00    -0.011 C 
HETATM    7  C7  UNL     1     -34.554  13.199  -4.873  1.00 20.00     0.014 C 
HETATM    8  C8  UNL     1     -33.890  18.655  -3.329  1.00 20.00     0.014 C 
HETATM    9  C9  UNL     1     -34.608  16.524  -1.113  1.00 20.00     0.010 C 
ENDROOT
TORSDOF 0
ENDMDL
MODEL 6
REMARK VINA RESULT:      -4.0     11.123     13.324
REMARK  0 active torsions:
REMARK  status: ('A' for Active; 'I' for Inactive)
ROOT
HETATM    1  C1  UNL     1     -33.846  16.216  -6.085  1.00 20.00    -0.026 C 
HETATM    2  C2  UNL     1     -34.429  15.148  -5.523  1.00 20.00    -0.025 C 
HETATM    3  C3  UNL     1     -34.027  17.456  -3.894  1.00 20.00     0.012 C 
HETATM    4  C4  UNL     1     -33.414  17.428  -5.304  1.00 20.00     0.004 C 
HETATM    5  C5  UNL     1     -34.686  15.010  -4.042  1.00 20.00     0.007 C 
HETATM    6  C6  UNL     1     -33.930  16.082  -3.211  1.00 20.00    -0.011 C 
HETATM    7  C7  UNL     1     -33.766  18.714  -6.054  1.00 20.00     0.014 C 
HETATM    8  C8  UNL     1     -34.317  13.593  -3.589  1.00 20.00     0.014 C 
HETATM    9  C9  UNL     1     -34.463  16.176  -1.779  1.00 20.00     0.010 C 
ENDROOT
TORSDOF 0
ENDMDL
MODEL 7
REMARK VINA RESULT:      -4.0      9.096     10.612
REMARK  0 active torsions:
REMARK  status: ('A' for Active; 'I' for Inactive)
ROOT
HETATM    1  C1  UNL     1     -41.560   3.539  -2.351  1.00 20.00    -0.026 C 
HETATM    2  C2  UNL     1     -40.804   4.269  -1.517  1.00 20.00    -0.025 C 
HETATM    3  C3  UNL     1     -43.417   3.527  -0.643  1.00 20.00     0.012 C 
HETATM    4  C4  UNL     1     -43.010   3.230  -2.095  1.00 20.00     0.004 C 
HETATM    5  C5  UNL     1     -41.322   4.902  -0.249  1.00 20.00     0.007 C 
HETATM    6  C6  UNL     1     -42.873   4.886  -0.172  1.00 20.00    -0.011 C 
HETATM    7  C7  UNL     1     -43.326   1.774  -2.442  1.00 20.00     0.014 C 
HETATM    8  C8  UNL     1     -40.775   6.329  -0.130  1.00 20.00     0.014 C 
HETATM    9  C9  UNL     1     -43.379   5.185   1.241  1.00 20.00     0.010 C 
ENDROOT
TORSDOF 0
ENDMDL
MODEL 8
REMARK VINA RESULT:      -3.9      1.043      2.639
REMARK  0 active torsions:
REMARK  status: ('A' for Active; 'I' for Inactive)
ROOT
HETATM    1  C1  UNL     1     -33.379   6.588   3.295  1.00 20.00    -0.026 C 
HETATM    2  C2  UNL     1     -32.940   6.844   4.536  1.00 20.00    -0.025 C 
HETATM    3  C3  UNL     1     -34.764   4.677   4.189  1.00 20.00     0.012 C 
HETATM    4  C4  UNL     1     -34.470   5.597   2.992  1.00 20.00     0.004 C 
HETATM    5  C5  UNL     1     -33.511   6.206   5.779  1.00 20.00     0.007 C 
HETATM    6  C6  UNL     1     -34.851   5.471   5.502  1.00 20.00    -0.011 C 
HETATM    7  C7  UNL     1     -34.122   4.761   1.760  1.00 20.00     0.014 C 
HETATM    8  C8  UNL     1     -33.675   7.269   6.870  1.00 20.00     0.014 C 
HETATM    9  C9  UNL     1     -35.237   4.534   6.650  1.00 20.00     0.010 C 
ENDROOT
TORSDOF 0
ENDMDL
MODEL 9
REMARK VINA RESULT:      -3.9     11.623     13.526
REMARK  0 active torsions:
REMARK  status: ('A' for Active; 'I' for Inactive)
ROOT
HETATM    1  C1  UNL     1     -34.929  14.511  -3.449  1.00 20.00    -0.026 C 
HETATM    2  C2  UNL     1     -34.569  14.125  -4.681  1.00 20.00    -0.025 C 
HETATM    3  C3  UNL     1     -34.484  16.914  -4.081  1.00 20.00     0.012 C 
HETATM    4  C4  UNL     1     -35.101  15.952  -3.051  1.00 20.00     0.004 C 
HETATM    5  C5  UNL     1     -34.334  15.079  -5.827  1.00 20.00     0.007 C 
HETATM    6  C6  UNL     1     -34.852  16.510  -5.518  1.00 20.00    -0.011 C 
HETATM    7  C7  UNL     1     -34.502  16.211  -1.667  1.00 20.00     0.014 C 
HETATM    8  C8  UNL     1     -34.978  14.518  -7.100  1.00 20.00     0.014 C 
HETATM    9  C9  UNL     1     -34.300  17.544  -6.504  1.00 20.00     0.010 C 
ENDROOT
TORSDOF 0
ENDMDL
