MODEL 1
REMARK VINA RESULT:      -4.8      0.000      0.000
REMARK  0 active torsions:
REMARK  status: ('A' for Active; 'I' for Inactive)
ROOT
HETATM    1  C1  UNL     1     -34.479   5.160   2.869  1.00 20.00     0.032 C 
HETATM    2  C2  UNL     1     -33.551   6.085   2.605  1.00 20.00     0.028 C 
HETATM    3  C3  UNL     1     -34.676   5.383   6.485  1.00 20.00     0.026 C 
HETATM    4  C4  UNL     1     -35.044   4.129   6.204  1.00 20.00     0.115 C 
HETATM    5  C5  UNL     1     -34.733   4.953   4.298  1.00 20.00     0.062 C 
HETATM    6  C6  UNL     1     -32.811   6.699   3.752  1.00 20.00     0.026 C 
HETATM    7  C7  UNL     1     -34.525   6.136   5.212  1.00 20.00     0.184 C 
HETATM    8  C8  UNL     1     -31.487   7.337   3.421  1.00 20.00     0.070 C 
HETATM    9  N9  UNL     1     -35.100   3.846   4.865  1.00 20.00    -0.263 NA
HETATM   10  N10 UNL     1     -33.205   6.703   4.986  1.00 20.00    -0.279 NA
ENDROOT
TORSDOF 0
ENDMDL
MODEL 2
REMARK VINA RESULT:      -4.3     12.289     13.815
REMARK  0 active torsions:
REMARK  status: ('A' for Active; 'I' for Inactive)
ROOT
HETATM    1  C1  UNL     1     -34.447  13.406  -4.698  1.00 20.00     0.032 C 
HETATM    2  C2  UNL     1     -34.273  13.970  -3.498  1.00 20.00     0.028 C 
HETATM    3  C3  UNL     1     -34.551  16.337  -6.835  1.00 20.00     0.026 C 
HETATM    4  C4  UNL     1     -35.268  15.417  -7.489  1.00 20.00     0.115 C 
HETATM    5  C5  UNL     1     -34.609  14.366  -5.796  1.00 20.00     0.062 C 
HETATM    6  C6  UNL     1     -34.380  15.459  -3.389  1.00 20.00     0.026 C 
HETATM    7  C7  UNL     1     -33.919  15.700  -5.651  1.00 20.00     0.184 C 
HETATM    8  C8  UNL     1     -34.667  16.002  -2.013  1.00 20.00     0.070 C 
HETATM    9  N9  UNL     1     -35.305  14.192  -6.876  1.00 20.00    -0.263 NA
HETATM   10  N10 UNL     1     -34.270  16.296  -4.371  1.00 20.00    -0.279 NA
ENDROOT
TORSDOF 0
ENDMDL
MODEL 3
REMARK VINA RESULT:      -4.1     12.552     13.449
REMARK  0 active torsions:
REMARK  status: ('A' for Active; 'I' for Inactive)
ROOT
HETATM    1  C1  UNL     1     -34.930  18.043   1.803  1.00 20.00     0.032 C 
HETATM    2  C2  UNL     1     -35.321  17.469   0.661  1.00 20.00     0.028 C 
HETATM    3  C3  UNL     1     -31.640  19.263   0.879  1.00 20.00     0.026 C 
HETATM    4  C4  UNL     1     -31.570  19.073   2.200  1.00 20.00     0.115 C 
HETATM    5  C5  UNL     1     -33.565  18.579   1.771  1.00 20.00     0.062 C 
HETATM    6  C6  UNL     1     -34.321  17.330  -0.444  1.00 20.00     0.026 C 
HETATM    7  C7  UNL     1     -33.044  19.055   0.437  1.00 20.00     0.184 C 
HETATM    8  C8  UNL     1     -34.624  16.281  -1.483  1.00 20.00     0.070 C 
HETATM    9  N9  UNL     1     -32.747  18.666   2.773  1.00 20.00    -0.263 NA
HETATM   10  N10 UNL     1     -33.227  18.013  -0.560  1.00 20.00    -0.279 NA
ENDROOT
TORSDOF 0
ENDMDL
MODEL 4
REMARK VINA RESULT:      -4.1     11.910     12.532
REMARK  0 active torsions:
REMARK  status: ('A' for Active; 'I' for Inactive)
ROOT
HETATM    1  C1  UNL     1     -32.926  15.507  -3.476  1.00 20.00     0.032 C 
HETATM    2  C2  UNL     1     -33.275  16.384  -2.530  1.00 20.00     0.028 C 
HETATM    3  C3  UNL     1     -36.131  13.981  -4.228  1.00 20.00     0.026 C 
HETATM    4  C4  UNL     1     -35.230  13.041  -4.532  1.00 20.00     0.115 C 
HETATM    5  C5  UNL     1     -34.026  14.656  -3.944  1.00 20.00     0.062 C 
HETATM    6  C6  UNL     1     -34.667  16.325  -1.984  1.00 20.00     0.026 C 
HETATM    7  C7  UNL     1     -35.416  15.241  -3.894  1.00 20.00     0.184 C 
HETATM    8  C8  UNL     1     -34.875  16.959  -0.632  1.00 20.00     0.070 C 
HETATM    9  N9  UNL     1     -33.928  13.439  -4.379  1.00 20.00    -0.263 NA
HETATM   10  N10 UNL     1     -35.680  15.762  -2.562  1.00 20.00    -0.279 NA
ENDROOT
TORSDOF 0
ENDMDL
MODEL 5
REMARK VINA RESULT:      -4.1     12.279     12.956
REMARK  0 active torsions:
REMARK  status: ('A' for Active; 'I' for Inactive)
ROOT
HETATM    1  C1  UNL     1     -35.244  14.511  -3.590  1.00 20.00     0.032 C 
HETATM    2  C2  UNL     1     -34.438  15.284  -2.856  1.00 20.00     0.028 C 
HETATM    3  C3  UNL     1     -38.339  16.400  -3.451  1.00 20.00     0.026 C 
HETATM    4  C4  UNL     1     -38.725  15.133  -3.636  1.00 20.00     0.115 C 
HETATM    5  C5  UNL     1     -36.631  14.982  -3.660  1.00 20.00     0.062 C 
HETATM    6  C6  UNL     1     -35.040  16.436  -2.114  1.00 20.00     0.026 C 
HETATM    7  C7  UNL     1     -36.858  16.470  -3.555  1.00 20.00     0.184 C 
HETATM    8  C8  UNL     1     -34.239  16.964  -0.951  1.00 20.00     0.070 C 
HETATM    9  N9  UNL     1     -37.692  14.246  -3.782  1.00 20.00    -0.263 NA
HETATM   10  N10 UNL     1     -36.183  16.986  -2.375  1.00 20.00    -0.279 NA
ENDROOT
TORSDOF 0
ENDMDL
MODEL 6
REMARK VINA RESULT:      -4.1     12.676     13.378
REMARK  0 active torsions:
REMARK  status: ('A' for Active; 'I' for Inactive)
ROOT
HETATM    1  C1  UNL     1     -31.929  18.972   0.230  1.00 20.00     0.032 C 
HETATM    2  C2  UNL     1     -31.655  19.263   1.505  1.00 20.00     0.028 C 
HETATM    3  C3  UNL     1     -35.250  17.545   0.539  1.00 20.00     0.026 C 
HETATM    4  C4  UNL     1     -34.742  16.979  -0.560  1.00 20.00     0.115 C 
HETATM    5  C5  UNL     1     -33.213  18.291   0.030  1.00 20.00     0.062 C 
HETATM    6  C6  UNL     1     -32.592  18.773   2.564  1.00 20.00     0.026 C 
HETATM    7  C7  UNL     1     -34.313  18.594   1.017  1.00 20.00     0.184 C 
HETATM    8  C8  UNL     1     -32.026  18.683   3.958  1.00 20.00     0.070 C 
HETATM    9  N9  UNL     1     -33.495  17.434  -0.901  1.00 20.00    -0.263 NA
HETATM   10  N10 UNL     1     -33.819  18.407   2.373  1.00 20.00    -0.279 NA
ENDROOT
TORSDOF 0
ENDMDL
MODEL 7
REMARK VINA RESULT:      -4.0     11.845     13.085
REMARK  0 active torsions:
REMARK  status: ('A' for Active; 'I' for Inactive)
ROOT
HETATM    1  C1  UNL     1     -34.126  13.835  -3.648  1.00 20.00     0.032 C 
HETATM    2  C2  UNL     1     -34.435  13.517  -4.909  1.00 20.00     0.028 C 
HETATM    3  C3  UNL     1     -36.420  16.579  -3.038  1.00 20.00     0.026 C 
HETATM    4  C4  UNL     1     -35.391  16.812  -2.218  1.00 20.00     0.115 C 
HETATM    5  C5  UNL     1     -34.853  14.996  -3.124  1.00 20.00     0.062 C 
HETATM    6  C6  UNL     1     -35.363  14.418  -5.662  1.00 20.00     0.026 C 
HETATM    7  C7  UNL     1     -36.233  15.252  -3.679  1.00 20.00     0.184 C 
HETATM    8  C8  UNL     1     -35.303  14.321  -7.165  1.00 20.00     0.070 C 
HETATM    9  N9  UNL     1     -34.421  15.844  -2.243  1.00 20.00    -0.263 NA
HETATM   10  N10 UNL     1     -36.180  15.272  -5.132  1.00 20.00    -0.279 NA
ENDROOT
TORSDOF 0
ENDMDL
MODEL 8
REMARK VINA RESULT:      -4.0     11.928     13.176
REMARK  0 active torsions:
REMARK  status: ('A' for Active; 'I' for Inactive)
ROOT
HETATM    1  C1  UNL     1     -34.376  15.630  -2.291  1.00 20.00     0.032 C 
HETATM    2  C2  UNL     1     -35.278  16.616  -2.269  1.00 20.00     0.028 C 
HETATM    3  C3  UNL     1     -35.045  14.148  -5.535  1.00 20.00     0.026 C 
HETATM    4  C4  UNL     1     -34.537  13.149  -4.806  1.00 20.00     0.115 C 
HETATM    5  C5  UNL     1     -34.450  14.774  -3.480  1.00 20.00     0.062 C 
HETATM    6  C6  UNL     1     -36.305  16.666  -3.357  1.00 20.00     0.026 C 
HETATM    7  C7  UNL     1     -34.945  15.410  -4.756  1.00 20.00     0.184 C 
HETATM    8  C8  UNL     1     -37.555  17.450  -3.050  1.00 20.00     0.070 C 
HETATM    9  N9  UNL     1     -34.150  13.514  -3.544  1.00 20.00    -0.263 NA
HETATM   10  N10 UNL     1     -36.212  16.081  -4.508  1.00 20.00    -0.279 NA
ENDROOT
TORSDOF 0
ENDMDL
MODEL 9
REMARK VINA RESULT:      -3.9      9.164     10.335
REMARK  0 active torsions:
REMARK  status: ('A' for Active; 'I' for Inactive)
ROOT
HETATM    1  C1  UNL     1     -41.087   6.220  -0.256  1.00 20.00     0.032 C 
HETATM    2  C2  UNL     1     -41.097   6.979  -1.356  1.00 20.00     0.028 C 
HETATM    3  C3  UNL     1     -43.275   3.506  -1.263  1.00 20.00     0.026 C 
HETATM    4  C4  UNL     1     -43.387   3.553   0.068  1.00 20.00     0.115 C 
HETATM    5  C5  UNL     1     -41.967   5.048  -0.325  1.00 20.00     0.062 C 
HETATM    6  C6  UNL     1     -42.059   6.635  -2.450  1.00 20.00     0.026 C 
HETATM    7  C7  UNL     1     -42.206   4.447  -1.689  1.00 20.00     0.184 C 
HETATM    8  C8  UNL     1     -42.390   7.745  -3.414  1.00 20.00     0.070 C 
HETATM    9  N9  UNL     1     -42.581   4.485   0.668  1.00 20.00    -0.263 NA
HETATM   10  N10 UNL     1     -42.634   5.486  -2.613  1.00 20.00    -0.279 NA
ENDROOT
TORSDOF 0
ENDMDL
