MODEL 1
REMARK VINA RESULT:      -5.2      0.000      0.000
REMARK  1 active torsions:
REMARK  status: ('A' for Active; 'I' for Inactive)
REMARK    1  A    between atoms: C4_4  and  C11_11 
ROOT
HETATM    1  C1  UNL     1     -33.751  17.809  -5.358  1.00 20.00     0.003 A 
HETATM    2  C2  UNL     1     -33.664  17.761  -3.958  1.00 20.00     0.008 A 
HETATM    3  C3  UNL     1     -33.997  16.650  -6.098  1.00 20.00     0.029 A 
HETATM    4  C4  UNL     1     -33.817  16.550  -3.278  1.00 20.00    -0.045 A 
HETATM    5  C5  UNL     1     -34.070  15.414  -4.025  1.00 20.00    -0.024 A 
HETATM    6  C6  UNL     1     -34.177  15.459  -5.417  1.00 20.00     0.035 A 
HETATM    7  C7  UNL     1     -34.216  14.000  -3.565  1.00 20.00     0.061 C 
HETATM    8  C10 UNL     1     -34.694  13.303  -4.857  1.00 20.00     0.124 C 
HETATM    9  N12 UNL     1     -34.375  14.194  -5.967  1.00 20.00    -0.389 N 
HETATM   10  H25 UNL     1     -34.738  14.067  -6.901  1.00 20.00     0.159 HD
ENDROOT
BRANCH   4  11
HETATM   11  C11 UNL     1     -33.699  16.498  -1.795  1.00 20.00     0.019 A 
HETATM   12  C8  UNL     1     -34.898  16.849  -0.951  1.00 20.00     0.010 A 
HETATM   13  C9  UNL     1     -33.730  17.783  -1.009  1.00 20.00     0.010 A 
ENDBRANCH   4  11
TORSDOF 1
ENDMDL
MODEL 2
REMARK VINA RESULT:      -4.8      3.958      6.510
REMARK  1 active torsions:
REMARK  status: ('A' for Active; 'I' for Inactive)
REMARK    1  A    between atoms: C4_4  and  C11_11 
ROOT
HETATM    1  C1  UNL     1     -31.699  19.085   0.900  1.00 20.00     0.003 A 
HETATM    2  C2  UNL     1     -32.458  18.624  -0.187  1.00 20.00     0.008 A 
HETATM    3  C3  UNL     1     -32.237  19.105   2.189  1.00 20.00     0.029 A 
HETATM    4  C4  UNL     1     -33.769  18.181  -0.001  1.00 20.00    -0.045 A 
HETATM    5  C5  UNL     1     -34.284  18.198   1.283  1.00 20.00    -0.024 A 
HETATM    6  C6  UNL     1     -33.527  18.637   2.371  1.00 20.00     0.035 A 
HETATM    7  C7  UNL     1     -35.657  17.839   1.750  1.00 20.00     0.061 C 
HETATM    8  C10 UNL     1     -35.480  17.873   3.283  1.00 20.00     0.124 C 
HETATM    9  N12 UNL     1     -34.260  18.624   3.557  1.00 20.00    -0.389 N 
HETATM   10  H25 UNL     1     -33.814  18.644   4.463  1.00 20.00     0.159 HD
ENDROOT
BRANCH   4  11
HETATM   11  C11 UNL     1     -34.580  17.717  -1.159  1.00 20.00     0.019 A 
HETATM   12  C8  UNL     1     -34.638  16.243  -1.472  1.00 20.00     0.010 A 
HETATM   13  C9  UNL     1     -33.879  17.166  -2.374  1.00 20.00     0.010 A 
ENDBRANCH   4  11
TORSDOF 1
ENDMDL
MODEL 3
REMARK VINA RESULT:      -4.8      2.053      3.946
REMARK  1 active torsions:
REMARK  status: ('A' for Active; 'I' for Inactive)
REMARK    1  A    between atoms: C4_4  and  C11_11 
ROOT
HETATM    1  C1  UNL     1     -33.544  17.873  -4.977  1.00 20.00     0.003 A 
HETATM    2  C2  UNL     1     -33.788  16.496  -4.851  1.00 20.00     0.008 A 
HETATM    3  C3  UNL     1     -33.615  18.715  -3.865  1.00 20.00     0.029 A 
HETATM    4  C4  UNL     1     -34.111  15.943  -3.610  1.00 20.00    -0.045 A 
HETATM    5  C5  UNL     1     -34.168  16.789  -2.517  1.00 20.00    -0.024 A 
HETATM    6  C6  UNL     1     -33.907  18.156  -2.633  1.00 20.00     0.035 A 
HETATM    7  C7  UNL     1     -34.541  16.476  -1.105  1.00 20.00     0.061 C 
HETATM    8  C10 UNL     1     -34.185  17.798  -0.392  1.00 20.00     0.124 C 
HETATM    9  N12 UNL     1     -34.078  18.825  -1.422  1.00 20.00    -0.389 N 
HETATM   10  H25 UNL     1     -33.680  19.738  -1.253  1.00 20.00     0.159 HD
ENDROOT
BRANCH   4  11
HETATM   11  C11 UNL     1     -34.394  14.487  -3.484  1.00 20.00     0.019 A 
HETATM   12  C8  UNL     1     -33.270  13.501  -3.677  1.00 20.00     0.010 A 
HETATM   13  C9  UNL     1     -34.342  13.619  -4.715  1.00 20.00     0.010 A 
ENDBRANCH   4  11
TORSDOF 1
ENDMDL
MODEL 4
REMARK VINA RESULT:      -4.7     12.074     13.411
REMARK  1 active torsions:
REMARK  status: ('A' for Active; 'I' for Inactive)
REMARK    1  A    between atoms: C4_4  and  C11_11 
ROOT
HETATM    1  C1  UNL     1     -40.818   6.589  -0.715  1.00 20.00     0.003 A 
HETATM    2  C2  UNL     1     -41.660   7.287  -1.595  1.00 20.00     0.008 A 
HETATM    3  C3  UNL     1     -40.734   5.195  -0.761  1.00 20.00     0.029 A 
HETATM    4  C4  UNL     1     -42.435   6.599  -2.531  1.00 20.00    -0.045 A 
HETATM    5  C5  UNL     1     -42.333   5.220  -2.571  1.00 20.00    -0.024 A 
HETATM    6  C6  UNL     1     -41.482   4.522  -1.711  1.00 20.00     0.035 A 
HETATM    7  C7  UNL     1     -43.082   4.246  -3.422  1.00 20.00     0.061 C 
HETATM    8  C10 UNL     1     -42.334   2.931  -3.115  1.00 20.00     0.124 C 
HETATM    9  N12 UNL     1     -41.583   3.142  -1.883  1.00 20.00    -0.389 N 
HETATM   10  H25 UNL     1     -40.869   2.508  -1.555  1.00 20.00     0.159 HD
ENDROOT
BRANCH   4  11
HETATM   11  C11 UNL     1     -43.346   7.340  -3.446  1.00 20.00     0.019 A 
HETATM   12  C8  UNL     1     -42.754   8.201  -4.533  1.00 20.00     0.010 A 
HETATM   13  C9  UNL     1     -43.417   8.842  -3.354  1.00 20.00     0.010 A 
ENDBRANCH   4  11
TORSDOF 1
ENDMDL
MODEL 5
REMARK VINA RESULT:      -4.6      1.079      2.731
REMARK  1 active torsions:
REMARK  status: ('A' for Active; 'I' for Inactive)
REMARK    1  A    between atoms: C4_4  and  C11_11 
ROOT
HETATM    1  C1  UNL     1     -34.537  13.670  -4.022  1.00 20.00     0.003 A 
HETATM    2  C2  UNL     1     -34.652  14.628  -3.002  1.00 20.00     0.008 A 
HETATM    3  C3  UNL     1     -34.454  14.060  -5.361  1.00 20.00     0.029 A 
HETATM    4  C4  UNL     1     -34.692  15.989  -3.308  1.00 20.00    -0.045 A 
HETATM    5  C5  UNL     1     -34.599  16.359  -4.638  1.00 20.00    -0.024 A 
HETATM    6  C6  UNL     1     -34.464  15.412  -5.655  1.00 20.00     0.035 A 
HETATM    7  C7  UNL     1     -34.672  17.724  -5.241  1.00 20.00     0.061 C 
HETATM    8  C10 UNL     1     -34.282  17.434  -6.706  1.00 20.00     0.124 C 
HETATM    9  N12 UNL     1     -34.448  16.001  -6.918  1.00 20.00    -0.389 N 
HETATM   10  H25 UNL     1     -34.093  15.517  -7.731  1.00 20.00     0.159 HD
ENDROOT
BRANCH   4  11
HETATM   11  C11 UNL     1     -34.839  17.001  -2.226  1.00 20.00     0.019 A 
HETATM   12  C8  UNL     1     -33.621  17.424  -1.444  1.00 20.00     0.010 A 
HETATM   13  C9  UNL     1     -34.667  16.574  -0.791  1.00 20.00     0.010 A 
ENDBRANCH   4  11
TORSDOF 1
ENDMDL
MODEL 6
REMARK VINA RESULT:      -4.6      1.827      4.194
REMARK  1 active torsions:
REMARK  status: ('A' for Active; 'I' for Inactive)
REMARK    1  A    between atoms: C4_4  and  C11_11 
ROOT
HETATM    1  C1  UNL     1     -34.480  16.617  -1.430  1.00 20.00     0.003 A 
HETATM    2  C2  UNL     1     -34.444  15.520  -2.305  1.00 20.00     0.008 A 
HETATM    3  C3  UNL     1     -34.197  17.906  -1.889  1.00 20.00     0.029 A 
HETATM    4  C4  UNL     1     -34.118  15.696  -3.651  1.00 20.00    -0.045 A 
HETATM    5  C5  UNL     1     -33.850  16.979  -4.092  1.00 20.00    -0.024 A 
HETATM    6  C6  UNL     1     -33.903  18.077  -3.231  1.00 20.00     0.035 A 
HETATM    7  C7  UNL     1     -33.424  17.437  -5.449  1.00 20.00     0.061 C 
HETATM    8  C10 UNL     1     -33.516  18.971  -5.299  1.00 20.00     0.124 C 
HETATM    9  N12 UNL     1     -33.540  19.261  -3.870  1.00 20.00    -0.389 N 
HETATM   10  H25 UNL     1     -33.777  20.168  -3.494  1.00 20.00     0.159 HD
ENDROOT
BRANCH   4  11
HETATM   11  C11 UNL     1     -34.056  14.527  -4.571  1.00 20.00     0.019 A 
HETATM   12  C8  UNL     1     -35.286  14.141  -5.352  1.00 20.00     0.010 A 
HETATM   13  C9  UNL     1     -34.820  13.276  -4.223  1.00 20.00     0.010 A 
ENDBRANCH   4  11
TORSDOF 1
ENDMDL
MODEL 7
REMARK VINA RESULT:      -4.6     12.148     14.006
REMARK  1 active torsions:
REMARK  status: ('A' for Active; 'I' for Inactive)
REMARK    1  A    between atoms: C4_4  and  C11_11 
ROOT
HETATM    1  C1  UNL     1     -40.475   5.274  -0.446  1.00 20.00     0.003 A 
HETATM    2  C2  UNL     1     -41.006   4.275  -1.277  1.00 20.00     0.008 A 
HETATM    3  C3  UNL     1     -40.836   6.613  -0.620  1.00 20.00     0.029 A 
HETATM    4  C4  UNL     1     -41.901   4.601  -2.298  1.00 20.00    -0.045 A 
HETATM    5  C5  UNL     1     -42.255   5.930  -2.450  1.00 20.00    -0.024 A 
HETATM    6  C6  UNL     1     -41.746   6.926  -1.614  1.00 20.00     0.035 A 
HETATM    7  C7  UNL     1     -43.136   6.555  -3.483  1.00 20.00     0.061 C 
HETATM    8  C10 UNL     1     -43.269   7.995  -2.942  1.00 20.00     0.124 C 
HETATM    9  N12 UNL     1     -42.189   8.195  -1.983  1.00 20.00    -0.389 N 
HETATM   10  H25 UNL     1     -42.148   8.981  -1.351  1.00 20.00     0.159 HD
ENDROOT
BRANCH   4  11
HETATM   11  C11 UNL     1     -42.443   3.543  -3.193  1.00 20.00     0.019 A 
HETATM   12  C8  UNL     1     -43.179   2.374  -2.588  1.00 20.00     0.010 A 
HETATM   13  C9  UNL     1     -41.816   2.172  -3.175  1.00 20.00     0.010 A 
ENDBRANCH   4  11
TORSDOF 1
ENDMDL
MODEL 8
REMARK VINA RESULT:      -4.6      1.893      3.036
REMARK  1 active torsions:
REMARK  status: ('A' for Active; 'I' for Inactive)
REMARK    1  A    between atoms: C4_4  and  C11_11 
ROOT
HETATM    1  C1  UNL     1     -35.127  15.292  -7.682  1.00 20.00     0.003 A 
HETATM    2  C2  UNL     1     -34.573  16.479  -7.177  1.00 20.00     0.008 A 
HETATM    3  C3  UNL     1     -35.129  14.123  -6.917  1.00 20.00     0.029 A 
HETATM    4  C4  UNL     1     -34.007  16.512  -5.901  1.00 20.00    -0.045 A 
HETATM    5  C5  UNL     1     -34.026  15.349  -5.153  1.00 20.00    -0.024 A 
HETATM    6  C6  UNL     1     -34.593  14.171  -5.642  1.00 20.00     0.035 A 
HETATM    7  C7  UNL     1     -33.447  15.093  -3.799  1.00 20.00     0.061 C 
HETATM    8  C10 UNL     1     -34.010  13.691  -3.484  1.00 20.00     0.124 C 
HETATM    9  N12 UNL     1     -34.449  13.111  -4.748  1.00 20.00    -0.389 N 
HETATM   10  H25 UNL     1     -35.018  12.279  -4.807  1.00 20.00     0.159 HD
ENDROOT
BRANCH   4  11
HETATM   11  C11 UNL     1     -33.398  17.766  -5.379  1.00 20.00     0.019 A 
HETATM   12  C8  UNL     1     -34.264  18.746  -4.629  1.00 20.00     0.010 A 
HETATM   13  C9  UNL     1     -33.777  19.084  -6.004  1.00 20.00     0.010 A 
ENDBRANCH   4  11
TORSDOF 1
ENDMDL
MODEL 9
REMARK VINA RESULT:      -4.5      1.937      4.731
REMARK  1 active torsions:
REMARK  status: ('A' for Active; 'I' for Inactive)
REMARK    1  A    between atoms: C4_4  and  C11_11 
ROOT
HETATM    1  C1  UNL     1     -34.367  14.407  -3.432  1.00 20.00     0.003 A 
HETATM    2  C2  UNL     1     -34.453  14.331  -4.831  1.00 20.00     0.008 A 
HETATM    3  C3  UNL     1     -34.080  15.619  -2.799  1.00 20.00     0.029 A 
HETATM    4  C4  UNL     1     -34.247  15.466  -5.618  1.00 20.00    -0.045 A 
HETATM    5  C5  UNL     1     -33.973  16.660  -4.976  1.00 20.00    -0.024 A 
HETATM    6  C6  UNL     1     -33.906  16.746  -3.583  1.00 20.00     0.035 A 
HETATM    7  C7  UNL     1     -33.659  17.995  -5.568  1.00 20.00     0.061 C 
HETATM    8  C10 UNL     1     -33.680  18.899  -4.317  1.00 20.00     0.124 C 
HETATM    9  N12 UNL     1     -33.561  18.026  -3.155  1.00 20.00    -0.389 N 
HETATM   10  H25 UNL     1     -33.728  18.338  -2.209  1.00 20.00     0.159 HD
ENDROOT
BRANCH   4  11
HETATM   11  C11 UNL     1     -34.314  15.377  -7.102  1.00 20.00     0.019 A 
HETATM   12  C8  UNL     1     -35.538  15.893  -7.814  1.00 20.00     0.010 A 
HETATM   13  C9  UNL     1     -35.288  14.419  -7.738  1.00 20.00     0.010 A 
ENDBRANCH   4  11
TORSDOF 1
ENDMDL
