MODEL 1
REMARK VINA RESULT:      -4.7      0.000      0.000
REMARK  1 active torsions:
REMARK  status: ('A' for Active; 'I' for Inactive)
REMARK    1  A    between atoms: C4_4  and  C8_8 
ROOT
HETATM    1  C1  UNL     1     -34.634  14.468  -5.806  1.00 20.00     0.079 A 
HETATM    2  C2  UNL     1     -34.994  14.740  -3.334  1.00 20.00     0.088 A 
HETATM    3  C3  UNL     1     -34.531  15.797  -5.842  1.00 20.00     0.146 A 
HETATM    4  C4  UNL     1     -34.869  16.069  -3.499  1.00 20.00     0.064 A 
HETATM    5  C5  UNL     1     -34.882  13.834  -4.498  1.00 20.00     0.176 A 
HETATM    6  O10 UNL     1     -34.989  12.620  -4.380  1.00 20.00    -0.288 OA
HETATM    7  O11 UNL     1     -34.637  16.629  -4.755  1.00 20.00    -0.326 OA
ENDROOT
BRANCH   4   8
HETATM    8  C8  UNL     1     -34.973  17.022  -2.368  1.00 20.00     0.006 A 
HETATM    9  C6  UNL     1     -33.687  17.377  -1.664  1.00 20.00     0.017 A 
HETATM   10  C7  UNL     1     -34.678  16.474  -0.994  1.00 20.00     0.017 A 
HETATM   11  C9  UNL     1     -36.028  18.079  -2.505  1.00 20.00     0.022 C 
ENDBRANCH   4   8
TORSDOF 1
ENDMDL
MODEL 2
REMARK VINA RESULT:      -4.6      1.626      1.862
REMARK  1 active torsions:
REMARK  status: ('A' for Active; 'I' for Inactive)
REMARK    1  A    between atoms: C4_4  and  C8_8 
ROOT
HETATM    1  C1  UNL     1     -35.596  13.672  -4.175  1.00 20.00     0.079 A 
HETATM    2  C2  UNL     1     -33.905  15.047  -2.924  1.00 20.00     0.088 A 
HETATM    3  C3  UNL     1     -36.481  14.601  -3.813  1.00 20.00     0.146 A 
HETATM    4  C4  UNL     1     -34.888  15.916  -2.624  1.00 20.00     0.064 A 
HETATM    5  C5  UNL     1     -34.199  13.846  -3.736  1.00 20.00     0.176 A 
HETATM    6  O10 UNL     1     -33.327  13.038  -4.026  1.00 20.00    -0.288 OA
HETATM    7  O11 UNL     1     -36.198  15.713  -3.059  1.00 20.00    -0.326 OA
ENDROOT
BRANCH   4   8
HETATM    8  C8  UNL     1     -34.650  17.134  -1.815  1.00 20.00     0.006 A 
HETATM    9  C6  UNL     1     -34.748  16.980  -0.317  1.00 20.00     0.017 A 
HETATM   10  C7  UNL     1     -35.835  17.690  -1.065  1.00 20.00     0.017 A 
HETATM   11  C9  UNL     1     -33.641  18.096  -2.369  1.00 20.00     0.022 C 
ENDBRANCH   4   8
TORSDOF 1
ENDMDL
MODEL 3
REMARK VINA RESULT:      -4.5      1.591      1.995
REMARK  1 active torsions:
REMARK  status: ('A' for Active; 'I' for Inactive)
REMARK    1  A    between atoms: C4_4  and  C8_8 
ROOT
HETATM    1  C1  UNL     1     -35.607  13.698  -4.173  1.00 20.00     0.079 A 
HETATM    2  C2  UNL     1     -33.929  15.071  -2.901  1.00 20.00     0.088 A 
HETATM    3  C3  UNL     1     -36.499  14.619  -3.807  1.00 20.00     0.146 A 
HETATM    4  C4  UNL     1     -34.918  15.931  -2.598  1.00 20.00     0.064 A 
HETATM    5  C5  UNL     1     -34.213  13.875  -3.725  1.00 20.00     0.176 A 
HETATM    6  O10 UNL     1     -33.335  13.074  -4.019  1.00 20.00    -0.288 OA
HETATM    7  O11 UNL     1     -36.225  15.725  -3.041  1.00 20.00    -0.326 OA
ENDROOT
BRANCH   4   8
HETATM    8  C8  UNL     1     -34.691  17.144  -1.777  1.00 20.00     0.006 A 
HETATM    9  C6  UNL     1     -35.166  18.453  -2.359  1.00 20.00     0.017 A 
HETATM   10  C7  UNL     1     -33.699  18.147  -2.313  1.00 20.00     0.017 A 
HETATM   11  C9  UNL     1     -34.778  16.949  -0.293  1.00 20.00     0.022 C 
ENDBRANCH   4   8
TORSDOF 1
ENDMDL
MODEL 4
REMARK VINA RESULT:      -4.4      1.692      1.899
REMARK  1 active torsions:
REMARK  status: ('A' for Active; 'I' for Inactive)
REMARK    1  A    between atoms: C4_4  and  C8_8 
ROOT
HETATM    1  C1  UNL     1     -34.913  13.635  -4.114  1.00 20.00     0.079 A 
HETATM    2  C2  UNL     1     -35.949  15.628  -2.986  1.00 20.00     0.088 A 
HETATM    3  C3  UNL     1     -33.741  14.152  -3.745  1.00 20.00     0.146 A 
HETATM    4  C4  UNL     1     -34.709  16.047  -2.671  1.00 20.00     0.064 A 
HETATM    5  C5  UNL     1     -36.137  14.370  -3.742  1.00 20.00     0.176 A 
HETATM    6  O10 UNL     1     -37.251  13.962  -4.043  1.00 20.00    -0.288 OA
HETATM    7  O11 UNL     1     -33.578  15.321  -3.044  1.00 20.00    -0.326 OA
ENDROOT
BRANCH   4   8
HETATM    8  C8  UNL     1     -34.463  17.298  -1.916  1.00 20.00     0.006 A 
HETATM    9  C6  UNL     1     -34.289  17.164  -0.423  1.00 20.00     0.017 A 
HETATM   10  C7  UNL     1     -35.555  17.746  -0.976  1.00 20.00     0.017 A 
HETATM   11  C9  UNL     1     -33.667  18.345  -2.636  1.00 20.00     0.022 C 
ENDBRANCH   4   8
TORSDOF 1
ENDMDL
MODEL 5
REMARK VINA RESULT:      -4.4      2.382      4.516
REMARK  1 active torsions:
REMARK  status: ('A' for Active; 'I' for Inactive)
REMARK    1  A    between atoms: C4_4  and  C8_8 
ROOT
HETATM    1  C1  UNL     1     -33.984  18.758  -0.274  1.00 20.00     0.079 A 
HETATM    2  C2  UNL     1     -34.676  16.457  -1.009  1.00 20.00     0.088 A 
HETATM    3  C3  UNL     1     -33.449  18.884  -1.489  1.00 20.00     0.146 A 
HETATM    4  C4  UNL     1     -34.101  16.704  -2.201  1.00 20.00     0.064 A 
HETATM    5  C5  UNL     1     -34.656  17.486   0.052  1.00 20.00     0.176 A 
HETATM    6  O10 UNL     1     -35.171  17.292   1.146  1.00 20.00    -0.288 OA
HETATM    7  O11 UNL     1     -33.473  17.921  -2.468  1.00 20.00    -0.326 OA
ENDROOT
BRANCH   4   8
HETATM    8  C8  UNL     1     -34.091  15.709  -3.298  1.00 20.00     0.006 A 
HETATM    9  C6  UNL     1     -32.769  15.044  -3.595  1.00 20.00     0.017 A 
HETATM   10  C7  UNL     1     -33.311  16.076  -4.536  1.00 20.00     0.017 A 
HETATM   11  C9  UNL     1     -35.347  14.905  -3.458  1.00 20.00     0.022 C 
ENDBRANCH   4   8
TORSDOF 1
ENDMDL
MODEL 6
REMARK VINA RESULT:      -4.4      2.173      3.172
REMARK  1 active torsions:
REMARK  status: ('A' for Active; 'I' for Inactive)
REMARK    1  A    between atoms: C4_4  and  C8_8 
ROOT
HETATM    1  C1  UNL     1     -33.298  13.868  -3.701  1.00 20.00     0.079 A 
HETATM    2  C2  UNL     1     -35.065  14.778  -5.239  1.00 20.00     0.088 A 
HETATM    3  C3  UNL     1     -32.771  15.093  -3.735  1.00 20.00     0.146 A 
HETATM    4  C4  UNL     1     -34.442  15.969  -5.191  1.00 20.00     0.064 A 
HETATM    5  C5  UNL     1     -34.526  13.627  -4.482  1.00 20.00     0.176 A 
HETATM    6  O10 UNL     1     -35.070  12.531  -4.504  1.00 20.00    -0.288 OA
HETATM    7  O11 UNL     1     -33.281  16.154  -4.441  1.00 20.00    -0.326 OA
ENDROOT
BRANCH   4   8
HETATM    8  C8  UNL     1     -34.938  17.154  -5.930  1.00 20.00     0.006 A 
HETATM    9  C6  UNL     1     -34.455  17.316  -7.350  1.00 20.00     0.017 A 
HETATM   10  C7  UNL     1     -33.919  18.211  -6.275  1.00 20.00     0.017 A 
HETATM   11  C9  UNL     1     -36.334  17.590  -5.596  1.00 20.00     0.022 C 
ENDBRANCH   4   8
TORSDOF 1
ENDMDL
MODEL 7
REMARK VINA RESULT:      -4.3     12.355     14.375
REMARK  1 active torsions:
REMARK  status: ('A' for Active; 'I' for Inactive)
REMARK    1  A    between atoms: C4_4  and  C8_8 
ROOT
HETATM    1  C1  UNL     1     -41.984   6.572  -2.116  1.00 20.00     0.079 A 
HETATM    2  C2  UNL     1     -41.497   4.139  -1.721  1.00 20.00     0.088 A 
HETATM    3  C3  UNL     1     -42.791   6.156  -3.093  1.00 20.00     0.146 A 
HETATM    4  C4  UNL     1     -42.339   3.844  -2.728  1.00 20.00     0.064 A 
HETATM    5  C5  UNL     1     -41.260   5.549  -1.340  1.00 20.00     0.176 A 
HETATM    6  O10 UNL     1     -40.501   5.849  -0.428  1.00 20.00    -0.288 OA
HETATM    7  O11 UNL     1     -43.003   4.844  -3.439  1.00 20.00    -0.326 OA
ENDROOT
BRANCH   4   8
HETATM    8  C8  UNL     1     -42.612   2.451  -3.151  1.00 20.00     0.006 A 
HETATM    9  C6  UNL     1     -41.536   1.767  -3.960  1.00 20.00     0.017 A 
HETATM   10  C7  UNL     1     -42.798   2.218  -4.630  1.00 20.00     0.017 A 
HETATM   11  C9  UNL     1     -43.416   1.626  -2.192  1.00 20.00     0.022 C 
ENDBRANCH   4   8
TORSDOF 1
ENDMDL
MODEL 8
REMARK VINA RESULT:      -4.3      2.350      3.575
REMARK  1 active torsions:
REMARK  status: ('A' for Active; 'I' for Inactive)
REMARK    1  A    between atoms: C4_4  and  C8_8 
ROOT
HETATM    1  C1  UNL     1     -33.338  13.888  -3.712  1.00 20.00     0.079 A 
HETATM    2  C2  UNL     1     -34.681  14.715  -5.669  1.00 20.00     0.088 A 
HETATM    3  C3  UNL     1     -32.845  15.125  -3.647  1.00 20.00     0.146 A 
HETATM    4  C4  UNL     1     -34.114  15.924  -5.500  1.00 20.00     0.064 A 
HETATM    5  C5  UNL     1     -34.325  13.596  -4.769  1.00 20.00     0.176 A 
HETATM    6  O10 UNL     1     -34.825  12.486  -4.895  1.00 20.00    -0.288 OA
HETATM    7  O11 UNL     1     -33.182  16.156  -4.489  1.00 20.00    -0.326 OA
ENDROOT
BRANCH   4   8
HETATM    8  C8  UNL     1     -34.433  17.078  -6.373  1.00 20.00     0.006 A 
HETATM    9  C6  UNL     1     -35.868  17.212  -6.818  1.00 20.00     0.017 A 
HETATM   10  C7  UNL     1     -34.824  16.762  -7.795  1.00 20.00     0.017 A 
HETATM   11  C9  UNL     1     -33.648  18.328  -6.109  1.00 20.00     0.022 C 
ENDBRANCH   4   8
TORSDOF 1
ENDMDL
MODEL 9
REMARK VINA RESULT:      -4.3      1.205      1.903
REMARK  1 active torsions:
REMARK  status: ('A' for Active; 'I' for Inactive)
REMARK    1  A    between atoms: C4_4  and  C8_8 
ROOT
HETATM    1  C1  UNL     1     -34.780  13.583  -5.435  1.00 20.00     0.079 A 
HETATM    2  C2  UNL     1     -34.501  16.036  -4.964  1.00 20.00     0.088 A 
HETATM    3  C3  UNL     1     -35.078  13.464  -4.141  1.00 20.00     0.146 A 
HETATM    4  C4  UNL     1     -34.819  15.788  -3.681  1.00 20.00     0.064 A 
HETATM    5  C5  UNL     1     -34.460  14.929  -5.946  1.00 20.00     0.176 A 
HETATM    6  O10 UNL     1     -34.176  15.122  -7.120  1.00 20.00    -0.288 OA
HETATM    7  O11 UNL     1     -35.113  14.498  -3.239  1.00 20.00    -0.326 OA
ENDROOT
BRANCH   4   8
HETATM    8  C8  UNL     1     -34.874  16.857  -2.657  1.00 20.00     0.006 A 
HETATM    9  C6  UNL     1     -33.604  17.118  -1.883  1.00 20.00     0.017 A 
HETATM   10  C7  UNL     1     -34.752  16.421  -1.217  1.00 20.00     0.017 A 
HETATM   11  C9  UNL     1     -35.765  18.020  -2.978  1.00 20.00     0.022 C 
ENDBRANCH   4   8
TORSDOF 1
ENDMDL
