MODEL 1
REMARK VINA RESULT:      -5.1      0.000      0.000
REMARK  0 active torsions:
REMARK  status: ('A' for Active; 'I' for Inactive)
ROOT
HETATM    1  C1  UNL     1     -33.871  13.402  -4.411  1.00 20.00     0.147 A 
HETATM    2  C2  UNL     1     -34.023  14.692  -3.872  1.00 20.00    -0.015 A 
HETATM    3  C3  UNL     1     -35.364  14.785  -3.584  1.00 20.00     0.036 A 
HETATM    4  C4  UNL     1     -33.058  15.781  -3.596  1.00 20.00     0.043 C 
HETATM    5  C5  UNL     1     -36.077  15.954  -3.011  1.00 20.00     0.068 C 
HETATM    6  C6  UNL     1     -33.799  17.111  -3.330  1.00 20.00     0.014 C 
HETATM    7  C7  UNL     1     -35.055  16.972  -2.408  1.00 20.00    -0.042 C 
HETATM    8  C8  UNL     1     -34.633  16.524  -0.995  1.00 20.00     0.015 C 
HETATM    9  C9  UNL     1     -35.737  18.347  -2.289  1.00 20.00     0.015 C 
HETATM   10  N10 UNL     1     -35.028  12.730  -4.466  1.00 20.00    -0.186 NA
HETATM   11  N11 UNL     1     -35.920  13.600  -3.956  1.00 20.00    -0.282 N 
HETATM   12  H25 UNL     1     -36.890  13.315  -3.895  1.00 20.00     0.189 HD
ENDROOT
TORSDOF 0
ENDMDL
MODEL 2
REMARK VINA RESULT:      -4.9      1.136      2.204
REMARK  0 active torsions:
REMARK  status: ('A' for Active; 'I' for Inactive)
ROOT
HETATM    1  C1  UNL     1     -35.578  13.383  -4.477  1.00 20.00     0.147 A 
HETATM    2  C2  UNL     1     -35.371  14.571  -3.753  1.00 20.00    -0.015 A 
HETATM    3  C3  UNL     1     -34.011  14.618  -3.559  1.00 20.00     0.036 A 
HETATM    4  C4  UNL     1     -36.295  15.625  -3.274  1.00 20.00     0.043 C 
HETATM    5  C5  UNL     1     -33.248  15.661  -2.829  1.00 20.00     0.068 C 
HETATM    6  C6  UNL     1     -35.598  16.529  -2.233  1.00 20.00     0.014 C 
HETATM    7  C7  UNL     1     -34.134  16.931  -2.610  1.00 20.00    -0.042 C 
HETATM    8  C8  UNL     1     -34.131  17.804  -3.881  1.00 20.00     0.015 C 
HETATM    9  C9  UNL     1     -33.536  17.761  -1.459  1.00 20.00     0.015 C 
HETATM   10  N10 UNL     1     -34.438  12.724  -4.717  1.00 20.00    -0.186 NA
HETATM   11  N11 UNL     1     -33.500  13.502  -4.145  1.00 20.00    -0.282 N 
HETATM   12  H25 UNL     1     -32.533  13.205  -4.192  1.00 20.00     0.189 HD
ENDROOT
TORSDOF 0
ENDMDL
MODEL 3
REMARK VINA RESULT:      -4.6      2.393      3.102
REMARK  0 active torsions:
REMARK  status: ('A' for Active; 'I' for Inactive)
ROOT
HETATM    1  C1  UNL     1     -34.080  13.877  -3.576  1.00 20.00     0.147 A 
HETATM    2  C2  UNL     1     -34.054  15.022  -4.391  1.00 20.00    -0.015 A 
HETATM    3  C3  UNL     1     -34.656  14.621  -5.561  1.00 20.00     0.036 A 
HETATM    4  C4  UNL     1     -33.558  16.400  -4.167  1.00 20.00     0.043 C 
HETATM    5  C5  UNL     1     -34.874  15.438  -6.781  1.00 20.00     0.068 C 
HETATM    6  C6  UNL     1     -33.454  17.166  -5.505  1.00 20.00     0.014 C 
HETATM    7  C7  UNL     1     -34.673  16.955  -6.463  1.00 20.00    -0.042 C 
HETATM    8  C8  UNL     1     -35.953  17.538  -5.831  1.00 20.00     0.015 C 
HETATM    9  C9  UNL     1     -34.405  17.707  -7.779  1.00 20.00     0.015 C 
HETATM   10  N10 UNL     1     -34.648  12.828  -4.182  1.00 20.00    -0.186 NA
HETATM   11  N11 UNL     1     -34.989  13.312  -5.392  1.00 20.00    -0.282 N 
HETATM   12  H25 UNL     1     -35.443  12.691  -6.050  1.00 20.00     0.189 HD
ENDROOT
TORSDOF 0
ENDMDL
MODEL 4
REMARK VINA RESULT:      -4.5      1.508      2.289
REMARK  0 active torsions:
REMARK  status: ('A' for Active; 'I' for Inactive)
ROOT
HETATM    1  C1  UNL     1     -34.397  13.644  -3.466  1.00 20.00     0.147 A 
HETATM    2  C2  UNL     1     -34.252  15.042  -3.432  1.00 20.00    -0.015 A 
HETATM    3  C3  UNL     1     -33.990  15.389  -4.737  1.00 20.00     0.036 A 
HETATM    4  C4  UNL     1     -34.358  16.034  -2.337  1.00 20.00     0.043 C 
HETATM    5  C5  UNL     1     -33.732  16.752  -5.266  1.00 20.00     0.068 C 
HETATM    6  C6  UNL     1     -33.765  17.393  -2.772  1.00 20.00     0.014 C 
HETATM    7  C7  UNL     1     -34.162  17.832  -4.220  1.00 20.00    -0.042 C 
HETATM    8  C8  UNL     1     -35.682  18.076  -4.306  1.00 20.00     0.015 C 
HETATM    9  C9  UNL     1     -33.447  19.155  -4.551  1.00 20.00     0.015 C 
HETATM   10  N10 UNL     1     -34.233  13.142  -4.695  1.00 20.00    -0.186 NA
HETATM   11  N11 UNL     1     -33.986  14.230  -5.449  1.00 20.00    -0.282 N 
HETATM   12  H25 UNL     1     -33.821  14.103  -6.440  1.00 20.00     0.189 HD
ENDROOT
TORSDOF 0
ENDMDL
MODEL 5
REMARK VINA RESULT:      -4.5      2.091      3.137
REMARK  0 active torsions:
REMARK  status: ('A' for Active; 'I' for Inactive)
ROOT
HETATM    1  C1  UNL     1     -35.567  13.523  -4.326  1.00 20.00     0.147 A 
HETATM    2  C2  UNL     1     -35.385  14.880  -4.647  1.00 20.00    -0.015 A 
HETATM    3  C3  UNL     1     -34.020  15.042  -4.684  1.00 20.00     0.036 A 
HETATM    4  C4  UNL     1     -36.339  15.977  -4.933  1.00 20.00     0.043 C 
HETATM    5  C5  UNL     1     -33.275  16.295  -4.959  1.00 20.00     0.068 C 
HETATM    6  C6  UNL     1     -35.624  17.346  -4.882  1.00 20.00     0.014 C 
HETATM    7  C7  UNL     1     -34.226  17.368  -5.583  1.00 20.00    -0.042 C 
HETATM    8  C8  UNL     1     -34.385  17.118  -7.097  1.00 20.00     0.015 C 
HETATM    9  C9  UNL     1     -33.597  18.760  -5.393  1.00 20.00     0.015 C 
HETATM   10  N10 UNL     1     -34.407  12.875  -4.165  1.00 20.00    -0.186 NA
HETATM   11  N11 UNL     1     -33.481  13.827  -4.389  1.00 20.00    -0.282 N 
HETATM   12  H25 UNL     1     -32.503  13.575  -4.320  1.00 20.00     0.189 HD
ENDROOT
TORSDOF 0
ENDMDL
MODEL 6
REMARK VINA RESULT:      -4.5      2.705      4.229
REMARK  0 active torsions:
REMARK  status: ('A' for Active; 'I' for Inactive)
ROOT
HETATM    1  C1  UNL     1     -33.665  18.828  -3.309  1.00 20.00     0.147 A 
HETATM    2  C2  UNL     1     -33.933  17.448  -3.289  1.00 20.00    -0.015 A 
HETATM    3  C3  UNL     1     -33.706  17.039  -4.581  1.00 20.00     0.036 A 
HETATM    4  C4  UNL     1     -34.339  16.522  -2.206  1.00 20.00     0.043 C 
HETATM    5  C5  UNL     1     -33.860  15.666  -5.125  1.00 20.00     0.068 C 
HETATM    6  C6  UNL     1     -34.836  15.182  -2.793  1.00 20.00     0.014 C 
HETATM    7  C7  UNL     1     -33.957  14.627  -3.961  1.00 20.00    -0.042 C 
HETATM    8  C8  UNL     1     -32.546  14.276  -3.446  1.00 20.00     0.015 C 
HETATM    9  C9  UNL     1     -34.604  13.338  -4.499  1.00 20.00     0.015 C 
HETATM   10  N10 UNL     1     -33.303  19.263  -4.522  1.00 20.00    -0.186 NA
HETATM   11  N11 UNL     1     -33.337  18.149  -5.277  1.00 20.00    -0.282 N 
HETATM   12  H25 UNL     1     -33.100  18.224  -6.259  1.00 20.00     0.189 HD
ENDROOT
TORSDOF 0
ENDMDL
MODEL 7
REMARK VINA RESULT:      -4.4     11.998     13.007
REMARK  0 active torsions:
REMARK  status: ('A' for Active; 'I' for Inactive)
ROOT
HETATM    1  C1  UNL     1     -41.608   2.748  -2.877  1.00 20.00     0.147 A 
HETATM    2  C2  UNL     1     -41.625   3.969  -2.180  1.00 20.00    -0.015 A 
HETATM    3  C3  UNL     1     -42.749   4.610  -2.646  1.00 20.00     0.036 A 
HETATM    4  C4  UNL     1     -40.734   4.545  -1.147  1.00 20.00     0.043 C 
HETATM    5  C5  UNL     1     -43.237   5.956  -2.256  1.00 20.00     0.068 C 
HETATM    6  C6  UNL     1     -41.006   6.056  -0.973  1.00 20.00     0.014 C 
HETATM    7  C7  UNL     1     -42.523   6.436  -0.950  1.00 20.00    -0.042 C 
HETATM    8  C8  UNL     1     -43.209   5.818   0.286  1.00 20.00     0.015 C 
HETATM    9  C9  UNL     1     -42.649   7.967  -0.849  1.00 20.00     0.015 C 
HETATM   10  N10 UNL     1     -42.636   2.626  -3.725  1.00 20.00    -0.186 NA
HETATM   11  N11 UNL     1     -43.315   3.778  -3.562  1.00 20.00    -0.282 N 
HETATM   12  H25 UNL     1     -44.152   3.926  -4.112  1.00 20.00     0.189 HD
ENDROOT
TORSDOF 0
ENDMDL
MODEL 8
REMARK VINA RESULT:      -4.4      2.107      2.826
REMARK  0 active torsions:
REMARK  status: ('A' for Active; 'I' for Inactive)
ROOT
HETATM    1  C1  UNL     1     -35.521  14.406  -6.655  1.00 20.00     0.147 A 
HETATM    2  C2  UNL     1     -35.386  14.903  -5.347  1.00 20.00    -0.015 A 
HETATM    3  C3  UNL     1     -34.205  15.606  -5.371  1.00 20.00     0.036 A 
HETATM    4  C4  UNL     1     -36.242  14.798  -4.142  1.00 20.00     0.043 C 
HETATM    5  C5  UNL     1     -33.569  16.324  -4.238  1.00 20.00     0.068 C 
HETATM    6  C6  UNL     1     -35.462  15.228  -2.880  1.00 20.00     0.014 C 
HETATM    7  C7  UNL     1     -34.591  16.513  -3.070  1.00 20.00    -0.042 C 
HETATM    8  C8  UNL     1     -35.494  17.732  -3.349  1.00 20.00     0.015 C 
HETATM    9  C9  UNL     1     -33.814  16.782  -1.769  1.00 20.00     0.015 C 
HETATM   10  N10 UNL     1     -34.502  14.761  -7.447  1.00 20.00    -0.186 NA
HETATM   11  N11 UNL     1     -33.715  15.493  -6.635  1.00 20.00    -0.282 N 
HETATM   12  H25 UNL     1     -32.859  15.879  -7.013  1.00 20.00     0.189 HD
ENDROOT
TORSDOF 0
ENDMDL
MODEL 9
REMARK VINA RESULT:      -4.4      2.372      3.856
REMARK  0 active torsions:
REMARK  status: ('A' for Active; 'I' for Inactive)
ROOT
HETATM    1  C1  UNL     1     -33.775  18.000  -1.681  1.00 20.00     0.147 A 
HETATM    2  C2  UNL     1     -33.919  17.178  -2.813  1.00 20.00    -0.015 A 
HETATM    3  C3  UNL     1     -34.584  16.069  -2.345  1.00 20.00     0.036 A 
HETATM    4  C4  UNL     1     -33.526  17.349  -4.231  1.00 20.00     0.043 C 
HETATM    5  C5  UNL     1     -34.978  14.868  -3.123  1.00 20.00     0.068 C 
HETATM    6  C6  UNL     1     -33.606  16.002  -4.984  1.00 20.00     0.014 C 
HETATM    7  C7  UNL     1     -34.882  15.158  -4.657  1.00 20.00    -0.042 C 
HETATM    8  C8  UNL     1     -36.147  15.896  -5.136  1.00 20.00     0.015 C 
HETATM    9  C9  UNL     1     -34.796  13.818  -5.410  1.00 20.00     0.015 C 
HETATM   10  N10 UNL     1     -34.301  17.453  -0.579  1.00 20.00    -0.186 NA
HETATM   11  N11 UNL     1     -34.787  16.275  -1.016  1.00 20.00    -0.282 N 
HETATM   12  H25 UNL     1     -35.241  15.664  -0.348  1.00 20.00     0.189 HD
ENDROOT
TORSDOF 0
ENDMDL
