MODEL 1
REMARK VINA RESULT:      -5.3      0.000      0.000
REMARK  1 active torsions:
REMARK  status: ('A' for Active; 'I' for Inactive)
REMARK    1  A    between atoms: C6_6  and  C8_8 
ROOT
HETATM    1  C1  UNL     1     -33.876  18.137  -2.403  1.00 20.00     0.008 C 
HETATM    2  C2  UNL     1     -33.701  18.236  -3.730  1.00 20.00     0.028 C 
HETATM    3  C3  UNL     1     -34.040  15.706  -2.381  1.00 20.00    -0.005 C 
HETATM    4  C4  UNL     1     -34.499  15.493  -5.822  1.00 20.00     0.128 C 
HETATM    5  C5  UNL     1     -34.206  16.879  -1.736  1.00 20.00    -0.065 C 
HETATM    6  C6  UNL     1     -34.086  14.780  -4.771  1.00 20.00     0.011 C 
HETATM    7  C7  UNL     1     -33.854  16.967  -4.465  1.00 20.00     0.046 C 
HETATM    8  C9  UNL     1     -33.466  15.673  -3.759  1.00 20.00     0.098 C 
HETATM    9  C10 UNL     1     -34.716  16.971  -0.332  1.00 20.00     0.048 C 
HETATM   10  N11 UNL     1     -34.347  16.846  -5.661  1.00 20.00    -0.264 NA
ENDROOT
BRANCH   6  11
HETATM   11  C8  UNL     1     -34.155  13.333  -4.694  1.00 20.00     0.268 C 
HETATM   12  O12 UNL     1     -35.158  12.726  -4.317  1.00 20.00    -0.302 OA
ENDBRANCH   6  11
TORSDOF 1
ENDMDL
MODEL 2
REMARK VINA RESULT:      -4.8      1.265      1.274
REMARK  1 active torsions:
REMARK  status: ('A' for Active; 'I' for Inactive)
REMARK    1  A    between atoms: C6_6  and  C8_8 
ROOT
HETATM    1  C1  UNL     1     -35.177  18.432  -1.880  1.00 20.00     0.008 C 
HETATM    2  C2  UNL     1     -35.395  18.421  -3.204  1.00 20.00     0.028 C 
HETATM    3  C3  UNL     1     -34.514  16.091  -1.744  1.00 20.00    -0.005 C 
HETATM    4  C4  UNL     1     -35.751  15.337  -4.906  1.00 20.00     0.128 C 
HETATM    5  C5  UNL     1     -34.887  17.223  -1.113  1.00 20.00    -0.065 C 
HETATM    6  C6  UNL     1     -34.867  14.919  -3.996  1.00 20.00     0.011 C 
HETATM    7  C7  UNL     1     -35.303  17.089  -3.830  1.00 20.00     0.046 C 
HETATM    8  C9  UNL     1     -34.339  16.073  -3.228  1.00 20.00     0.098 C 
HETATM    9  C10 UNL     1     -35.016  17.318   0.376  1.00 20.00     0.048 C 
HETATM   10  N11 UNL     1     -36.020  16.679  -4.833  1.00 20.00    -0.264 NA
ENDROOT
BRANCH   6  11
HETATM   11  C8  UNL     1     -34.430  13.541  -3.863  1.00 20.00     0.268 C 
HETATM   12  O12 UNL     1     -34.947  12.608  -4.480  1.00 20.00    -0.302 OA
ENDBRANCH   6  11
TORSDOF 1
ENDMDL
MODEL 3
REMARK VINA RESULT:      -4.8      2.040      2.483
REMARK  1 active torsions:
REMARK  status: ('A' for Active; 'I' for Inactive)
REMARK    1  A    between atoms: C6_6  and  C8_8 
ROOT
HETATM    1  C1  UNL     1     -33.284  15.830  -2.894  1.00 20.00     0.008 C 
HETATM    2  C2  UNL     1     -33.249  15.462  -4.184  1.00 20.00     0.028 C 
HETATM    3  C3  UNL     1     -35.699  15.598  -2.664  1.00 20.00    -0.005 C 
HETATM    4  C4  UNL     1     -36.227  15.455  -6.099  1.00 20.00     0.128 C 
HETATM    5  C5  UNL     1     -34.532  16.054  -2.166  1.00 20.00    -0.065 C 
HETATM    6  C6  UNL     1     -36.781  15.106  -4.935  1.00 20.00     0.011 C 
HETATM    7  C7  UNL     1     -34.572  15.286  -4.809  1.00 20.00     0.046 C 
HETATM    8  C9  UNL     1     -35.726  14.811  -3.933  1.00 20.00     0.098 C 
HETATM    9  C10 UNL     1     -34.434  16.792  -0.867  1.00 20.00     0.048 C 
HETATM   10  N11 UNL     1     -34.861  15.553  -6.047  1.00 20.00    -0.264 NA
ENDROOT
BRANCH   6  11
HETATM   11  C8  UNL     1     -38.209  14.950  -4.732  1.00 20.00     0.268 C 
HETATM   12  O12 UNL     1     -38.690  14.192  -3.887  1.00 20.00    -0.302 OA
ENDBRANCH   6  11
TORSDOF 1
ENDMDL
MODEL 4
REMARK VINA RESULT:      -4.7      1.355      1.467
REMARK  1 active torsions:
REMARK  status: ('A' for Active; 'I' for Inactive)
REMARK    1  A    between atoms: C6_6  and  C8_8 
ROOT
HETATM    1  C1  UNL     1     -33.768  18.343  -1.306  1.00 20.00     0.008 C 
HETATM    2  C2  UNL     1     -33.567  18.495  -2.624  1.00 20.00     0.028 C 
HETATM    3  C3  UNL     1     -34.831  16.158  -1.495  1.00 20.00    -0.005 C 
HETATM    4  C4  UNL     1     -35.328  16.460  -4.924  1.00 20.00     0.128 C 
HETATM    5  C5  UNL     1     -34.547  17.242  -0.744  1.00 20.00    -0.065 C 
HETATM    6  C6  UNL     1     -35.214  15.548  -3.955  1.00 20.00     0.011 C 
HETATM    7  C7  UNL     1     -34.181  17.451  -3.464  1.00 20.00     0.046 C 
HETATM    8  C9  UNL     1     -34.308  16.045  -2.890  1.00 20.00     0.098 C 
HETATM    9  C10 UNL     1     -34.989  17.383   0.680  1.00 20.00     0.048 C 
HETATM   10  N11 UNL     1     -34.681  17.637  -4.649  1.00 20.00    -0.264 NA
ENDROOT
BRANCH   6  11
HETATM   11  C8  UNL     1     -35.820  14.231  -4.006  1.00 20.00     0.268 C 
HETATM   12  O12 UNL     1     -37.021  14.034  -3.812  1.00 20.00    -0.302 OA
ENDBRANCH   6  11
TORSDOF 1
ENDMDL
MODEL 5
REMARK VINA RESULT:      -4.7      4.884      7.057
REMARK  1 active torsions:
REMARK  status: ('A' for Active; 'I' for Inactive)
REMARK    1  A    between atoms: C6_6  and  C8_8 
ROOT
HETATM    1  C1  UNL     1     -33.130  18.097  -0.494  1.00 20.00     0.008 C 
HETATM    2  C2  UNL     1     -32.577  18.774   0.525  1.00 20.00     0.028 C 
HETATM    3  C3  UNL     1     -35.165  17.510   0.710  1.00 20.00    -0.005 C 
HETATM    4  C4  UNL     1     -33.831  18.353   3.809  1.00 20.00     0.128 C 
HETATM    5  C5  UNL     1     -34.361  17.323  -0.357  1.00 20.00    -0.065 C 
HETATM    6  C6  UNL     1     -34.995  18.206   3.171  1.00 20.00     0.011 C 
HETATM    7  C7  UNL     1     -33.321  18.688   1.795  1.00 20.00     0.046 C 
HETATM    8  C9  UNL     1     -34.838  18.546   1.734  1.00 20.00     0.098 C 
HETATM    9  C10 UNL     1     -34.672  16.346  -1.448  1.00 20.00     0.048 C 
HETATM   10  N11 UNL     1     -32.787  18.670   2.979  1.00 20.00    -0.264 NA
ENDROOT
BRANCH   6  11
HETATM   11  C8  UNL     1     -36.242  17.859   3.827  1.00 20.00     0.268 C 
HETATM   12  O12 UNL     1     -36.537  18.246   4.959  1.00 20.00    -0.302 OA
ENDBRANCH   6  11
TORSDOF 1
ENDMDL
MODEL 6
REMARK VINA RESULT:      -4.6     12.171     13.392
REMARK  1 active torsions:
REMARK  status: ('A' for Active; 'I' for Inactive)
REMARK    1  A    between atoms: C6_6  and  C8_8 
ROOT
HETATM    1  C1  UNL     1     -42.397   8.028  -2.021  1.00 20.00     0.008 C 
HETATM    2  C2  UNL     1     -41.744   7.407  -1.026  1.00 20.00     0.028 C 
HETATM    3  C3  UNL     1     -42.913   5.990  -3.252  1.00 20.00    -0.005 C 
HETATM    4  C4  UNL     1     -40.635   4.073  -1.454  1.00 20.00     0.128 C 
HETATM    5  C5  UNL     1     -42.849   7.337  -3.226  1.00 20.00    -0.065 C 
HETATM    6  C6  UNL     1     -41.745   3.970  -2.190  1.00 20.00     0.011 C 
HETATM    7  C7  UNL     1     -41.533   5.964  -1.236  1.00 20.00     0.046 C 
HETATM    8  C9  UNL     1     -42.576   5.191  -2.036  1.00 20.00     0.098 C 
HETATM    9  C10 UNL     1     -43.237   8.193  -4.392  1.00 20.00     0.048 C 
HETATM   10  N11 UNL     1     -40.495   5.290  -0.841  1.00 20.00    -0.264 NA
ENDROOT
BRANCH   6  11
HETATM   11  C8  UNL     1     -42.111   2.787  -2.946  1.00 20.00     0.268 C 
HETATM   12  O12 UNL     1     -41.283   2.043  -3.474  1.00 20.00    -0.302 OA
ENDBRANCH   6  11
TORSDOF 1
ENDMDL
MODEL 7
REMARK VINA RESULT:      -4.6      2.398      4.617
REMARK  1 active torsions:
REMARK  status: ('A' for Active; 'I' for Inactive)
REMARK    1  A    between atoms: C6_6  and  C8_8 
ROOT
HETATM    1  C1  UNL     1     -34.608  13.549  -5.188  1.00 20.00     0.008 C 
HETATM    2  C2  UNL     1     -34.380  13.706  -3.875  1.00 20.00     0.028 C 
HETATM    3  C3  UNL     1     -34.225  15.887  -5.759  1.00 20.00    -0.005 C 
HETATM    4  C4  UNL     1     -34.417  16.948  -2.453  1.00 20.00     0.128 C 
HETATM    5  C5  UNL     1     -34.688  14.672  -6.119  1.00 20.00    -0.065 C 
HETATM    6  C6  UNL     1     -33.918  17.298  -3.641  1.00 20.00     0.011 C 
HETATM    7  C7  UNL     1     -34.201  15.105  -3.445  1.00 20.00     0.046 C 
HETATM    8  C9  UNL     1     -33.576  16.087  -4.429  1.00 20.00     0.098 C 
HETATM    9  C10 UNL     1     -35.289  14.397  -7.463  1.00 20.00     0.048 C 
HETATM   10  N11 UNL     1     -34.581  15.595  -2.304  1.00 20.00    -0.264 NA
ENDROOT
BRANCH   6  11
HETATM   11  C8  UNL     1     -33.666  18.669  -4.043  1.00 20.00     0.268 C 
HETATM   12  O12 UNL     1     -33.246  18.976  -5.160  1.00 20.00    -0.302 OA
ENDBRANCH   6  11
TORSDOF 1
ENDMDL
MODEL 8
REMARK VINA RESULT:      -4.6      1.946      2.862
REMARK  1 active torsions:
REMARK  status: ('A' for Active; 'I' for Inactive)
REMARK    1  A    between atoms: C6_6  and  C8_8 
ROOT
HETATM    1  C1  UNL     1     -34.172  16.996  -2.480  1.00 20.00     0.008 C 
HETATM    2  C2  UNL     1     -34.375  15.698  -2.204  1.00 20.00     0.028 C 
HETATM    3  C3  UNL     1     -34.680  16.797  -4.855  1.00 20.00    -0.005 C 
HETATM    4  C4  UNL     1     -34.460  13.326  -4.831  1.00 20.00     0.128 C 
HETATM    5  C5  UNL     1     -34.168  17.526  -3.842  1.00 20.00    -0.065 C 
HETATM    6  C6  UNL     1     -35.003  14.339  -5.509  1.00 20.00     0.011 C 
HETATM    7  C7  UNL     1     -34.611  14.847  -3.384  1.00 20.00     0.046 C 
HETATM    8  C9  UNL     1     -35.306  15.466  -4.592  1.00 20.00     0.098 C 
HETATM    9  C10 UNL     1     -33.588  18.892  -4.036  1.00 20.00     0.048 C 
HETATM   10  N11 UNL     1     -34.227  13.613  -3.511  1.00 20.00    -0.264 NA
ENDROOT
BRANCH   6  11
HETATM   11  C8  UNL     1     -35.331  14.286  -6.922  1.00 20.00     0.268 C 
HETATM   12  O12 UNL     1     -34.589  14.726  -7.802  1.00 20.00    -0.302 OA
ENDBRANCH   6  11
TORSDOF 1
ENDMDL
MODEL 9
REMARK VINA RESULT:      -4.4      1.521      2.042
REMARK  1 active torsions:
REMARK  status: ('A' for Active; 'I' for Inactive)
REMARK    1  A    between atoms: C6_6  and  C8_8 
ROOT
HETATM    1  C1  UNL     1     -33.725  18.755  -5.357  1.00 20.00     0.008 C 
HETATM    2  C2  UNL     1     -33.985  18.103  -6.501  1.00 20.00     0.028 C 
HETATM    3  C3  UNL     1     -33.609  16.748  -3.981  1.00 20.00    -0.005 C 
HETATM    4  C4  UNL     1     -35.091  14.742  -6.404  1.00 20.00     0.128 C 
HETATM    5  C5  UNL     1     -33.693  18.092  -4.056  1.00 20.00    -0.065 C 
HETATM    6  C6  UNL     1     -34.296  14.682  -5.333  1.00 20.00     0.011 C 
HETATM    7  C7  UNL     1     -34.220  16.656  -6.344  1.00 20.00     0.046 C 
HETATM    8  C9  UNL     1     -33.493  15.925  -5.222  1.00 20.00     0.098 C 
HETATM    9  C10 UNL     1     -33.747  18.972  -2.846  1.00 20.00     0.048 C 
HETATM   10  N11 UNL     1     -35.045  15.947  -7.055  1.00 20.00    -0.264 NA
ENDROOT
BRANCH   6  11
HETATM   11  C8  UNL     1     -34.180  13.519  -4.473  1.00 20.00     0.268 C 
HETATM   12  O12 UNL     1     -35.049  12.648  -4.398  1.00 20.00    -0.302 OA
ENDBRANCH   6  11
TORSDOF 1
ENDMDL
