MODEL 1
REMARK VINA RESULT:      -5.1      0.000      0.000
REMARK  0 active torsions:
REMARK  status: ('A' for Active; 'I' for Inactive)
ROOT
HETATM    1  C1  UNL     1     -34.603  15.577  -2.793  1.00 20.00    -0.025 C 
HETATM    2  C2  UNL     1     -35.126  14.430  -3.267  1.00 20.00    -0.025 C 
HETATM    3  C3  UNL     1     -33.946  17.264  -5.904  1.00 20.00    -0.024 C 
HETATM    4  C4  UNL     1     -34.329  16.690  -7.069  1.00 20.00    -0.025 C 
HETATM    5  C5  UNL     1     -32.919  14.341  -3.755  1.00 20.00     0.018 C 
HETATM    6  C6  UNL     1     -33.311  15.836  -3.530  1.00 20.00     0.016 C 
HETATM    7  C7  UNL     1     -34.248  13.975  -4.432  1.00 20.00     0.014 C 
HETATM    8  C8  UNL     1     -33.466  16.173  -5.023  1.00 20.00     0.021 C 
HETATM    9  C9  UNL     1     -34.316  15.154  -6.979  1.00 20.00     0.009 C 
HETATM   10  C10 UNL     1     -34.480  15.089  -5.473  1.00 20.00     0.009 C 
HETATM   11  C11 UNL     1     -35.456  14.487  -7.727  1.00 20.00     0.014 C 
ENDROOT
TORSDOF 0
ENDMDL
MODEL 2
REMARK VINA RESULT:      -4.9      1.277      2.879
REMARK  0 active torsions:
REMARK  status: ('A' for Active; 'I' for Inactive)
ROOT
HETATM    1  C1  UNL     1     -33.725  16.785  -2.251  1.00 20.00    -0.025 C 
HETATM    2  C2  UNL     1     -33.790  17.537  -3.368  1.00 20.00    -0.025 C 
HETATM    3  C3  UNL     1     -34.342  13.540  -3.681  1.00 20.00    -0.024 C 
HETATM    4  C4  UNL     1     -34.464  13.413  -5.023  1.00 20.00    -0.025 C 
HETATM    5  C5  UNL     1     -35.916  16.887  -2.945  1.00 20.00     0.018 C 
HETATM    6  C6  UNL     1     -34.948  15.900  -2.218  1.00 20.00     0.016 C 
HETATM    7  C7  UNL     1     -35.002  17.061  -4.168  1.00 20.00     0.014 C 
HETATM    8  C8  UNL     1     -35.000  14.815  -3.306  1.00 20.00     0.021 C 
HETATM    9  C9  UNL     1     -35.039  14.688  -5.666  1.00 20.00     0.009 C 
HETATM   10  C10 UNL     1     -34.593  15.628  -4.563  1.00 20.00     0.009 C 
HETATM   11  C11 UNL     1     -34.425  15.025  -7.014  1.00 20.00     0.014 C 
ENDROOT
TORSDOF 0
ENDMDL
MODEL 3
REMARK VINA RESULT:      -4.9      4.552      6.962
REMARK  0 active torsions:
REMARK  status: ('A' for Active; 'I' for Inactive)
ROOT
HETATM    1  C1  UNL     1     -33.778  16.898  -1.720  1.00 20.00    -0.025 C 
HETATM    2  C2  UNL     1     -34.759  16.551  -0.863  1.00 20.00    -0.025 C 
HETATM    3  C3  UNL     1     -31.793  18.969   0.454  1.00 20.00    -0.024 C 
HETATM    4  C4  UNL     1     -32.137  19.091   1.758  1.00 20.00    -0.025 C 
HETATM    5  C5  UNL     1     -35.105  18.737  -1.333  1.00 20.00     0.018 C 
HETATM    6  C6  UNL     1     -33.614  18.398  -1.652  1.00 20.00     0.016 C 
HETATM    7  C7  UNL     1     -35.173  17.813  -0.107  1.00 20.00     0.014 C 
HETATM    8  C8  UNL     1     -33.055  18.935  -0.324  1.00 20.00     0.021 C 
HETATM    9  C9  UNL     1     -33.655  18.950   1.962  1.00 20.00     0.009 C 
HETATM   10  C10 UNL     1     -33.904  18.141   0.704  1.00 20.00     0.009 C 
HETATM   11  C11 UNL     1     -34.036  18.205   3.229  1.00 20.00     0.014 C 
ENDROOT
TORSDOF 0
ENDMDL
MODEL 4
REMARK VINA RESULT:      -4.9      1.168      3.898
REMARK  0 active torsions:
REMARK  status: ('A' for Active; 'I' for Inactive)
ROOT
HETATM    1  C1  UNL     1     -36.586  15.174  -6.835  1.00 20.00    -0.025 C 
HETATM    2  C2  UNL     1     -36.446  16.386  -6.263  1.00 20.00    -0.025 C 
HETATM    3  C3  UNL     1     -34.578  13.215  -4.580  1.00 20.00    -0.024 C 
HETATM    4  C4  UNL     1     -34.040  13.801  -3.484  1.00 20.00    -0.025 C 
HETATM    5  C5  UNL     1     -34.442  15.920  -7.204  1.00 20.00     0.018 C 
HETATM    6  C6  UNL     1     -35.209  14.575  -6.994  1.00 20.00     0.016 C 
HETATM    7  C7  UNL     1     -34.969  16.555  -5.908  1.00 20.00     0.014 C 
HETATM    8  C8  UNL     1     -34.501  14.206  -5.680  1.00 20.00     0.021 C 
HETATM    9  C9  UNL     1     -33.744  15.292  -3.722  1.00 20.00     0.009 C 
HETATM   10  C10 UNL     1     -34.765  15.475  -4.827  1.00 20.00     0.009 C 
HETATM   11  C11 UNL     1     -34.017  16.171  -2.514  1.00 20.00     0.014 C 
ENDROOT
TORSDOF 0
ENDMDL
MODEL 5
REMARK VINA RESULT:      -4.8      0.862      2.424
REMARK  0 active torsions:
REMARK  status: ('A' for Active; 'I' for Inactive)
ROOT
HETATM    1  C1  UNL     1     -33.354  13.724  -3.878  1.00 20.00    -0.025 C 
HETATM    2  C2  UNL     1     -32.986  14.975  -3.540  1.00 20.00    -0.025 C 
HETATM    3  C3  UNL     1     -34.977  14.408  -7.018  1.00 20.00    -0.024 C 
HETATM    4  C4  UNL     1     -34.968  15.667  -7.514  1.00 20.00    -0.025 C 
HETATM    5  C5  UNL     1     -35.234  14.911  -3.289  1.00 20.00     0.018 C 
HETATM    6  C6  UNL     1     -34.816  13.757  -4.256  1.00 20.00     0.016 C 
HETATM    7  C7  UNL     1     -34.177  15.892  -3.819  1.00 20.00     0.014 C 
HETATM    8  C8  UNL     1     -35.140  14.524  -5.549  1.00 20.00     0.021 C 
HETATM    9  C9  UNL     1     -34.927  16.721  -6.394  1.00 20.00     0.009 C 
HETATM   10  C10 UNL     1     -34.299  15.813  -5.354  1.00 20.00     0.009 C 
HETATM   11  C11 UNL     1     -34.067  17.929  -6.720  1.00 20.00     0.014 C 
ENDROOT
TORSDOF 0
ENDMDL
MODEL 6
REMARK VINA RESULT:      -4.7      1.552      3.530
REMARK  0 active torsions:
REMARK  status: ('A' for Active; 'I' for Inactive)
ROOT
HETATM    1  C1  UNL     1     -34.578  13.738  -5.328  1.00 20.00    -0.025 C 
HETATM    2  C2  UNL     1     -35.100  13.357  -4.146  1.00 20.00    -0.025 C 
HETATM    3  C3  UNL     1     -33.575  17.090  -4.480  1.00 20.00    -0.024 C 
HETATM    4  C4  UNL     1     -33.718  17.529  -3.208  1.00 20.00    -0.025 C 
HETATM    5  C5  UNL     1     -36.564  14.852  -5.005  1.00 20.00     0.018 C 
HETATM    6  C6  UNL     1     -35.177  15.077  -5.688  1.00 20.00     0.016 C 
HETATM    7  C7  UNL     1     -35.962  14.510  -3.634  1.00 20.00     0.014 C 
HETATM    8  C8  UNL     1     -34.756  16.247  -4.782  1.00 20.00     0.021 C 
HETATM    9  C9  UNL     1     -34.907  16.852  -2.502  1.00 20.00     0.009 C 
HETATM   10  C10 UNL     1     -34.916  15.612  -3.375  1.00 20.00     0.009 C 
HETATM   11  C11 UNL     1     -34.654  16.541  -1.038  1.00 20.00     0.014 C 
ENDROOT
TORSDOF 0
ENDMDL
MODEL 7
REMARK VINA RESULT:      -4.7      1.598      4.104
REMARK  0 active torsions:
REMARK  status: ('A' for Active; 'I' for Inactive)
ROOT
HETATM    1  C1  UNL     1     -34.147  15.619  -5.433  1.00 20.00    -0.025 C 
HETATM    2  C2  UNL     1     -32.968  15.801  -4.806  1.00 20.00    -0.025 C 
HETATM    3  C3  UNL     1     -36.376  16.793  -2.862  1.00 20.00    -0.024 C 
HETATM    4  C4  UNL     1     -35.866  17.316  -1.723  1.00 20.00    -0.025 C 
HETATM    5  C5  UNL     1     -33.950  14.050  -3.763  1.00 20.00     0.018 C 
HETATM    6  C6  UNL     1     -35.061  14.872  -4.492  1.00 20.00     0.016 C 
HETATM    7  C7  UNL     1     -33.128  15.290  -3.375  1.00 20.00     0.014 C 
HETATM    8  C8  UNL     1     -35.503  15.659  -3.247  1.00 20.00     0.021 C 
HETATM    9  C9  UNL     1     -34.503  16.692  -1.371  1.00 20.00     0.009 C 
HETATM   10  C10 UNL     1     -34.156  16.277  -2.787  1.00 20.00     0.009 C 
HETATM   11  C11 UNL     1     -33.511  17.681  -0.784  1.00 20.00     0.014 C 
ENDROOT
TORSDOF 0
ENDMDL
MODEL 8
REMARK VINA RESULT:      -4.7      0.895      1.028
REMARK  0 active torsions:
REMARK  status: ('A' for Active; 'I' for Inactive)
ROOT
HETATM    1  C1  UNL     1     -35.794  15.403  -2.839  1.00 20.00    -0.025 C 
HETATM    2  C2  UNL     1     -36.485  14.547  -3.616  1.00 20.00    -0.025 C 
HETATM    3  C3  UNL     1     -33.643  16.864  -5.329  1.00 20.00    -0.024 C 
HETATM    4  C4  UNL     1     -33.796  16.519  -6.629  1.00 20.00    -0.025 C 
HETATM    5  C5  UNL     1     -34.401  13.680  -3.456  1.00 20.00     0.018 C 
HETATM    6  C6  UNL     1     -34.324  15.204  -3.124  1.00 20.00     0.016 C 
HETATM    7  C7  UNL     1     -35.481  13.853  -4.536  1.00 20.00     0.014 C 
HETATM    8  C8  UNL     1     -33.866  15.637  -4.527  1.00 20.00     0.021 C 
HETATM    9  C9  UNL     1     -34.324  15.081  -6.778  1.00 20.00     0.009 C 
HETATM   10  C10 UNL     1     -34.979  15.017  -5.413  1.00 20.00     0.009 C 
HETATM   11  C11 UNL     1     -35.313  14.908  -7.918  1.00 20.00     0.014 C 
ENDROOT
TORSDOF 0
ENDMDL
MODEL 9
REMARK VINA RESULT:      -4.6      1.259      1.610
REMARK  0 active torsions:
REMARK  status: ('A' for Active; 'I' for Inactive)
ROOT
HETATM    1  C1  UNL     1     -33.889  15.824  -3.014  1.00 20.00    -0.025 C 
HETATM    2  C2  UNL     1     -35.185  15.594  -2.729  1.00 20.00    -0.025 C 
HETATM    3  C3  UNL     1     -34.085  15.958  -6.606  1.00 20.00    -0.024 C 
HETATM    4  C4  UNL     1     -35.293  15.872  -7.213  1.00 20.00    -0.025 C 
HETATM    5  C5  UNL     1     -34.408  13.669  -3.627  1.00 20.00     0.018 C 
HETATM    6  C6  UNL     1     -33.465  14.832  -4.072  1.00 20.00     0.016 C 
HETATM    7  C7  UNL     1     -35.684  14.523  -3.698  1.00 20.00     0.014 C 
HETATM    8  C8  UNL     1     -34.115  15.029  -5.451  1.00 20.00     0.021 C 
HETATM    9  C9  UNL     1     -36.283  15.027  -6.393  1.00 20.00     0.009 C 
HETATM   10  C10 UNL     1     -35.600  15.245  -5.057  1.00 20.00     0.009 C 
HETATM   11  C11 UNL     1     -37.708  15.552  -6.422  1.00 20.00     0.014 C 
ENDROOT
TORSDOF 0
ENDMDL
