MODEL 1
REMARK VINA RESULT:      -4.6      0.000      0.000
REMARK  0 active torsions:
REMARK  status: ('A' for Active; 'I' for Inactive)
ROOT
HETATM    1  C1  UNL     1     -34.793  13.568  -3.903  1.00 20.00     0.032 A 
HETATM    2  C2  UNL     1     -34.245  15.607  -2.358  1.00 20.00     0.040 A 
HETATM    3  C3  UNL     1     -33.730  17.517  -3.707  1.00 20.00     0.142 A 
HETATM    4  C4  UNL     1     -34.813  13.489  -5.279  1.00 20.00     0.093 A 
HETATM    5  C5  UNL     1     -34.435  14.897  -3.555  1.00 20.00     0.013 A 
HETATM    6  C6  UNL     1     -33.884  16.951  -2.449  1.00 20.00     0.052 A 
HETATM    7  C7  UNL     1     -34.248  15.589  -4.747  1.00 20.00     0.139 A 
HETATM    8  C8  UNL     1     -34.394  15.042  -7.188  1.00 20.00     0.157 C 
HETATM    9  N9  UNL     1     -33.900  16.883  -4.891  1.00 20.00    -0.241 NA
HETATM   10  N10 UNL     1     -34.481  14.721  -5.780  1.00 20.00    -0.345 N 
HETATM   11 CL11 UNL     1     -33.635  17.885  -1.030  1.00 20.00    -0.083 Cl
ENDROOT
TORSDOF 0
ENDMDL
MODEL 2
REMARK VINA RESULT:      -4.4     12.435     13.798
REMARK  0 active torsions:
REMARK  status: ('A' for Active; 'I' for Inactive)
ROOT
HETATM    1  C1  UNL     1     -40.838   6.062  -0.780  1.00 20.00     0.032 A 
HETATM    2  C2  UNL     1     -41.249   3.747  -1.929  1.00 20.00     0.040 A 
HETATM    3  C3  UNL     1     -43.033   3.947  -3.514  1.00 20.00     0.142 A 
HETATM    4  C4  UNL     1     -41.481   7.266  -0.975  1.00 20.00     0.093 A 
HETATM    5  C5  UNL     1     -41.436   5.111  -1.649  1.00 20.00     0.013 A 
HETATM    6  C6  UNL     1     -42.075   3.162  -2.889  1.00 20.00     0.052 A 
HETATM    7  C7  UNL     1     -42.435   5.779  -2.351  1.00 20.00     0.139 A 
HETATM    8  C8  UNL     1     -43.338   8.115  -2.411  1.00 20.00     0.157 C 
HETATM    9  N9  UNL     1     -43.257   5.262  -3.285  1.00 20.00    -0.241 NA
HETATM   10  N10 UNL     1     -42.447   7.082  -1.930  1.00 20.00    -0.345 N 
HETATM   11 CL11 UNL     1     -41.906   1.500  -3.287  1.00 20.00    -0.083 Cl
ENDROOT
TORSDOF 0
ENDMDL
MODEL 3
REMARK VINA RESULT:      -4.4      1.826      2.590
REMARK  0 active torsions:
REMARK  status: ('A' for Active; 'I' for Inactive)
ROOT
HETATM    1  C1  UNL     1     -34.714  15.283  -2.946  1.00 20.00     0.032 A 
HETATM    2  C2  UNL     1     -34.554  16.631  -0.709  1.00 20.00     0.040 A 
HETATM    3  C3  UNL     1     -33.675  18.814  -1.153  1.00 20.00     0.142 A 
HETATM    4  C4  UNL     1     -34.377  15.664  -4.227  1.00 20.00     0.093 A 
HETATM    5  C5  UNL     1     -34.438  16.378  -2.086  1.00 20.00     0.013 A 
HETATM    6  C6  UNL     1     -34.160  17.885  -0.243  1.00 20.00     0.052 A 
HETATM    7  C7  UNL     1     -33.936  17.401  -2.886  1.00 20.00     0.139 A 
HETATM    8  C8  UNL     1     -33.450  17.705  -5.325  1.00 20.00     0.157 C 
HETATM    9  N9  UNL     1     -33.541  18.626  -2.487  1.00 20.00    -0.241 NA
HETATM   10  N10 UNL     1     -33.906  16.950  -4.178  1.00 20.00    -0.345 N 
HETATM   11 CL11 UNL     1     -34.274  18.269   1.427  1.00 20.00    -0.083 Cl
ENDROOT
TORSDOF 0
ENDMDL
MODEL 4
REMARK VINA RESULT:      -4.2      1.214      1.384
REMARK  0 active torsions:
REMARK  status: ('A' for Active; 'I' for Inactive)
ROOT
HETATM    1  C1  UNL     1     -34.989  14.535  -3.496  1.00 20.00     0.032 A 
HETATM    2  C2  UNL     1     -34.521  16.171  -1.509  1.00 20.00     0.040 A 
HETATM    3  C3  UNL     1     -33.716  18.258  -2.365  1.00 20.00     0.142 A 
HETATM    4  C4  UNL     1     -34.835  14.732  -4.852  1.00 20.00     0.093 A 
HETATM    5  C5  UNL     1     -34.598  15.732  -2.841  1.00 20.00     0.013 A 
HETATM    6  C6  UNL     1     -34.067  17.469  -1.278  1.00 20.00     0.052 A 
HETATM    7  C7  UNL     1     -34.214  16.628  -3.835  1.00 20.00     0.139 A 
HETATM    8  C8  UNL     1     -34.074  16.589  -6.336  1.00 20.00     0.157 C 
HETATM    9  N9  UNL     1     -33.770  17.888  -3.666  1.00 20.00    -0.241 NA
HETATM   10  N10 UNL     1     -34.365  16.005  -5.045  1.00 20.00    -0.345 N 
HETATM   11 CL11 UNL     1     -33.948  18.078   0.323  1.00 20.00    -0.083 Cl
ENDROOT
TORSDOF 0
ENDMDL
MODEL 5
REMARK VINA RESULT:      -4.2      1.994      2.304
REMARK  0 active torsions:
REMARK  status: ('A' for Active; 'I' for Inactive)
ROOT
HETATM    1  C1  UNL     1     -34.402  14.103  -3.644  1.00 20.00     0.032 A 
HETATM    2  C2  UNL     1     -33.672  16.256  -2.349  1.00 20.00     0.040 A 
HETATM    3  C3  UNL     1     -35.570  17.682  -2.035  1.00 20.00     0.142 A 
HETATM    4  C4  UNL     1     -35.645  13.741  -4.117  1.00 20.00     0.093 A 
HETATM    5  C5  UNL     1     -34.534  15.367  -3.012  1.00 20.00     0.013 A 
HETATM    6  C6  UNL     1     -34.215  17.440  -1.852  1.00 20.00     0.052 A 
HETATM    7  C7  UNL     1     -35.872  15.735  -3.124  1.00 20.00     0.139 A 
HETATM    8  C8  UNL     1     -37.938  14.729  -4.122  1.00 20.00     0.157 C 
HETATM    9  N9  UNL     1     -36.446  16.863  -2.663  1.00 20.00    -0.241 NA
HETATM   10  N10 UNL     1     -36.528  14.739  -3.795  1.00 20.00    -0.345 N 
HETATM   11 CL11 UNL     1     -33.225  18.576  -1.029  1.00 20.00    -0.083 Cl
ENDROOT
TORSDOF 0
ENDMDL
MODEL 6
REMARK VINA RESULT:      -4.2      1.632      1.730
REMARK  0 active torsions:
REMARK  status: ('A' for Active; 'I' for Inactive)
ROOT
HETATM    1  C1  UNL     1     -34.334  13.830  -4.983  1.00 20.00     0.032 A 
HETATM    2  C2  UNL     1     -34.359  15.162  -2.731  1.00 20.00     0.040 A 
HETATM    3  C3  UNL     1     -36.032  16.871  -2.832  1.00 20.00     0.142 A 
HETATM    4  C4  UNL     1     -35.111  13.996  -6.110  1.00 20.00     0.093 A 
HETATM    5  C5  UNL     1     -34.739  14.807  -4.036  1.00 20.00     0.013 A 
HETATM    6  C6  UNL     1     -35.030  16.223  -2.124  1.00 20.00     0.052 A 
HETATM    7  C7  UNL     1     -35.761  15.543  -4.628  1.00 20.00     0.139 A 
HETATM    8  C8  UNL     1     -36.950  15.520  -6.834  1.00 20.00     0.157 C 
HETATM    9  N9  UNL     1     -36.440  16.574  -4.088  1.00 20.00    -0.241 NA
HETATM   10  N10 UNL     1     -35.972  15.037  -5.883  1.00 20.00    -0.345 N 
HETATM   11 CL11 UNL     1     -34.622  16.713  -0.530  1.00 20.00    -0.083 Cl
ENDROOT
TORSDOF 0
ENDMDL
MODEL 7
REMARK VINA RESULT:      -4.1      2.980      4.432
REMARK  0 active torsions:
REMARK  status: ('A' for Active; 'I' for Inactive)
ROOT
HETATM    1  C1  UNL     1     -34.458  16.659  -1.060  1.00 20.00     0.032 A 
HETATM    2  C2  UNL     1     -34.462  14.880  -2.979  1.00 20.00     0.040 A 
HETATM    3  C3  UNL     1     -36.280  15.321  -4.473  1.00 20.00     0.142 A 
HETATM    4  C4  UNL     1     -35.312  17.719  -0.843  1.00 20.00     0.093 A 
HETATM    5  C5  UNL     1     -34.888  15.996  -2.239  1.00 20.00     0.013 A 
HETATM    6  C6  UNL     1     -35.184  14.544  -4.123  1.00 20.00     0.052 A 
HETATM    7  C7  UNL     1     -36.004  16.685  -2.705  1.00 20.00     0.139 A 
HETATM    8  C8  UNL     1     -37.317  18.688  -1.970  1.00 20.00     0.157 C 
HETATM    9  N9  UNL     1     -36.736  16.403  -3.800  1.00 20.00    -0.241 NA
HETATM   10  N10 UNL     1     -36.245  17.725  -1.847  1.00 20.00    -0.345 N 
HETATM   11 CL11 UNL     1     -34.723  13.195  -5.080  1.00 20.00    -0.083 Cl
ENDROOT
TORSDOF 0
ENDMDL
MODEL 8
REMARK VINA RESULT:      -4.0      1.200      2.224
REMARK  0 active torsions:
REMARK  status: ('A' for Active; 'I' for Inactive)
ROOT
HETATM    1  C1  UNL     1     -34.045  16.527  -6.161  1.00 20.00     0.032 A 
HETATM    2  C2  UNL     1     -33.725  17.877  -3.943  1.00 20.00     0.040 A 
HETATM    3  C3  UNL     1     -34.010  16.414  -2.069  1.00 20.00     0.142 A 
HETATM    4  C4  UNL     1     -34.332  15.191  -6.343  1.00 20.00     0.093 A 
HETATM    5  C5  UNL     1     -33.974  16.764  -4.763  1.00 20.00     0.013 A 
HETATM    6  C6  UNL     1     -33.746  17.684  -2.562  1.00 20.00     0.052 A 
HETATM    7  C7  UNL     1     -34.224  15.548  -4.135  1.00 20.00     0.139 A 
HETATM    8  C8  UNL     1     -34.734  13.210  -4.878  1.00 20.00     0.157 C 
HETATM    9  N9  UNL     1     -34.257  15.308  -2.810  1.00 20.00    -0.241 NA
HETATM   10  N10 UNL     1     -34.439  14.608  -5.107  1.00 20.00    -0.345 N 
HETATM   11 CL11 UNL     1     -33.449  18.996  -1.495  1.00 20.00    -0.083 Cl
ENDROOT
TORSDOF 0
ENDMDL
MODEL 9
REMARK VINA RESULT:      -3.9      3.190      4.067
REMARK  0 active torsions:
REMARK  status: ('A' for Active; 'I' for Inactive)
ROOT
HETATM    1  C1  UNL     1     -36.703  17.165  -2.779  1.00 20.00     0.032 A 
HETATM    2  C2  UNL     1     -34.649  15.574  -3.089  1.00 20.00     0.040 A 
HETATM    3  C3  UNL     1     -35.381  13.498  -4.031  1.00 20.00     0.142 A 
HETATM    4  C4  UNL     1     -38.033  16.951  -3.075  1.00 20.00     0.093 A 
HETATM    5  C5  UNL     1     -35.990  15.990  -3.135  1.00 20.00     0.013 A 
HETATM    6  C6  UNL     1     -34.350  14.293  -3.552  1.00 20.00     0.052 A 
HETATM    7  C7  UNL     1     -36.924  15.090  -3.640  1.00 20.00     0.139 A 
HETATM    8  C8  UNL     1     -39.399  15.093  -4.029  1.00 20.00     0.157 C 
HETATM    9  N9  UNL     1     -36.688  13.845  -4.099  1.00 20.00    -0.241 NA
HETATM   10  N10 UNL     1     -38.154  15.689  -3.596  1.00 20.00    -0.345 N 
HETATM   11 CL11 UNL     1     -32.733  13.715  -3.530  1.00 20.00    -0.083 Cl
ENDROOT
TORSDOF 0
ENDMDL
