MODEL 1
REMARK VINA RESULT:      -5.0      0.000      0.000
REMARK  0 active torsions:
REMARK  status: ('A' for Active; 'I' for Inactive)
ROOT
HETATM    1  C1  UNL     1     -35.184   3.997   5.530  1.00 20.00     0.002 C 
HETATM    2  C2  UNL     1     -35.138   4.386   4.246  1.00 20.00     0.028 C 
HETATM    3  C3  UNL     1     -34.448   4.679   6.582  1.00 20.00    -0.003 C 
HETATM    4  C4  UNL     1     -33.942   5.909   6.391  1.00 20.00    -0.012 C 
HETATM    5  C5  UNL     1     -33.038   7.356   4.483  1.00 20.00     0.032 C 
HETATM    6  C6  UNL     1     -32.833   6.878   3.252  1.00 20.00     0.123 C 
HETATM    7  C7  UNL     1     -34.302   5.576   3.994  1.00 20.00     0.047 C 
HETATM    8  C8  UNL     1     -34.175   6.619   5.099  1.00 20.00     0.086 C 
HETATM    9  N9  UNL     1     -33.606   5.797   2.922  1.00 20.00    -0.241 NA
HETATM   10 CL10 UNL     1     -31.662   7.484   2.169  1.00 20.00    -0.063 Cl
ENDROOT
TORSDOF 0
ENDMDL
MODEL 2
REMARK VINA RESULT:      -4.8      1.132      2.080
REMARK  0 active torsions:
REMARK  status: ('A' for Active; 'I' for Inactive)
ROOT
HETATM    1  C1  UNL     1     -34.691   5.593   6.280  1.00 20.00     0.002 C 
HETATM    2  C2  UNL     1     -33.584   6.336   6.124  1.00 20.00     0.028 C 
HETATM    3  C3  UNL     1     -35.375   4.963   5.163  1.00 20.00    -0.003 C 
HETATM    4  C4  UNL     1     -34.775   4.822   3.969  1.00 20.00    -0.012 C 
HETATM    5  C5  UNL     1     -33.008   6.000   2.540  1.00 20.00     0.032 C 
HETATM    6  C6  UNL     1     -32.491   7.187   2.869  1.00 20.00     0.123 C 
HETATM    7  C7  UNL     1     -33.105   6.440   4.731  1.00 20.00     0.047 C 
HETATM    8  C8  UNL     1     -33.362   5.271   3.788  1.00 20.00     0.086 C 
HETATM    9  N9  UNL     1     -32.523   7.475   4.208  1.00 20.00    -0.241 NA
HETATM   10 CL10 UNL     1     -31.893   8.321   1.742  1.00 20.00    -0.063 Cl
ENDROOT
TORSDOF 0
ENDMDL
MODEL 3
REMARK VINA RESULT:      -4.6     12.420     13.554
REMARK  0 active torsions:
REMARK  status: ('A' for Active; 'I' for Inactive)
ROOT
HETATM    1  C1  UNL     1     -34.696  14.472  -6.554  1.00 20.00     0.002 C 
HETATM    2  C2  UNL     1     -34.582  13.927  -5.332  1.00 20.00     0.028 C 
HETATM    3  C3  UNL     1     -34.506  15.893  -6.797  1.00 20.00    -0.003 C 
HETATM    4  C4  UNL     1     -33.903  16.680  -5.891  1.00 20.00    -0.012 C 
HETATM    5  C5  UNL     1     -33.592  16.824  -3.355  1.00 20.00     0.032 C 
HETATM    6  C6  UNL     1     -34.238  16.022  -2.503  1.00 20.00     0.123 C 
HETATM    7  C7  UNL     1     -34.224  14.881  -4.264  1.00 20.00     0.047 C 
HETATM    8  C8  UNL     1     -33.368  16.088  -4.629  1.00 20.00     0.086 C 
HETATM    9  N9  UNL     1     -34.622  14.818  -3.031  1.00 20.00    -0.241 NA
HETATM   10 CL10 UNL     1     -34.641  16.447  -0.900  1.00 20.00    -0.063 Cl
ENDROOT
TORSDOF 0
ENDMDL
MODEL 4
REMARK VINA RESULT:      -4.6      9.713     10.821
REMARK  0 active torsions:
REMARK  status: ('A' for Active; 'I' for Inactive)
ROOT
HETATM    1  C1  UNL     1     -41.172   7.322  -0.802  1.00 20.00     0.002 C 
HETATM    2  C2  UNL     1     -40.817   6.060  -0.512  1.00 20.00     0.028 C 
HETATM    3  C3  UNL     1     -42.084   7.649  -1.886  1.00 20.00    -0.003 C 
HETATM    4  C4  UNL     1     -42.862   6.709  -2.448  1.00 20.00    -0.012 C 
HETATM    5  C5  UNL     1     -42.831   4.191  -2.907  1.00 20.00     0.032 C 
HETATM    6  C6  UNL     1     -41.753   3.432  -2.688  1.00 20.00     0.123 C 
HETATM    7  C7  UNL     1     -41.446   5.033  -1.365  1.00 20.00     0.047 C 
HETATM    8  C8  UNL     1     -42.836   5.310  -1.926  1.00 20.00     0.086 C 
HETATM    9  N9  UNL     1     -40.896   3.918  -1.736  1.00 20.00    -0.241 NA
HETATM   10 CL10 UNL     1     -41.390   2.005  -3.550  1.00 20.00    -0.063 Cl
ENDROOT
TORSDOF 0
ENDMDL
MODEL 5
REMARK VINA RESULT:      -4.5     12.154     13.180
REMARK  0 active torsions:
REMARK  status: ('A' for Active; 'I' for Inactive)
ROOT
HETATM    1  C1  UNL     1     -34.375  14.752  -6.036  1.00 20.00     0.002 C 
HETATM    2  C2  UNL     1     -34.281  16.038  -5.660  1.00 20.00     0.028 C 
HETATM    3  C3  UNL     1     -34.555  13.670  -5.082  1.00 20.00    -0.003 C 
HETATM    4  C4  UNL     1     -34.952  13.911  -3.822  1.00 20.00    -0.012 C 
HETATM    5  C5  UNL     1     -34.784  15.761  -2.061  1.00 20.00     0.032 C 
HETATM    6  C6  UNL     1     -34.020  16.845  -2.226  1.00 20.00     0.123 C 
HETATM    7  C7  UNL     1     -34.400  16.264  -4.206  1.00 20.00     0.047 C 
HETATM    8  C8  UNL     1     -35.265  15.307  -3.394  1.00 20.00     0.086 C 
HETATM    9  N9  UNL     1     -33.784  17.185  -3.532  1.00 20.00    -0.241 NA
HETATM   10 CL10 UNL     1     -33.313  17.727  -0.948  1.00 20.00    -0.063 Cl
ENDROOT
TORSDOF 0
ENDMDL
MODEL 6
REMARK VINA RESULT:      -4.4     12.536     13.138
REMARK  0 active torsions:
REMARK  status: ('A' for Active; 'I' for Inactive)
ROOT
HETATM    1  C1  UNL     1     -32.947  18.906   2.784  1.00 20.00     0.002 C 
HETATM    2  C2  UNL     1     -34.138  18.490   2.325  1.00 20.00     0.028 C 
HETATM    3  C3  UNL     1     -31.763  18.966   1.944  1.00 20.00    -0.003 C 
HETATM    4  C4  UNL     1     -31.856  18.917   0.605  1.00 20.00    -0.012 C 
HETATM    5  C5  UNL     1     -33.378  17.918  -1.194  1.00 20.00     0.032 C 
HETATM    6  C6  UNL     1     -34.371  17.071  -0.908  1.00 20.00     0.123 C 
HETATM    7  C7  UNL     1     -34.152  18.124   0.895  1.00 20.00     0.047 C 
HETATM    8  C8  UNL     1     -33.197  18.849  -0.047  1.00 20.00     0.086 C 
HETATM    9  N9  UNL     1     -34.874  17.187   0.361  1.00 20.00    -0.241 NA
HETATM   10 CL10 UNL     1     -34.952  15.873  -1.976  1.00 20.00    -0.063 Cl
ENDROOT
TORSDOF 0
ENDMDL
MODEL 7
REMARK VINA RESULT:      -4.3      2.605      4.100
REMARK  0 active torsions:
REMARK  status: ('A' for Active; 'I' for Inactive)
ROOT
HETATM    1  C1  UNL     1     -32.037   7.053   3.302  1.00 20.00     0.002 C 
HETATM    2  C2  UNL     1     -32.610   7.307   4.490  1.00 20.00     0.028 C 
HETATM    3  C3  UNL     1     -32.476   5.970   2.438  1.00 20.00    -0.003 C 
HETATM    4  C4  UNL     1     -33.663   5.369   2.622  1.00 20.00    -0.012 C 
HETATM    5  C5  UNL     1     -35.285   4.831   4.527  1.00 20.00     0.032 C 
HETATM    6  C6  UNL     1     -34.981   5.038   5.812  1.00 20.00     0.123 C 
HETATM    7  C7  UNL     1     -33.735   6.415   4.833  1.00 20.00     0.047 C 
HETATM    8  C8  UNL     1     -34.581   5.847   3.699  1.00 20.00     0.086 C 
HETATM    9  N9  UNL     1     -34.045   6.016   6.028  1.00 20.00    -0.241 NA
HETATM   10 CL10 UNL     1     -35.624   4.136   7.110  1.00 20.00    -0.063 Cl
ENDROOT
TORSDOF 0
ENDMDL
MODEL 8
REMARK VINA RESULT:      -4.3     10.240     11.031
REMARK  0 active torsions:
REMARK  status: ('A' for Active; 'I' for Inactive)
ROOT
HETATM    1  C1  UNL     1     -41.666   3.711  -2.027  1.00 20.00     0.002 C 
HETATM    2  C2  UNL     1     -42.633   4.229  -2.802  1.00 20.00     0.028 C 
HETATM    3  C3  UNL     1     -40.774   4.538  -1.232  1.00 20.00    -0.003 C 
HETATM    4  C4  UNL     1     -41.059   5.826  -0.979  1.00 20.00    -0.012 C 
HETATM    5  C5  UNL     1     -42.301   7.783  -2.064  1.00 20.00     0.032 C 
HETATM    6  C6  UNL     1     -42.786   7.727  -3.308  1.00 20.00     0.123 C 
HETATM    7  C7  UNL     1     -42.730   5.701  -2.761  1.00 20.00     0.047 C 
HETATM    8  C8  UNL     1     -42.338   6.417  -1.474  1.00 20.00     0.086 C 
HETATM    9  N9  UNL     1     -43.073   6.463  -3.753  1.00 20.00    -0.241 NA
HETATM   10 CL10 UNL     1     -42.982   9.082  -4.326  1.00 20.00    -0.063 Cl
ENDROOT
TORSDOF 0
ENDMDL
MODEL 9
REMARK VINA RESULT:      -4.3     12.419     13.585
REMARK  0 active torsions:
REMARK  status: ('A' for Active; 'I' for Inactive)
ROOT
HETATM    1  C1  UNL     1     -33.792  17.062  -2.906  1.00 20.00     0.002 C 
HETATM    2  C2  UNL     1     -33.476  17.115  -4.210  1.00 20.00     0.028 C 
HETATM    3  C3  UNL     1     -34.519  15.946  -2.322  1.00 20.00    -0.003 C 
HETATM    4  C4  UNL     1     -34.636  14.776  -2.972  1.00 20.00    -0.012 C 
HETATM    5  C5  UNL     1     -34.728  13.896  -5.374  1.00 20.00     0.032 C 
HETATM    6  C6  UNL     1     -34.801  14.705  -6.435  1.00 20.00     0.123 C 
HETATM    7  C7  UNL     1     -33.903  15.941  -4.995  1.00 20.00     0.047 C 
HETATM    8  C8  UNL     1     -33.971  14.588  -4.295  1.00 20.00     0.086 C 
HETATM    9  N9  UNL     1     -34.288  15.960  -6.234  1.00 20.00    -0.241 NA
HETATM   10 CL10 UNL     1     -35.532  14.283  -7.918  1.00 20.00    -0.063 Cl
ENDROOT
TORSDOF 0
ENDMDL
