MODEL 1
REMARK VINA RESULT:      -5.1      0.000      0.000
REMARK  0 active torsions:
REMARK  status: ('A' for Active; 'I' for Inactive)
ROOT
HETATM    1  C1  UNL     1     -35.236  17.384   0.595  1.00 20.00     0.008 C 
HETATM    2  C2  UNL     1     -34.976  17.998   1.760  1.00 20.00     0.028 C 
HETATM    3  C3  UNL     1     -33.172  18.088  -0.491  1.00 20.00    -0.005 C 
HETATM    4  C4  UNL     1     -31.616  19.261   1.164  1.00 20.00     0.015 C 
HETATM    5  C5  UNL     1     -34.261  17.292  -0.490  1.00 20.00    -0.065 C 
HETATM    6  C6  UNL     1     -31.675  19.063   2.488  1.00 20.00     0.028 C 
HETATM    7  C7  UNL     1     -33.629  18.590   1.856  1.00 20.00     0.046 C 
HETATM    8  C8  UNL     1     -32.977  19.105   0.584  1.00 20.00     0.085 C 
HETATM    9  C9  UNL     1     -34.545  16.299  -1.574  1.00 20.00     0.048 C 
HETATM   10  C10 UNL     1     -30.548  19.183   3.451  1.00 20.00     0.070 C 
HETATM   11  N11 UNL     1     -32.912  18.665   2.935  1.00 20.00    -0.258 NA
ENDROOT
TORSDOF 0
ENDMDL
MODEL 2
REMARK VINA RESULT:      -5.0      4.172      6.579
REMARK  0 active torsions:
REMARK  status: ('A' for Active; 'I' for Inactive)
ROOT
HETATM    1  C1  UNL     1     -34.087  16.394  -6.684  1.00 20.00     0.008 C 
HETATM    2  C2  UNL     1     -33.624  17.167  -5.690  1.00 20.00     0.028 C 
HETATM    3  C3  UNL     1     -34.484  14.443  -5.280  1.00 20.00    -0.005 C 
HETATM    4  C4  UNL     1     -34.120  14.998  -2.811  1.00 20.00     0.015 C 
HETATM    5  C5  UNL     1     -34.671  15.073  -6.458  1.00 20.00    -0.065 C 
HETATM    6  C6  UNL     1     -34.215  16.242  -2.321  1.00 20.00     0.028 C 
HETATM    7  C7  UNL     1     -33.735  16.573  -4.346  1.00 20.00     0.046 C 
HETATM    8  C8  UNL     1     -33.639  15.062  -4.217  1.00 20.00     0.085 C 
HETATM    9  C9  UNL     1     -35.455  14.476  -7.585  1.00 20.00     0.048 C 
HETATM   10  C10 UNL     1     -34.603  16.618  -0.935  1.00 20.00     0.070 C 
HETATM   11  N11 UNL     1     -33.965  17.224  -3.248  1.00 20.00    -0.258 NA
ENDROOT
TORSDOF 0
ENDMDL
MODEL 3
REMARK VINA RESULT:      -4.5      4.562      7.133
REMARK  0 active torsions:
REMARK  status: ('A' for Active; 'I' for Inactive)
ROOT
HETATM    1  C1  UNL     1     -34.689  14.855  -2.690  1.00 20.00     0.008 C 
HETATM    2  C2  UNL     1     -34.680  14.441  -3.966  1.00 20.00     0.028 C 
HETATM    3  C3  UNL     1     -33.745  17.050  -3.164  1.00 20.00    -0.005 C 
HETATM    4  C4  UNL     1     -33.559  17.446  -5.684  1.00 20.00     0.015 C 
HETATM    5  C5  UNL     1     -34.368  16.226  -2.297  1.00 20.00    -0.065 C 
HETATM    6  C6  UNL     1     -34.320  16.805  -6.582  1.00 20.00     0.028 C 
HETATM    7  C7  UNL     1     -34.303  15.475  -4.947  1.00 20.00     0.046 C 
HETATM    8  C8  UNL     1     -33.331  16.559  -4.512  1.00 20.00     0.085 C 
HETATM    9  C9  UNL     1     -34.750  16.642  -0.910  1.00 20.00     0.048 C 
HETATM   10  C10 UNL     1     -34.731  17.314  -7.916  1.00 20.00     0.070 C 
HETATM   11  N11 UNL     1     -34.774  15.581  -6.151  1.00 20.00    -0.258 NA
ENDROOT
TORSDOF 0
ENDMDL
MODEL 4
REMARK VINA RESULT:      -4.5      3.738      5.404
REMARK  0 active torsions:
REMARK  status: ('A' for Active; 'I' for Inactive)
ROOT
HETATM    1  C1  UNL     1     -33.718  15.956  -5.275  1.00 20.00     0.008 C 
HETATM    2  C2  UNL     1     -33.519  17.159  -4.715  1.00 20.00     0.028 C 
HETATM    3  C3  UNL     1     -34.391  14.859  -3.206  1.00 20.00    -0.005 C 
HETATM    4  C4  UNL     1     -34.631  16.552  -1.305  1.00 20.00     0.015 C 
HETATM    5  C5  UNL     1     -34.309  14.831  -4.552  1.00 20.00    -0.065 C 
HETATM    6  C6  UNL     1     -34.867  17.854  -1.512  1.00 20.00     0.028 C 
HETATM    7  C7  UNL     1     -33.930  17.257  -3.303  1.00 20.00     0.046 C 
HETATM    8  C8  UNL     1     -33.834  16.011  -2.438  1.00 20.00     0.085 C 
HETATM    9  C9  UNL     1     -34.792  13.676  -5.373  1.00 20.00     0.048 C 
HETATM   10  C10 UNL     1     -35.579  18.781  -0.593  1.00 20.00     0.070 C 
HETATM   11  N11 UNL     1     -34.427  18.310  -2.732  1.00 20.00    -0.258 NA
ENDROOT
TORSDOF 0
ENDMDL
MODEL 5
REMARK VINA RESULT:      -4.5      2.907      5.707
REMARK  0 active torsions:
REMARK  status: ('A' for Active; 'I' for Inactive)
ROOT
HETATM    1  C1  UNL     1     -33.436  18.931  -1.793  1.00 20.00     0.008 C 
HETATM    2  C2  UNL     1     -33.603  18.497  -3.052  1.00 20.00     0.028 C 
HETATM    3  C3  UNL     1     -34.416  16.960  -0.749  1.00 20.00    -0.005 C 
HETATM    4  C4  UNL     1     -34.905  15.148  -2.485  1.00 20.00     0.015 C 
HETATM    5  C5  UNL     1     -33.698  18.095  -0.623  1.00 20.00    -0.065 C 
HETATM    6  C6  UNL     1     -34.263  15.069  -3.659  1.00 20.00     0.028 C 
HETATM    7  C7  UNL     1     -34.089  17.111  -3.166  1.00 20.00     0.046 C 
HETATM    8  C8  UNL     1     -34.994  16.573  -2.070  1.00 20.00     0.085 C 
HETATM    9  C9  UNL     1     -33.147  18.568   0.686  1.00 20.00     0.048 C 
HETATM   10  C10 UNL     1     -34.014  13.835  -4.449  1.00 20.00     0.070 C 
HETATM   11  N11 UNL     1     -33.768  16.272  -4.102  1.00 20.00    -0.258 NA
ENDROOT
TORSDOF 0
ENDMDL
MODEL 6
REMARK VINA RESULT:      -4.4      4.098      6.658
REMARK  0 active torsions:
REMARK  status: ('A' for Active; 'I' for Inactive)
ROOT
HETATM    1  C1  UNL     1     -34.826  13.636  -5.700  1.00 20.00     0.008 C 
HETATM    2  C2  UNL     1     -34.271  13.550  -4.481  1.00 20.00     0.028 C 
HETATM    3  C3  UNL     1     -36.401  15.395  -5.101  1.00 20.00    -0.005 C 
HETATM    4  C4  UNL     1     -35.955  16.263  -2.738  1.00 20.00     0.015 C 
HETATM    5  C5  UNL     1     -35.790  14.673  -6.063  1.00 20.00    -0.065 C 
HETATM    6  C6  UNL     1     -34.763  16.160  -2.136  1.00 20.00     0.028 C 
HETATM    7  C7  UNL     1     -34.724  14.576  -3.525  1.00 20.00     0.046 C 
HETATM    8  C8  UNL     1     -36.140  15.110  -3.660  1.00 20.00     0.085 C 
HETATM    9  C9  UNL     1     -36.059  14.868  -7.523  1.00 20.00     0.048 C 
HETATM   10  C10 UNL     1     -34.214  17.074  -1.099  1.00 20.00     0.070 C 
HETATM   11  N11 UNL     1     -33.997  15.116  -2.596  1.00 20.00    -0.258 NA
ENDROOT
TORSDOF 0
ENDMDL
MODEL 7
REMARK VINA RESULT:      -4.4      3.219      5.328
REMARK  0 active torsions:
REMARK  status: ('A' for Active; 'I' for Inactive)
ROOT
HETATM    1  C1  UNL     1     -36.346  18.336  -0.677  1.00 20.00     0.008 C 
HETATM    2  C2  UNL     1     -36.552  18.198  -1.996  1.00 20.00     0.028 C 
HETATM    3  C3  UNL     1     -34.538  16.706  -0.565  1.00 20.00    -0.005 C 
HETATM    4  C4  UNL     1     -33.868  15.915  -2.902  1.00 20.00     0.015 C 
HETATM    5  C5  UNL     1     -35.228  17.705   0.023  1.00 20.00    -0.065 C 
HETATM    6  C6  UNL     1     -34.087  16.638  -4.009  1.00 20.00     0.028 C 
HETATM    7  C7  UNL     1     -35.569  17.344  -2.687  1.00 20.00     0.046 C 
HETATM    8  C8  UNL     1     -34.939  16.199  -1.910  1.00 20.00     0.085 C 
HETATM    9  C9  UNL     1     -34.914  18.213   1.396  1.00 20.00     0.048 C 
HETATM   10  C10 UNL     1     -33.284  16.606  -5.260  1.00 20.00     0.070 C 
HETATM   11  N11 UNL     1     -35.142  17.512  -3.900  1.00 20.00    -0.258 NA
ENDROOT
TORSDOF 0
ENDMDL
MODEL 8
REMARK VINA RESULT:      -4.3      4.301      7.324
REMARK  0 active torsions:
REMARK  status: ('A' for Active; 'I' for Inactive)
ROOT
HETATM    1  C1  UNL     1     -36.045  17.051  -2.345  1.00 20.00     0.008 C 
HETATM    2  C2  UNL     1     -36.804  16.701  -3.395  1.00 20.00     0.028 C 
HETATM    3  C3  UNL     1     -34.335  15.361  -2.736  1.00 20.00    -0.005 C 
HETATM    4  C4  UNL     1     -34.736  14.141  -4.948  1.00 20.00     0.015 C 
HETATM    5  C5  UNL     1     -34.720  16.485  -2.099  1.00 20.00    -0.065 C 
HETATM    6  C6  UNL     1     -35.433  14.675  -5.960  1.00 20.00     0.028 C 
HETATM    7  C7  UNL     1     -36.203  15.684  -4.277  1.00 20.00     0.046 C 
HETATM    8  C8  UNL     1     -35.272  14.655  -3.659  1.00 20.00     0.085 C 
HETATM    9  C9  UNL     1     -33.849  17.202  -1.114  1.00 20.00     0.048 C 
HETATM   10  C10 UNL     1     -35.257  14.381  -7.407  1.00 20.00     0.070 C 
HETATM   11  N11 UNL     1     -36.353  15.616  -5.564  1.00 20.00    -0.258 NA
ENDROOT
TORSDOF 0
ENDMDL
MODEL 9
REMARK VINA RESULT:      -4.3      4.175      7.285
REMARK  0 active torsions:
REMARK  status: ('A' for Active; 'I' for Inactive)
ROOT
HETATM    1  C1  UNL     1     -34.304  15.437  -2.480  1.00 20.00     0.008 C 
HETATM    2  C2  UNL     1     -34.934  14.667  -3.380  1.00 20.00     0.028 C 
HETATM    3  C3  UNL     1     -36.058  17.122  -2.365  1.00 20.00    -0.005 C 
HETATM    4  C4  UNL     1     -38.120  16.395  -3.691  1.00 20.00     0.015 C 
HETATM    5  C5  UNL     1     -34.933  16.593  -1.845  1.00 20.00    -0.065 C 
HETATM    6  C6  UNL     1     -38.402  15.112  -3.957  1.00 20.00     0.028 C 
HETATM    7  C7  UNL     1     -36.311  15.088  -3.694  1.00 20.00     0.046 C 
HETATM    8  C8  UNL     1     -36.645  16.568  -3.621  1.00 20.00     0.085 C 
HETATM    9  C9  UNL     1     -34.262  17.145  -0.625  1.00 20.00     0.048 C 
HETATM   10  C10 UNL     1     -39.754  14.529  -4.165  1.00 20.00     0.070 C 
HETATM   11  N11 UNL     1     -37.297  14.295  -3.979  1.00 20.00    -0.258 NA
ENDROOT
TORSDOF 0
ENDMDL
