MODEL 1
REMARK VINA RESULT:      -5.0      0.000      0.000
REMARK  0 active torsions:
REMARK  status: ('A' for Active; 'I' for Inactive)
ROOT
HETATM    1  C1  UNL     1     -34.948  14.272  -5.903  1.00 20.00    -0.025 C 
HETATM    2  C2  UNL     1     -34.356  13.510  -4.964  1.00 20.00    -0.025 C 
HETATM    3  C3  UNL     1     -34.468  17.532  -4.420  1.00 20.00    -0.024 C 
HETATM    4  C4  UNL     1     -33.738  17.643  -3.287  1.00 20.00    -0.025 C 
HETATM    5  C5  UNL     1     -36.276  14.246  -4.026  1.00 20.00     0.018 C 
HETATM    6  C6  UNL     1     -35.908  15.206  -5.203  1.00 20.00     0.016 C 
HETATM    7  C7  UNL     1     -34.817  14.023  -3.600  1.00 20.00     0.014 C 
HETATM    8  C8  UNL     1     -35.253  16.278  -4.316  1.00 20.00     0.021 C 
HETATM    9  C9  UNL     1     -33.785  16.367  -2.430  1.00 20.00     0.009 C 
HETATM   10  C10 UNL     1     -34.197  15.434  -3.553  1.00 20.00     0.009 C 
HETATM   11  C11 UNL     1     -34.720  16.437  -1.236  1.00 20.00     0.014 C 
ENDROOT
TORSDOF 0
ENDMDL
MODEL 2
REMARK VINA RESULT:      -4.9      1.481      3.258
REMARK  0 active torsions:
REMARK  status: ('A' for Active; 'I' for Inactive)
ROOT
HETATM    1  C1  UNL     1     -33.312  13.587  -3.719  1.00 20.00    -0.025 C 
HETATM    2  C2  UNL     1     -32.613  14.730  -3.579  1.00 20.00    -0.025 C 
HETATM    3  C3  UNL     1     -35.100  14.346  -6.766  1.00 20.00    -0.024 C 
HETATM    4  C4  UNL     1     -34.829  15.497  -7.424  1.00 20.00    -0.025 C 
HETATM    5  C5  UNL     1     -34.760  15.272  -3.126  1.00 20.00     0.018 C 
HETATM    6  C6  UNL     1     -34.756  13.956  -3.968  1.00 20.00     0.016 C 
HETATM    7  C7  UNL     1     -33.566  15.888  -3.871  1.00 20.00     0.014 C 
HETATM    8  C8  UNL     1     -35.036  14.645  -5.315  1.00 20.00     0.021 C 
HETATM    9  C9  UNL     1     -34.329  16.607  -6.485  1.00 20.00     0.009 C 
HETATM   10  C10 UNL     1     -33.884  15.684  -5.367  1.00 20.00     0.009 C 
HETATM   11  C11 UNL     1     -35.371  17.650  -6.123  1.00 20.00     0.014 C 
ENDROOT
TORSDOF 0
ENDMDL
MODEL 3
REMARK VINA RESULT:      -4.9      1.519      3.900
REMARK  0 active torsions:
REMARK  status: ('A' for Active; 'I' for Inactive)
ROOT
HETATM    1  C1  UNL     1     -34.644  16.761  -0.556  1.00 20.00    -0.025 C 
HETATM    2  C2  UNL     1     -33.625  17.553  -0.939  1.00 20.00    -0.025 C 
HETATM    3  C3  UNL     1     -34.574  14.347  -3.242  1.00 20.00    -0.024 C 
HETATM    4  C4  UNL     1     -33.589  14.413  -4.167  1.00 20.00    -0.025 C 
HETATM    5  C5  UNL     1     -35.293  17.954  -2.411  1.00 20.00     0.018 C 
HETATM    6  C6  UNL     1     -35.550  16.562  -1.749  1.00 20.00     0.016 C 
HETATM    7  C7  UNL     1     -33.766  17.784  -2.444  1.00 20.00     0.014 C 
HETATM    8  C8  UNL     1     -34.950  15.739  -2.901  1.00 20.00     0.021 C 
HETATM    9  C9  UNL     1     -33.053  15.841  -4.354  1.00 20.00     0.009 C 
HETATM   10  C10 UNL     1     -33.536  16.371  -3.016  1.00 20.00     0.009 C 
HETATM   11  C11 UNL     1     -33.570  16.558  -5.588  1.00 20.00     0.014 C 
ENDROOT
TORSDOF 0
ENDMDL
MODEL 4
REMARK VINA RESULT:      -4.8      1.319      2.369
REMARK  0 active torsions:
REMARK  status: ('A' for Active; 'I' for Inactive)
ROOT
HETATM    1  C1  UNL     1     -33.467  13.760  -3.618  1.00 20.00    -0.025 C 
HETATM    2  C2  UNL     1     -34.761  13.543  -3.924  1.00 20.00    -0.025 C 
HETATM    3  C3  UNL     1     -33.810  16.762  -1.638  1.00 20.00    -0.024 C 
HETATM    4  C4  UNL     1     -35.048  17.227  -1.350  1.00 20.00    -0.025 C 
HETATM    5  C5  UNL     1     -34.150  15.360  -5.122  1.00 20.00     0.018 C 
HETATM    6  C6  UNL     1     -33.154  15.206  -3.928  1.00 20.00     0.016 C 
HETATM    7  C7  UNL     1     -35.370  14.889  -4.316  1.00 20.00     0.014 C 
HETATM    8  C8  UNL     1     -33.851  16.237  -3.024  1.00 20.00     0.021 C 
HETATM    9  C9  UNL     1     -36.083  16.845  -2.419  1.00 20.00     0.009 C 
HETATM   10  C10 UNL     1     -35.300  15.680  -2.993  1.00 20.00     0.009 C 
HETATM   11  C11 UNL     1     -36.439  17.959  -3.387  1.00 20.00     0.014 C 
ENDROOT
TORSDOF 0
ENDMDL
MODEL 5
REMARK VINA RESULT:      -4.8      1.434      3.399
REMARK  0 active torsions:
REMARK  status: ('A' for Active; 'I' for Inactive)
ROOT
HETATM    1  C1  UNL     1     -33.999  15.926  -2.569  1.00 20.00    -0.025 C 
HETATM    2  C2  UNL     1     -35.168  15.265  -2.670  1.00 20.00    -0.025 C 
HETATM    3  C3  UNL     1     -33.669  17.087  -5.974  1.00 20.00    -0.024 C 
HETATM    4  C4  UNL     1     -34.676  16.866  -6.850  1.00 20.00    -0.025 C 
HETATM    5  C5  UNL     1     -33.662  14.010  -3.794  1.00 20.00     0.018 C 
HETATM    6  C6  UNL     1     -33.110  15.468  -3.702  1.00 20.00     0.016 C 
HETATM    7  C7  UNL     1     -35.124  14.451  -3.963  1.00 20.00     0.014 C 
HETATM    8  C8  UNL     1     -33.569  15.887  -5.108  1.00 20.00     0.021 C 
HETATM    9  C9  UNL     1     -35.493  15.611  -6.502  1.00 20.00     0.009 C 
HETATM   10  C10 UNL     1     -35.083  15.551  -5.042  1.00 20.00     0.009 C 
HETATM   11  C11 UNL     1     -35.169  14.389  -7.342  1.00 20.00     0.014 C 
ENDROOT
TORSDOF 0
ENDMDL
MODEL 6
REMARK VINA RESULT:      -4.7      1.332      3.085
REMARK  0 active torsions:
REMARK  status: ('A' for Active; 'I' for Inactive)
ROOT
HETATM    1  C1  UNL     1     -36.274  14.822  -7.443  1.00 20.00    -0.025 C 
HETATM    2  C2  UNL     1     -36.801  15.854  -6.755  1.00 20.00    -0.025 C 
HETATM    3  C3  UNL     1     -34.388  13.238  -4.801  1.00 20.00    -0.024 C 
HETATM    4  C4  UNL     1     -34.488  13.713  -3.538  1.00 20.00    -0.025 C 
HETATM    5  C5  UNL     1     -34.599  16.322  -6.959  1.00 20.00     0.018 C 
HETATM    6  C6  UNL     1     -34.791  14.784  -7.155  1.00 20.00     0.016 C 
HETATM    7  C7  UNL     1     -35.689  16.438  -5.883  1.00 20.00     0.014 C 
HETATM    8  C8  UNL     1     -34.411  14.406  -5.713  1.00 20.00     0.021 C 
HETATM    9  C9  UNL     1     -34.825  15.213  -3.500  1.00 20.00     0.009 C 
HETATM   10  C10 UNL     1     -35.401  15.284  -4.901  1.00 20.00     0.009 C 
HETATM   11  C11 UNL     1     -33.644  16.122  -3.211  1.00 20.00     0.014 C 
ENDROOT
TORSDOF 0
ENDMDL
MODEL 7
REMARK VINA RESULT:      -4.6      1.557      2.186
REMARK  0 active torsions:
REMARK  status: ('A' for Active; 'I' for Inactive)
ROOT
HETATM    1  C1  UNL     1     -33.476  16.134  -4.747  1.00 20.00    -0.025 C 
HETATM    2  C2  UNL     1     -33.325  15.153  -3.836  1.00 20.00    -0.025 C 
HETATM    3  C3  UNL     1     -33.543  18.996  -2.543  1.00 20.00    -0.024 C 
HETATM    4  C4  UNL     1     -33.322  18.820  -1.221  1.00 20.00    -0.025 C 
HETATM    5  C5  UNL     1     -35.441  15.905  -3.574  1.00 20.00     0.018 C 
HETATM    6  C6  UNL     1     -34.612  17.020  -4.289  1.00 20.00     0.016 C 
HETATM    7  C7  UNL     1     -34.277  15.454  -2.678  1.00 20.00     0.014 C 
HETATM    8  C8  UNL     1     -34.336  17.836  -3.014  1.00 20.00     0.021 C 
HETATM    9  C9  UNL     1     -33.737  17.421  -0.737  1.00 20.00     0.009 C 
HETATM   10  C10 UNL     1     -33.692  16.759  -2.101  1.00 20.00     0.009 C 
HETATM   11  C11 UNL     1     -35.068  17.370  -0.007  1.00 20.00     0.014 C 
ENDROOT
TORSDOF 0
ENDMDL
MODEL 8
REMARK VINA RESULT:      -4.6      1.086      3.708
REMARK  0 active torsions:
REMARK  status: ('A' for Active; 'I' for Inactive)
ROOT
HETATM    1  C1  UNL     1     -34.686  16.188  -1.632  1.00 20.00    -0.025 C 
HETATM    2  C2  UNL     1     -33.642  16.764  -2.258  1.00 20.00    -0.025 C 
HETATM    3  C3  UNL     1     -35.558  13.689  -4.092  1.00 20.00    -0.024 C 
HETATM    4  C4  UNL     1     -34.777  13.536  -5.186  1.00 20.00    -0.025 C 
HETATM    5  C5  UNL     1     -35.474  17.399  -3.421  1.00 20.00     0.018 C 
HETATM    6  C6  UNL     1     -35.829  16.107  -2.617  1.00 20.00     0.016 C 
HETATM    7  C7  UNL     1     -34.035  16.953  -3.723  1.00 20.00     0.014 C 
HETATM    8  C8  UNL     1     -35.616  15.140  -3.794  1.00 20.00     0.021 C 
HETATM    9  C9  UNL     1     -34.052  14.834  -5.578  1.00 20.00     0.009 C 
HETATM   10  C10 UNL     1     -34.166  15.499  -4.218  1.00 20.00     0.009 C 
HETATM   11  C11 UNL     1     -34.672  15.580  -6.746  1.00 20.00     0.014 C 
ENDROOT
TORSDOF 0
ENDMDL
MODEL 9
REMARK VINA RESULT:      -4.6      1.019      3.776
REMARK  0 active torsions:
REMARK  status: ('A' for Active; 'I' for Inactive)
ROOT
HETATM    1  C1  UNL     1     -35.424  17.527  -1.248  1.00 20.00    -0.025 C 
HETATM    2  C2  UNL     1     -34.400  16.692  -0.984  1.00 20.00    -0.025 C 
HETATM    3  C3  UNL     1     -37.119  15.611  -3.799  1.00 20.00    -0.024 C 
HETATM    4  C4  UNL     1     -36.674  14.369  -4.100  1.00 20.00    -0.025 C 
HETATM    5  C5  UNL     1     -33.974  17.546  -3.033  1.00 20.00     0.018 C 
HETATM    6  C6  UNL     1     -35.502  17.703  -2.747  1.00 20.00     0.016 C 
HETATM    7  C7  UNL     1     -33.863  16.188  -2.324  1.00 20.00     0.014 C 
HETATM    8  C8  UNL     1     -35.926  16.451  -3.534  1.00 20.00     0.021 C 
HETATM    9  C9  UNL     1     -35.170  14.202  -3.834  1.00 20.00     0.009 C 
HETATM   10  C10 UNL     1     -35.048  15.361  -2.862  1.00 20.00     0.009 C 
HETATM   11  C11 UNL     1     -34.294  14.269  -5.073  1.00 20.00     0.014 C 
ENDROOT
TORSDOF 0
ENDMDL
