MODEL 1
REMARK VINA RESULT:      -5.9      0.000      0.000
REMARK  0 active torsions:
REMARK  status: ('A' for Active; 'I' for Inactive)
ROOT
HETATM    1  C1  UNL     1     -32.685   7.162   3.130  1.00 20.00     0.104 C 
HETATM    2  C2  UNL     1     -35.077   4.648   4.470  1.00 20.00     0.107 A 
HETATM    3  C3  UNL     1     -33.462   6.645   5.390  1.00 20.00     0.145 A 
HETATM    4  C4  UNL     1     -33.485   6.395   4.028  1.00 20.00     0.100 A 
HETATM    5  C5  UNL     1     -34.309   5.376   3.567  1.00 20.00     0.142 A 
HETATM    6  C6  UNL     1     -34.984   4.976   5.813  1.00 20.00     0.212 A 
HETATM    7  N7  UNL     1     -32.035   7.786   2.399  1.00 20.00    -0.191 NA
HETATM    8  N8  UNL     1     -34.192   5.960   6.298  1.00 20.00    -0.231 NA
HETATM    9  F9  UNL     1     -34.376   5.085   2.259  1.00 20.00    -0.204 F 
HETATM   10  F10 UNL     1     -35.718   4.282   6.696  1.00 20.00    -0.184 F 
ENDROOT
TORSDOF 0
ENDMDL
MODEL 2
REMARK VINA RESULT:      -5.5      1.756      2.150
REMARK  0 active torsions:
REMARK  status: ('A' for Active; 'I' for Inactive)
ROOT
HETATM    1  C1  UNL     1     -32.801   7.016   3.277  1.00 20.00     0.104 C 
HETATM    2  C2  UNL     1     -34.282   5.668   6.412  1.00 20.00     0.107 A 
HETATM    3  C3  UNL     1     -34.431   5.247   3.721  1.00 20.00     0.145 A 
HETATM    4  C4  UNL     1     -33.580   6.237   4.184  1.00 20.00     0.100 A 
HETATM    5  C5  UNL     1     -33.510   6.446   5.556  1.00 20.00     0.142 A 
HETATM    6  C6  UNL     1     -35.102   4.703   5.849  1.00 20.00     0.212 A 
HETATM    7  N7  UNL     1     -32.167   7.649   2.540  1.00 20.00    -0.191 NA
HETATM    8  N8  UNL     1     -35.197   4.473   4.520  1.00 20.00    -0.231 NA
HETATM    9  F9  UNL     1     -32.704   7.389   6.067  1.00 20.00    -0.204 F 
HETATM   10  F10 UNL     1     -35.853   3.946   6.663  1.00 20.00    -0.184 F 
ENDROOT
TORSDOF 0
ENDMDL
MODEL 3
REMARK VINA RESULT:      -4.9     11.829     12.564
REMARK  0 active torsions:
REMARK  status: ('A' for Active; 'I' for Inactive)
ROOT
HETATM    1  C1  UNL     1     -37.298  14.451  -3.870  1.00 20.00     0.104 C 
HETATM    2  C2  UNL     1     -33.843  15.584  -3.083  1.00 20.00     0.107 A 
HETATM    3  C3  UNL     1     -35.098  13.433  -4.196  1.00 20.00     0.145 A 
HETATM    4  C4  UNL     1     -35.877  14.488  -3.750  1.00 20.00     0.100 A 
HETATM    5  C5  UNL     1     -35.230  15.580  -3.183  1.00 20.00     0.142 A 
HETATM    6  C6  UNL     1     -33.155  14.480  -3.558  1.00 20.00     0.212 A 
HETATM    7  N7  UNL     1     -38.454  14.421  -3.969  1.00 20.00    -0.191 NA
HETATM    8  N8  UNL     1     -33.750  13.400  -4.114  1.00 20.00    -0.231 NA
HETATM    9  F9  UNL     1     -35.928  16.633  -2.733  1.00 20.00    -0.204 F 
HETATM   10  F10 UNL     1     -31.817  14.470  -3.467  1.00 20.00    -0.184 F 
ENDROOT
TORSDOF 0
ENDMDL
MODEL 4
REMARK VINA RESULT:      -4.4      9.696     10.452
REMARK  0 active torsions:
REMARK  status: ('A' for Active; 'I' for Inactive)
ROOT
HETATM    1  C1  UNL     1     -41.979   3.130  -2.656  1.00 20.00     0.104 C 
HETATM    2  C2  UNL     1     -42.024   6.812  -2.122  1.00 20.00     0.107 A 
HETATM    3  C3  UNL     1     -40.774   4.603  -1.119  1.00 20.00     0.145 A 
HETATM    4  C4  UNL     1     -41.694   4.430  -2.141  1.00 20.00     0.100 A 
HETATM    5  C5  UNL     1     -42.326   5.560  -2.646  1.00 20.00     0.142 A 
HETATM    6  C6  UNL     1     -41.090   6.879  -1.101  1.00 20.00     0.212 A 
HETATM    7  N7  UNL     1     -42.211   2.074  -3.076  1.00 20.00    -0.191 NA
HETATM    8  N8  UNL     1     -40.455   5.802  -0.584  1.00 20.00    -0.231 NA
HETATM    9  F9  UNL     1     -43.225   5.458  -3.636  1.00 20.00    -0.204 F 
HETATM   10  F10 UNL     1     -40.788   8.080  -0.585  1.00 20.00    -0.184 F 
ENDROOT
TORSDOF 0
ENDMDL
MODEL 5
REMARK VINA RESULT:      -4.3     11.957     12.776
REMARK  0 active torsions:
REMARK  status: ('A' for Active; 'I' for Inactive)
ROOT
HETATM    1  C1  UNL     1     -34.844  13.664  -4.170  1.00 20.00     0.104 C 
HETATM    2  C2  UNL     1     -33.784  16.755  -2.391  1.00 20.00     0.107 A 
HETATM    3  C3  UNL     1     -36.085  15.544  -3.219  1.00 20.00     0.145 A 
HETATM    4  C4  UNL     1     -34.880  14.913  -3.483  1.00 20.00     0.100 A 
HETATM    5  C5  UNL     1     -33.712  15.537  -3.059  1.00 20.00     0.142 A 
HETATM    6  C6  UNL     1     -35.038  17.303  -2.176  1.00 20.00     0.212 A 
HETATM    7  N7  UNL     1     -34.813  12.646  -4.727  1.00 20.00    -0.191 NA
HETATM    8  N8  UNL     1     -36.195  16.727  -2.575  1.00 20.00    -0.231 NA
HETATM    9  F9  UNL     1     -32.515  14.977  -3.284  1.00 20.00    -0.204 F 
HETATM   10  F10 UNL     1     -35.122  18.478  -1.533  1.00 20.00    -0.184 F 
ENDROOT
TORSDOF 0
ENDMDL
MODEL 6
REMARK VINA RESULT:      -4.2     12.074     14.048
REMARK  0 active torsions:
REMARK  status: ('A' for Active; 'I' for Inactive)
ROOT
HETATM    1  C1  UNL     1     -34.628  13.798  -4.619  1.00 20.00     0.104 C 
HETATM    2  C2  UNL     1     -33.735  17.236  -3.512  1.00 20.00     0.107 A 
HETATM    3  C3  UNL     1     -34.033  15.835  -5.834  1.00 20.00     0.145 A 
HETATM    4  C4  UNL     1     -34.254  15.174  -4.637  1.00 20.00     0.100 A 
HETATM    5  C5  UNL     1     -34.100  15.895  -3.458  1.00 20.00     0.142 A 
HETATM    6  C6  UNL     1     -33.537  17.804  -4.759  1.00 20.00     0.212 A 
HETATM    7  N7  UNL     1     -34.933  12.679  -4.604  1.00 20.00    -0.191 NA
HETATM    8  N8  UNL     1     -33.677  17.136  -5.927  1.00 20.00    -0.231 NA
HETATM    9  F9  UNL     1     -34.300  15.312  -2.267  1.00 20.00    -0.204 F 
HETATM   10  F10 UNL     1     -33.185  19.097  -4.826  1.00 20.00    -0.184 F 
ENDROOT
TORSDOF 0
ENDMDL
MODEL 7
REMARK VINA RESULT:      -4.2      9.633     10.447
REMARK  0 active torsions:
REMARK  status: ('A' for Active; 'I' for Inactive)
ROOT
HETATM    1  C1  UNL     1     -42.016   3.179  -2.683  1.00 20.00     0.104 C 
HETATM    2  C2  UNL     1     -40.829   6.147  -0.780  1.00 20.00     0.107 A 
HETATM    3  C3  UNL     1     -42.764   5.506  -2.594  1.00 20.00     0.145 A 
HETATM    4  C4  UNL     1     -41.899   4.507  -2.178  1.00 20.00     0.100 A 
HETATM    5  C5  UNL     1     -40.915   4.842  -1.254  1.00 20.00     0.142 A 
HETATM    6  C6  UNL     1     -41.743   7.072  -1.260  1.00 20.00     0.212 A 
HETATM    7  N7  UNL     1     -42.112   2.097  -3.093  1.00 20.00    -0.191 NA
HETATM    8  N8  UNL     1     -42.711   6.784  -2.159  1.00 20.00    -0.231 NA
HETATM    9  F9  UNL     1     -40.047   3.921  -0.811  1.00 20.00    -0.204 F 
HETATM   10  F10 UNL     1     -41.671   8.335  -0.812  1.00 20.00    -0.184 F 
ENDROOT
TORSDOF 0
ENDMDL
MODEL 8
REMARK VINA RESULT:      -4.2     12.714     14.167
REMARK  0 active torsions:
REMARK  status: ('A' for Active; 'I' for Inactive)
ROOT
HETATM    1  C1  UNL     1     -34.569  13.786  -4.588  1.00 20.00     0.104 C 
HETATM    2  C2  UNL     1     -33.631  17.153  -5.862  1.00 20.00     0.107 A 
HETATM    3  C3  UNL     1     -34.075  15.908  -3.476  1.00 20.00     0.145 A 
HETATM    4  C4  UNL     1     -34.209  15.165  -4.638  1.00 20.00     0.100 A 
HETATM    5  C5  UNL     1     -33.982  15.807  -5.849  1.00 20.00     0.142 A 
HETATM    6  C6  UNL     1     -33.523  17.806  -4.645  1.00 20.00     0.212 A 
HETATM    7  N7  UNL     1     -34.861  12.664  -4.547  1.00 20.00    -0.191 NA
HETATM    8  N8  UNL     1     -33.737  17.216  -3.448  1.00 20.00    -0.231 NA
HETATM    9  F9  UNL     1     -34.095  15.143  -7.009  1.00 20.00    -0.204 F 
HETATM   10  F10 UNL     1     -33.186  19.105  -4.642  1.00 20.00    -0.184 F 
ENDROOT
TORSDOF 0
ENDMDL
MODEL 9
REMARK VINA RESULT:      -4.2     12.213     12.791
REMARK  0 active torsions:
REMARK  status: ('A' for Active; 'I' for Inactive)
ROOT
HETATM    1  C1  UNL     1     -34.731  16.193  -1.571  1.00 20.00     0.104 C 
HETATM    2  C2  UNL     1     -34.019  14.500  -4.806  1.00 20.00     0.107 A 
HETATM    3  C3  UNL     1     -36.169  15.375  -3.372  1.00 20.00     0.145 A 
HETATM    4  C4  UNL     1     -34.905  15.561  -2.837  1.00 20.00     0.100 A 
HETATM    5  C5  UNL     1     -33.815  15.112  -3.574  1.00 20.00     0.142 A 
HETATM    6  C6  UNL     1     -35.323  14.361  -5.252  1.00 20.00     0.212 A 
HETATM    7  N7  UNL     1     -34.590  16.709  -0.541  1.00 20.00    -0.191 NA
HETATM    8  N8  UNL     1     -36.408  14.784  -4.564  1.00 20.00    -0.231 NA
HETATM    9  F9  UNL     1     -32.565  15.263  -3.111  1.00 20.00    -0.204 F 
HETATM   10  F10 UNL     1     -35.536  13.773  -6.439  1.00 20.00    -0.184 F 
ENDROOT
TORSDOF 0
ENDMDL
