MODEL 1
REMARK VINA RESULT:      -4.9      0.000      0.000
REMARK  1 active torsions:
REMARK  status: ('A' for Active; 'I' for Inactive)
REMARK    1  A    between atoms: C3_3  and  C7_7 
ROOT
HETATM    1  C1  UNL     1     -34.588  15.257  -2.843  1.00 20.00     0.024 A 
HETATM    2  C2  UNL     1     -33.802  17.331  -3.704  1.00 20.00     0.131 A 
HETATM    3  C3  UNL     1     -34.202  16.574  -2.615  1.00 20.00     0.024 A 
HETATM    4  C4  UNL     1     -34.562  14.745  -4.136  1.00 20.00    -0.021 A 
HETATM    5  C5  UNL     1     -34.147  15.585  -5.157  1.00 20.00     0.131 A 
HETATM    6  C6  UNL     1     -34.977  13.335  -4.375  1.00 20.00     0.051 C 
HETATM    7  N8  UNL     1     -33.765  16.868  -4.974  1.00 20.00    -0.248 NA
HETATM    8 CL11 UNL     1     -34.073  15.068  -6.797  1.00 20.00    -0.062 Cl
ENDROOT
BRANCH   3   9
HETATM    9  C7  UNL     1     -34.221  17.151  -1.245  1.00 20.00     0.388 C 
HETATM   10  F9  UNL     1     -32.963  17.470  -0.832  1.00 20.00    -0.209 F 
HETATM   11  F10 UNL     1     -34.702  16.254  -0.343  1.00 20.00    -0.209 F 
ENDBRANCH   3   9
TORSDOF 1
ENDMDL
MODEL 2
REMARK VINA RESULT:      -4.9      3.045      4.013
REMARK  1 active torsions:
REMARK  status: ('A' for Active; 'I' for Inactive)
REMARK    1  A    between atoms: C3_3  and  C7_7 
ROOT
HETATM    1  C1  UNL     1     -34.481  15.136  -2.893  1.00 20.00     0.024 A 
HETATM    2  C2  UNL     1     -33.692  15.990  -4.969  1.00 20.00     0.131 A 
HETATM    3  C3  UNL     1     -34.185  14.923  -4.236  1.00 20.00     0.024 A 
HETATM    4  C4  UNL     1     -34.277  16.392  -2.333  1.00 20.00    -0.021 A 
HETATM    5  C5  UNL     1     -33.779  17.393  -3.152  1.00 20.00     0.131 A 
HETATM    6  C6  UNL     1     -34.595  16.615  -0.895  1.00 20.00     0.051 C 
HETATM    7  N8  UNL     1     -33.480  17.224  -4.459  1.00 20.00    -0.248 NA
HETATM    8 CL11 UNL     1     -33.483  18.987  -2.576  1.00 20.00    -0.062 Cl
ENDROOT
BRANCH   3   9
HETATM    9  C7  UNL     1     -34.391  13.590  -4.863  1.00 20.00     0.388 C 
HETATM   10  F9  UNL     1     -34.984  13.711  -6.082  1.00 20.00    -0.209 F 
HETATM   11  F10 UNL     1     -35.221  12.819  -4.111  1.00 20.00    -0.209 F 
ENDBRANCH   3   9
TORSDOF 1
ENDMDL
MODEL 3
REMARK VINA RESULT:      -4.6     11.778     12.538
REMARK  1 active torsions:
REMARK  status: ('A' for Active; 'I' for Inactive)
REMARK    1  A    between atoms: C3_3  and  C7_7 
ROOT
HETATM    1  C1  UNL     1     -33.077   7.034   4.591  1.00 20.00     0.024 A 
HETATM    2  C2  UNL     1     -33.531   5.786   2.617  1.00 20.00     0.131 A 
HETATM    3  C3  UNL     1     -32.878   6.845   3.227  1.00 20.00     0.024 A 
HETATM    4  C4  UNL     1     -33.911   6.170   5.292  1.00 20.00    -0.021 A 
HETATM    5  C5  UNL     1     -34.518   5.142   4.589  1.00 20.00     0.131 A 
HETATM    6  C6  UNL     1     -34.121   6.377   6.752  1.00 20.00     0.051 C 
HETATM    7  N8  UNL     1     -34.349   4.927   3.265  1.00 20.00    -0.248 NA
HETATM    8 CL11 UNL     1     -35.571   4.010   5.344  1.00 20.00    -0.062 Cl
ENDROOT
BRANCH   3   9
HETATM    9  C7  UNL     1     -31.994   7.752   2.449  1.00 20.00     0.388 C 
HETATM   10  F9  UNL     1     -30.968   8.211   3.217  1.00 20.00    -0.209 F 
HETATM   11  F10 UNL     1     -32.674   8.851   2.025  1.00 20.00    -0.209 F 
ENDBRANCH   3   9
TORSDOF 1
ENDMDL
MODEL 4
REMARK VINA RESULT:      -4.6      1.574      1.971
REMARK  1 active torsions:
REMARK  status: ('A' for Active; 'I' for Inactive)
REMARK    1  A    between atoms: C3_3  and  C7_7 
ROOT
HETATM    1  C1  UNL     1     -34.491  16.236  -1.471  1.00 20.00     0.024 A 
HETATM    2  C2  UNL     1     -33.848  18.485  -1.906  1.00 20.00     0.131 A 
HETATM    3  C3  UNL     1     -34.316  17.537  -1.010  1.00 20.00     0.024 A 
HETATM    4  C4  UNL     1     -34.195  15.927  -2.794  1.00 20.00    -0.021 A 
HETATM    5  C5  UNL     1     -33.732  16.948  -3.610  1.00 20.00     0.131 A 
HETATM    6  C6  UNL     1     -34.384  14.533  -3.283  1.00 20.00     0.051 C 
HETATM    7  N8  UNL     1     -33.550  18.222  -3.198  1.00 20.00    -0.248 NA
HETATM    8 CL11 UNL     1     -33.334  16.691  -5.264  1.00 20.00    -0.062 Cl
ENDROOT
BRANCH   3   9
HETATM    9  C7  UNL     1     -34.625  17.898   0.399  1.00 20.00     0.388 C 
HETATM   10  F9  UNL     1     -33.484  18.133   1.103  1.00 20.00    -0.209 F 
HETATM   11  F10 UNL     1     -35.263  16.880   1.035  1.00 20.00    -0.209 F 
ENDBRANCH   3   9
TORSDOF 1
ENDMDL
MODEL 5
REMARK VINA RESULT:      -4.5      3.007      4.031
REMARK  1 active torsions:
REMARK  status: ('A' for Active; 'I' for Inactive)
REMARK    1  A    between atoms: C3_3  and  C7_7 
ROOT
HETATM    1  C1  UNL     1     -34.363  15.370  -2.469  1.00 20.00     0.024 A 
HETATM    2  C2  UNL     1     -35.078  16.068  -4.627  1.00 20.00     0.131 A 
HETATM    3  C3  UNL     1     -34.508  15.094  -3.824  1.00 20.00     0.024 A 
HETATM    4  C4  UNL     1     -34.787  16.594  -1.965  1.00 20.00    -0.021 A 
HETATM    5  C5  UNL     1     -35.344  17.502  -2.852  1.00 20.00     0.131 A 
HETATM    6  C6  UNL     1     -34.630  16.885  -0.513  1.00 20.00     0.051 C 
HETATM    7  N8  UNL     1     -35.501  17.270  -4.174  1.00 20.00    -0.248 NA
HETATM    8 CL11 UNL     1     -35.904  19.049  -2.350  1.00 20.00    -0.062 Cl
ENDROOT
BRANCH   3   9
HETATM    9  C7  UNL     1     -34.063  13.794  -4.394  1.00 20.00     0.388 C 
HETATM   10  F9  UNL     1     -35.013  12.835  -4.221  1.00 20.00    -0.209 F 
HETATM   11  F10 UNL     1     -32.946  13.342  -3.763  1.00 20.00    -0.209 F 
ENDBRANCH   3   9
TORSDOF 1
ENDMDL
MODEL 6
REMARK VINA RESULT:      -4.4      1.472      1.499
REMARK  1 active torsions:
REMARK  status: ('A' for Active; 'I' for Inactive)
REMARK    1  A    between atoms: C3_3  and  C7_7 
ROOT
HETATM    1  C1  UNL     1     -34.248  15.509  -2.484  1.00 20.00     0.024 A 
HETATM    2  C2  UNL     1     -35.929  17.151  -2.858  1.00 20.00     0.131 A 
HETATM    3  C3  UNL     1     -34.910  16.657  -2.060  1.00 20.00     0.024 A 
HETATM    4  C4  UNL     1     -34.621  14.900  -3.678  1.00 20.00    -0.021 A 
HETATM    5  C5  UNL     1     -35.654  15.473  -4.403  1.00 20.00     0.131 A 
HETATM    6  C6  UNL     1     -33.910  13.671  -4.128  1.00 20.00     0.051 C 
HETATM    7  N8  UNL     1     -36.319  16.586  -4.023  1.00 20.00    -0.248 NA
HETATM    8 CL11 UNL     1     -36.205  14.812  -5.892  1.00 20.00    -0.062 Cl
ENDROOT
BRANCH   3   9
HETATM    9  C7  UNL     1     -34.536  17.331  -0.788  1.00 20.00     0.388 C 
HETATM   10  F9  UNL     1     -33.185  17.455  -0.681  1.00 20.00    -0.209 F 
HETATM   11  F10 UNL     1     -34.938  16.602   0.287  1.00 20.00    -0.209 F 
ENDBRANCH   3   9
TORSDOF 1
ENDMDL
MODEL 7
REMARK VINA RESULT:      -4.4     13.357     14.417
REMARK  1 active torsions:
REMARK  status: ('A' for Active; 'I' for Inactive)
REMARK    1  A    between atoms: C3_3  and  C7_7 
ROOT
HETATM    1  C1  UNL     1     -42.808   4.806  -3.072  1.00 20.00     0.024 A 
HETATM    2  C2  UNL     1     -41.021   3.955  -1.752  1.00 20.00     0.131 A 
HETATM    3  C3  UNL     1     -42.025   3.726  -2.680  1.00 20.00     0.024 A 
HETATM    4  C4  UNL     1     -42.566   6.065  -2.534  1.00 20.00    -0.021 A 
HETATM    5  C5  UNL     1     -41.538   6.189  -1.612  1.00 20.00     0.131 A 
HETATM    6  C6  UNL     1     -43.408   7.219  -2.957  1.00 20.00     0.051 C 
HETATM    7  N8  UNL     1     -40.757   5.163  -1.207  1.00 20.00    -0.248 NA
HETATM    8 CL11 UNL     1     -41.144   7.693  -0.875  1.00 20.00    -0.062 Cl
ENDROOT
BRANCH   3   9
HETATM    9  C7  UNL     1     -42.259   2.367  -3.237  1.00 20.00     0.388 C 
HETATM   10  F9  UNL     1     -42.811   1.546  -2.303  1.00 20.00    -0.209 F 
HETATM   11  F10 UNL     1     -41.089   1.785  -3.613  1.00 20.00    -0.209 F 
ENDBRANCH   3   9
TORSDOF 1
ENDMDL
MODEL 8
REMARK VINA RESULT:      -4.3     13.268     14.431
REMARK  1 active torsions:
REMARK  status: ('A' for Active; 'I' for Inactive)
REMARK    1  A    between atoms: C3_3  and  C7_7 
ROOT
HETATM    1  C1  UNL     1     -41.231   4.254  -1.651  1.00 20.00     0.024 A 
HETATM    2  C2  UNL     1     -43.027   4.539  -3.185  1.00 20.00     0.131 A 
HETATM    3  C3  UNL     1     -42.034   3.729  -2.658  1.00 20.00     0.024 A 
HETATM    4  C4  UNL     1     -41.444   5.554  -1.207  1.00 20.00    -0.021 A 
HETATM    5  C5  UNL     1     -42.463   6.283  -1.800  1.00 20.00     0.131 A 
HETATM    6  C6  UNL     1     -40.582   6.112  -0.128  1.00 20.00     0.051 C 
HETATM    7  N8  UNL     1     -43.263   5.807  -2.780  1.00 20.00    -0.248 NA
HETATM    8 CL11 UNL     1     -42.823   7.901  -1.338  1.00 20.00    -0.062 Cl
ENDROOT
BRANCH   3   9
HETATM    9  C7  UNL     1     -41.831   2.342  -3.155  1.00 20.00     0.388 C 
HETATM   10  F9  UNL     1     -40.669   2.241  -3.857  1.00 20.00    -0.209 F 
HETATM   11  F10 UNL     1     -42.825   1.978  -4.009  1.00 20.00    -0.209 F 
ENDBRANCH   3   9
TORSDOF 1
ENDMDL
MODEL 9
REMARK VINA RESULT:      -4.3      1.113      2.155
REMARK  1 active torsions:
REMARK  status: ('A' for Active; 'I' for Inactive)
REMARK    1  A    between atoms: C3_3  and  C7_7 
ROOT
HETATM    1  C1  UNL     1     -34.012  17.604  -3.741  1.00 20.00     0.024 A 
HETATM    2  C2  UNL     1     -34.430  15.363  -3.060  1.00 20.00     0.131 A 
HETATM    3  C3  UNL     1     -34.245  16.692  -2.716  1.00 20.00     0.024 A 
HETATM    4  C4  UNL     1     -33.975  17.164  -5.060  1.00 20.00    -0.021 A 
HETATM    5  C5  UNL     1     -34.172  15.813  -5.298  1.00 20.00     0.131 A 
HETATM    6  C6  UNL     1     -33.725  18.143  -6.154  1.00 20.00     0.051 C 
HETATM    7  N8  UNL     1     -34.400  14.899  -4.329  1.00 20.00    -0.248 NA
HETATM    8 CL11 UNL     1     -34.147  15.148  -6.885  1.00 20.00    -0.062 Cl
ENDROOT
BRANCH   3   9
HETATM    9  C7  UNL     1     -34.290  17.132  -1.296  1.00 20.00     0.388 C 
HETATM   10  F9  UNL     1     -33.046  17.450  -0.844  1.00 20.00    -0.209 F 
HETATM   11  F10 UNL     1     -34.744  16.134  -0.491  1.00 20.00    -0.209 F 
ENDBRANCH   3   9
TORSDOF 1
ENDMDL
