MODEL 1
REMARK VINA RESULT:      -5.2      0.000      0.000
REMARK  0 active torsions:
REMARK  status: ('A' for Active; 'I' for Inactive)
ROOT
HETATM    1  C1  UNL     1     -34.466  14.069  -5.424  1.00 20.00    -0.025 C 
HETATM    2  C2  UNL     1     -34.515  13.511  -4.205  1.00 20.00    -0.025 C 
HETATM    3  C3  UNL     1     -33.790  17.659  -4.254  1.00 20.00    -0.024 C 
HETATM    4  C4  UNL     1     -33.819  17.924  -2.945  1.00 20.00    -0.025 C 
HETATM    5  C5  UNL     1     -35.831  15.396  -4.123  1.00 20.00     0.018 C 
HETATM    6  C6  UNL     1     -34.804  15.534  -5.255  1.00 20.00     0.016 C 
HETATM    7  C7  UNL     1     -34.877  14.606  -3.221  1.00 20.00     0.014 C 
HETATM    8  C8  UNL     1     -33.605  16.204  -4.538  1.00 20.00     0.021 C 
HETATM    9  C9  UNL     1     -33.650  16.700  -2.096  1.00 20.00     0.009 C 
HETATM   10  C10 UNL     1     -33.634  15.536  -3.114  1.00 20.00     0.009 C 
HETATM   11  C11 UNL     1     -34.689  16.596  -0.990  1.00 20.00     0.014 C 
ENDROOT
TORSDOF 0
ENDMDL
MODEL 2
REMARK VINA RESULT:      -4.9      0.940      3.755
REMARK  0 active torsions:
REMARK  status: ('A' for Active; 'I' for Inactive)
ROOT
HETATM    1  C1  UNL     1     -33.962  16.755  -1.956  1.00 20.00    -0.025 C 
HETATM    2  C2  UNL     1     -33.833  17.564  -3.018  1.00 20.00    -0.025 C 
HETATM    3  C3  UNL     1     -34.743  13.552  -3.917  1.00 20.00    -0.024 C 
HETATM    4  C4  UNL     1     -34.913  13.634  -5.239  1.00 20.00    -0.025 C 
HETATM    5  C5  UNL     1     -35.770  16.363  -3.331  1.00 20.00     0.018 C 
HETATM    6  C6  UNL     1     -34.837  15.598  -2.383  1.00 20.00     0.016 C 
HETATM    7  C7  UNL     1     -34.617  16.942  -4.157  1.00 20.00     0.014 C 
HETATM    8  C8  UNL     1     -34.008  14.728  -3.361  1.00 20.00     0.021 C 
HETATM    9  C9  UNL     1     -34.318  14.877  -5.830  1.00 20.00     0.009 C 
HETATM   10  C10 UNL     1     -33.827  15.678  -4.602  1.00 20.00     0.009 C 
HETATM   11  C11 UNL     1     -35.274  15.610  -6.759  1.00 20.00     0.014 C 
ENDROOT
TORSDOF 0
ENDMDL
MODEL 3
REMARK VINA RESULT:      -4.8      1.287      3.056
REMARK  0 active torsions:
REMARK  status: ('A' for Active; 'I' for Inactive)
ROOT
HETATM    1  C1  UNL     1     -36.155  15.325  -7.214  1.00 20.00    -0.025 C 
HETATM    2  C2  UNL     1     -36.333  16.409  -6.445  1.00 20.00    -0.025 C 
HETATM    3  C3  UNL     1     -34.182  13.265  -4.650  1.00 20.00    -0.024 C 
HETATM    4  C4  UNL     1     -33.828  13.842  -3.499  1.00 20.00    -0.025 C 
HETATM    5  C5  UNL     1     -34.110  15.840  -6.283  1.00 20.00     0.018 C 
HETATM    6  C6  UNL     1     -34.929  14.609  -6.696  1.00 20.00     0.016 C 
HETATM    7  C7  UNL     1     -35.229  16.412  -5.406  1.00 20.00     0.014 C 
HETATM    8  C8  UNL     1     -35.303  13.984  -5.329  1.00 20.00     0.021 C 
HETATM    9  C9  UNL     1     -34.648  15.055  -3.176  1.00 20.00     0.009 C 
HETATM   10  C10 UNL     1     -35.542  15.248  -4.422  1.00 20.00     0.009 C 
HETATM   11  C11 UNL     1     -33.802  16.255  -2.777  1.00 20.00     0.014 C 
ENDROOT
TORSDOF 0
ENDMDL
MODEL 4
REMARK VINA RESULT:      -4.8      1.016      3.413
REMARK  0 active torsions:
REMARK  status: ('A' for Active; 'I' for Inactive)
ROOT
HETATM    1  C1  UNL     1     -34.238  17.300  -2.475  1.00 20.00    -0.025 C 
HETATM    2  C2  UNL     1     -34.768  16.152  -2.026  1.00 20.00    -0.025 C 
HETATM    3  C3  UNL     1     -34.154  16.341  -6.188  1.00 20.00    -0.024 C 
HETATM    4  C4  UNL     1     -34.483  15.095  -6.537  1.00 20.00    -0.025 C 
HETATM    5  C5  UNL     1     -33.053  15.579  -3.447  1.00 20.00     0.018 C 
HETATM    6  C6  UNL     1     -33.552  16.989  -3.787  1.00 20.00     0.016 C 
HETATM    7  C7  UNL     1     -34.443  15.077  -3.043  1.00 20.00     0.014 C 
HETATM    8  C8  UNL     1     -34.661  16.708  -4.831  1.00 20.00     0.021 C 
HETATM    9  C9  UNL     1     -35.285  14.386  -5.486  1.00 20.00     0.009 C 
HETATM   10  C10 UNL     1     -35.310  15.377  -4.300  1.00 20.00     0.009 C 
HETATM   11  C11 UNL     1     -34.756  12.994  -5.174  1.00 20.00     0.014 C 
ENDROOT
TORSDOF 0
ENDMDL
MODEL 5
REMARK VINA RESULT:      -4.7      0.927      2.397
REMARK  0 active torsions:
REMARK  status: ('A' for Active; 'I' for Inactive)
ROOT
HETATM    1  C1  UNL     1     -34.884  13.340  -4.486  1.00 20.00    -0.025 C 
HETATM    2  C2  UNL     1     -34.778  14.126  -5.568  1.00 20.00    -0.025 C 
HETATM    3  C3  UNL     1     -34.736  16.143  -1.871  1.00 20.00    -0.024 C 
HETATM    4  C4  UNL     1     -34.487  17.389  -2.280  1.00 20.00    -0.025 C 
HETATM    5  C5  UNL     1     -33.142  14.798  -4.097  1.00 20.00     0.018 C 
HETATM    6  C6  UNL     1     -34.266  14.092  -3.328  1.00 20.00     0.016 C 
HETATM    7  C7  UNL     1     -34.096  15.407  -5.130  1.00 20.00     0.014 C 
HETATM    8  C8  UNL     1     -35.218  15.263  -2.979  1.00 20.00     0.021 C 
HETATM    9  C9  UNL     1     -34.763  17.592  -3.739  1.00 20.00     0.009 C 
HETATM   10  C10 UNL     1     -35.124  16.180  -4.254  1.00 20.00     0.009 C 
HETATM   11  C11 UNL     1     -33.624  18.290  -4.468  1.00 20.00     0.014 C 
ENDROOT
TORSDOF 0
ENDMDL
MODEL 6
REMARK VINA RESULT:      -4.7      1.434      2.356
REMARK  0 active torsions:
REMARK  status: ('A' for Active; 'I' for Inactive)
ROOT
HETATM    1  C1  UNL     1     -34.402  13.198  -4.784  1.00 20.00    -0.025 C 
HETATM    2  C2  UNL     1     -33.690  13.774  -3.804  1.00 20.00    -0.025 C 
HETATM    3  C3  UNL     1     -34.864  16.348  -6.925  1.00 20.00    -0.024 C 
HETATM    4  C4  UNL     1     -34.442  17.519  -6.442  1.00 20.00    -0.025 C 
HETATM    5  C5  UNL     1     -35.501  15.138  -4.198  1.00 20.00     0.018 C 
HETATM    6  C6  UNL     1     -35.214  14.290  -5.444  1.00 20.00     0.016 C 
HETATM    7  C7  UNL     1     -34.021  15.254  -3.816  1.00 20.00     0.014 C 
HETATM    8  C8  UNL     1     -34.228  15.184  -6.236  1.00 20.00     0.021 C 
HETATM    9  C9  UNL     1     -33.434  17.370  -5.342  1.00 20.00     0.009 C 
HETATM   10  C10 UNL     1     -33.367  15.845  -5.097  1.00 20.00     0.009 C 
HETATM   11  C11 UNL     1     -33.755  18.222  -4.123  1.00 20.00     0.014 C 
ENDROOT
TORSDOF 0
ENDMDL
MODEL 7
REMARK VINA RESULT:      -4.6      1.750      3.557
REMARK  0 active torsions:
REMARK  status: ('A' for Active; 'I' for Inactive)
ROOT
HETATM    1  C1  UNL     1     -33.436  14.230  -3.758  1.00 20.00    -0.025 C 
HETATM    2  C2  UNL     1     -34.256  15.050  -3.083  1.00 20.00    -0.025 C 
HETATM    3  C3  UNL     1     -35.327  14.338  -7.094  1.00 20.00    -0.024 C 
HETATM    4  C4  UNL     1     -36.499  14.977  -7.147  1.00 20.00    -0.025 C 
HETATM    5  C5  UNL     1     -35.591  13.521  -4.167  1.00 20.00     0.018 C 
HETATM    6  C6  UNL     1     -34.241  13.628  -4.888  1.00 20.00     0.016 C 
HETATM    7  C7  UNL     1     -35.607  15.000  -3.769  1.00 20.00     0.014 C 
HETATM    8  C8  UNL     1     -34.502  14.754  -5.919  1.00 20.00     0.021 C 
HETATM    9  C9  UNL     1     -36.684  15.953  -6.024  1.00 20.00     0.009 C 
HETATM   10  C10 UNL     1     -35.442  15.738  -5.129  1.00 20.00     0.009 C 
HETATM   11  C11 UNL     1     -38.031  15.813  -5.331  1.00 20.00     0.014 C 
ENDROOT
TORSDOF 0
ENDMDL
MODEL 8
REMARK VINA RESULT:      -4.6      1.080      3.515
REMARK  0 active torsions:
REMARK  status: ('A' for Active; 'I' for Inactive)
ROOT
HETATM    1  C1  UNL     1     -35.551  17.846  -1.774  1.00 20.00    -0.025 C 
HETATM    2  C2  UNL     1     -34.843  16.919  -1.112  1.00 20.00    -0.025 C 
HETATM    3  C3  UNL     1     -35.982  15.854  -5.024  1.00 20.00    -0.024 C 
HETATM    4  C4  UNL     1     -35.343  14.688  -5.152  1.00 20.00    -0.025 C 
HETATM    5  C5  UNL     1     -33.891  17.116  -3.197  1.00 20.00     0.018 C 
HETATM    6  C6  UNL     1     -35.350  17.587  -3.251  1.00 20.00     0.016 C 
HETATM    7  C7  UNL     1     -34.175  16.036  -2.148  1.00 20.00     0.014 C 
HETATM    8  C8  UNL     1     -36.110  16.283  -3.598  1.00 20.00     0.021 C 
HETATM    9  C9  UNL     1     -34.926  14.102  -3.836  1.00 20.00     0.009 C 
HETATM   10  C10 UNL     1     -35.304  15.189  -2.804  1.00 20.00     0.009 C 
HETATM   11  C11 UNL     1     -33.473  13.652  -3.821  1.00 20.00     0.014 C 
ENDROOT
TORSDOF 0
ENDMDL
MODEL 9
REMARK VINA RESULT:      -4.5      1.861      3.050
REMARK  0 active torsions:
REMARK  status: ('A' for Active; 'I' for Inactive)
ROOT
HETATM    1  C1  UNL     1     -35.527  14.462  -7.742  1.00 20.00    -0.025 C 
HETATM    2  C2  UNL     1     -36.635  15.090  -7.323  1.00 20.00    -0.025 C 
HETATM    3  C3  UNL     1     -33.880  14.094  -4.297  1.00 20.00    -0.024 C 
HETATM    4  C4  UNL     1     -34.457  14.679  -3.244  1.00 20.00    -0.025 C 
HETATM    5  C5  UNL     1     -34.855  16.152  -6.326  1.00 20.00     0.018 C 
HETATM    6  C6  UNL     1     -34.451  14.723  -6.711  1.00 20.00     0.016 C 
HETATM    7  C7  UNL     1     -36.302  15.763  -6.006  1.00 20.00     0.014 C 
HETATM    8  C8  UNL     1     -34.825  13.917  -5.442  1.00 20.00     0.021 C 
HETATM    9  C9  UNL     1     -35.903  15.001  -3.473  1.00 20.00     0.009 C 
HETATM   10  C10 UNL     1     -36.142  14.627  -4.955  1.00 20.00     0.009 C 
HETATM   11  C11 UNL     1     -36.263  16.427  -3.085  1.00 20.00     0.014 C 
ENDROOT
TORSDOF 0
ENDMDL
