MODEL 1
REMARK VINA RESULT:      -4.2      0.000      0.000
REMARK  0 active torsions:
REMARK  status: ('A' for Active; 'I' for Inactive)
ROOT
HETATM    1  C1  UNL     1     -35.887  14.752  -4.879  1.00 20.00     0.108 C 
HETATM    2  C2  UNL     1     -35.244  13.611  -4.066  1.00 20.00     0.241 C 
HETATM    3  C3  UNL     1     -34.132  14.606  -3.649  1.00 20.00     0.321 C 
HETATM    4  C4  UNL     1     -34.527  15.500  -4.871  1.00 20.00     0.249 C 
HETATM    5  O5  UNL     1     -34.784  12.551  -4.866  1.00 20.00    -0.229 OA
HETATM    6  F6  UNL     1     -32.858  14.146  -3.660  1.00 20.00    -0.198 F 
HETATM    7  F7  UNL     1     -34.319  15.172  -2.433  1.00 20.00    -0.198 F 
HETATM    8  F8  UNL     1     -33.771  15.267  -5.977  1.00 20.00    -0.219 F 
HETATM    9 CL9  UNL     1     -34.598  17.258  -4.588  1.00 20.00    -0.076 Cl
ENDROOT
TORSDOF 0
ENDMDL
MODEL 2
REMARK VINA RESULT:      -4.2      1.424      2.544
REMARK  0 active torsions:
REMARK  status: ('A' for Active; 'I' for Inactive)
ROOT
HETATM    1  C1  UNL     1     -33.484  14.058  -3.858  1.00 20.00     0.108 C 
HETATM    2  C2  UNL     1     -34.323  13.241  -4.860  1.00 20.00     0.241 C 
HETATM    3  C3  UNL     1     -34.710  14.576  -5.545  1.00 20.00     0.321 C 
HETATM    4  C4  UNL     1     -34.304  15.323  -4.232  1.00 20.00     0.249 C 
HETATM    5  O5  UNL     1     -35.409  12.577  -4.263  1.00 20.00    -0.229 OA
HETATM    6  F6  UNL     1     -36.003  14.727  -5.916  1.00 20.00    -0.198 F 
HETATM    7  F7  UNL     1     -33.965  14.878  -6.636  1.00 20.00    -0.198 F 
HETATM    8  F8  UNL     1     -35.352  15.558  -3.398  1.00 20.00    -0.219 F 
HETATM    9 CL9  UNL     1     -33.376  16.833  -4.422  1.00 20.00    -0.076 Cl
ENDROOT
TORSDOF 0
ENDMDL
MODEL 3
REMARK VINA RESULT:      -4.1      1.483      1.528
REMARK  0 active torsions:
REMARK  status: ('A' for Active; 'I' for Inactive)
ROOT
HETATM    1  C1  UNL     1     -35.872  16.075  -4.589  1.00 20.00     0.108 C 
HETATM    2  C2  UNL     1     -36.199  15.090  -3.450  1.00 20.00     0.241 C 
HETATM    3  C3  UNL     1     -34.681  14.797  -3.338  1.00 20.00     0.321 C 
HETATM    4  C4  UNL     1     -34.505  15.365  -4.785  1.00 20.00     0.249 C 
HETATM    5  O5  UNL     1     -36.959  13.986  -3.872  1.00 20.00    -0.229 OA
HETATM    6  F6  UNL     1     -34.314  13.503  -3.180  1.00 20.00    -0.198 F 
HETATM    7  F7  UNL     1     -34.050  15.492  -2.361  1.00 20.00    -0.198 F 
HETATM    8  F8  UNL     1     -34.522  14.406  -5.749  1.00 20.00    -0.219 F 
HETATM    9 CL9  UNL     1     -33.100  16.428  -5.062  1.00 20.00    -0.076 Cl
ENDROOT
TORSDOF 0
ENDMDL
MODEL 4
REMARK VINA RESULT:      -4.1      2.595      3.042
REMARK  0 active torsions:
REMARK  status: ('A' for Active; 'I' for Inactive)
ROOT
HETATM    1  C1  UNL     1     -34.166  15.512  -5.609  1.00 20.00     0.108 C 
HETATM    2  C2  UNL     1     -33.110  16.357  -4.870  1.00 20.00     0.241 C 
HETATM    3  C3  UNL     1     -33.277  15.409  -3.656  1.00 20.00     0.321 C 
HETATM    4  C4  UNL     1     -34.658  14.966  -4.242  1.00 20.00     0.249 C 
HETATM    5  O5  UNL     1     -33.529  17.676  -4.621  1.00 20.00    -0.229 OA
HETATM    6  F6  UNL     1     -33.329  15.981  -2.430  1.00 20.00    -0.198 F 
HETATM    7  F7  UNL     1     -32.340  14.433  -3.579  1.00 20.00    -0.198 F 
HETATM    8  F8  UNL     1     -35.711  15.656  -3.726  1.00 20.00    -0.219 F 
HETATM    9 CL9  UNL     1     -35.033  13.224  -4.181  1.00 20.00    -0.076 Cl
ENDROOT
TORSDOF 0
ENDMDL
MODEL 5
REMARK VINA RESULT:      -4.0     12.593     13.323
REMARK  0 active torsions:
REMARK  status: ('A' for Active; 'I' for Inactive)
ROOT
HETATM    1  C1  UNL     1     -33.919   6.412   5.646  1.00 20.00     0.108 C 
HETATM    2  C2  UNL     1     -33.889   6.623   4.119  1.00 20.00     0.241 C 
HETATM    3  C3  UNL     1     -34.778   5.361   3.980  1.00 20.00     0.321 C 
HETATM    4  C4  UNL     1     -34.325   4.931   5.414  1.00 20.00     0.249 C 
HETATM    5  O5  UNL     1     -32.606   6.475   3.563  1.00 20.00    -0.229 OA
HETATM    6  F6  UNL     1     -34.463   4.491   2.992  1.00 20.00    -0.198 F 
HETATM    7  F7  UNL     1     -36.100   5.625   3.845  1.00 20.00    -0.198 F 
HETATM    8  F8  UNL     1     -33.271   4.071   5.413  1.00 20.00    -0.219 F 
HETATM    9 CL9  UNL     1     -35.587   4.285   6.494  1.00 20.00    -0.076 Cl
ENDROOT
TORSDOF 0
ENDMDL
MODEL 6
REMARK VINA RESULT:      -4.0      1.384      1.560
REMARK  0 active torsions:
REMARK  status: ('A' for Active; 'I' for Inactive)
ROOT
HETATM    1  C1  UNL     1     -34.541  14.248  -5.476  1.00 20.00     0.108 C 
HETATM    2  C2  UNL     1     -34.493  13.539  -4.109  1.00 20.00     0.241 C 
HETATM    3  C3  UNL     1     -34.940  14.873  -3.460  1.00 20.00     0.321 C 
HETATM    4  C4  UNL     1     -34.457  15.617  -4.748  1.00 20.00     0.249 C 
HETATM    5  O5  UNL     1     -33.198  13.136  -3.738  1.00 20.00    -0.229 OA
HETATM    6  F6  UNL     1     -34.317  15.241  -2.315  1.00 20.00    -0.198 F 
HETATM    7  F7  UNL     1     -36.269  14.952  -3.209  1.00 20.00    -0.198 F 
HETATM    8  F8  UNL     1     -33.191  16.104  -4.649  1.00 20.00    -0.219 F 
HETATM    9 CL9  UNL     1     -35.516  16.907  -5.374  1.00 20.00    -0.076 Cl
ENDROOT
TORSDOF 0
ENDMDL
MODEL 7
REMARK VINA RESULT:      -4.0      1.820      2.151
REMARK  0 active torsions:
REMARK  status: ('A' for Active; 'I' for Inactive)
ROOT
HETATM    1  C1  UNL     1     -35.199  14.282  -3.706  1.00 20.00     0.108 C 
HETATM    2  C2  UNL     1     -34.136  14.138  -4.812  1.00 20.00     0.241 C 
HETATM    3  C3  UNL     1     -33.337  15.271  -4.119  1.00 20.00     0.321 C 
HETATM    4  C4  UNL     1     -34.653  15.702  -3.392  1.00 20.00     0.249 C 
HETATM    5  O5  UNL     1     -34.613  14.483  -6.089  1.00 20.00    -0.229 OA
HETATM    6  F6  UNL     1     -32.786  16.214  -4.918  1.00 20.00    -0.198 F 
HETATM    7  F7  UNL     1     -32.343  14.834  -3.307  1.00 20.00    -0.198 F 
HETATM    8  F8  UNL     1     -35.323  16.697  -4.032  1.00 20.00    -0.219 F 
HETATM    9 CL9  UNL     1     -34.514  16.126  -1.666  1.00 20.00    -0.076 Cl
ENDROOT
TORSDOF 0
ENDMDL
MODEL 8
REMARK VINA RESULT:      -3.9      1.822      2.827
REMARK  0 active torsions:
REMARK  status: ('A' for Active; 'I' for Inactive)
ROOT
HETATM    1  C1  UNL     1     -34.889  13.470  -3.955  1.00 20.00     0.108 C 
HETATM    2  C2  UNL     1     -36.107  14.175  -4.584  1.00 20.00     0.241 C 
HETATM    3  C3  UNL     1     -35.292  15.493  -4.557  1.00 20.00     0.321 C 
HETATM    4  C4  UNL     1     -34.361  14.850  -3.477  1.00 20.00     0.249 C 
HETATM    5  O5  UNL     1     -37.234  14.191  -3.744  1.00 20.00    -0.229 OA
HETATM    6  F6  UNL     1     -35.943  16.613  -4.163  1.00 20.00    -0.198 F 
HETATM    7  F7  UNL     1     -34.690  15.799  -5.732  1.00 20.00    -0.198 F 
HETATM    8  F8  UNL     1     -34.719  15.158  -2.202  1.00 20.00    -0.219 F 
HETATM    9 CL9  UNL     1     -32.610  15.127  -3.660  1.00 20.00    -0.076 Cl
ENDROOT
TORSDOF 0
ENDMDL
MODEL 9
REMARK VINA RESULT:      -3.9      1.858      2.548
REMARK  0 active torsions:
REMARK  status: ('A' for Active; 'I' for Inactive)
ROOT
HETATM    1  C1  UNL     1     -34.954  14.865  -3.738  1.00 20.00     0.108 C 
HETATM    2  C2  UNL     1     -34.328  13.759  -4.609  1.00 20.00     0.241 C 
HETATM    3  C3  UNL     1     -34.822  14.535  -5.857  1.00 20.00     0.321 C 
HETATM    4  C4  UNL     1     -35.846  15.281  -4.939  1.00 20.00     0.249 C 
HETATM    5  O5  UNL     1     -34.943  12.506  -4.443  1.00 20.00    -0.229 OA
HETATM    6  F6  UNL     1     -35.370  13.807  -6.858  1.00 20.00    -0.198 F 
HETATM    7  F7  UNL     1     -33.880  15.321  -6.432  1.00 20.00    -0.198 F 
HETATM    8  F8  UNL     1     -37.079  14.707  -4.927  1.00 20.00    -0.219 F 
HETATM    9 CL9  UNL     1     -36.035  17.033  -5.208  1.00 20.00    -0.076 Cl
ENDROOT
TORSDOF 0
ENDMDL
