MODEL 1
REMARK VINA RESULT:      -5.4      0.000      0.000
REMARK  1 active torsions:
REMARK  status: ('A' for Active; 'I' for Inactive)
REMARK    1  A    between atoms: C3_3  and  C6_6 
ROOT
HETATM    1  C1  UNL     1     -33.754  17.483  -4.454  1.00 20.00    -0.025 C 
HETATM    2  C2  UNL     1     -33.695  17.456  -3.114  1.00 20.00    -0.026 C 
HETATM    3  C4  UNL     1     -34.078  16.283  -5.313  1.00 20.00     0.015 C 
HETATM    4  C5  UNL     1     -33.971  16.223  -2.288  1.00 20.00     0.008 C 
HETATM    5  C6  UNL     1     -34.121  14.981  -4.477  1.00 20.00     0.066 C 
HETATM    6  C7  UNL     1     -34.766  15.145  -3.078  1.00 20.00     0.000 C 
HETATM    7  C9  UNL     1     -35.328  16.571  -6.151  1.00 20.00     0.015 C 
HETATM    8  C10 UNL     1     -34.629  16.595  -0.956  1.00 20.00     0.014 C 
HETATM    9  C11 UNL     1     -36.275  15.425  -3.124  1.00 20.00     0.011 C 
ENDROOT
BRANCH   5  10
HETATM   10  C3  UNL     1     -34.674  13.807  -5.234  1.00 20.00     0.128 C 
HETATM   11  C8  UNL     1     -34.955  14.017  -6.698  1.00 20.00     0.091 C 
HETATM   12  O12 UNL     1     -34.885  12.726  -4.685  1.00 20.00    -0.298 OA
ENDBRANCH   5  10
TORSDOF 1
ENDMDL
MODEL 2
REMARK VINA RESULT:      -5.4      2.242      4.269
REMARK  1 active torsions:
REMARK  status: ('A' for Active; 'I' for Inactive)
REMARK    1  A    between atoms: C3_3  and  C6_6 
ROOT
HETATM    1  C1  UNL     1     -36.857  15.707  -3.867  1.00 20.00    -0.025 C 
HETATM    2  C2  UNL     1     -36.307  14.549  -4.265  1.00 20.00    -0.026 C 
HETATM    3  C4  UNL     1     -36.262  16.610  -2.812  1.00 20.00     0.015 C 
HETATM    4  C5  UNL     1     -35.005  14.011  -3.723  1.00 20.00     0.008 C 
HETATM    5  C6  UNL     1     -35.065  15.938  -2.097  1.00 20.00     0.066 C 
HETATM    6  C7  UNL     1     -34.149  15.112  -3.034  1.00 20.00     0.000 C 
HETATM    7  C9  UNL     1     -35.981  17.991  -3.414  1.00 20.00     0.015 C 
HETATM    8  C10 UNL     1     -34.238  13.248  -4.806  1.00 20.00     0.014 C 
HETATM    9  C11 UNL     1     -33.355  15.967  -4.031  1.00 20.00     0.011 C 
ENDROOT
BRANCH   5  10
HETATM   10  C3  UNL     1     -34.293  16.879  -1.217  1.00 20.00     0.128 C 
HETATM   11  C8  UNL     1     -34.913  17.229   0.109  1.00 20.00     0.091 C 
HETATM   12  O12 UNL     1     -33.206  17.341  -1.563  1.00 20.00    -0.298 OA
ENDBRANCH   5  10
TORSDOF 1
ENDMDL
MODEL 3
REMARK VINA RESULT:      -5.2      2.011      4.195
REMARK  1 active torsions:
REMARK  status: ('A' for Active; 'I' for Inactive)
REMARK    1  A    between atoms: C3_3  and  C6_6 
ROOT
HETATM    1  C1  UNL     1     -34.074  14.123  -3.597  1.00 20.00    -0.025 C 
HETATM    2  C2  UNL     1     -34.335  13.783  -4.869  1.00 20.00    -0.026 C 
HETATM    3  C4  UNL     1     -33.789  15.532  -3.136  1.00 20.00     0.015 C 
HETATM    4  C5  UNL     1     -34.400  14.777  -6.004  1.00 20.00     0.008 C 
HETATM    5  C6  UNL     1     -33.622  16.499  -4.334  1.00 20.00     0.066 C 
HETATM    6  C7  UNL     1     -34.603  16.236  -5.504  1.00 20.00     0.000 C 
HETATM    7  C9  UNL     1     -34.827  15.953  -2.089  1.00 20.00     0.015 C 
HETATM    8  C10 UNL     1     -35.441  14.351  -7.042  1.00 20.00     0.014 C 
HETATM    9  C11 UNL     1     -36.065  16.558  -5.167  1.00 20.00     0.011 C 
ENDROOT
BRANCH   5  10
HETATM   10  C3  UNL     1     -33.580  17.945  -3.929  1.00 20.00     0.128 C 
HETATM   11  C8  UNL     1     -33.541  18.958  -5.040  1.00 20.00     0.091 C 
HETATM   12  O12 UNL     1     -33.580  18.284  -2.746  1.00 20.00    -0.298 OA
ENDBRANCH   5  10
TORSDOF 1
ENDMDL
MODEL 4
REMARK VINA RESULT:      -5.1      1.142      2.553
REMARK  1 active torsions:
REMARK  status: ('A' for Active; 'I' for Inactive)
REMARK    1  A    between atoms: C3_3  and  C6_6 
ROOT
HETATM    1  C1  UNL     1     -34.055  16.112  -2.298  1.00 20.00    -0.025 C 
HETATM    2  C2  UNL     1     -34.673  17.253  -2.639  1.00 20.00    -0.026 C 
HETATM    3  C4  UNL     1     -34.093  14.848  -3.124  1.00 20.00     0.015 C 
HETATM    4  C5  UNL     1     -35.468  17.428  -3.910  1.00 20.00     0.008 C 
HETATM    5  C6  UNL     1     -35.101  14.962  -4.293  1.00 20.00     0.066 C 
HETATM    6  C7  UNL     1     -35.123  16.352  -4.979  1.00 20.00     0.000 C 
HETATM    7  C9  UNL     1     -32.668  14.445  -3.519  1.00 20.00     0.015 C 
HETATM    8  C10 UNL     1     -35.343  18.858  -4.440  1.00 20.00     0.014 C 
HETATM    9  C11 UNL     1     -33.843  16.672  -5.762  1.00 20.00     0.011 C 
ENDROOT
BRANCH   5  10
HETATM   10  C3  UNL     1     -34.999  13.833  -5.279  1.00 20.00     0.128 C 
HETATM   11  C8  UNL     1     -35.224  14.176  -6.726  1.00 20.00     0.091 C 
HETATM   12  O12 UNL     1     -34.742  12.685  -4.920  1.00 20.00    -0.298 OA
ENDBRANCH   5  10
TORSDOF 1
ENDMDL
MODEL 5
REMARK VINA RESULT:      -5.1      2.085      2.976
REMARK  1 active torsions:
REMARK  status: ('A' for Active; 'I' for Inactive)
REMARK    1  A    between atoms: C3_3  and  C6_6 
ROOT
HETATM    1  C1  UNL     1     -34.370  13.774  -4.726  1.00 20.00    -0.025 C 
HETATM    2  C2  UNL     1     -34.368  14.207  -3.456  1.00 20.00    -0.026 C 
HETATM    3  C4  UNL     1     -35.272  14.320  -5.808  1.00 20.00     0.015 C 
HETATM    4  C5  UNL     1     -35.256  15.318  -2.950  1.00 20.00     0.008 C 
HETATM    5  C6  UNL     1     -36.337  15.281  -5.228  1.00 20.00     0.066 C 
HETATM    6  C7  UNL     1     -35.812  16.205  -4.100  1.00 20.00     0.000 C 
HETATM    7  C9  UNL     1     -34.423  14.887  -6.951  1.00 20.00     0.015 C 
HETATM    8  C10 UNL     1     -34.549  16.127  -1.859  1.00 20.00     0.014 C 
HETATM    9  C11 UNL     1     -34.807  17.259  -4.585  1.00 20.00     0.011 C 
ENDROOT
BRANCH   5  10
HETATM   10  C3  UNL     1     -37.096  16.033  -6.283  1.00 20.00     0.128 C 
HETATM   11  C8  UNL     1     -37.986  15.221  -7.185  1.00 20.00     0.091 C 
HETATM   12  O12 UNL     1     -36.998  17.254  -6.404  1.00 20.00    -0.298 OA
ENDBRANCH   5  10
TORSDOF 1
ENDMDL
MODEL 6
REMARK VINA RESULT:      -5.0      1.335      3.069
REMARK  1 active torsions:
REMARK  status: ('A' for Active; 'I' for Inactive)
REMARK    1  A    between atoms: C3_3  and  C6_6 
ROOT
HETATM    1  C1  UNL     1     -36.647  16.339  -5.907  1.00 20.00    -0.025 C 
HETATM    2  C2  UNL     1     -35.741  17.255  -6.282  1.00 20.00    -0.026 C 
HETATM    3  C4  UNL     1     -36.301  15.018  -5.262  1.00 20.00     0.015 C 
HETATM    4  C5  UNL     1     -34.254  17.090  -6.084  1.00 20.00     0.008 C 
HETATM    5  C6  UNL     1     -34.776  14.757  -5.284  1.00 20.00     0.066 C 
HETATM    6  C7  UNL     1     -33.913  16.014  -5.014  1.00 20.00     0.000 C 
HETATM    7  C9  UNL     1     -36.967  14.925  -3.884  1.00 20.00     0.015 C 
HETATM    8  C10 UNL     1     -33.588  18.441  -5.808  1.00 20.00     0.014 C 
HETATM    9  C11 UNL     1     -34.023  16.540  -3.577  1.00 20.00     0.011 C 
ENDROOT
BRANCH   5  10
HETATM   10  C3  UNL     1     -34.362  13.581  -4.446  1.00 20.00     0.128 C 
HETATM   11  C8  UNL     1     -33.088  13.726  -3.659  1.00 20.00     0.091 C 
HETATM   12  O12 UNL     1     -35.033  12.550  -4.403  1.00 20.00    -0.298 OA
ENDBRANCH   5  10
TORSDOF 1
ENDMDL
MODEL 7
REMARK VINA RESULT:      -4.9      1.811      2.852
REMARK  1 active torsions:
REMARK  status: ('A' for Active; 'I' for Inactive)
REMARK    1  A    between atoms: C3_3  and  C6_6 
ROOT
HETATM    1  C1  UNL     1     -35.746  15.925  -2.910  1.00 20.00    -0.025 C 
HETATM    2  C2  UNL     1     -34.418  15.758  -2.817  1.00 20.00    -0.026 C 
HETATM    3  C4  UNL     1     -36.538  15.736  -4.182  1.00 20.00     0.015 C 
HETATM    4  C5  UNL     1     -33.545  15.333  -3.973  1.00 20.00     0.008 C 
HETATM    5  C6  UNL     1     -35.610  15.538  -5.405  1.00 20.00     0.066 C 
HETATM    6  C7  UNL     1     -34.359  14.669  -5.120  1.00 20.00     0.000 C 
HETATM    7  C9  UNL     1     -37.597  14.647  -3.974  1.00 20.00     0.015 C 
HETATM    8  C10 UNL     1     -32.380  14.466  -3.487  1.00 20.00     0.014 C 
HETATM    9  C11 UNL     1     -34.683  13.193  -4.851  1.00 20.00     0.011 C 
ENDROOT
BRANCH   5  10
HETATM   10  C3  UNL     1     -36.343  15.106  -6.643  1.00 20.00     0.128 C 
HETATM   11  C8  UNL     1     -35.515  14.495  -7.741  1.00 20.00     0.091 C 
HETATM   12  O12 UNL     1     -37.561  15.244  -6.753  1.00 20.00    -0.298 OA
ENDBRANCH   5  10
TORSDOF 1
ENDMDL
MODEL 8
REMARK VINA RESULT:      -4.9      2.134      3.980
REMARK  1 active torsions:
REMARK  status: ('A' for Active; 'I' for Inactive)
REMARK    1  A    between atoms: C3_3  and  C6_6 
ROOT
HETATM    1  C1  UNL     1     -35.377  16.632  -5.602  1.00 20.00    -0.025 C 
HETATM    2  C2  UNL     1     -35.541  15.300  -5.571  1.00 20.00    -0.026 C 
HETATM    3  C4  UNL     1     -34.948  17.462  -4.415  1.00 20.00     0.015 C 
HETATM    4  C5  UNL     1     -35.294  14.455  -4.344  1.00 20.00     0.008 C 
HETATM    5  C6  UNL     1     -34.932  16.625  -3.113  1.00 20.00     0.066 C 
HETATM    6  C7  UNL     1     -34.406  15.179  -3.293  1.00 20.00     0.000 C 
HETATM    7  C9  UNL     1     -33.644  18.198  -4.743  1.00 20.00     0.015 C 
HETATM    8  C10 UNL     1     -34.757  13.075  -4.733  1.00 20.00     0.014 C 
HETATM    9  C11 UNL     1     -32.908  15.104  -3.619  1.00 20.00     0.011 C 
ENDROOT
BRANCH   5  10
HETATM   10  C3  UNL     1     -34.284  17.335  -1.958  1.00 20.00     0.128 C 
HETATM   11  C8  UNL     1     -34.566  16.791  -0.584  1.00 20.00     0.091 C 
HETATM   12  O12 UNL     1     -33.556  18.313  -2.128  1.00 20.00    -0.298 OA
ENDBRANCH   5  10
TORSDOF 1
ENDMDL
MODEL 9
REMARK VINA RESULT:      -4.8      1.673      3.738
REMARK  1 active torsions:
REMARK  status: ('A' for Active; 'I' for Inactive)
REMARK    1  A    between atoms: C3_3  and  C6_6 
ROOT
HETATM    1  C1  UNL     1     -36.839  15.330  -5.980  1.00 20.00    -0.025 C 
HETATM    2  C2  UNL     1     -36.249  16.021  -6.967  1.00 20.00    -0.026 C 
HETATM    3  C4  UNL     1     -36.090  14.587  -4.899  1.00 20.00     0.015 C 
HETATM    4  C5  UNL     1     -34.753  16.165  -7.109  1.00 20.00     0.008 C 
HETATM    5  C6  UNL     1     -34.571  14.539  -5.190  1.00 20.00     0.066 C 
HETATM    6  C7  UNL     1     -33.998  15.849  -5.787  1.00 20.00     0.000 C 
HETATM    7  C9  UNL     1     -36.482  15.141  -3.524  1.00 20.00     0.015 C 
HETATM    8  C10 UNL     1     -34.390  17.532  -7.694  1.00 20.00     0.014 C 
HETATM    9  C11 UNL     1     -33.994  17.026  -4.801  1.00 20.00     0.011 C 
ENDROOT
BRANCH   5  10
HETATM   10  C3  UNL     1     -33.760  14.028  -4.034  1.00 20.00     0.128 C 
HETATM   11  C8  UNL     1     -32.510  14.793  -3.693  1.00 20.00     0.091 C 
HETATM   12  O12 UNL     1     -34.102  13.034  -3.395  1.00 20.00    -0.298 OA
ENDBRANCH   5  10
TORSDOF 1
ENDMDL
