MODEL 1
REMARK VINA RESULT:      -5.3      0.000      0.000
REMARK  0 active torsions:
REMARK  status: ('A' for Active; 'I' for Inactive)
ROOT
HETATM    1  C1  UNL     1     -35.318   4.607   5.750  1.00 20.00     0.002 C 
HETATM    2  C2  UNL     1     -35.267   4.639   4.408  1.00 20.00     0.028 C 
HETATM    3  C3  UNL     1     -34.401   5.363   6.586  1.00 20.00    -0.003 C 
HETATM    4  C4  UNL     1     -33.667   6.370   6.082  1.00 20.00    -0.012 C 
HETATM    5  C5  UNL     1     -32.600   7.060   3.861  1.00 20.00     0.007 C 
HETATM    6  C6  UNL     1     -32.562   6.254   2.795  1.00 20.00     0.114 C 
HETATM    7  C7  UNL     1     -34.223   5.525   3.855  1.00 20.00     0.045 C 
HETATM    8  C8  UNL     1     -33.825   6.762   4.650  1.00 20.00     0.084 C 
HETATM    9  N9  UNL     1     -33.557   5.314   2.760  1.00 20.00    -0.265 NA
ENDROOT
TORSDOF 0
ENDMDL
MODEL 2
REMARK VINA RESULT:      -5.0      1.400      3.538
REMARK  0 active torsions:
REMARK  status: ('A' for Active; 'I' for Inactive)
ROOT
HETATM    1  C1  UNL     1     -32.373   7.121   3.870  1.00 20.00     0.002 C 
HETATM    2  C2  UNL     1     -32.971   7.122   5.072  1.00 20.00     0.028 C 
HETATM    3  C3  UNL     1     -32.689   6.148   2.838  1.00 20.00    -0.003 C 
HETATM    4  C4  UNL     1     -33.805   5.401   2.904  1.00 20.00    -0.012 C 
HETATM    5  C5  UNL     1     -35.359   4.399   4.673  1.00 20.00     0.007 C 
HETATM    6  C6  UNL     1     -35.082   4.429   5.980  1.00 20.00     0.114 C 
HETATM    7  C7  UNL     1     -33.994   6.071   5.249  1.00 20.00     0.045 C 
HETATM    8  C8  UNL     1     -34.770   5.602   4.025  1.00 20.00     0.084 C 
HETATM    9  N9  UNL     1     -34.259   5.455   6.361  1.00 20.00    -0.265 NA
ENDROOT
TORSDOF 0
ENDMDL
MODEL 3
REMARK VINA RESULT:      -4.4      9.462     10.637
REMARK  0 active torsions:
REMARK  status: ('A' for Active; 'I' for Inactive)
ROOT
HETATM    1  C1  UNL     1     -41.191   7.114  -1.028  1.00 20.00     0.002 C 
HETATM    2  C2  UNL     1     -41.793   7.003  -2.224  1.00 20.00     0.028 C 
HETATM    3  C3  UNL     1     -40.991   5.978  -0.144  1.00 20.00    -0.003 C 
HETATM    4  C4  UNL     1     -41.104   4.716  -0.595  1.00 20.00    -0.012 C 
HETATM    5  C5  UNL     1     -42.381   3.411  -2.388  1.00 20.00     0.007 C 
HETATM    6  C6  UNL     1     -43.354   3.956  -3.125  1.00 20.00     0.114 C 
HETATM    7  C7  UNL     1     -42.209   5.630  -2.576  1.00 20.00     0.045 C 
HETATM    8  C8  UNL     1     -41.390   4.464  -2.038  1.00 20.00     0.084 C 
HETATM    9  N9  UNL     1     -43.261   5.315  -3.268  1.00 20.00    -0.265 NA
ENDROOT
TORSDOF 0
ENDMDL
MODEL 4
REMARK VINA RESULT:      -4.2      1.279      2.215
REMARK  0 active torsions:
REMARK  status: ('A' for Active; 'I' for Inactive)
ROOT
HETATM    1  C1  UNL     1     -35.102   5.302   5.499  1.00 20.00     0.002 C 
HETATM    2  C2  UNL     1     -33.948   5.889   5.857  1.00 20.00     0.028 C 
HETATM    3  C3  UNL     1     -35.512   5.164   4.112  1.00 20.00    -0.003 C 
HETATM    4  C4  UNL     1     -34.634   5.324   3.107  1.00 20.00    -0.012 C 
HETATM    5  C5  UNL     1     -32.490   6.626   2.601  1.00 20.00     0.007 C 
HETATM    6  C6  UNL     1     -32.002   7.563   3.420  1.00 20.00     0.114 C 
HETATM    7  C7  UNL     1     -33.121   6.357   4.727  1.00 20.00     0.045 C 
HETATM    8  C8  UNL     1     -33.198   5.597   3.409  1.00 20.00     0.084 C 
HETATM    9  N9  UNL     1     -32.362   7.410   4.733  1.00 20.00    -0.265 NA
ENDROOT
TORSDOF 0
ENDMDL
MODEL 5
REMARK VINA RESULT:      -4.2     11.967     13.434
REMARK  0 active torsions:
REMARK  status: ('A' for Active; 'I' for Inactive)
ROOT
HETATM    1  C1  UNL     1     -34.445  13.362  -4.793  1.00 20.00     0.002 C 
HETATM    2  C2  UNL     1     -33.907  13.867  -3.671  1.00 20.00     0.028 C 
HETATM    3  C3  UNL     1     -34.821  14.192  -5.924  1.00 20.00    -0.003 C 
HETATM    4  C4  UNL     1     -34.368  15.453  -6.044  1.00 20.00    -0.012 C 
HETATM    5  C5  UNL     1     -33.634  17.393  -4.546  1.00 20.00     0.007 C 
HETATM    6  C6  UNL     1     -33.774  17.375  -3.217  1.00 20.00     0.114 C 
HETATM    7  C7  UNL     1     -33.705  15.330  -3.693  1.00 20.00     0.045 C 
HETATM    8  C8  UNL     1     -33.421  16.003  -5.030  1.00 20.00     0.084 C 
HETATM    9  N9  UNL     1     -33.805  16.121  -2.668  1.00 20.00    -0.265 NA
ENDROOT
TORSDOF 0
ENDMDL
MODEL 6
REMARK VINA RESULT:      -4.2     11.925     13.424
REMARK  0 active torsions:
REMARK  status: ('A' for Active; 'I' for Inactive)
ROOT
HETATM    1  C1  UNL     1     -33.663  17.658  -4.546  1.00 20.00     0.002 C 
HETATM    2  C2  UNL     1     -33.660  16.744  -5.530  1.00 20.00     0.028 C 
HETATM    3  C3  UNL     1     -33.885  17.308  -3.154  1.00 20.00    -0.003 C 
HETATM    4  C4  UNL     1     -33.784  16.036  -2.730  1.00 20.00    -0.012 C 
HETATM    5  C5  UNL     1     -34.114  13.666  -3.636  1.00 20.00     0.007 C 
HETATM    6  C6  UNL     1     -34.648  13.417  -4.836  1.00 20.00     0.114 C 
HETATM    7  C7  UNL     1     -33.873  15.355  -5.078  1.00 20.00     0.045 C 
HETATM    8  C8  UNL     1     -33.387  14.962  -3.688  1.00 20.00     0.084 C 
HETATM    9  N9  UNL     1     -34.499  14.432  -5.743  1.00 20.00    -0.265 NA
ENDROOT
TORSDOF 0
ENDMDL
MODEL 7
REMARK VINA RESULT:      -4.2     12.234     13.598
REMARK  0 active torsions:
REMARK  status: ('A' for Active; 'I' for Inactive)
ROOT
HETATM    1  C1  UNL     1     -33.651  13.747  -3.654  1.00 20.00     0.002 C 
HETATM    2  C2  UNL     1     -34.569  13.440  -4.585  1.00 20.00     0.028 C 
HETATM    3  C3  UNL     1     -32.850  14.958  -3.714  1.00 20.00    -0.003 C 
HETATM    4  C4  UNL     1     -33.193  15.981  -4.515  1.00 20.00    -0.012 C 
HETATM    5  C5  UNL     1     -34.404  16.377  -6.734  1.00 20.00     0.007 C 
HETATM    6  C6  UNL     1     -34.787  15.380  -7.538  1.00 20.00     0.114 C 
HETATM    7  C7  UNL     1     -34.714  14.444  -5.658  1.00 20.00     0.045 C 
HETATM    8  C8  UNL     1     -34.446  15.906  -5.324  1.00 20.00     0.084 C 
HETATM    9  N9  UNL     1     -34.998  14.187  -6.899  1.00 20.00    -0.265 NA
ENDROOT
TORSDOF 0
ENDMDL
MODEL 8
REMARK VINA RESULT:      -4.1     12.460     13.897
REMARK  0 active torsions:
REMARK  status: ('A' for Active; 'I' for Inactive)
ROOT
HETATM    1  C1  UNL     1     -33.675  13.781  -3.789  1.00 20.00     0.002 C 
HETATM    2  C2  UNL     1     -33.020  14.952  -3.743  1.00 20.00     0.028 C 
HETATM    3  C3  UNL     1     -34.720  13.507  -4.761  1.00 20.00    -0.003 C 
HETATM    4  C4  UNL     1     -34.872  14.272  -5.855  1.00 20.00    -0.012 C 
HETATM    5  C5  UNL     1     -34.479  16.691  -6.592  1.00 20.00     0.007 C 
HETATM    6  C6  UNL     1     -34.122  17.658  -5.741  1.00 20.00     0.114 C 
HETATM    7  C7  UNL     1     -33.429  15.925  -4.775  1.00 20.00     0.045 C 
HETATM    8  C8  UNL     1     -33.924  15.396  -6.115  1.00 20.00     0.084 C 
HETATM    9  N9  UNL     1     -33.462  17.215  -4.626  1.00 20.00    -0.265 NA
ENDROOT
TORSDOF 0
ENDMDL
MODEL 9
REMARK VINA RESULT:      -4.1     11.876     12.671
REMARK  0 active torsions:
REMARK  status: ('A' for Active; 'I' for Inactive)
ROOT
HETATM    1  C1  UNL     1     -33.608  13.745  -3.961  1.00 20.00     0.002 C 
HETATM    2  C2  UNL     1     -34.942  13.596  -3.945  1.00 20.00     0.028 C 
HETATM    3  C3  UNL     1     -32.956  14.994  -3.609  1.00 20.00    -0.003 C 
HETATM    4  C4  UNL     1     -33.615  15.963  -2.950  1.00 20.00    -0.012 C 
HETATM    5  C5  UNL     1     -36.002  16.852  -2.702  1.00 20.00     0.007 C 
HETATM    6  C6  UNL     1     -37.016  16.423  -3.459  1.00 20.00     0.114 C 
HETATM    7  C7  UNL     1     -35.689  14.795  -3.515  1.00 20.00     0.045 C 
HETATM    8  C8  UNL     1     -35.028  15.742  -2.521  1.00 20.00     0.084 C 
HETATM    9  N9  UNL     1     -36.855  15.157  -3.957  1.00 20.00    -0.265 NA
ENDROOT
TORSDOF 0
ENDMDL
