MODEL 1
REMARK VINA RESULT:      -5.8      0.000      0.000
REMARK  2 active torsions:
REMARK  status: ('A' for Active; 'I' for Inactive)
REMARK    1  A    between atoms: C6_6  and  C7_7 
REMARK    2  A    between atoms: C7_7  and  N8_8 
ROOT
HETATM    1  C1  UNL     1     -32.084   7.742   2.574  1.00 20.00     0.332 C 
HETATM    2  N8  UNL     1     -32.085   6.961   3.453  1.00 20.00    -0.247 NA
HETATM    3  O9  UNL     1     -32.083   8.524   1.695  1.00 20.00    -0.260 OA
ENDROOT
BRANCH   2   4
HETATM    4  C7  UNL     1     -33.047   5.874   3.296  1.00 20.00     0.161 C 
BRANCH   4   5
HETATM    5  C6  UNL     1     -34.288   6.195   4.118  1.00 20.00     0.028 C 
HETATM    6  C3  UNL     1     -33.953   6.440   5.557  1.00 20.00    -0.024 C 
HETATM    7  C2  UNL     1     -34.351   5.437   6.344  1.00 20.00    -0.030 C 
HETATM    8  C4  UNL     1     -35.015   4.352   5.566  1.00 20.00     0.027 C 
HETATM    9  C5  UNL     1     -35.262   5.010   4.207  1.00 20.00     0.014 C 
ENDBRANCH   4   5
ENDBRANCH   2   4
TORSDOF 2
ENDMDL
MODEL 2
REMARK VINA RESULT:      -4.1      0.966      1.660
REMARK  2 active torsions:
REMARK  status: ('A' for Active; 'I' for Inactive)
REMARK    1  A    between atoms: C6_6  and  C7_7 
REMARK    2  A    between atoms: C7_7  and  N8_8 
ROOT
HETATM    1  C1  UNL     1     -32.125   8.457   1.855  1.00 20.00     0.332 C 
HETATM    2  N8  UNL     1     -32.078   7.568   2.625  1.00 20.00    -0.247 NA
HETATM    3  O9  UNL     1     -32.171   9.345   1.086  1.00 20.00    -0.260 OA
ENDROOT
BRANCH   2   4
HETATM    4  C7  UNL     1     -33.321   7.332   3.353  1.00 20.00     0.161 C 
BRANCH   4   5
HETATM    5  C6  UNL     1     -33.344   5.884   3.827  1.00 20.00     0.028 C 
HETATM    6  C3  UNL     1     -34.593   5.179   3.396  1.00 20.00    -0.024 C 
HETATM    7  C2  UNL     1     -35.426   4.961   4.417  1.00 20.00    -0.030 C 
HETATM    8  C4  UNL     1     -34.877   5.486   5.701  1.00 20.00     0.027 C 
HETATM    9  C5  UNL     1     -33.412   5.764   5.357  1.00 20.00     0.014 C 
ENDBRANCH   4   5
ENDBRANCH   2   4
TORSDOF 2
ENDMDL
MODEL 3
REMARK VINA RESULT:      -4.1     11.596     12.353
REMARK  2 active torsions:
REMARK  status: ('A' for Active; 'I' for Inactive)
REMARK    1  A    between atoms: C6_6  and  C7_7 
REMARK    2  A    between atoms: C7_7  and  N8_8 
ROOT
HETATM    1  C1  UNL     1     -35.392  13.780  -4.353  1.00 20.00     0.332 C 
HETATM    2  N8  UNL     1     -35.715  14.911  -4.391  1.00 20.00    -0.247 NA
HETATM    3  O9  UNL     1     -35.069  12.650  -4.315  1.00 20.00    -0.260 OA
ENDROOT
BRANCH   2   4
HETATM    4  C7  UNL     1     -35.899  15.533  -3.083  1.00 20.00     0.161 C 
BRANCH   4   5
HETATM    5  C6  UNL     1     -34.532  15.754  -2.448  1.00 20.00     0.028 C 
HETATM    6  C3  UNL     1     -34.643  16.412  -1.108  1.00 20.00    -0.024 C 
HETATM    7  C2  UNL     1     -34.236  17.684  -1.137  1.00 20.00    -0.030 C 
HETATM    8  C4  UNL     1     -33.788  18.091  -2.500  1.00 20.00     0.027 C 
HETATM    9  C5  UNL     1     -33.669  16.754  -3.233  1.00 20.00     0.014 C 
ENDBRANCH   4   5
ENDBRANCH   2   4
TORSDOF 2
ENDMDL
MODEL 4
REMARK VINA RESULT:      -4.0     11.700     12.303
REMARK  2 active torsions:
REMARK  status: ('A' for Active; 'I' for Inactive)
REMARK    1  A    between atoms: C6_6  and  C7_7 
REMARK    2  A    between atoms: C7_7  and  N8_8 
ROOT
HETATM    1  C1  UNL     1     -34.427  13.627  -4.849  1.00 20.00     0.332 C 
HETATM    2  N8  UNL     1     -34.054  14.728  -5.031  1.00 20.00    -0.247 NA
HETATM    3  O9  UNL     1     -34.800  12.526  -4.667  1.00 20.00    -0.260 OA
ENDROOT
BRANCH   2   4
HETATM    4  C7  UNL     1     -33.476  15.374  -3.856  1.00 20.00     0.161 C 
BRANCH   4   5
HETATM    5  C6  UNL     1     -34.445  16.437  -3.354  1.00 20.00     0.028 C 
HETATM    6  C3  UNL     1     -33.727  17.657  -2.867  1.00 20.00    -0.024 C 
HETATM    7  C2  UNL     1     -33.764  17.764  -1.536  1.00 20.00    -0.030 C 
HETATM    8  C4  UNL     1     -34.510  16.634  -0.909  1.00 20.00     0.027 C 
HETATM    9  C5  UNL     1     -35.217  15.990  -2.103  1.00 20.00     0.014 C 
ENDBRANCH   4   5
ENDBRANCH   2   4
TORSDOF 2
ENDMDL
MODEL 5
REMARK VINA RESULT:      -3.8     11.278     12.257
REMARK  2 active torsions:
REMARK  status: ('A' for Active; 'I' for Inactive)
REMARK    1  A    between atoms: C6_6  and  C7_7 
REMARK    2  A    between atoms: C7_7  and  N8_8 
ROOT
HETATM    1  C1  UNL     1     -34.476  16.573  -1.129  1.00 20.00     0.332 C 
HETATM    2  N8  UNL     1     -34.569  15.797  -2.008  1.00 20.00    -0.247 NA
HETATM    3  O9  UNL     1     -34.383  17.350  -0.251  1.00 20.00    -0.260 OA
ENDROOT
BRANCH   2   4
HETATM    4  C7  UNL     1     -34.329  16.354  -3.336  1.00 20.00     0.161 C 
BRANCH   4   5
HETATM    5  C6  UNL     1     -33.644  15.297  -4.194  1.00 20.00     0.028 C 
HETATM    6  C3  UNL     1     -34.244  15.221  -5.564  1.00 20.00    -0.024 C 
HETATM    7  C2  UNL     1     -34.971  14.113  -5.735  1.00 20.00    -0.030 C 
HETATM    8  C4  UNL     1     -34.983  13.265  -4.508  1.00 20.00     0.027 C 
HETATM    9  C5  UNL     1     -33.862  13.872  -3.663  1.00 20.00     0.014 C 
ENDBRANCH   4   5
ENDBRANCH   2   4
TORSDOF 2
ENDMDL
MODEL 6
REMARK VINA RESULT:      -3.7     11.588     12.552
REMARK  2 active torsions:
REMARK  status: ('A' for Active; 'I' for Inactive)
REMARK    1  A    between atoms: C6_6  and  C7_7 
REMARK    2  A    between atoms: C7_7  and  N8_8 
ROOT
HETATM    1  C1  UNL     1     -38.689  14.811  -3.824  1.00 20.00     0.332 C 
HETATM    2  N8  UNL     1     -37.655  14.250  -3.794  1.00 20.00    -0.247 NA
HETATM    3  O9  UNL     1     -39.722  15.372  -3.855  1.00 20.00    -0.260 OA
ENDROOT
BRANCH   2   4
HETATM    4  C7  UNL     1     -36.502  15.116  -3.568  1.00 20.00     0.161 C 
BRANCH   4   5
HETATM    5  C6  UNL     1     -35.424  14.773  -4.588  1.00 20.00     0.028 C 
HETATM    6  C3  UNL     1     -34.766  13.463  -4.280  1.00 20.00    -0.024 C 
HETATM    7  C2  UNL     1     -33.521  13.621  -3.821  1.00 20.00    -0.030 C 
HETATM    8  C4  UNL     1     -33.139  15.061  -3.740  1.00 20.00     0.027 C 
HETATM    9  C5  UNL     1     -34.239  15.751  -4.549  1.00 20.00     0.014 C 
ENDBRANCH   4   5
ENDBRANCH   2   4
TORSDOF 2
ENDMDL
MODEL 7
REMARK VINA RESULT:      -3.7     11.661     12.587
REMARK  2 active torsions:
REMARK  status: ('A' for Active; 'I' for Inactive)
REMARK    1  A    between atoms: C6_6  and  C7_7 
REMARK    2  A    between atoms: C7_7  and  N8_8 
ROOT
HETATM    1  C1  UNL     1     -34.422  16.566  -1.206  1.00 20.00     0.332 C 
HETATM    2  N8  UNL     1     -34.031  16.341  -2.292  1.00 20.00    -0.247 NA
HETATM    3  O9  UNL     1     -34.813  16.791  -0.119  1.00 20.00    -0.260 OA
ENDROOT
BRANCH   2   4
HETATM    4  C7  UNL     1     -34.617  15.157  -2.914  1.00 20.00     0.161 C 
BRANCH   4   5
HETATM    5  C6  UNL     1     -33.731  14.723  -4.075  1.00 20.00     0.028 C 
HETATM    6  C3  UNL     1     -33.540  15.826  -5.069  1.00 20.00    -0.024 C 
HETATM    7  C2  UNL     1     -34.210  15.603  -6.203  1.00 20.00    -0.030 C 
HETATM    8  C4  UNL     1     -34.965  14.317  -6.157  1.00 20.00     0.027 C 
HETATM    9  C5  UNL     1     -34.374  13.620  -4.930  1.00 20.00     0.014 C 
ENDBRANCH   4   5
ENDBRANCH   2   4
TORSDOF 2
ENDMDL
MODEL 8
REMARK VINA RESULT:      -3.7     11.085     13.036
REMARK  2 active torsions:
REMARK  status: ('A' for Active; 'I' for Inactive)
REMARK    1  A    between atoms: C6_6  and  C7_7 
REMARK    2  A    between atoms: C7_7  and  N8_8 
ROOT
HETATM    1  C1  UNL     1     -33.319  13.904  -3.624  1.00 20.00     0.332 C 
HETATM    2  N8  UNL     1     -34.306  13.289  -3.793  1.00 20.00    -0.247 NA
HETATM    3  O9  UNL     1     -32.331  14.520  -3.454  1.00 20.00    -0.260 OA
ENDROOT
BRANCH   2   4
HETATM    4  C7  UNL     1     -34.737  13.207  -5.186  1.00 20.00     0.161 C 
BRANCH   4   5
HETATM    5  C6  UNL     1     -34.913  14.619  -5.729  1.00 20.00     0.028 C 
HETATM    6  C3  UNL     1     -36.334  15.080  -5.627  1.00 20.00    -0.024 C 
HETATM    7  C2  UNL     1     -36.935  15.126  -6.819  1.00 20.00    -0.030 C 
HETATM    8  C4  UNL     1     -36.020  14.702  -7.917  1.00 20.00     0.027 C 
HETATM    9  C5  UNL     1     -34.649  14.709  -7.240  1.00 20.00     0.014 C 
ENDBRANCH   4   5
ENDBRANCH   2   4
TORSDOF 2
ENDMDL
MODEL 9
REMARK VINA RESULT:      -3.7     11.762     12.445
REMARK  2 active torsions:
REMARK  status: ('A' for Active; 'I' for Inactive)
REMARK    1  A    between atoms: C6_6  and  C7_7 
REMARK    2  A    between atoms: C7_7  and  N8_8 
ROOT
HETATM    1  C1  UNL     1     -38.349  14.914  -3.921  1.00 20.00     0.332 C 
HETATM    2  N8  UNL     1     -37.448  14.170  -3.781  1.00 20.00    -0.247 NA
HETATM    3  O9  UNL     1     -39.249  15.657  -4.062  1.00 20.00    -0.260 OA
ENDROOT
BRANCH   2   4
HETATM    4  C7  UNL     1     -36.190  14.626  -4.364  1.00 20.00     0.161 C 
BRANCH   4   5
HETATM    5  C6  UNL     1     -35.069  14.387  -3.360  1.00 20.00     0.028 C 
HETATM    6  C3  UNL     1     -34.830  15.589  -2.499  1.00 20.00    -0.024 C 
HETATM    7  C2  UNL     1     -33.689  16.211  -2.809  1.00 20.00    -0.030 C 
HETATM    8  C4  UNL     1     -32.976  15.535  -3.930  1.00 20.00     0.027 C 
HETATM    9  C5  UNL     1     -33.702  14.192  -4.035  1.00 20.00     0.014 C 
ENDBRANCH   4   5
ENDBRANCH   2   4
TORSDOF 2
ENDMDL
