MODEL 1
REMARK VINA RESULT:      -4.7      0.000      0.000
REMARK  0 active torsions:
REMARK  status: ('A' for Active; 'I' for Inactive)
ROOT
HETATM    1  C1  UNL     1     -35.225   4.048   5.564  1.00 20.00     0.002 C 
HETATM    2  C2  UNL     1     -35.184   4.397   4.269  1.00 20.00     0.030 C 
HETATM    3  C3  UNL     1     -34.455   4.739   6.585  1.00 20.00    -0.001 C 
HETATM    4  C4  UNL     1     -33.906   5.943   6.349  1.00 20.00     0.006 C 
HETATM    5  C5  UNL     1     -34.321   5.550   3.980  1.00 20.00     0.066 C 
HETATM    6  C6  UNL     1     -32.837   6.843   3.285  1.00 20.00     0.219 C 
HETATM    7  C7  UNL     1     -34.121   6.611   5.032  1.00 20.00     0.186 C 
HETATM    8  N8  UNL     1     -33.628   5.783   2.921  1.00 20.00    -0.221 NA
HETATM    9  N9  UNL     1     -32.961   7.336   4.483  1.00 20.00    -0.245 NA
HETATM   10 CL10 UNL     1     -31.672   7.428   2.195  1.00 20.00    -0.041 Cl
ENDROOT
TORSDOF 0
ENDMDL
MODEL 2
REMARK VINA RESULT:      -4.5     12.440     13.643
REMARK  0 active torsions:
REMARK  status: ('A' for Active; 'I' for Inactive)
ROOT
HETATM    1  C1  UNL     1     -34.540  14.756  -6.592  1.00 20.00     0.002 C 
HETATM    2  C2  UNL     1     -34.501  14.130  -5.405  1.00 20.00     0.030 C 
HETATM    3  C3  UNL     1     -34.320  16.186  -6.730  1.00 20.00    -0.001 C 
HETATM    4  C4  UNL     1     -33.766  16.905  -5.738  1.00 20.00     0.006 C 
HETATM    5  C5  UNL     1     -34.188  15.007  -4.269  1.00 20.00     0.066 C 
HETATM    6  C6  UNL     1     -34.214  16.109  -2.497  1.00 20.00     0.219 C 
HETATM    7  C7  UNL     1     -33.326  16.224  -4.485  1.00 20.00     0.186 C 
HETATM    8  N8  UNL     1     -34.603  14.917  -3.054  1.00 20.00    -0.221 NA
HETATM    9  N9  UNL     1     -33.568  16.965  -3.234  1.00 20.00    -0.245 NA
HETATM   10 CL10 UNL     1     -34.653  16.463  -0.894  1.00 20.00    -0.041 Cl
ENDROOT
TORSDOF 0
ENDMDL
MODEL 3
REMARK VINA RESULT:      -4.4      9.751     10.826
REMARK  0 active torsions:
REMARK  status: ('A' for Active; 'I' for Inactive)
ROOT
HETATM    1  C1  UNL     1     -41.172   7.270  -0.855  1.00 20.00     0.002 C 
HETATM    2  C2  UNL     1     -40.776   6.022  -0.555  1.00 20.00     0.030 C 
HETATM    3  C3  UNL     1     -42.096   7.557  -1.940  1.00 20.00    -0.001 C 
HETATM    4  C4  UNL     1     -42.840   6.586  -2.498  1.00 20.00     0.006 C 
HETATM    5  C5  UNL     1     -41.379   4.978  -1.395  1.00 20.00     0.066 C 
HETATM    6  C6  UNL     1     -41.744   3.410  -2.723  1.00 20.00     0.219 C 
HETATM    7  C7  UNL     1     -42.754   5.192  -1.974  1.00 20.00     0.186 C 
HETATM    8  N8  UNL     1     -40.862   3.863  -1.774  1.00 20.00    -0.221 NA
HETATM    9  N9  UNL     1     -42.801   4.122  -2.987  1.00 20.00    -0.245 NA
HETATM   10 CL10 UNL     1     -41.394   1.982  -3.574  1.00 20.00    -0.041 Cl
ENDROOT
TORSDOF 0
ENDMDL
MODEL 4
REMARK VINA RESULT:      -4.4      0.805      2.061
REMARK  0 active torsions:
REMARK  status: ('A' for Active; 'I' for Inactive)
ROOT
HETATM    1  C1  UNL     1     -34.710   5.566   6.315  1.00 20.00     0.002 C 
HETATM    2  C2  UNL     1     -33.608   6.320   6.181  1.00 20.00     0.030 C 
HETATM    3  C3  UNL     1     -35.383   4.954   5.181  1.00 20.00    -0.001 C 
HETATM    4  C4  UNL     1     -34.777   4.848   3.986  1.00 20.00     0.006 C 
HETATM    5  C5  UNL     1     -33.127   6.447   4.798  1.00 20.00     0.066 C 
HETATM    6  C6  UNL     1     -32.542   7.128   2.914  1.00 20.00     0.219 C 
HETATM    7  C7  UNL     1     -33.374   5.327   3.820  1.00 20.00     0.186 C 
HETATM    8  N8  UNL     1     -32.535   7.448   4.248  1.00 20.00    -0.221 NA
HETATM    9  N9  UNL     1     -33.071   5.998   2.543  1.00 20.00    -0.245 NA
HETATM   10 CL10 UNL     1     -31.933   8.241   1.785  1.00 20.00    -0.041 Cl
ENDROOT
TORSDOF 0
ENDMDL
MODEL 5
REMARK VINA RESULT:      -4.2     11.971     12.892
REMARK  0 active torsions:
REMARK  status: ('A' for Active; 'I' for Inactive)
ROOT
HETATM    1  C1  UNL     1     -33.147  15.184  -3.704  1.00 20.00     0.002 C 
HETATM    2  C2  UNL     1     -34.089  16.134  -3.812  1.00 20.00     0.030 C 
HETATM    3  C3  UNL     1     -33.467  13.766  -3.660  1.00 20.00    -0.001 C 
HETATM    4  C4  UNL     1     -34.677  13.313  -4.032  1.00 20.00     0.006 C 
HETATM    5  C5  UNL     1     -35.461  15.617  -3.911  1.00 20.00     0.066 C 
HETATM    6  C6  UNL     1     -37.472  15.144  -3.611  1.00 20.00     0.219 C 
HETATM    7  C7  UNL     1     -35.704  14.269  -4.540  1.00 20.00     0.186 C 
HETATM    8  N8  UNL     1     -36.547  16.149  -3.473  1.00 20.00    -0.221 NA
HETATM    9  N9  UNL     1     -37.091  14.006  -4.116  1.00 20.00    -0.245 NA
HETATM   10 CL10 UNL     1     -39.058  15.386  -3.052  1.00 20.00    -0.041 Cl
ENDROOT
TORSDOF 0
ENDMDL
MODEL 6
REMARK VINA RESULT:      -4.2     12.132     13.265
REMARK  0 active torsions:
REMARK  status: ('A' for Active; 'I' for Inactive)
ROOT
HETATM    1  C1  UNL     1     -34.470  14.703  -6.228  1.00 20.00     0.002 C 
HETATM    2  C2  UNL     1     -34.224  15.968  -5.852  1.00 20.00     0.030 C 
HETATM    3  C3  UNL     1     -34.852  13.667  -5.283  1.00 20.00    -0.001 C 
HETATM    4  C4  UNL     1     -35.279  13.975  -4.046  1.00 20.00     0.006 C 
HETATM    5  C5  UNL     1     -34.404  16.218  -4.416  1.00 20.00     0.066 C 
HETATM    6  C6  UNL     1     -34.156  16.688  -2.397  1.00 20.00     0.219 C 
HETATM    7  C7  UNL     1     -35.407  15.405  -3.639  1.00 20.00     0.186 C 
HETATM    8  N8  UNL     1     -33.763  17.042  -3.663  1.00 20.00    -0.221 NA
HETATM    9  N9  UNL     1     -35.010  15.716  -2.254  1.00 20.00    -0.245 NA
HETATM   10 CL10 UNL     1     -33.463  17.471  -1.058  1.00 20.00    -0.041 Cl
ENDROOT
TORSDOF 0
ENDMDL
MODEL 7
REMARK VINA RESULT:      -4.2     12.724     13.665
REMARK  0 active torsions:
REMARK  status: ('A' for Active; 'I' for Inactive)
ROOT
HETATM    1  C1  UNL     1     -34.750  13.404  -4.160  1.00 20.00     0.002 C 
HETATM    2  C2  UNL     1     -35.518  14.328  -4.759  1.00 20.00     0.030 C 
HETATM    3  C3  UNL     1     -33.374  13.665  -3.768  1.00 20.00    -0.001 C 
HETATM    4  C4  UNL     1     -32.895  14.920  -3.700  1.00 20.00     0.006 C 
HETATM    5  C5  UNL     1     -34.860  15.626  -4.956  1.00 20.00     0.066 C 
HETATM    6  C6  UNL     1     -34.004  17.363  -5.735  1.00 20.00     0.219 C 
HETATM    7  C7  UNL     1     -33.795  16.075  -3.989  1.00 20.00     0.186 C 
HETATM    8  N8  UNL     1     -35.029  16.469  -5.913  1.00 20.00    -0.221 NA
HETATM    9  N9  UNL     1     -33.187  17.190  -4.736  1.00 20.00    -0.245 NA
HETATM   10 CL10 UNL     1     -33.784  18.617  -6.860  1.00 20.00    -0.041 Cl
ENDROOT
TORSDOF 0
ENDMDL
MODEL 8
REMARK VINA RESULT:      -4.2     10.226     11.024
REMARK  0 active torsions:
REMARK  status: ('A' for Active; 'I' for Inactive)
ROOT
HETATM    1  C1  UNL     1     -41.606   3.774  -1.962  1.00 20.00     0.002 C 
HETATM    2  C2  UNL     1     -42.571   4.234  -2.774  1.00 20.00     0.030 C 
HETATM    3  C3  UNL     1     -40.759   4.656  -1.175  1.00 20.00    -0.001 C 
HETATM    4  C4  UNL     1     -41.088   5.944  -0.978  1.00 20.00     0.006 C 
HETATM    5  C5  UNL     1     -42.714   5.696  -2.775  1.00 20.00     0.066 C 
HETATM    6  C6  UNL     1     -42.793   7.721  -3.275  1.00 20.00     0.219 C 
HETATM    7  C7  UNL     1     -42.365   6.478  -1.535  1.00 20.00     0.186 C 
HETATM    8  N8  UNL     1     -43.068   6.462  -3.747  1.00 20.00    -0.221 NA
HETATM    9  N9  UNL     1     -42.307   7.849  -2.075  1.00 20.00    -0.245 NA
HETATM   10 CL10 UNL     1     -43.022   9.062  -4.293  1.00 20.00    -0.041 Cl
ENDROOT
TORSDOF 0
ENDMDL
MODEL 9
REMARK VINA RESULT:      -4.1     12.497     13.115
REMARK  0 active torsions:
REMARK  status: ('A' for Active; 'I' for Inactive)
ROOT
HETATM    1  C1  UNL     1     -33.084  18.948   2.780  1.00 20.00     0.002 C 
HETATM    2  C2  UNL     1     -34.257  18.494   2.313  1.00 20.00     0.030 C 
HETATM    3  C3  UNL     1     -31.886  19.010   1.959  1.00 20.00    -0.001 C 
HETATM    4  C4  UNL     1     -31.953  18.911   0.620  1.00 20.00     0.006 C 
HETATM    5  C5  UNL     1     -34.232  18.095   0.899  1.00 20.00     0.066 C 
HETATM    6  C6  UNL     1     -34.315  17.066  -0.914  1.00 20.00     0.219 C 
HETATM    7  C7  UNL     1     -33.280  18.779  -0.049  1.00 20.00     0.186 C 
HETATM    8  N8  UNL     1     -34.903  17.162   0.321  1.00 20.00    -0.221 NA
HETATM    9  N9  UNL     1     -33.328  17.864  -1.204  1.00 20.00    -0.245 NA
HETATM   10 CL10 UNL     1     -34.837  15.864  -1.996  1.00 20.00    -0.041 Cl
ENDROOT
TORSDOF 0
ENDMDL
