MODEL 1
REMARK VINA RESULT:      -4.9      0.000      0.000
REMARK  0 active torsions:
REMARK  status: ('A' for Active; 'I' for Inactive)
ROOT
HETATM    1  C1  UNL     1     -34.924   4.186   5.917  1.00 20.00     0.011 A 
HETATM    2  C2  UNL     1     -34.507   5.619   6.261  1.00 20.00     0.011 A 
HETATM    3  C3  UNL     1     -35.495   5.678   3.737  1.00 20.00     0.027 A 
HETATM    4  C4  UNL     1     -34.020   5.267   3.604  1.00 20.00     0.067 A 
HETATM    5  C5  UNL     1     -34.725   5.197   4.881  1.00 20.00    -0.026 A 
HETATM    6 BR6  UNL     1     -32.742   6.652   3.320  1.00 20.00    -0.090 Br
ENDROOT
TORSDOF 0
ENDMDL
MODEL 2
REMARK VINA RESULT:      -3.9      1.092      1.648
REMARK  0 active torsions:
REMARK  status: ('A' for Active; 'I' for Inactive)
ROOT
HETATM    1  C1  UNL     1     -35.395   4.374   6.002  1.00 20.00     0.011 A 
HETATM    2  C2  UNL     1     -33.949   3.913   5.800  1.00 20.00     0.011 A 
HETATM    3  C3  UNL     1     -33.870   6.600   6.155  1.00 20.00     0.027 A 
HETATM    4  C4  UNL     1     -34.164   6.379   4.663  1.00 20.00     0.067 A 
HETATM    5  C5  UNL     1     -34.334   5.313   5.645  1.00 20.00    -0.026 A 
HETATM    6 BR6  UNL     1     -32.677   6.321   3.471  1.00 20.00    -0.090 Br
ENDROOT
TORSDOF 0
ENDMDL
MODEL 3
REMARK VINA RESULT:      -3.9      2.037      3.049
REMARK  0 active torsions:
REMARK  status: ('A' for Active; 'I' for Inactive)
ROOT
HETATM    1  C1  UNL     1     -32.670   7.084   3.074  1.00 20.00     0.011 A 
HETATM    2  C2  UNL     1     -32.232   5.632   3.290  1.00 20.00     0.011 A 
HETATM    3  C3  UNL     1     -34.942   5.629   3.233  1.00 20.00     0.027 A 
HETATM    4  C4  UNL     1     -34.550   5.977   4.678  1.00 20.00     0.067 A 
HETATM    5  C5  UNL     1     -33.594   6.070   3.579  1.00 20.00    -0.026 A 
HETATM    6 BR6  UNL     1     -34.403   4.539   5.921  1.00 20.00    -0.090 Br
ENDROOT
TORSDOF 0
ENDMDL
MODEL 4
REMARK VINA RESULT:      -3.8      1.539      2.665
REMARK  0 active torsions:
REMARK  status: ('A' for Active; 'I' for Inactive)
ROOT
HETATM    1  C1  UNL     1     -35.493   5.264   3.749  1.00 20.00     0.011 A 
HETATM    2  C2  UNL     1     -34.047   5.750   3.614  1.00 20.00     0.011 A 
HETATM    3  C3  UNL     1     -34.221   4.469   5.998  1.00 20.00     0.027 A 
HETATM    4  C4  UNL     1     -34.695   5.908   6.255  1.00 20.00     0.067 A 
HETATM    5  C5  UNL     1     -34.604   5.359   4.905  1.00 20.00    -0.026 A 
HETATM    6 BR6  UNL     1     -33.393   7.174   6.836  1.00 20.00    -0.090 Br
ENDROOT
TORSDOF 0
ENDMDL
MODEL 5
REMARK VINA RESULT:      -3.4      1.931      2.674
REMARK  0 active torsions:
REMARK  status: ('A' for Active; 'I' for Inactive)
ROOT
HETATM    1  C1  UNL     1     -33.874   6.142   5.063  1.00 20.00     0.011 A 
HETATM    2  C2  UNL     1     -34.601   6.412   3.743  1.00 20.00     0.011 A 
HETATM    3  C3  UNL     1     -32.063   5.702   3.106  1.00 20.00     0.027 A 
HETATM    4  C4  UNL     1     -32.018   7.209   3.405  1.00 20.00     0.067 A 
HETATM    5  C5  UNL     1     -33.144   6.377   3.820  1.00 20.00    -0.026 A 
HETATM    6 BR6  UNL     1     -32.235   8.405   1.937  1.00 20.00    -0.090 Br
ENDROOT
TORSDOF 0
ENDMDL
MODEL 6
REMARK VINA RESULT:      -3.4      3.498      4.742
REMARK  0 active torsions:
REMARK  status: ('A' for Active; 'I' for Inactive)
ROOT
HETATM    1  C1  UNL     1     -31.712   8.516   1.087  1.00 20.00     0.011 A 
HETATM    2  C2  UNL     1     -32.806   9.155   1.948  1.00 20.00     0.011 A 
HETATM    3  C3  UNL     1     -31.358   7.551   3.587  1.00 20.00     0.027 A 
HETATM    4  C4  UNL     1     -32.399   6.641   2.916  1.00 20.00     0.067 A 
HETATM    5  C5  UNL     1     -32.084   7.965   2.389  1.00 20.00    -0.026 A 
HETATM    6 BR6  UNL     1     -34.051   6.371   3.828  1.00 20.00    -0.090 Br
ENDROOT
TORSDOF 0
ENDMDL
MODEL 7
REMARK VINA RESULT:      -3.2     13.004     13.406
REMARK  0 active torsions:
REMARK  status: ('A' for Active; 'I' for Inactive)
ROOT
HETATM    1  C1  UNL     1     -33.974  16.584  -1.886  1.00 20.00     0.011 A 
HETATM    2  C2  UNL     1     -35.095  15.767  -2.535  1.00 20.00     0.011 A 
HETATM    3  C3  UNL     1     -32.767  14.898  -3.620  1.00 20.00     0.027 A 
HETATM    4  C4  UNL     1     -33.178  16.134  -4.435  1.00 20.00     0.067 A 
HETATM    5  C5  UNL     1     -33.764  15.846  -3.129  1.00 20.00    -0.026 A 
HETATM    6 BR6  UNL     1     -34.218  15.847  -6.007  1.00 20.00    -0.090 Br
ENDROOT
TORSDOF 0
ENDMDL
MODEL 8
REMARK VINA RESULT:      -3.1     12.491     12.940
REMARK  0 active torsions:
REMARK  status: ('A' for Active; 'I' for Inactive)
ROOT
HETATM    1  C1  UNL     1     -34.755  16.930  -0.249  1.00 20.00     0.011 A 
HETATM    2  C2  UNL     1     -33.613  17.547  -1.061  1.00 20.00     0.011 A 
HETATM    3  C3  UNL     1     -35.503  16.768  -2.841  1.00 20.00     0.027 A 
HETATM    4  C4  UNL     1     -34.648  15.522  -2.560  1.00 20.00     0.067 A 
HETATM    5  C5  UNL     1     -34.616  16.690  -1.684  1.00 20.00    -0.026 A 
HETATM    6 BR6  UNL     1     -33.173  15.186  -3.719  1.00 20.00    -0.090 Br
ENDROOT
TORSDOF 0
ENDMDL
MODEL 9
REMARK VINA RESULT:      -3.1      9.001      9.484
REMARK  0 active torsions:
REMARK  status: ('A' for Active; 'I' for Inactive)
ROOT
HETATM    1  C1  UNL     1     -40.927   7.210  -0.795  1.00 20.00     0.011 A 
HETATM    2  C2  UNL     1     -42.288   6.886  -1.418  1.00 20.00     0.011 A 
HETATM    3  C3  UNL     1     -41.616   4.767   0.133  1.00 20.00     0.027 A 
HETATM    4  C4  UNL     1     -40.926   4.536  -1.221  1.00 20.00     0.067 A 
HETATM    5  C5  UNL     1     -41.447   5.845  -0.838  1.00 20.00    -0.026 A 
HETATM    6 BR6  UNL     1     -41.863   3.505  -2.522  1.00 20.00    -0.090 Br
ENDROOT
TORSDOF 0
ENDMDL
