MODEL 1
REMARK VINA RESULT:      -5.3      0.000      0.000
REMARK  2 active torsions:
REMARK  status: ('A' for Active; 'I' for Inactive)
REMARK    1  A    between atoms: C5_5  and  C6_6 
REMARK    2  A    between atoms: C7_7  and  O8_8 
ROOT
HETATM    1  C3  UNL     1     -34.078   6.356   6.300  1.00 20.00     0.010 C 
HETATM    2  C4  UNL     1     -35.048   5.205   6.627  1.00 20.00     0.032 C 
HETATM    3  C6  UNL     1     -33.764   5.631   4.965  1.00 20.00     0.018 C 
HETATM    4  C7  UNL     1     -35.160   4.951   5.106  1.00 20.00     0.122 C 
ENDROOT
BRANCH   3   5
HETATM    5  C5  UNL     1     -33.467   6.451   3.731  1.00 20.00    -0.008 A 
HETATM    6  C1  UNL     1     -32.113   7.034   3.435  1.00 20.00     0.005 A 
HETATM    7  C2  UNL     1     -32.660   5.931   2.572  1.00 20.00     0.005 A 
ENDBRANCH   3   5
BRANCH   4   8
HETATM    8  O8  UNL     1     -35.246   3.578   4.687  1.00 20.00    -0.395 OA
HETATM    9  H20 UNL     1     -36.189   3.390   4.591  1.00 20.00     0.210 HD
ENDBRANCH   4   8
TORSDOF 2
ENDMDL
MODEL 2
REMARK VINA RESULT:      -5.0      1.563      2.197
REMARK  2 active torsions:
REMARK  status: ('A' for Active; 'I' for Inactive)
REMARK    1  A    between atoms: C5_5  and  C6_6 
REMARK    2  A    between atoms: C7_7  and  O8_8 
ROOT
HETATM    1  C3  UNL     1     -34.759   5.208   3.381  1.00 20.00     0.010 C 
HETATM    2  C4  UNL     1     -35.290   5.017   4.815  1.00 20.00     0.032 C 
HETATM    3  C6  UNL     1     -33.858   6.344   3.931  1.00 20.00     0.018 C 
HETATM    4  C7  UNL     1     -33.970   5.643   5.319  1.00 20.00     0.122 C 
ENDROOT
BRANCH   3   5
HETATM    5  C5  UNL     1     -32.490   6.560   3.325  1.00 20.00    -0.008 A 
HETATM    6  C1  UNL     1     -32.172   7.697   2.393  1.00 20.00     0.005 A 
HETATM    7  C2  UNL     1     -31.560   7.658   3.766  1.00 20.00     0.005 A 
ENDBRANCH   3   5
BRANCH   4   8
HETATM    8  O8  UNL     1     -34.064   6.508   6.465  1.00 20.00    -0.395 OA
HETATM    9  H20 UNL     1     -34.437   7.338   6.140  1.00 20.00     0.210 HD
ENDBRANCH   4   8
TORSDOF 2
ENDMDL
MODEL 3
REMARK VINA RESULT:      -4.2     12.242     12.758
REMARK  2 active torsions:
REMARK  status: ('A' for Active; 'I' for Inactive)
REMARK    1  A    between atoms: C5_5  and  C6_6 
REMARK    2  A    between atoms: C7_7  and  O8_8 
ROOT
HETATM    1  C3  UNL     1     -35.339  14.352  -3.689  1.00 20.00     0.010 C 
HETATM    2  C4  UNL     1     -34.164  13.778  -4.504  1.00 20.00     0.032 C 
HETATM    3  C6  UNL     1     -34.290  15.055  -2.788  1.00 20.00     0.018 C 
HETATM    4  C7  UNL     1     -33.316  14.969  -4.003  1.00 20.00     0.122 C 
ENDROOT
BRANCH   3   5
HETATM    5  C5  UNL     1     -34.613  16.410  -2.199  1.00 20.00    -0.008 A 
HETATM    6  C1  UNL     1     -34.758  16.651  -0.722  1.00 20.00     0.005 A 
HETATM    7  C2  UNL     1     -33.600  17.251  -1.470  1.00 20.00     0.005 A 
ENDBRANCH   3   5
BRANCH   4   8
HETATM    8  O8  UNL     1     -31.938  14.696  -3.697  1.00 20.00    -0.395 OA
HETATM    9  H20 UNL     1     -31.887  14.638  -2.734  1.00 20.00     0.210 HD
ENDBRANCH   4   8
TORSDOF 2
ENDMDL
MODEL 4
REMARK VINA RESULT:      -4.0      2.126      3.986
REMARK  2 active torsions:
REMARK  status: ('A' for Active; 'I' for Inactive)
REMARK    1  A    between atoms: C5_5  and  C6_6 
REMARK    2  A    between atoms: C7_7  and  O8_8 
ROOT
HETATM    1  C3  UNL     1     -33.717   5.376   2.797  1.00 20.00     0.010 C 
HETATM    2  C4  UNL     1     -32.545   6.144   2.155  1.00 20.00     0.032 C 
HETATM    3  C6  UNL     1     -33.261   5.947   4.165  1.00 20.00     0.018 C 
HETATM    4  C7  UNL     1     -32.598   7.107   3.362  1.00 20.00     0.122 C 
ENDROOT
BRANCH   3   5
HETATM    5  C5  UNL     1     -34.301   6.277   5.211  1.00 20.00    -0.008 A 
HETATM    6  C1  UNL     1     -34.661   5.348   6.338  1.00 20.00     0.005 A 
HETATM    7  C2  UNL     1     -33.954   6.644   6.628  1.00 20.00     0.005 A 
ENDBRANCH   3   5
BRANCH   4   8
HETATM    8  O8  UNL     1     -31.336   7.587   3.859  1.00 20.00    -0.395 OA
HETATM    9  H20 UNL     1     -31.159   7.081   4.663  1.00 20.00     0.210 HD
ENDBRANCH   4   8
TORSDOF 2
ENDMDL
MODEL 5
REMARK VINA RESULT:      -4.0     12.187     13.085
REMARK  2 active torsions:
REMARK  status: ('A' for Active; 'I' for Inactive)
REMARK    1  A    between atoms: C5_5  and  C6_6 
REMARK    2  A    between atoms: C7_7  and  O8_8 
ROOT
HETATM    1  C3  UNL     1     -34.354  15.761  -5.404  1.00 20.00     0.010 C 
HETATM    2  C4  UNL     1     -34.638  14.359  -5.979  1.00 20.00     0.032 C 
HETATM    3  C6  UNL     1     -34.693  15.188  -4.003  1.00 20.00     0.018 C 
HETATM    4  C7  UNL     1     -34.315  13.789  -4.580  1.00 20.00     0.122 C 
ENDROOT
BRANCH   3   5
HETATM    5  C5  UNL     1     -33.951  15.709  -2.794  1.00 20.00    -0.008 A 
HETATM    6  C1  UNL     1     -33.891  17.167  -2.430  1.00 20.00     0.005 A 
HETATM    7  C2  UNL     1     -34.646  16.206  -1.555  1.00 20.00     0.005 A 
ENDBRANCH   3   5
BRANCH   4   8
HETATM    8  O8  UNL     1     -35.114  12.679  -4.136  1.00 20.00    -0.395 OA
HETATM    9  H20 UNL     1     -34.767  11.903  -4.596  1.00 20.00     0.210 HD
ENDBRANCH   4   8
TORSDOF 2
ENDMDL
MODEL 6
REMARK VINA RESULT:      -3.8     12.424     13.625
REMARK  2 active torsions:
REMARK  status: ('A' for Active; 'I' for Inactive)
REMARK    1  A    between atoms: C5_5  and  C6_6 
REMARK    2  A    between atoms: C7_7  and  O8_8 
ROOT
HETATM    1  C3  UNL     1     -34.026  15.661  -4.374  1.00 20.00     0.010 C 
HETATM    2  C4  UNL     1     -34.184  14.585  -3.282  1.00 20.00     0.032 C 
HETATM    3  C6  UNL     1     -34.619  14.639  -5.380  1.00 20.00     0.018 C 
HETATM    4  C7  UNL     1     -35.294  13.954  -4.153  1.00 20.00     0.122 C 
ENDROOT
BRANCH   3   5
HETATM    5  C5  UNL     1     -35.487  15.138  -6.513  1.00 20.00    -0.008 A 
HETATM    6  C1  UNL     1     -34.932  15.783  -7.753  1.00 20.00     0.005 A 
HETATM    7  C2  UNL     1     -35.591  14.434  -7.839  1.00 20.00     0.005 A 
ENDBRANCH   3   5
BRANCH   4   8
HETATM    8  O8  UNL     1     -35.354  12.517  -4.178  1.00 20.00    -0.395 OA
HETATM    9  H20 UNL     1     -34.466  12.220  -4.416  1.00 20.00     0.210 HD
ENDBRANCH   4   8
TORSDOF 2
ENDMDL
MODEL 7
REMARK VINA RESULT:      -3.7      1.402      3.441
REMARK  2 active torsions:
REMARK  status: ('A' for Active; 'I' for Inactive)
REMARK    1  A    between atoms: C5_5  and  C6_6 
REMARK    2  A    between atoms: C7_7  and  O8_8 
ROOT
HETATM    1  C3  UNL     1     -32.551   7.147   4.276  1.00 20.00     0.010 C 
HETATM    2  C4  UNL     1     -32.555   6.968   2.745  1.00 20.00     0.032 C 
HETATM    3  C6  UNL     1     -33.745   6.158   4.333  1.00 20.00     0.018 C 
HETATM    4  C7  UNL     1     -33.235   5.599   2.970  1.00 20.00     0.122 C 
ENDROOT
BRANCH   3   5
HETATM    5  C5  UNL     1     -33.871   5.220   5.512  1.00 20.00    -0.008 A 
HETATM    6  C1  UNL     1     -34.911   5.382   6.586  1.00 20.00     0.005 A 
HETATM    7  C2  UNL     1     -34.979   4.211   5.645  1.00 20.00     0.005 A 
ENDBRANCH   3   5
BRANCH   4   8
HETATM    8  O8  UNL     1     -34.244   5.216   2.020  1.00 20.00    -0.395 OA
HETATM    9  H20 UNL     1     -33.791   5.140   1.169  1.00 20.00     0.210 HD
ENDBRANCH   4   8
TORSDOF 2
ENDMDL
MODEL 8
REMARK VINA RESULT:      -3.6     12.392     13.198
REMARK  2 active torsions:
REMARK  status: ('A' for Active; 'I' for Inactive)
REMARK    1  A    between atoms: C5_5  and  C6_6 
REMARK    2  A    between atoms: C7_7  and  O8_8 
ROOT
HETATM    1  C3  UNL     1     -34.920  16.105  -4.572  1.00 20.00     0.010 C 
HETATM    2  C4  UNL     1     -36.243  15.403  -4.934  1.00 20.00     0.032 C 
HETATM    3  C6  UNL     1     -35.454  16.231  -3.121  1.00 20.00     0.018 C 
HETATM    4  C7  UNL     1     -36.368  15.010  -3.444  1.00 20.00     0.122 C 
ENDROOT
BRANCH   3   5
HETATM    5  C5  UNL     1     -34.482  16.136  -1.967  1.00 20.00    -0.008 A 
HETATM    6  C1  UNL     1     -33.702  17.313  -1.449  1.00 20.00     0.005 A 
HETATM    7  C2  UNL     1     -34.775  16.691  -0.599  1.00 20.00     0.005 A 
ENDBRANCH   3   5
BRANCH   4   8
HETATM    8  O8  UNL     1     -37.691  15.037  -2.880  1.00 20.00    -0.395 OA
HETATM    9  H20 UNL     1     -38.209  14.400  -3.389  1.00 20.00     0.210 HD
ENDBRANCH   4   8
TORSDOF 2
ENDMDL
MODEL 9
REMARK VINA RESULT:      -3.6     12.017     12.705
REMARK  2 active torsions:
REMARK  status: ('A' for Active; 'I' for Inactive)
REMARK    1  A    between atoms: C5_5  and  C6_6 
REMARK    2  A    between atoms: C7_7  and  O8_8 
ROOT
HETATM    1  C3  UNL     1     -33.951  16.626  -1.830  1.00 20.00     0.010 C 
HETATM    2  C4  UNL     1     -35.264  17.369  -1.516  1.00 20.00     0.032 C 
HETATM    3  C6  UNL     1     -34.802  15.553  -2.556  1.00 20.00     0.018 C 
HETATM    4  C7  UNL     1     -35.883  16.661  -2.742  1.00 20.00     0.122 C 
ENDROOT
BRANCH   3   5
HETATM    5  C5  UNL     1     -34.237  14.864  -3.777  1.00 20.00    -0.008 A 
HETATM    6  C1  UNL     1     -33.306  13.686  -3.701  1.00 20.00     0.005 A 
HETATM    7  C2  UNL     1     -34.697  13.509  -4.243  1.00 20.00     0.005 A 
ENDBRANCH   3   5
BRANCH   4   8
HETATM    8  O8  UNL     1     -37.254  16.242  -2.620  1.00 20.00    -0.395 OA
HETATM    9  H20 UNL     1     -37.765  16.845  -3.176  1.00 20.00     0.210 HD
ENDBRANCH   4   8
TORSDOF 2
ENDMDL
