MODEL 1
REMARK VINA RESULT:      -4.7      0.000      0.000
REMARK  0 active torsions:
REMARK  status: ('A' for Active; 'I' for Inactive)
ROOT
HETATM    1  C1  UNL     1     -34.793  17.136   0.128  1.00 20.00     0.012 C 
HETATM    2  C2  UNL     1     -34.649  13.075  -4.723  1.00 20.00     0.012 C 
HETATM    3  C3  UNL     1     -34.639  16.747  -0.998  1.00 20.00    -0.113 C 
HETATM    4  C4  UNL     1     -35.120  14.174  -4.620  1.00 20.00    -0.113 C 
HETATM    5  C5  UNL     1     -33.541  16.882  -4.660  1.00 20.00     0.002 C 
HETATM    6  C6  UNL     1     -33.697  17.316  -3.205  1.00 20.00     0.017 C 
HETATM    7  C7  UNL     1     -34.890  16.549  -5.299  1.00 20.00     0.017 C 
HETATM    8  C8  UNL     1     -35.810  15.939  -3.017  1.00 20.00     0.034 C 
HETATM    9  C9  UNL     1     -34.451  16.269  -2.379  1.00 20.00     0.065 C 
HETATM   10  C10 UNL     1     -35.698  15.525  -4.492  1.00 20.00     0.065 C 
ENDROOT
TORSDOF 0
ENDMDL
MODEL 2
REMARK VINA RESULT:      -4.7     11.936     14.039
REMARK  0 active torsions:
REMARK  status: ('A' for Active; 'I' for Inactive)
ROOT
HETATM    1  C1  UNL     1     -41.548   2.001  -3.683  1.00 20.00     0.012 C 
HETATM    2  C2  UNL     1     -43.327   5.262   1.440  1.00 20.00     0.012 C 
HETATM    3  C3  UNL     1     -41.880   2.946  -3.022  1.00 20.00    -0.113 C 
HETATM    4  C4  UNL     1     -42.498   5.487   0.602  1.00 20.00    -0.113 C 
HETATM    5  C5  UNL     1     -43.031   6.524  -2.308  1.00 20.00     0.002 C 
HETATM    6  C6  UNL     1     -42.665   5.282  -3.116  1.00 20.00     0.017 C 
HETATM    7  C7  UNL     1     -41.915   6.917  -1.339  1.00 20.00     0.017 C 
HETATM    8  C8  UNL     1     -41.161   4.499  -1.241  1.00 20.00     0.034 C 
HETATM    9  C9  UNL     1     -42.288   4.107  -2.209  1.00 20.00     0.065 C 
HETATM   10  C10 UNL     1     -41.479   5.763  -0.428  1.00 20.00     0.065 C 
ENDROOT
TORSDOF 0
ENDMDL
MODEL 3
REMARK VINA RESULT:      -4.7      1.353      2.521
REMARK  0 active torsions:
REMARK  status: ('A' for Active; 'I' for Inactive)
ROOT
HETATM    1  C1  UNL     1     -34.498  16.606  -0.956  1.00 20.00     0.012 C 
HETATM    2  C2  UNL     1     -37.994  15.324  -6.072  1.00 20.00     0.012 C 
HETATM    3  C3  UNL     1     -34.827  16.063  -1.975  1.00 20.00    -0.113 C 
HETATM    4  C4  UNL     1     -36.813  15.489  -5.936  1.00 20.00    -0.113 C 
HETATM    5  C5  UNL     1     -34.776  13.426  -4.745  1.00 20.00     0.002 C 
HETATM    6  C6  UNL     1     -34.428  14.109  -3.426  1.00 20.00     0.017 C 
HETATM    7  C7  UNL     1     -34.599  14.370  -5.935  1.00 20.00     0.017 C 
HETATM    8  C8  UNL     1     -35.049  16.350  -4.418  1.00 20.00     0.034 C 
HETATM    9  C9  UNL     1     -35.232  15.397  -3.226  1.00 20.00     0.065 C 
HETATM   10  C10 UNL     1     -35.361  15.691  -5.769  1.00 20.00     0.065 C 
ENDROOT
TORSDOF 0
ENDMDL
MODEL 4
REMARK VINA RESULT:      -4.6      1.336      2.512
REMARK  0 active torsions:
REMARK  status: ('A' for Active; 'I' for Inactive)
ROOT
HETATM    1  C1  UNL     1     -33.663  17.464  -0.990  1.00 20.00     0.012 C 
HETATM    2  C2  UNL     1     -34.230  15.573  -7.002  1.00 20.00     0.012 C 
HETATM    3  C3  UNL     1     -34.090  16.856  -1.933  1.00 20.00    -0.113 C 
HETATM    4  C4  UNL     1     -34.169  14.954  -5.976  1.00 20.00    -0.113 C 
HETATM    5  C5  UNL     1     -36.476  14.592  -3.885  1.00 20.00     0.002 C 
HETATM    6  C6  UNL     1     -35.938  15.429  -2.729  1.00 20.00     0.017 C 
HETATM    7  C7  UNL     1     -35.451  13.566  -4.368  1.00 20.00     0.017 C 
HETATM    8  C8  UNL     1     -33.578  15.077  -3.569  1.00 20.00     0.034 C 
HETATM    9  C9  UNL     1     -34.613  16.108  -3.091  1.00 20.00     0.065 C 
HETATM   10  C10 UNL     1     -34.094  14.194  -4.714  1.00 20.00     0.065 C 
ENDROOT
TORSDOF 0
ENDMDL
MODEL 5
REMARK VINA RESULT:      -4.6      1.485      3.826
REMARK  0 active torsions:
REMARK  status: ('A' for Active; 'I' for Inactive)
ROOT
HETATM    1  C1  UNL     1     -33.702  18.908  -6.487  1.00 20.00     0.012 C 
HETATM    2  C2  UNL     1     -34.549  16.849  -0.563  1.00 20.00     0.012 C 
HETATM    3  C3  UNL     1     -33.708  18.143  -5.562  1.00 20.00    -0.113 C 
HETATM    4  C4  UNL     1     -34.861  16.378  -1.622  1.00 20.00    -0.113 C 
HETATM    5  C5  UNL     1     -32.955  14.922  -3.640  1.00 20.00     0.002 C 
HETATM    6  C6  UNL     1     -32.914  15.946  -4.771  1.00 20.00     0.017 C 
HETATM    7  C7  UNL     1     -34.389  14.566  -3.250  1.00 20.00     0.017 C 
HETATM    8  C8  UNL     1     -35.161  16.848  -4.040  1.00 20.00     0.034 C 
HETATM    9  C9  UNL     1     -33.716  17.205  -4.425  1.00 20.00     0.065 C 
HETATM   10  C10 UNL     1     -35.244  15.798  -2.923  1.00 20.00     0.065 C 
ENDROOT
TORSDOF 0
ENDMDL
MODEL 6
REMARK VINA RESULT:      -4.5      1.412      3.909
REMARK  0 active torsions:
REMARK  status: ('A' for Active; 'I' for Inactive)
ROOT
HETATM    1  C1  UNL     1     -37.790  15.441  -6.535  1.00 20.00     0.012 C 
HETATM    2  C2  UNL     1     -34.726  16.774  -1.161  1.00 20.00     0.012 C 
HETATM    3  C3  UNL     1     -36.863  15.659  -5.803  1.00 20.00    -0.113 C 
HETATM    4  C4  UNL     1     -34.532  15.939  -2.001  1.00 20.00    -0.113 C 
HETATM    5  C5  UNL     1     -33.243  16.406  -4.820  1.00 20.00     0.002 C 
HETATM    6  C6  UNL     1     -34.456  16.190  -5.719  1.00 20.00     0.017 C 
HETATM    7  C7  UNL     1     -33.039  15.239  -3.854  1.00 20.00     0.017 C 
HETATM    8  C8  UNL     1     -35.524  14.747  -3.938  1.00 20.00     0.034 C 
HETATM    9  C9  UNL     1     -35.726  15.926  -4.904  1.00 20.00     0.065 C 
HETATM   10  C10 UNL     1     -34.294  14.914  -3.034  1.00 20.00     0.065 C 
ENDROOT
TORSDOF 0
ENDMDL
MODEL 7
REMARK VINA RESULT:      -4.5     11.381     13.659
REMARK  0 active torsions:
REMARK  status: ('A' for Active; 'I' for Inactive)
ROOT
HETATM    1  C1  UNL     1     -41.910   1.699  -3.284  1.00 20.00     0.012 C 
HETATM    2  C2  UNL     1     -42.399   8.000  -3.597  1.00 20.00     0.012 C 
HETATM    3  C3  UNL     1     -41.833   2.843  -2.928  1.00 20.00    -0.113 C 
HETATM    4  C4  UNL     1     -42.722   7.219  -2.746  1.00 20.00    -0.113 C 
HETATM    5  C5  UNL     1     -40.811   5.789  -0.713  1.00 20.00     0.002 C 
HETATM    6  C6  UNL     1     -40.877   4.356  -1.231  1.00 20.00     0.017 C 
HETATM    7  C7  UNL     1     -42.205   6.369  -0.473  1.00 20.00     0.017 C 
HETATM    8  C8  UNL     1     -43.144   4.824  -2.249  1.00 20.00     0.034 C 
HETATM    9  C9  UNL     1     -41.740   4.248  -2.492  1.00 20.00     0.065 C 
HETATM   10  C10 UNL     1     -43.119   6.257  -1.700  1.00 20.00     0.065 C 
ENDROOT
TORSDOF 0
ENDMDL
MODEL 8
REMARK VINA RESULT:      -4.5      1.208      4.065
REMARK  0 active torsions:
REMARK  status: ('A' for Active; 'I' for Inactive)
ROOT
HETATM    1  C1  UNL     1     -35.157  13.292  -4.339  1.00 20.00     0.012 C 
HETATM    2  C2  UNL     1     -35.016  17.311   0.546  1.00 20.00     0.012 C 
HETATM    3  C3  UNL     1     -35.187  14.341  -3.756  1.00 20.00    -0.113 C 
HETATM    4  C4  UNL     1     -34.457  17.329  -0.515  1.00 20.00    -0.113 C 
HETATM    5  C5  UNL     1     -35.733  18.096  -3.274  1.00 20.00     0.002 C 
HETATM    6  C6  UNL     1     -35.743  16.735  -3.963  1.00 20.00     0.017 C 
HETATM    7  C7  UNL     1     -34.347  18.444  -2.729  1.00 20.00     0.017 C 
HETATM    8  C8  UNL     1     -33.828  15.974  -2.497  1.00 20.00     0.034 C 
HETATM    9  C9  UNL     1     -35.224  15.628  -3.039  1.00 20.00     0.065 C 
HETATM   10  C10 UNL     1     -33.769  17.351  -1.820  1.00 20.00     0.065 C 
ENDROOT
TORSDOF 0
ENDMDL
MODEL 9
REMARK VINA RESULT:      -4.4      1.667      3.789
REMARK  0 active torsions:
REMARK  status: ('A' for Active; 'I' for Inactive)
ROOT
HETATM    1  C1  UNL     1     -38.890  14.748  -3.741  1.00 20.00     0.012 C 
HETATM    2  C2  UNL     1     -33.302  17.344  -5.179  1.00 20.00     0.012 C 
HETATM    3  C3  UNL     1     -37.712  14.808  -3.960  1.00 20.00    -0.113 C 
HETATM    4  C4  UNL     1     -33.624  16.579  -4.313  1.00 20.00    -0.113 C 
HETATM    5  C5  UNL     1     -34.180  13.513  -4.654  1.00 20.00     0.002 C 
HETATM    6  C6  UNL     1     -35.690  13.478  -4.437  1.00 20.00     0.017 C 
HETATM    7  C7  UNL     1     -33.460  14.235  -3.515  1.00 20.00     0.017 C 
HETATM    8  C8  UNL     1     -35.546  15.607  -3.080  1.00 20.00     0.034 C 
HETATM    9  C9  UNL     1     -36.264  14.883  -4.230  1.00 20.00     0.065 C 
HETATM   10  C10 UNL     1     -34.020  15.638  -3.248  1.00 20.00     0.065 C 
ENDROOT
TORSDOF 0
ENDMDL
