MODEL 1
REMARK VINA RESULT:      -4.8      0.000      0.000
REMARK  1 active torsions:
REMARK  status: ('A' for Active; 'I' for Inactive)
REMARK    1  A    between atoms: C1_1  and  C5_5 
ROOT
HETATM    1  C1  UNL     1     -34.786  15.926  -2.064  1.00 20.00    -0.097 C 
HETATM    2  C2  UNL     1     -34.769  16.554  -1.040  1.00 20.00    -0.110 C 
HETATM    3  C7  UNL     1     -34.750  17.319   0.206  1.00 20.00     0.112 C 
ENDROOT
BRANCH   1   4
HETATM    4  C5  UNL     1     -34.805  15.162  -3.309  1.00 20.00     0.027 C 
HETATM    5  C3  UNL     1     -33.823  13.948  -3.288  1.00 20.00     0.024 C 
HETATM    6  C4  UNL     1     -32.760  14.834  -3.969  1.00 20.00     0.012 C 
HETATM    7  C6  UNL     1     -33.904  15.755  -4.486  1.00 20.00    -0.029 C 
HETATM    8  C9  UNL     1     -34.331  15.393  -5.916  1.00 20.00     0.016 C 
HETATM    9  C10 UNL     1     -33.560  17.246  -4.416  1.00 20.00     0.016 C 
HETATM   10  C8  UNL     1     -36.245  14.783  -3.647  1.00 20.00     0.030 C 
ENDBRANCH   1   4
TORSDOF 1
ENDMDL
MODEL 2
REMARK VINA RESULT:      -4.7      0.978      2.280
REMARK  1 active torsions:
REMARK  status: ('A' for Active; 'I' for Inactive)
REMARK    1  A    between atoms: C1_1  and  C5_5 
ROOT
HETATM    1  C1  UNL     1     -34.195  15.945  -2.464  1.00 20.00    -0.097 C 
HETATM    2  C2  UNL     1     -34.463  16.458  -1.411  1.00 20.00    -0.110 C 
HETATM    3  C7  UNL     1     -34.790  17.083  -0.130  1.00 20.00     0.112 C 
ENDROOT
BRANCH   1   4
HETATM    4  C5  UNL     1     -33.868  15.322  -3.744  1.00 20.00     0.027 C 
HETATM    5  C3  UNL     1     -33.525  16.365  -4.854  1.00 20.00     0.024 C 
HETATM    6  C4  UNL     1     -34.994  16.310  -5.319  1.00 20.00     0.012 C 
HETATM    7  C6  UNL     1     -35.122  14.913  -4.642  1.00 20.00    -0.029 C 
HETATM    8  C9  UNL     1     -34.898  13.768  -5.641  1.00 20.00     0.016 C 
HETATM    9  C10 UNL     1     -36.458  14.710  -3.922  1.00 20.00     0.016 C 
HETATM   10  C8  UNL     1     -32.782  14.270  -3.531  1.00 20.00     0.030 C 
ENDBRANCH   1   4
TORSDOF 1
ENDMDL
MODEL 3
REMARK VINA RESULT:      -4.4      1.101      1.852
REMARK  1 active torsions:
REMARK  status: ('A' for Active; 'I' for Inactive)
REMARK    1  A    between atoms: C1_1  and  C5_5 
ROOT
HETATM    1  C1  UNL     1     -34.337  15.675  -2.698  1.00 20.00    -0.097 C 
HETATM    2  C2  UNL     1     -34.471  16.232  -1.642  1.00 20.00    -0.110 C 
HETATM    3  C7  UNL     1     -34.635  16.911  -0.358  1.00 20.00     0.112 C 
ENDROOT
BRANCH   1   4
HETATM    4  C5  UNL     1     -34.173  14.996  -3.981  1.00 20.00     0.027 C 
HETATM    5  C3  UNL     1     -32.974  15.554  -4.811  1.00 20.00     0.024 C 
HETATM    6  C4  UNL     1     -33.956  16.488  -5.547  1.00 20.00     0.012 C 
HETATM    7  C6  UNL     1     -35.115  15.525  -5.156  1.00 20.00    -0.029 C 
HETATM    8  C9  UNL     1     -35.431  14.522  -6.276  1.00 20.00     0.016 C 
HETATM    9  C10 UNL     1     -36.397  16.255  -4.746  1.00 20.00     0.016 C 
HETATM   10  C8  UNL     1     -34.113  13.488  -3.751  1.00 20.00     0.030 C 
ENDBRANCH   1   4
TORSDOF 1
ENDMDL
MODEL 4
REMARK VINA RESULT:      -4.2      1.369      2.769
REMARK  1 active torsions:
REMARK  status: ('A' for Active; 'I' for Inactive)
REMARK    1  A    between atoms: C1_1  and  C5_5 
ROOT
HETATM    1  C1  UNL     1     -34.681  16.386  -3.216  1.00 20.00    -0.097 C 
HETATM    2  C2  UNL     1     -34.658  16.533  -2.024  1.00 20.00    -0.110 C 
HETATM    3  C7  UNL     1     -34.629  16.711  -0.573  1.00 20.00     0.112 C 
ENDROOT
BRANCH   1   4
HETATM    4  C5  UNL     1     -34.709  16.209  -4.666  1.00 20.00     0.027 C 
HETATM    5  C3  UNL     1     -35.953  16.876  -5.333  1.00 20.00     0.024 C 
HETATM    6  C4  UNL     1     -36.685  15.521  -5.256  1.00 20.00     0.012 C 
HETATM    7  C6  UNL     1     -35.300  14.814  -5.169  1.00 20.00    -0.029 C 
HETATM    8  C9  UNL     1     -34.816  14.329  -6.544  1.00 20.00     0.016 C 
HETATM    9  C10 UNL     1     -35.276  13.648  -4.177  1.00 20.00     0.016 C 
HETATM   10  C8  UNL     1     -33.376  16.663  -5.256  1.00 20.00     0.030 C 
ENDBRANCH   1   4
TORSDOF 1
ENDMDL
MODEL 5
REMARK VINA RESULT:      -4.2      1.230      3.328
REMARK  1 active torsions:
REMARK  status: ('A' for Active; 'I' for Inactive)
REMARK    1  A    between atoms: C1_1  and  C5_5 
ROOT
HETATM    1  C1  UNL     1     -36.371  15.371  -3.578  1.00 20.00    -0.097 C 
HETATM    2  C2  UNL     1     -37.535  15.106  -3.710  1.00 20.00    -0.110 C 
HETATM    3  C7  UNL     1     -38.951  14.784  -3.872  1.00 20.00     0.112 C 
ENDROOT
BRANCH   1   4
HETATM    4  C5  UNL     1     -34.955  15.694  -3.415  1.00 20.00     0.027 C 
HETATM    5  C3  UNL     1     -34.471  16.805  -4.400  1.00 20.00     0.024 C 
HETATM    6  C4  UNL     1     -34.003  15.702  -5.370  1.00 20.00     0.012 C 
HETATM    7  C6  UNL     1     -33.943  14.714  -4.167  1.00 20.00    -0.029 C 
HETATM    8  C9  UNL     1     -32.529  14.615  -3.576  1.00 20.00     0.016 C 
HETATM    9  C10 UNL     1     -34.455  13.312  -4.509  1.00 20.00     0.016 C 
HETATM   10  C8  UNL     1     -34.673  16.006  -1.947  1.00 20.00     0.030 C 
ENDBRANCH   1   4
TORSDOF 1
ENDMDL
MODEL 6
REMARK VINA RESULT:      -4.1      1.489      3.316
REMARK  1 active torsions:
REMARK  status: ('A' for Active; 'I' for Inactive)
REMARK    1  A    between atoms: C1_1  and  C5_5 
ROOT
HETATM    1  C1  UNL     1     -36.720  14.834  -4.508  1.00 20.00    -0.097 C 
HETATM    2  C2  UNL     1     -37.878  14.835  -4.191  1.00 20.00    -0.110 C 
HETATM    3  C7  UNL     1     -39.288  14.836  -3.806  1.00 20.00     0.112 C 
ENDROOT
BRANCH   1   4
HETATM    4  C5  UNL     1     -35.310  14.833  -4.894  1.00 20.00     0.027 C 
HETATM    5  C3  UNL     1     -34.717  13.394  -5.014  1.00 20.00     0.024 C 
HETATM    6  C4  UNL     1     -34.213  13.511  -3.562  1.00 20.00     0.012 C 
HETATM    7  C6  UNL     1     -34.277  15.062  -3.699  1.00 20.00    -0.029 C 
HETATM    8  C9  UNL     1     -32.916  15.661  -4.083  1.00 20.00     0.016 C 
HETATM    9  C10 UNL     1     -34.807  15.759  -2.443  1.00 20.00     0.016 C 
HETATM   10  C8  UNL     1     -35.131  15.680  -6.152  1.00 20.00     0.030 C 
ENDBRANCH   1   4
TORSDOF 1
ENDMDL
MODEL 7
REMARK VINA RESULT:      -4.1     11.035     13.036
REMARK  1 active torsions:
REMARK  status: ('A' for Active; 'I' for Inactive)
REMARK    1  A    between atoms: C1_1  and  C5_5 
ROOT
HETATM    1  C1  UNL     1     -42.334   7.065  -2.269  1.00 20.00    -0.097 C 
HETATM    2  C2  UNL     1     -42.313   7.695  -3.291  1.00 20.00    -0.110 C 
HETATM    3  C7  UNL     1     -42.288   8.461  -4.536  1.00 20.00     0.112 C 
ENDROOT
BRANCH   1   4
HETATM    4  C5  UNL     1     -42.360   6.299  -1.024  1.00 20.00     0.027 C 
HETATM    5  C3  UNL     1     -40.949   6.162  -0.369  1.00 20.00     0.024 C 
HETATM    6  C4  UNL     1     -40.783   4.804  -1.081  1.00 20.00     0.012 C 
HETATM    7  C6  UNL     1     -42.334   4.713  -1.200  1.00 20.00    -0.029 C 
HETATM    8  C9  UNL     1     -42.950   3.892  -0.058  1.00 20.00     0.016 C 
HETATM    9  C10 UNL     1     -42.805   4.153  -2.545  1.00 20.00     0.016 C 
HETATM   10  C8  UNL     1     -43.417   6.887  -0.092  1.00 20.00     0.030 C 
ENDBRANCH   1   4
TORSDOF 1
ENDMDL
MODEL 8
REMARK VINA RESULT:      -4.0      0.956      4.198
REMARK  1 active torsions:
REMARK  status: ('A' for Active; 'I' for Inactive)
REMARK    1  A    between atoms: C1_1  and  C5_5 
ROOT
HETATM    1  C1  UNL     1     -34.647  15.532  -5.632  1.00 20.00    -0.097 C 
HETATM    2  C2  UNL     1     -35.145  15.169  -6.663  1.00 20.00    -0.110 C 
HETATM    3  C7  UNL     1     -35.751  14.727  -7.918  1.00 20.00     0.112 C 
ENDROOT
BRANCH   1   4
HETATM    4  C5  UNL     1     -34.041  15.974  -4.378  1.00 20.00     0.027 C 
HETATM    5  C3  UNL     1     -32.862  15.059  -3.921  1.00 20.00     0.024 C 
HETATM    6  C4  UNL     1     -33.854  14.269  -3.043  1.00 20.00     0.012 C 
HETATM    7  C6  UNL     1     -34.799  15.507  -3.054  1.00 20.00    -0.029 C 
HETATM    8  C9  UNL     1     -34.603  16.390  -1.812  1.00 20.00     0.016 C 
HETATM    9  C10 UNL     1     -36.279  15.138  -3.191  1.00 20.00     0.016 C 
HETATM   10  C8  UNL     1     -33.666  17.450  -4.492  1.00 20.00     0.030 C 
ENDBRANCH   1   4
TORSDOF 1
ENDMDL
MODEL 9
REMARK VINA RESULT:      -3.9      1.783      3.823
REMARK  1 active torsions:
REMARK  status: ('A' for Active; 'I' for Inactive)
REMARK    1  A    between atoms: C1_1  and  C5_5 
ROOT
HETATM    1  C1  UNL     1     -36.406  15.263  -5.521  1.00 20.00    -0.097 C 
HETATM    2  C2  UNL     1     -37.575  15.509  -5.644  1.00 20.00    -0.110 C 
HETATM    3  C7  UNL     1     -38.998  15.808  -5.794  1.00 20.00     0.112 C 
ENDROOT
BRANCH   1   4
HETATM    4  C5  UNL     1     -34.983  14.964  -5.371  1.00 20.00     0.027 C 
HETATM    5  C3  UNL     1     -34.680  13.432  -5.411  1.00 20.00     0.024 C 
HETATM    6  C4  UNL     1     -34.741  13.409  -3.871  1.00 20.00     0.012 C 
HETATM    7  C6  UNL     1     -34.447  14.939  -3.868  1.00 20.00    -0.029 C 
HETATM    8  C9  UNL     1     -32.952  15.235  -3.675  1.00 20.00     0.016 C 
HETATM    9  C10 UNL     1     -35.261  15.710  -2.825  1.00 20.00     0.016 C 
HETATM   10  C8  UNL     1     -34.187  15.776  -6.390  1.00 20.00     0.030 C 
ENDBRANCH   1   4
TORSDOF 1
ENDMDL
