MODEL 1
REMARK VINA RESULT:      -5.9      0.000      0.000
REMARK  0 active torsions:
REMARK  status: ('A' for Active; 'I' for Inactive)
ROOT
HETATM    1  C1  UNL     1     -34.681   5.290   3.637  1.00 20.00     0.022 A 
HETATM    2  C2  UNL     1     -33.579   6.736   5.379  1.00 20.00     0.022 A 
HETATM    3  C3  UNL     1     -35.046   4.423   4.592  1.00 20.00     0.054 A 
HETATM    4  C4  UNL     1     -33.947   5.866   6.330  1.00 20.00     0.054 A 
HETATM    5  C5  UNL     1     -33.884   6.543   3.913  1.00 20.00     0.135 A 
HETATM    6  C6  UNL     1     -34.706   4.605   6.042  1.00 20.00     0.280 A 
HETATM    7  C7  UNL     1     -32.583   6.517   3.112  1.00 20.00     0.061 C 
HETATM    8  F8  UNL     1     -34.601   7.620   3.473  1.00 20.00    -0.234 F 
HETATM    9  F9  UNL     1     -33.985   3.533   6.476  1.00 20.00    -0.197 F 
HETATM   10  F10 UNL     1     -35.854   4.592   6.778  1.00 20.00    -0.197 F 
ENDROOT
TORSDOF 0
ENDMDL
MODEL 2
REMARK VINA RESULT:      -5.2      1.772      3.782
REMARK  0 active torsions:
REMARK  status: ('A' for Active; 'I' for Inactive)
ROOT
HETATM    1  C1  UNL     1     -34.285   6.212   5.202  1.00 20.00     0.022 A 
HETATM    2  C2  UNL     1     -34.356   4.950   3.024  1.00 20.00     0.022 A 
HETATM    3  C3  UNL     1     -33.247   6.930   4.749  1.00 20.00     0.054 A 
HETATM    4  C4  UNL     1     -33.318   5.671   2.576  1.00 20.00     0.054 A 
HETATM    5  C5  UNL     1     -34.952   5.120   4.400  1.00 20.00     0.135 A 
HETATM    6  C6  UNL     1     -32.637   6.729   3.393  1.00 20.00     0.280 A 
HETATM    7  C7  UNL     1     -34.879   3.798   5.164  1.00 20.00     0.061 C 
HETATM    8  F8  UNL     1     -36.277   5.428   4.265  1.00 20.00    -0.234 F 
HETATM    9  F9  UNL     1     -31.318   6.414   3.532  1.00 20.00    -0.197 F 
HETATM   10  F10 UNL     1     -32.658   7.909   2.711  1.00 20.00    -0.197 F 
ENDROOT
TORSDOF 0
ENDMDL
MODEL 3
REMARK VINA RESULT:      -5.1      1.818      2.786
REMARK  0 active torsions:
REMARK  status: ('A' for Active; 'I' for Inactive)
ROOT
HETATM    1  C1  UNL     1     -33.183   6.684   4.667  1.00 20.00     0.022 A 
HETATM    2  C2  UNL     1     -33.230   5.594   2.397  1.00 20.00     0.022 A 
HETATM    3  C3  UNL     1     -34.326   6.060   4.986  1.00 20.00     0.054 A 
HETATM    4  C4  UNL     1     -34.372   4.972   2.723  1.00 20.00     0.054 A 
HETATM    5  C5  UNL     1     -32.507   6.542   3.324  1.00 20.00     0.135 A 
HETATM    6  C6  UNL     1     -35.056   5.148   4.046  1.00 20.00     0.280 A 
HETATM    7  C7  UNL     1     -32.375   7.913   2.663  1.00 20.00     0.061 C 
HETATM    8  F8  UNL     1     -31.239   6.073   3.524  1.00 20.00    -0.234 F 
HETATM    9  F9  UNL     1     -36.318   5.623   3.843  1.00 20.00    -0.197 F 
HETATM   10  F10 UNL     1     -35.219   3.930   4.635  1.00 20.00    -0.197 F 
ENDROOT
TORSDOF 0
ENDMDL
MODEL 4
REMARK VINA RESULT:      -4.9     12.479     13.963
REMARK  0 active torsions:
REMARK  status: ('A' for Active; 'I' for Inactive)
ROOT
HETATM    1  C1  UNL     1     -33.911  16.114  -5.842  1.00 20.00     0.022 A 
HETATM    2  C2  UNL     1     -34.689  13.766  -5.371  1.00 20.00     0.022 A 
HETATM    3  C3  UNL     1     -33.249  16.125  -4.676  1.00 20.00     0.054 A 
HETATM    4  C4  UNL     1     -34.025  13.783  -4.206  1.00 20.00     0.054 A 
HETATM    5  C5  UNL     1     -34.728  14.939  -6.321  1.00 20.00     0.135 A 
HETATM    6  C6  UNL     1     -33.246  14.969  -3.721  1.00 20.00     0.280 A 
HETATM    7  C7  UNL     1     -36.176  15.373  -6.549  1.00 20.00     0.061 C 
HETATM    8  F8  UNL     1     -34.239  14.534  -7.532  1.00 20.00    -0.234 F 
HETATM    9  F9  UNL     1     -33.741  15.374  -2.517  1.00 20.00    -0.197 F 
HETATM   10  F10 UNL     1     -31.959  14.592  -3.474  1.00 20.00    -0.197 F 
ENDROOT
TORSDOF 0
ENDMDL
MODEL 5
REMARK VINA RESULT:      -4.7     12.743     14.315
REMARK  0 active torsions:
REMARK  status: ('A' for Active; 'I' for Inactive)
ROOT
HETATM    1  C1  UNL     1     -34.152  14.027  -4.272  1.00 20.00     0.022 A 
HETATM    2  C2  UNL     1     -33.240  16.302  -4.849  1.00 20.00     0.022 A 
HETATM    3  C3  UNL     1     -34.749  13.967  -5.470  1.00 20.00     0.054 A 
HETATM    4  C4  UNL     1     -33.839  16.236  -6.046  1.00 20.00     0.054 A 
HETATM    5  C5  UNL     1     -33.341  15.213  -3.808  1.00 20.00     0.135 A 
HETATM    6  C6  UNL     1     -34.674  15.069  -6.484  1.00 20.00     0.280 A 
HETATM    7  C7  UNL     1     -33.941  15.780  -2.521  1.00 20.00     0.061 C 
HETATM    8  F8  UNL     1     -32.079  14.785  -3.503  1.00 20.00    -0.234 F 
HETATM    9  F9  UNL     1     -35.934  15.500  -6.780  1.00 20.00    -0.197 F 
HETATM   10  F10 UNL     1     -34.177  14.573  -7.653  1.00 20.00    -0.197 F 
ENDROOT
TORSDOF 0
ENDMDL
MODEL 6
REMARK VINA RESULT:      -4.7      9.032     10.142
REMARK  0 active torsions:
REMARK  status: ('A' for Active; 'I' for Inactive)
ROOT
HETATM    1  C1  UNL     1     -41.187   7.240  -1.168  1.00 20.00     0.022 A 
HETATM    2  C2  UNL     1     -42.547   5.719  -2.644  1.00 20.00     0.022 A 
HETATM    3  C3  UNL     1     -40.737   6.174  -0.490  1.00 20.00     0.054 A 
HETATM    4  C4  UNL     1     -42.094   4.657  -1.962  1.00 20.00     0.054 A 
HETATM    5  C5  UNL     1     -42.164   7.142  -2.315  1.00 20.00     0.135 A 
HETATM    6  C6  UNL     1     -41.153   4.767  -0.800  1.00 20.00     0.280 A 
HETATM    7  C7  UNL     1     -43.417   7.957  -1.999  1.00 20.00     0.061 C 
HETATM    8  F8  UNL     1     -41.592   7.705  -3.422  1.00 20.00    -0.234 F 
HETATM    9  F9  UNL     1     -41.730   4.211   0.303  1.00 20.00    -0.197 F 
HETATM   10  F10 UNL     1     -40.043   4.013  -1.047  1.00 20.00    -0.197 F 
ENDROOT
TORSDOF 0
ENDMDL
MODEL 7
REMARK VINA RESULT:      -4.6     12.515     13.811
REMARK  0 active torsions:
REMARK  status: ('A' for Active; 'I' for Inactive)
ROOT
HETATM    1  C1  UNL     1     -35.172  14.169  -4.670  1.00 20.00     0.022 A 
HETATM    2  C2  UNL     1     -34.077  16.183  -5.711  1.00 20.00     0.022 A 
HETATM    3  C3  UNL     1     -34.291  14.216  -3.661  1.00 20.00     0.054 A 
HETATM    4  C4  UNL     1     -33.198  16.225  -4.699  1.00 20.00     0.054 A 
HETATM    5  C5  UNL     1     -35.158  15.136  -5.829  1.00 20.00     0.135 A 
HETATM    6  C6  UNL     1     -33.196  15.237  -3.571  1.00 20.00     0.280 A 
HETATM    7  C7  UNL     1     -34.998  14.370  -7.142  1.00 20.00     0.061 C 
HETATM    8  F8  UNL     1     -36.370  15.767  -5.883  1.00 20.00    -0.234 F 
HETATM    9  F9  UNL     1     -31.989  14.604  -3.525  1.00 20.00    -0.197 F 
HETATM   10  F10 UNL     1     -33.300  15.905  -2.387  1.00 20.00    -0.197 F 
ENDROOT
TORSDOF 0
ENDMDL
MODEL 8
REMARK VINA RESULT:      -4.6     12.632     13.213
REMARK  0 active torsions:
REMARK  status: ('A' for Active; 'I' for Inactive)
ROOT
HETATM    1  C1  UNL     1     -33.298  15.146  -4.060  1.00 20.00     0.022 A 
HETATM    2  C2  UNL     1     -35.731  14.497  -4.027  1.00 20.00     0.022 A 
HETATM    3  C3  UNL     1     -33.512  15.983  -3.035  1.00 20.00     0.054 A 
HETATM    4  C4  UNL     1     -35.938  15.336  -3.002  1.00 20.00     0.054 A 
HETATM    5  C5  UNL     1     -34.389  14.316  -4.694  1.00 20.00     0.135 A 
HETATM    6  C6  UNL     1     -34.856  16.184  -2.403  1.00 20.00     0.280 A 
HETATM    7  C7  UNL     1     -34.499  14.652  -6.181  1.00 20.00     0.061 C 
HETATM    8  F8  UNL     1     -34.036  12.998  -4.610  1.00 20.00    -0.234 F 
HETATM    9  F9  UNL     1     -35.209  17.498  -2.496  1.00 20.00    -0.197 F 
HETATM   10  F10 UNL     1     -34.769  15.926  -1.067  1.00 20.00    -0.197 F 
ENDROOT
TORSDOF 0
ENDMDL
MODEL 9
REMARK VINA RESULT:      -4.6     12.576     13.187
REMARK  0 active torsions:
REMARK  status: ('A' for Active; 'I' for Inactive)
ROOT
HETATM    1  C1  UNL     1     -35.847  15.267  -3.029  1.00 20.00     0.022 A 
HETATM    2  C2  UNL     1     -33.457  16.054  -2.930  1.00 20.00     0.022 A 
HETATM    3  C3  UNL     1     -35.522  14.414  -4.010  1.00 20.00     0.054 A 
HETATM    4  C4  UNL     1     -33.138  15.198  -3.912  1.00 20.00     0.054 A 
HETATM    5  C5  UNL     1     -34.856  16.206  -2.384  1.00 20.00     0.135 A 
HETATM    6  C6  UNL     1     -34.137  14.296  -4.573  1.00 20.00     0.280 A 
HETATM    7  C7  UNL     1     -35.325  17.651  -2.554  1.00 20.00     0.061 C 
HETATM    8  F8  UNL     1     -34.828  15.952  -1.041  1.00 20.00    -0.234 F 
HETATM    9  F9  UNL     1     -34.167  14.557  -5.911  1.00 20.00    -0.197 F 
HETATM   10  F10 UNL     1     -33.716  13.003  -4.466  1.00 20.00    -0.197 F 
ENDROOT
TORSDOF 0
ENDMDL
