MODEL 1
REMARK VINA RESULT:      -5.4      0.000      0.000
REMARK  0 active torsions:
REMARK  status: ('A' for Active; 'I' for Inactive)
ROOT
HETATM    1  C1  UNL     1     -32.512   6.574   2.515  1.00 20.00     0.021 A 
HETATM    2  C2  UNL     1     -33.615   5.668   2.850  1.00 20.00     0.029 A 
HETATM    3  C3  UNL     1     -34.949   3.932   5.665  1.00 20.00     0.025 A 
HETATM    4  C4  UNL     1     -31.973   7.343   3.485  1.00 20.00     0.107 A 
HETATM    5  C5  UNL     1     -34.104   6.218   6.312  1.00 20.00     0.101 C 
HETATM    6  C6  UNL     1     -35.078   4.926   4.808  1.00 20.00     0.038 A 
HETATM    7  C7  UNL     1     -35.030   5.226   6.280  1.00 20.00     0.028 A 
HETATM    8  C8  UNL     1     -34.007   5.629   4.135  1.00 20.00     0.044 A 
HETATM    9  N9  UNL     1     -32.427   7.287   4.789  1.00 20.00    -0.306 N 
HETATM   10  N10 UNL     1     -33.413   6.415   5.126  1.00 20.00    -0.274 N 
HETATM   11  H16 UNL     1     -31.961   7.834   5.503  1.00 20.00     0.186 HD
ENDROOT
TORSDOF 0
ENDMDL
MODEL 2
REMARK VINA RESULT:      -5.0      1.304      3.869
REMARK  0 active torsions:
REMARK  status: ('A' for Active; 'I' for Inactive)
ROOT
HETATM    1  C1  UNL     1     -34.822   5.229   6.782  1.00 20.00     0.021 A 
HETATM    2  C2  UNL     1     -33.987   6.261   6.158  1.00 20.00     0.029 A 
HETATM    3  C3  UNL     1     -31.953   6.731   3.268  1.00 20.00     0.025 A 
HETATM    4  C4  UNL     1     -35.365   4.264   6.009  1.00 20.00     0.107 A 
HETATM    5  C5  UNL     1     -34.007   5.370   2.733  1.00 20.00     0.101 C 
HETATM    6  C6  UNL     1     -33.082   7.008   3.890  1.00 20.00     0.038 A 
HETATM    7  C7  UNL     1     -33.130   6.384   2.524  1.00 20.00     0.028 A 
HETATM    8  C8  UNL     1     -33.777   6.161   4.835  1.00 20.00     0.044 A 
HETATM    9  N9  UNL     1     -35.141   4.217   4.646  1.00 20.00    -0.306 N 
HETATM   10  N10 UNL     1     -34.327   5.135   4.062  1.00 20.00    -0.274 N 
HETATM   11  H16 UNL     1     -35.515   3.446   4.107  1.00 20.00     0.186 HD
ENDROOT
TORSDOF 0
ENDMDL
MODEL 3
REMARK VINA RESULT:      -4.6      0.849      3.482
REMARK  0 active torsions:
REMARK  status: ('A' for Active; 'I' for Inactive)
ROOT
HETATM    1  C1  UNL     1     -35.292   4.869   4.560  1.00 20.00     0.021 A 
HETATM    2  C2  UNL     1     -34.497   5.241   3.384  1.00 20.00     0.029 A 
HETATM    3  C3  UNL     1     -32.380   7.879   2.257  1.00 20.00     0.025 A 
HETATM    4  C4  UNL     1     -34.960   5.374   5.767  1.00 20.00     0.107 A 
HETATM    5  C5  UNL     1     -32.039   7.413   4.712  1.00 20.00     0.101 C 
HETATM    6  C6  UNL     1     -32.475   6.638   2.690  1.00 20.00     0.038 A 
HETATM    7  C7  UNL     1     -31.611   7.613   3.439  1.00 20.00     0.028 A 
HETATM    8  C8  UNL     1     -33.489   6.108   3.576  1.00 20.00     0.044 A 
HETATM    9  N9  UNL     1     -33.895   6.243   5.920  1.00 20.00    -0.306 N 
HETATM   10  N10 UNL     1     -33.183   6.638   4.832  1.00 20.00    -0.274 N 
HETATM   11  H16 UNL     1     -33.711   6.649   6.829  1.00 20.00     0.186 HD
ENDROOT
TORSDOF 0
ENDMDL
MODEL 4
REMARK VINA RESULT:      -4.5     12.314     14.057
REMARK  0 active torsions:
REMARK  status: ('A' for Active; 'I' for Inactive)
ROOT
HETATM    1  C1  UNL     1     -33.632  13.747  -3.740  1.00 20.00     0.021 A 
HETATM    2  C2  UNL     1     -34.504  13.407  -4.869  1.00 20.00     0.029 A 
HETATM    3  C3  UNL     1     -36.425  15.018  -7.403  1.00 20.00     0.025 A 
HETATM    4  C4  UNL     1     -32.990  14.935  -3.737  1.00 20.00     0.107 A 
HETATM    5  C5  UNL     1     -34.261  16.241  -6.975  1.00 20.00     0.101 C 
HETATM    6  C6  UNL     1     -35.348  14.322  -7.099  1.00 20.00     0.038 A 
HETATM    7  C7  UNL     1     -35.193  15.657  -7.770  1.00 20.00     0.028 A 
HETATM    8  C8  UNL     1     -34.644  14.330  -5.835  1.00 20.00     0.044 A 
HETATM    9  N9  UNL     1     -33.145  15.844  -4.768  1.00 20.00    -0.306 N 
HETATM   10  N10 UNL     1     -33.990  15.564  -5.795  1.00 20.00    -0.274 N 
HETATM   11  H16 UNL     1     -32.696  16.749  -4.705  1.00 20.00     0.186 HD
ENDROOT
TORSDOF 0
ENDMDL
MODEL 5
REMARK VINA RESULT:      -4.4     10.087     10.912
REMARK  0 active torsions:
REMARK  status: ('A' for Active; 'I' for Inactive)
ROOT
HETATM    1  C1  UNL     1     -43.128   3.750  -3.366  1.00 20.00     0.021 A 
HETATM    2  C2  UNL     1     -43.052   5.211  -3.261  1.00 20.00     0.029 A 
HETATM    3  C3  UNL     1     -42.213   7.727  -0.879  1.00 20.00     0.025 A 
HETATM    4  C4  UNL     1     -42.368   2.991  -2.548  1.00 20.00     0.107 A 
HETATM    5  C5  UNL     1     -40.692   5.726  -0.676  1.00 20.00     0.101 C 
HETATM    6  C6  UNL     1     -41.872   7.072  -1.970  1.00 20.00     0.038 A 
HETATM    7  C7  UNL     1     -40.949   7.055  -0.785  1.00 20.00     0.028 A 
HETATM    8  C8  UNL     1     -42.243   5.716  -2.315  1.00 20.00     0.044 A 
HETATM    9  N9  UNL     1     -41.530   3.557  -1.606  1.00 20.00    -0.306 N 
HETATM   10  N10 UNL     1     -41.488   4.908  -1.462  1.00 20.00    -0.274 N 
HETATM   11  H16 UNL     1     -41.019   2.958  -0.970  1.00 20.00     0.186 HD
ENDROOT
TORSDOF 0
ENDMDL
MODEL 6
REMARK VINA RESULT:      -4.4     11.922     13.011
REMARK  0 active torsions:
REMARK  status: ('A' for Active; 'I' for Inactive)
ROOT
HETATM    1  C1  UNL     1     -34.458  13.356  -4.881  1.00 20.00     0.021 A 
HETATM    2  C2  UNL     1     -34.348  13.818  -3.493  1.00 20.00     0.029 A 
HETATM    3  C3  UNL     1     -33.917  16.845  -1.660  1.00 20.00     0.025 A 
HETATM    4  C4  UNL     1     -34.892  14.215  -5.828  1.00 20.00     0.107 A 
HETATM    5  C5  UNL     1     -35.408  17.190  -3.664  1.00 20.00     0.101 C 
HETATM    6  C6  UNL     1     -34.729  15.873  -2.026  1.00 20.00     0.038 A 
HETATM    7  C7  UNL     1     -35.093  17.295  -2.348  1.00 20.00     0.028 A 
HETATM    8  C8  UNL     1     -34.656  15.102  -3.248  1.00 20.00     0.044 A 
HETATM    9  N9  UNL     1     -35.222  15.522  -5.524  1.00 20.00    -0.306 N 
HETATM   10  N10 UNL     1     -35.075  15.979  -4.252  1.00 20.00    -0.274 N 
HETATM   11  H16 UNL     1     -35.487  16.155  -6.268  1.00 20.00     0.186 HD
ENDROOT
TORSDOF 0
ENDMDL
MODEL 7
REMARK VINA RESULT:      -4.3     12.219     13.777
REMARK  0 active torsions:
REMARK  status: ('A' for Active; 'I' for Inactive)
ROOT
HETATM    1  C1  UNL     1     -34.703  16.329  -7.576  1.00 20.00     0.021 A 
HETATM    2  C2  UNL     1     -34.092  16.464  -6.250  1.00 20.00     0.029 A 
HETATM    3  C3  UNL     1     -34.344  15.058  -2.983  1.00 20.00     0.025 A 
HETATM    4  C4  UNL     1     -35.284  15.160  -7.918  1.00 20.00     0.107 A 
HETATM    5  C5  UNL     1     -34.647  13.300  -4.765  1.00 20.00     0.101 C 
HETATM    6  C6  UNL     1     -33.652  15.156  -4.101  1.00 20.00     0.038 A 
HETATM    7  C7  UNL     1     -34.097  13.801  -3.630  1.00 20.00     0.028 A 
HETATM    8  C8  UNL     1     -34.180  15.408  -5.424  1.00 20.00     0.044 A 
HETATM    9  N9  UNL     1     -35.328  14.090  -7.043  1.00 20.00    -0.306 N 
HETATM   10  N10 UNL     1     -34.813  14.218  -5.792  1.00 20.00    -0.274 N 
HETATM   11  H16 UNL     1     -35.824  13.249  -7.310  1.00 20.00     0.186 HD
ENDROOT
TORSDOF 0
ENDMDL
MODEL 8
REMARK VINA RESULT:      -4.3     12.148     13.143
REMARK  0 active torsions:
REMARK  status: ('A' for Active; 'I' for Inactive)
ROOT
HETATM    1  C1  UNL     1     -34.183  17.588  -1.511  1.00 20.00     0.021 A 
HETATM    2  C2  UNL     1     -34.443  16.152  -1.662  1.00 20.00     0.029 A 
HETATM    3  C3  UNL     1     -35.438  13.817  -4.166  1.00 20.00     0.025 A 
HETATM    4  C4  UNL     1     -33.831  18.311  -2.595  1.00 20.00     0.107 A 
HETATM    5  C5  UNL     1     -33.902  15.580  -5.112  1.00 20.00     0.101 C 
HETATM    6  C6  UNL     1     -34.467  14.290  -3.409  1.00 20.00     0.038 A 
HETATM    7  C7  UNL     1     -34.306  14.300  -4.903  1.00 20.00     0.028 A 
HETATM    8  C8  UNL     1     -34.350  15.640  -2.900  1.00 20.00     0.044 A 
HETATM    9  N9  UNL     1     -33.722  17.734  -3.846  1.00 20.00    -0.306 N 
HETATM   10  N10 UNL     1     -34.011  16.416  -4.011  1.00 20.00    -0.274 N 
HETATM   11  H16 UNL     1     -33.514  18.317  -4.647  1.00 20.00     0.186 HD
ENDROOT
TORSDOF 0
ENDMDL
MODEL 9
REMARK VINA RESULT:      -4.2     11.746     12.687
REMARK  0 active torsions:
REMARK  status: ('A' for Active; 'I' for Inactive)
ROOT
HETATM    1  C1  UNL     1     -34.281  17.253  -1.420  1.00 20.00     0.021 A 
HETATM    2  C2  UNL     1     -33.706  16.258  -2.331  1.00 20.00     0.029 A 
HETATM    3  C3  UNL     1     -34.635  13.256  -4.016  1.00 20.00     0.025 A 
HETATM    4  C4  UNL     1     -35.619  17.428  -1.394  1.00 20.00     0.107 A 
HETATM    5  C5  UNL     1     -36.542  14.906  -3.961  1.00 20.00     0.101 C 
HETATM    6  C6  UNL     1     -34.368  14.544  -4.105  1.00 20.00     0.038 A 
HETATM    7  C7  UNL     1     -35.701  14.037  -4.577  1.00 20.00     0.028 A 
HETATM    8  C8  UNL     1     -34.565  15.540  -3.074  1.00 20.00     0.044 A 
HETATM    9  N9  UNL     1     -36.462  16.682  -2.197  1.00 20.00    -0.306 N 
HETATM   10  N10 UNL     1     -35.949  15.721  -3.008  1.00 20.00    -0.274 N 
HETATM   11  H16 UNL     1     -37.464  16.798  -2.109  1.00 20.00     0.186 HD
ENDROOT
TORSDOF 0
ENDMDL
