MODEL 1
REMARK VINA RESULT:      -4.8      0.000      0.000
REMARK  1 active torsions:
REMARK  status: ('A' for Active; 'I' for Inactive)
REMARK    1  A    between atoms: C6_6  and  C10_10 
ROOT
HETATM    1  C1  UNL     1     -36.444  14.957  -3.735  1.00 20.00     0.142 A 
HETATM    2  C2  UNL     1     -33.767  16.732  -3.939  1.00 20.00     0.006 C 
HETATM    3  C3  UNL     1     -35.038  16.836  -4.792  1.00 20.00     0.019 C 
HETATM    4  C4  UNL     1     -35.026  14.714  -3.588  1.00 20.00     0.076 A 
HETATM    5  C5  UNL     1     -34.062  15.642  -2.891  1.00 20.00    -0.006 C 
HETATM    6  C6  UNL     1     -35.583  15.424  -4.810  1.00 20.00     0.034 A 
HETATM    7  C7  UNL     1     -34.637  16.214  -1.601  1.00 20.00     0.011 C 
HETATM    8  O11 UNL     1     -37.412  14.225  -3.707  1.00 20.00    -0.297 OA
ENDROOT
BRANCH   6   9
HETATM    9  C10 UNL     1     -35.541  14.723  -6.136  1.00 20.00    -0.006 C 
HETATM   10  C8  UNL     1     -36.783  15.044  -6.983  1.00 20.00     0.011 C 
HETATM   11  C9  UNL     1     -34.273  15.085  -6.924  1.00 20.00     0.011 C 
ENDBRANCH   6   9
TORSDOF 1
ENDMDL
MODEL 2
REMARK VINA RESULT:      -4.8      1.497      1.747
REMARK  1 active torsions:
REMARK  status: ('A' for Active; 'I' for Inactive)
REMARK    1  A    between atoms: C6_6  and  C10_10 
ROOT
HETATM    1  C1  UNL     1     -34.467  14.435  -3.362  1.00 20.00     0.142 A 
HETATM    2  C2  UNL     1     -35.029  17.603  -3.306  1.00 20.00     0.006 C 
HETATM    3  C3  UNL     1     -35.755  16.528  -4.124  1.00 20.00     0.019 C 
HETATM    4  C4  UNL     1     -33.658  15.629  -3.262  1.00 20.00     0.076 A 
HETATM    5  C5  UNL     1     -34.011  16.841  -2.437  1.00 20.00    -0.006 C 
HETATM    6  C6  UNL     1     -34.699  15.470  -4.357  1.00 20.00     0.034 A 
HETATM    7  C7  UNL     1     -34.574  16.468  -1.070  1.00 20.00     0.011 C 
HETATM    8  O11 UNL     1     -34.189  13.255  -3.440  1.00 20.00    -0.297 OA
ENDROOT
BRANCH   6   9
HETATM    9  C10 UNL     1     -34.238  15.305  -5.775  1.00 20.00    -0.006 C 
HETATM   10  C8  UNL     1     -35.127  14.314  -6.545  1.00 20.00     0.011 C 
HETATM   11  C9  UNL     1     -34.205  16.649  -6.517  1.00 20.00     0.011 C 
ENDBRANCH   6   9
TORSDOF 1
ENDMDL
MODEL 3
REMARK VINA RESULT:      -4.4      1.605      3.714
REMARK  1 active torsions:
REMARK  status: ('A' for Active; 'I' for Inactive)
REMARK    1  A    between atoms: C6_6  and  C10_10 
ROOT
HETATM    1  C1  UNL     1     -34.917  13.698  -5.425  1.00 20.00     0.142 A 
HETATM    2  C2  UNL     1     -35.203  16.650  -6.673  1.00 20.00     0.006 C 
HETATM    3  C3  UNL     1     -33.919  15.918  -6.261  1.00 20.00     0.019 C 
HETATM    4  C4  UNL     1     -35.857  14.789  -5.299  1.00 20.00     0.076 A 
HETATM    5  C5  UNL     1     -36.344  15.642  -6.443  1.00 20.00    -0.006 C 
HETATM    6  C6  UNL     1     -34.363  15.010  -5.134  1.00 20.00     0.034 A 
HETATM    7  C7  UNL     1     -36.655  14.819  -7.688  1.00 20.00     0.011 C 
HETATM    8  O11 UNL     1     -34.829  12.619  -4.875  1.00 20.00    -0.297 OA
ENDROOT
BRANCH   6   9
HETATM    9  C10 UNL     1     -33.826  15.345  -3.773  1.00 20.00    -0.006 C 
HETATM   10  C8  UNL     1     -32.477  14.656  -3.514  1.00 20.00     0.011 C 
HETATM   11  C9  UNL     1     -33.673  16.862  -3.586  1.00 20.00     0.011 C 
ENDBRANCH   6   9
TORSDOF 1
ENDMDL
MODEL 4
REMARK VINA RESULT:      -4.4      2.134      4.171
REMARK  1 active torsions:
REMARK  status: ('A' for Active; 'I' for Inactive)
REMARK    1  A    between atoms: C6_6  and  C10_10 
ROOT
HETATM    1  C1  UNL     1     -33.623  16.029  -4.550  1.00 20.00     0.142 A 
HETATM    2  C2  UNL     1     -36.377  14.838  -3.388  1.00 20.00     0.006 C 
HETATM    3  C3  UNL     1     -35.946  16.307  -3.478  1.00 20.00     0.019 C 
HETATM    4  C4  UNL     1     -34.008  14.859  -3.792  1.00 20.00     0.076 A 
HETATM    5  C5  UNL     1     -35.243  14.034  -4.052  1.00 20.00    -0.006 C 
HETATM    6  C6  UNL     1     -34.437  16.252  -3.366  1.00 20.00     0.034 A 
HETATM    7  C7  UNL     1     -35.485  13.803  -5.539  1.00 20.00     0.011 C 
HETATM    8  O11 UNL     1     -32.546  16.460  -4.910  1.00 20.00    -0.297 OA
ENDROOT
BRANCH   6   9
HETATM    9  C10 UNL     1     -33.852  16.840  -2.116  1.00 20.00    -0.006 C 
HETATM   10  C8  UNL     1     -33.659  18.360  -2.244  1.00 20.00     0.011 C 
HETATM   11  C9  UNL     1     -34.722  16.534  -0.888  1.00 20.00     0.011 C 
ENDBRANCH   6   9
TORSDOF 1
ENDMDL
MODEL 5
REMARK VINA RESULT:      -4.4      1.436      3.654
REMARK  1 active torsions:
REMARK  status: ('A' for Active; 'I' for Inactive)
REMARK    1  A    between atoms: C6_6  and  C10_10 
ROOT
HETATM    1  C1  UNL     1     -34.771  13.812  -4.843  1.00 20.00     0.142 A 
HETATM    2  C2  UNL     1     -34.480  16.738  -6.151  1.00 20.00     0.006 C 
HETATM    3  C3  UNL     1     -33.698  16.148  -4.971  1.00 20.00     0.019 C 
HETATM    4  C4  UNL     1     -35.675  14.787  -5.411  1.00 20.00     0.076 A 
HETATM    5  C5  UNL     1     -35.394  15.602  -6.649  1.00 20.00    -0.006 C 
HETATM    6  C6  UNL     1     -34.669  15.173  -4.340  1.00 20.00     0.034 A 
HETATM    7  C7  UNL     1     -34.747  14.775  -7.754  1.00 20.00     0.011 C 
HETATM    8  O11 UNL     1     -34.949  12.739  -4.303  1.00 20.00    -0.297 OA
ENDROOT
BRANCH   6   9
HETATM    9  C10 UNL     1     -35.170  15.539  -2.974  1.00 20.00    -0.006 C 
HETATM   10  C8  UNL     1     -34.062  16.174  -2.119  1.00 20.00     0.011 C 
HETATM   11  C9  UNL     1     -36.371  16.493  -3.052  1.00 20.00     0.011 C 
ENDBRANCH   6   9
TORSDOF 1
ENDMDL
MODEL 6
REMARK VINA RESULT:      -4.4      2.149      4.323
REMARK  1 active torsions:
REMARK  status: ('A' for Active; 'I' for Inactive)
REMARK    1  A    between atoms: C6_6  and  C10_10 
ROOT
HETATM    1  C1  UNL     1     -33.845  17.091  -4.603  1.00 20.00     0.142 A 
HETATM    2  C2  UNL     1     -35.236  14.382  -3.563  1.00 20.00     0.006 C 
HETATM    3  C3  UNL     1     -35.623  15.829  -3.235  1.00 20.00     0.019 C 
HETATM    4  C4  UNL     1     -33.388  15.776  -4.213  1.00 20.00     0.076 A 
HETATM    5  C5  UNL     1     -34.078  14.484  -4.573  1.00 20.00    -0.006 C 
HETATM    6  C6  UNL     1     -34.315  16.586  -3.322  1.00 20.00     0.034 A 
HETATM    7  C7  UNL     1     -34.562  14.468  -6.019  1.00 20.00     0.011 C 
HETATM    8  O11 UNL     1     -33.260  18.103  -4.931  1.00 20.00    -0.297 OA
ENDROOT
BRANCH   6   9
HETATM    9  C10 UNL     1     -33.784  17.128  -2.028  1.00 20.00    -0.006 C 
HETATM   10  C8  UNL     1     -33.795  18.665  -2.014  1.00 20.00     0.011 C 
HETATM   11  C9  UNL     1     -34.580  16.597  -0.826  1.00 20.00     0.011 C 
ENDBRANCH   6   9
TORSDOF 1
ENDMDL
MODEL 7
REMARK VINA RESULT:      -4.2      1.169      3.642
REMARK  1 active torsions:
REMARK  status: ('A' for Active; 'I' for Inactive)
REMARK    1  A    between atoms: C6_6  and  C10_10 
ROOT
HETATM    1  C1  UNL     1     -35.795  15.170  -3.732  1.00 20.00     0.142 A 
HETATM    2  C2  UNL     1     -33.120  16.270  -5.142  1.00 20.00     0.006 C 
HETATM    3  C3  UNL     1     -33.285  15.736  -3.713  1.00 20.00     0.019 C 
HETATM    4  C4  UNL     1     -35.476  16.225  -4.668  1.00 20.00     0.076 A 
HETATM    5  C5  UNL     1     -34.498  16.096  -5.808  1.00 20.00    -0.006 C 
HETATM    6  C6  UNL     1     -34.718  16.073  -3.360  1.00 20.00     0.034 A 
HETATM    7  C7  UNL     1     -34.628  14.764  -6.538  1.00 20.00     0.011 C 
HETATM    8  O11 UNL     1     -36.827  14.839  -3.184  1.00 20.00    -0.297 OA
ENDROOT
BRANCH   6   9
HETATM    9  C10 UNL     1     -34.903  17.109  -2.292  1.00 20.00    -0.006 C 
HETATM   10  C8  UNL     1     -34.703  16.514  -0.888  1.00 20.00     0.011 C 
HETATM   11  C9  UNL     1     -33.949  18.297  -2.488  1.00 20.00     0.011 C 
ENDBRANCH   6   9
TORSDOF 1
ENDMDL
MODEL 8
REMARK VINA RESULT:      -4.2      2.016      4.066
REMARK  1 active torsions:
REMARK  status: ('A' for Active; 'I' for Inactive)
REMARK    1  A    between atoms: C6_6  and  C10_10 
ROOT
HETATM    1  C1  UNL     1     -34.095  17.377  -4.979  1.00 20.00     0.142 A 
HETATM    2  C2  UNL     1     -35.472  14.893  -6.492  1.00 20.00     0.006 C 
HETATM    3  C3  UNL     1     -35.852  15.503  -5.136  1.00 20.00     0.019 C 
HETATM    4  C4  UNL     1     -33.634  16.276  -5.795  1.00 20.00     0.076 A 
HETATM    5  C5  UNL     1     -34.331  15.773  -7.034  1.00 20.00    -0.006 C 
HETATM    6  C6  UNL     1     -34.544  16.046  -4.601  1.00 20.00     0.034 A 
HETATM    7  C7  UNL     1     -34.839  16.908  -7.916  1.00 20.00     0.011 C 
HETATM    8  O11 UNL     1     -33.514  18.257  -4.378  1.00 20.00    -0.297 OA
ENDROOT
BRANCH   6   9
HETATM    9  C10 UNL     1     -33.992  15.350  -3.393  1.00 20.00    -0.006 C 
HETATM   10  C8  UNL     1     -34.604  15.902  -2.095  1.00 20.00     0.011 C 
HETATM   11  C9  UNL     1     -34.219  13.832  -3.464  1.00 20.00     0.011 C 
ENDBRANCH   6   9
TORSDOF 1
ENDMDL
MODEL 9
REMARK VINA RESULT:      -4.2      1.657      2.083
REMARK  1 active torsions:
REMARK  status: ('A' for Active; 'I' for Inactive)
REMARK    1  A    between atoms: C6_6  and  C10_10 
ROOT
HETATM    1  C1  UNL     1     -35.576  17.460  -4.208  1.00 20.00     0.142 A 
HETATM    2  C2  UNL     1     -33.317  15.257  -3.577  1.00 20.00     0.006 C 
HETATM    3  C3  UNL     1     -33.268  16.394  -4.605  1.00 20.00     0.019 C 
HETATM    4  C4  UNL     1     -35.566  16.056  -3.860  1.00 20.00     0.076 A 
HETATM    5  C5  UNL     1     -34.655  15.431  -2.834  1.00 20.00    -0.006 C 
HETATM    6  C6  UNL     1     -34.715  16.594  -4.998  1.00 20.00     0.034 A 
HETATM    7  C7  UNL     1     -34.518  16.287  -1.580  1.00 20.00     0.011 C 
HETATM    8  O11 UNL     1     -36.468  18.230  -4.497  1.00 20.00    -0.297 OA
ENDROOT
BRANCH   6   9
HETATM    9  C10 UNL     1     -35.070  16.218  -6.407  1.00 20.00    -0.006 C 
HETATM   10  C8  UNL     1     -34.711  17.338  -7.397  1.00 20.00     0.011 C 
HETATM   11  C9  UNL     1     -34.378  14.914  -6.833  1.00 20.00     0.011 C 
ENDBRANCH   6   9
TORSDOF 1
ENDMDL
