MODEL 1
REMARK VINA RESULT:      -5.7      0.000      0.000
REMARK  0 active torsions:
REMARK  status: ('A' for Active; 'I' for Inactive)
ROOT
HETATM    1  C1  UNL     1     -33.646   6.298   5.447  1.00 20.00    -0.007 A 
HETATM    2  C2  UNL     1     -33.551   6.255   4.110  1.00 20.00    -0.014 A 
HETATM    3  C3  UNL     1     -34.616   5.354   3.538  1.00 20.00     0.051 A 
HETATM    4  C4  UNL     1     -34.754   3.989   5.797  1.00 20.00     0.014 A 
HETATM    5  C5  UNL     1     -34.749   5.480   5.978  1.00 20.00     0.014 A 
HETATM    6  C6  UNL     1     -35.390   4.860   4.748  1.00 20.00    -0.002 A 
HETATM    7 BR7  UNL     1     -32.347   7.102   3.019  1.00 20.00    -0.056 Br
ENDROOT
TORSDOF 0
ENDMDL
MODEL 2
REMARK VINA RESULT:      -4.2      1.715      2.443
REMARK  0 active torsions:
REMARK  status: ('A' for Active; 'I' for Inactive)
ROOT
HETATM    1  C1  UNL     1     -33.685   6.481   4.498  1.00 20.00    -0.007 A 
HETATM    2  C2  UNL     1     -33.925   6.401   5.815  1.00 20.00    -0.014 A 
HETATM    3  C3  UNL     1     -34.823   5.227   6.113  1.00 20.00     0.051 A 
HETATM    4  C4  UNL     1     -35.838   5.313   3.674  1.00 20.00     0.014 A 
HETATM    5  C5  UNL     1     -34.341   5.416   3.721  1.00 20.00     0.014 A 
HETATM    6  C6  UNL     1     -35.084   4.591   4.758  1.00 20.00    -0.002 A 
HETATM    7 BR7  UNL     1     -33.327   7.495   7.157  1.00 20.00    -0.056 Br
ENDROOT
TORSDOF 0
ENDMDL
MODEL 3
REMARK VINA RESULT:      -4.1      2.181      3.396
REMARK  0 active torsions:
REMARK  status: ('A' for Active; 'I' for Inactive)
ROOT
HETATM    1  C1  UNL     1     -34.483   5.148   3.640  1.00 20.00    -0.007 A 
HETATM    2  C2  UNL     1     -34.390   5.323   4.967  1.00 20.00    -0.014 A 
HETATM    3  C3  UNL     1     -33.467   6.473   5.280  1.00 20.00     0.051 A 
HETATM    4  C4  UNL     1     -32.187   6.143   2.992  1.00 20.00     0.014 A 
HETATM    5  C5  UNL     1     -33.683   6.115   2.869  1.00 20.00     0.014 A 
HETATM    6  C6  UNL     1     -33.017   6.984   3.923  1.00 20.00    -0.002 A 
HETATM    7 BR7  UNL     1     -35.198   4.369   6.306  1.00 20.00    -0.056 Br
ENDROOT
TORSDOF 0
ENDMDL
MODEL 4
REMARK VINA RESULT:      -3.8      0.946      1.942
REMARK  0 active torsions:
REMARK  status: ('A' for Active; 'I' for Inactive)
ROOT
HETATM    1  C1  UNL     1     -33.552   5.596   2.914  1.00 20.00    -0.007 A 
HETATM    2  C2  UNL     1     -32.987   6.504   3.723  1.00 20.00    -0.014 A 
HETATM    3  C3  UNL     1     -33.616   6.449   5.092  1.00 20.00     0.051 A 
HETATM    4  C4  UNL     1     -35.851   5.457   4.087  1.00 20.00     0.014 A 
HETATM    5  C5  UNL     1     -34.601   4.802   3.574  1.00 20.00     0.014 A 
HETATM    6  C6  UNL     1     -34.654   5.344   4.992  1.00 20.00    -0.002 A 
HETATM    7 BR7  UNL     1     -31.655   7.704   3.346  1.00 20.00    -0.056 Br
ENDROOT
TORSDOF 0
ENDMDL
MODEL 5
REMARK VINA RESULT:      -3.8      9.021      9.882
REMARK  0 active torsions:
REMARK  status: ('A' for Active; 'I' for Inactive)
ROOT
HETATM    1  C1  UNL     1     -41.911   5.232  -2.277  1.00 20.00    -0.007 A 
HETATM    2  C2  UNL     1     -41.912   6.573  -2.273  1.00 20.00    -0.014 A 
HETATM    3  C3  UNL     1     -41.175   7.094  -1.066  1.00 20.00     0.051 A 
HETATM    4  C4  UNL     1     -41.682   4.871   0.273  1.00 20.00     0.014 A 
HETATM    5  C5  UNL     1     -41.196   4.647  -1.131  1.00 20.00     0.014 A 
HETATM    6  C6  UNL     1     -40.710   5.846  -0.334  1.00 20.00    -0.002 A 
HETATM    7 BR7  UNL     1     -42.669   7.721  -3.483  1.00 20.00    -0.056 Br
ENDROOT
TORSDOF 0
ENDMDL
MODEL 6
REMARK VINA RESULT:      -3.7     12.332     12.701
REMARK  0 active torsions:
REMARK  status: ('A' for Active; 'I' for Inactive)
ROOT
HETATM    1  C1  UNL     1     -33.473  15.543  -3.086  1.00 20.00    -0.007 A 
HETATM    2  C2  UNL     1     -34.529  14.864  -3.555  1.00 20.00    -0.014 A 
HETATM    3  C3  UNL     1     -35.813  15.498  -3.082  1.00 20.00     0.051 A 
HETATM    4  C4  UNL     1     -34.593  16.523  -0.972  1.00 20.00     0.014 A 
HETATM    5  C5  UNL     1     -33.848  16.705  -2.263  1.00 20.00     0.014 A 
HETATM    6  C6  UNL     1     -35.367  16.690  -2.252  1.00 20.00    -0.002 A 
HETATM    7 BR7  UNL     1     -34.551  13.366  -4.610  1.00 20.00    -0.056 Br
ENDROOT
TORSDOF 0
ENDMDL
MODEL 7
REMARK VINA RESULT:      -3.7     12.262     12.576
REMARK  0 active torsions:
REMARK  status: ('A' for Active; 'I' for Inactive)
ROOT
HETATM    1  C1  UNL     1     -33.585  14.575  -3.444  1.00 20.00    -0.007 A 
HETATM    2  C2  UNL     1     -34.534  15.333  -2.875  1.00 20.00    -0.014 A 
HETATM    3  C3  UNL     1     -35.895  14.945  -3.394  1.00 20.00     0.051 A 
HETATM    4  C4  UNL     1     -34.840  14.023  -5.635  1.00 20.00     0.014 A 
HETATM    5  C5  UNL     1     -34.122  13.584  -4.391  1.00 20.00     0.014 A 
HETATM    6  C6  UNL     1     -35.624  13.812  -4.368  1.00 20.00    -0.002 A 
HETATM    7 BR7  UNL     1     -34.341  16.681  -1.649  1.00 20.00    -0.056 Br
ENDROOT
TORSDOF 0
ENDMDL
MODEL 8
REMARK VINA RESULT:      -3.6      2.216      3.472
REMARK  0 active torsions:
REMARK  status: ('A' for Active; 'I' for Inactive)
ROOT
HETATM    1  C1  UNL     1     -32.944   6.703   4.708  1.00 20.00    -0.007 A 
HETATM    2  C2  UNL     1     -33.796   5.770   4.259  1.00 20.00    -0.014 A 
HETATM    3  C3  UNL     1     -33.517   5.461   2.810  1.00 20.00     0.051 A 
HETATM    4  C4  UNL     1     -32.454   7.853   2.446  1.00 20.00     0.014 A 
HETATM    5  C5  UNL     1     -31.983   7.152   3.688  1.00 20.00     0.014 A 
HETATM    6  C6  UNL     1     -32.343   6.353   2.447  1.00 20.00    -0.002 A 
HETATM    7 BR7  UNL     1     -35.149   4.925   5.160  1.00 20.00    -0.056 Br
ENDROOT
TORSDOF 0
ENDMDL
MODEL 9
REMARK VINA RESULT:      -3.6      9.127     10.070
REMARK  0 active torsions:
REMARK  status: ('A' for Active; 'I' for Inactive)
ROOT
HETATM    1  C1  UNL     1     -42.674   5.329  -1.927  1.00 20.00    -0.007 A 
HETATM    2  C2  UNL     1     -41.785   4.327  -1.973  1.00 20.00    -0.014 A 
HETATM    3  C3  UNL     1     -40.665   4.575  -0.995  1.00 20.00     0.051 A 
HETATM    4  C4  UNL     1     -41.073   7.185  -1.105  1.00 20.00     0.014 A 
HETATM    5  C5  UNL     1     -42.326   6.371  -0.947  1.00 20.00     0.014 A 
HETATM    6  C6  UNL     1     -41.021   5.894  -0.332  1.00 20.00    -0.002 A 
HETATM    7 BR7  UNL     1     -41.801   2.829  -3.028  1.00 20.00    -0.056 Br
ENDROOT
TORSDOF 0
ENDMDL
