MODEL 1
REMARK VINA RESULT:      -5.1      0.000      0.000
REMARK  0 active torsions:
REMARK  status: ('A' for Active; 'I' for Inactive)
ROOT
HETATM    1  C1  UNL     1     -34.581  16.747  -0.723  1.00 20.00     0.012 C 
HETATM    2  C2  UNL     1     -34.849  16.133  -1.720  1.00 20.00    -0.112 C 
HETATM    3  C3  UNL     1     -34.818  14.465  -5.618  1.00 20.00    -0.026 C 
HETATM    4  C4  UNL     1     -34.525  13.666  -4.579  1.00 20.00    -0.024 C 
HETATM    5  C5  UNL     1     -33.122  16.126  -4.950  1.00 20.00     0.009 C 
HETATM    6  C6  UNL     1     -32.783  15.194  -3.764  1.00 20.00     0.010 C 
HETATM    7  C7  UNL     1     -35.473  16.335  -4.135  1.00 20.00     0.026 C 
HETATM    8  C8  UNL     1     -35.179  15.382  -2.943  1.00 20.00     0.072 C 
HETATM    9  C9  UNL     1     -34.602  15.942  -5.353  1.00 20.00     0.009 C 
HETATM   10  C10 UNL     1     -34.043  14.398  -3.341  1.00 20.00     0.023 C 
ENDROOT
TORSDOF 0
ENDMDL
MODEL 2
REMARK VINA RESULT:      -4.9      0.955      2.352
REMARK  0 active torsions:
REMARK  status: ('A' for Active; 'I' for Inactive)
ROOT
HETATM    1  C1  UNL     1     -34.506  16.665  -0.957  1.00 20.00     0.012 C 
HETATM    2  C2  UNL     1     -34.283  16.179  -2.032  1.00 20.00    -0.112 C 
HETATM    3  C3  UNL     1     -34.628  14.215  -5.774  1.00 20.00    -0.026 C 
HETATM    4  C4  UNL     1     -34.474  15.549  -5.765  1.00 20.00    -0.024 C 
HETATM    5  C5  UNL     1     -36.549  14.323  -4.232  1.00 20.00     0.009 C 
HETATM    6  C6  UNL     1     -36.372  15.859  -4.237  1.00 20.00     0.010 C 
HETATM    7  C7  UNL     1     -34.234  14.044  -3.336  1.00 20.00     0.026 C 
HETATM    8  C8  UNL     1     -34.009  15.582  -3.350  1.00 20.00     0.072 C 
HETATM    9  C9  UNL     1     -35.187  13.639  -4.487  1.00 20.00     0.009 C 
HETATM   10  C10 UNL     1     -34.883  16.219  -4.466  1.00 20.00     0.023 C 
ENDROOT
TORSDOF 0
ENDMDL
MODEL 3
REMARK VINA RESULT:      -4.6     11.899     13.369
REMARK  0 active torsions:
REMARK  status: ('A' for Active; 'I' for Inactive)
ROOT
HETATM    1  C1  UNL     1     -42.765   2.418  -2.660  1.00 20.00     0.012 C 
HETATM    2  C2  UNL     1     -42.202   3.441  -2.380  1.00 20.00    -0.112 C 
HETATM    3  C3  UNL     1     -41.150   7.199  -0.723  1.00 20.00    -0.026 C 
HETATM    4  C4  UNL     1     -40.485   6.109  -0.306  1.00 20.00    -0.024 C 
HETATM    5  C5  UNL     1     -43.339   6.178  -0.228  1.00 20.00     0.009 C 
HETATM    6  C6  UNL     1     -42.565   4.932   0.261  1.00 20.00     0.010 C 
HETATM    7  C7  UNL     1     -42.326   5.937  -2.498  1.00 20.00     0.026 C 
HETATM    8  C8  UNL     1     -41.511   4.696  -2.038  1.00 20.00     0.072 C 
HETATM    9  C9  UNL     1     -42.518   6.912  -1.311  1.00 20.00     0.009 C 
HETATM   10  C10 UNL     1     -41.229   4.803  -0.513  1.00 20.00     0.023 C 
ENDROOT
TORSDOF 0
ENDMDL
MODEL 4
REMARK VINA RESULT:      -4.6      1.266      3.603
REMARK  0 active torsions:
REMARK  status: ('A' for Active; 'I' for Inactive)
ROOT
HETATM    1  C1  UNL     1     -36.497  14.813  -7.608  1.00 20.00     0.012 C 
HETATM    2  C2  UNL     1     -35.551  14.716  -6.875  1.00 20.00    -0.112 C 
HETATM    3  C3  UNL     1     -32.941  14.883  -3.538  1.00 20.00    -0.026 C 
HETATM    4  C4  UNL     1     -33.448  13.691  -3.893  1.00 20.00    -0.024 C 
HETATM    5  C5  UNL     1     -35.176  15.918  -3.435  1.00 20.00     0.009 C 
HETATM    6  C6  UNL     1     -35.752  14.539  -3.832  1.00 20.00     0.010 C 
HETATM    7  C7  UNL     1     -33.854  15.993  -5.553  1.00 20.00     0.026 C 
HETATM    8  C8  UNL     1     -34.391  14.598  -5.975  1.00 20.00     0.072 C 
HETATM    9  C9  UNL     1     -33.751  16.074  -4.010  1.00 20.00     0.009 C 
HETATM   10  C10 UNL     1     -34.728  13.770  -4.703  1.00 20.00     0.023 C 
ENDROOT
TORSDOF 0
ENDMDL
MODEL 5
REMARK VINA RESULT:      -4.5      1.307      3.094
REMARK  0 active torsions:
REMARK  status: ('A' for Active; 'I' for Inactive)
ROOT
HETATM    1  C1  UNL     1     -33.565  18.626  -5.345  1.00 20.00     0.012 C 
HETATM    2  C2  UNL     1     -33.569  17.425  -5.313  1.00 20.00    -0.112 C 
HETATM    3  C3  UNL     1     -34.462  13.369  -4.462  1.00 20.00    -0.026 C 
HETATM    4  C4  UNL     1     -34.799  13.857  -5.667  1.00 20.00    -0.024 C 
HETATM    5  C5  UNL     1     -35.637  15.186  -3.282  1.00 20.00     0.009 C 
HETATM    6  C6  UNL     1     -36.031  15.735  -4.672  1.00 20.00     0.010 C 
HETATM    7  C7  UNL     1     -33.218  15.421  -3.856  1.00 20.00     0.026 C 
HETATM    8  C8  UNL     1     -33.573  15.953  -5.273  1.00 20.00     0.072 C 
HETATM    9  C9  UNL     1     -34.299  14.420  -3.382  1.00 20.00     0.009 C 
HETATM   10  C10 UNL     1     -34.944  15.367  -5.713  1.00 20.00     0.023 C 
ENDROOT
TORSDOF 0
ENDMDL
MODEL 6
REMARK VINA RESULT:      -4.5      0.852      1.488
REMARK  0 active torsions:
REMARK  status: ('A' for Active; 'I' for Inactive)
ROOT
HETATM    1  C1  UNL     1     -34.731  16.852  -0.331  1.00 20.00     0.012 C 
HETATM    2  C2  UNL     1     -34.833  16.776  -1.525  1.00 20.00    -0.112 C 
HETATM    3  C3  UNL     1     -34.318  15.754  -5.608  1.00 20.00    -0.026 C 
HETATM    4  C4  UNL     1     -35.398  15.283  -4.964  1.00 20.00    -0.024 C 
HETATM    5  C5  UNL     1     -32.782  14.875  -3.891  1.00 20.00     0.009 C 
HETATM    6  C6  UNL     1     -34.030  14.325  -3.162  1.00 20.00     0.010 C 
HETATM    7  C7  UNL     1     -33.677  17.199  -3.703  1.00 20.00     0.026 C 
HETATM    8  C8  UNL     1     -34.957  16.683  -2.990  1.00 20.00     0.072 C 
HETATM    9  C9  UNL     1     -33.163  16.133  -4.702  1.00 20.00     0.009 C 
HETATM   10  C10 UNL     1     -35.253  15.229  -3.454  1.00 20.00     0.023 C 
ENDROOT
TORSDOF 0
ENDMDL
MODEL 7
REMARK VINA RESULT:      -4.5      1.080      3.165
REMARK  0 active torsions:
REMARK  status: ('A' for Active; 'I' for Inactive)
ROOT
HETATM    1  C1  UNL     1     -36.064  17.564  -6.417  1.00 20.00     0.012 C 
HETATM    2  C2  UNL     1     -35.379  16.646  -6.056  1.00 20.00    -0.112 C 
HETATM    3  C3  UNL     1     -33.291  13.779  -3.732  1.00 20.00    -0.026 C 
HETATM    4  C4  UNL     1     -34.377  13.380  -4.414  1.00 20.00    -0.024 C 
HETATM    5  C5  UNL     1     -34.523  15.618  -2.646  1.00 20.00     0.009 C 
HETATM    6  C6  UNL     1     -35.771  15.144  -3.426  1.00 20.00     0.010 C 
HETATM    7  C7  UNL     1     -33.312  16.015  -4.794  1.00 20.00     0.026 C 
HETATM    8  C8  UNL     1     -34.538  15.521  -5.613  1.00 20.00     0.072 C 
HETATM    9  C9  UNL     1     -33.246  15.266  -3.441  1.00 20.00     0.009 C 
HETATM   10  C10 UNL     1     -35.343  14.496  -4.766  1.00 20.00     0.023 C 
ENDROOT
TORSDOF 0
ENDMDL
MODEL 8
REMARK VINA RESULT:      -4.5      1.279      3.505
REMARK  0 active torsions:
REMARK  status: ('A' for Active; 'I' for Inactive)
ROOT
HETATM    1  C1  UNL     1     -34.855  13.241  -4.425  1.00 20.00     0.012 C 
HETATM    2  C2  UNL     1     -34.392  14.175  -3.829  1.00 20.00    -0.112 C 
HETATM    3  C3  UNL     1     -33.692  18.009  -2.161  1.00 20.00    -0.026 C 
HETATM    4  C4  UNL     1     -34.098  17.023  -1.345  1.00 20.00    -0.024 C 
HETATM    5  C5  UNL     1     -35.573  17.640  -3.711  1.00 20.00     0.009 C 
HETATM    6  C6  UNL     1     -36.040  16.514  -2.761  1.00 20.00     0.010 C 
HETATM    7  C7  UNL     1     -33.401  16.460  -4.069  1.00 20.00     0.026 C 
HETATM    8  C8  UNL     1     -33.824  15.321  -3.099  1.00 20.00     0.072 C 
HETATM    9  C9  UNL     1     -34.039  17.798  -3.621  1.00 20.00     0.009 C 
HETATM   10  C10 UNL     1     -34.818  15.885  -2.046  1.00 20.00     0.023 C 
ENDROOT
TORSDOF 0
ENDMDL
MODEL 9
REMARK VINA RESULT:      -4.5      1.009      1.533
REMARK  0 active torsions:
REMARK  status: ('A' for Active; 'I' for Inactive)
ROOT
HETATM    1  C1  UNL     1     -35.514  18.065  -2.182  1.00 20.00     0.012 C 
HETATM    2  C2  UNL     1     -35.219  16.935  -2.459  1.00 20.00    -0.112 C 
HETATM    3  C3  UNL     1     -34.040  13.406  -4.492  1.00 20.00    -0.026 C 
HETATM    4  C4  UNL     1     -33.166  13.979  -3.648  1.00 20.00    -0.024 C 
HETATM    5  C5  UNL     1     -34.383  15.512  -5.728  1.00 20.00     0.009 C 
HETATM    6  C6  UNL     1     -33.367  16.160  -4.760  1.00 20.00     0.010 C 
HETATM    7  C7  UNL     1     -35.867  14.929  -3.806  1.00 20.00     0.026 C 
HETATM    8  C8  UNL     1     -34.859  15.548  -2.799  1.00 20.00     0.072 C 
HETATM    9  C9  UNL     1     -35.107  14.344  -5.022  1.00 20.00     0.009 C 
HETATM   10  C10 UNL     1     -33.422  15.451  -3.384  1.00 20.00     0.023 C 
ENDROOT
TORSDOF 0
ENDMDL
