MODEL 1
REMARK VINA RESULT:      -4.9      0.000      0.000
REMARK  1 active torsions:
REMARK  status: ('A' for Active; 'I' for Inactive)
REMARK    1  A    between atoms: C6_6  and  C10_10 
ROOT
HETATM    1  C1  UNL     1     -41.928   2.128  -3.244  1.00 20.00     0.017 C 
HETATM    2  C2  UNL     1     -41.810   3.203  -2.723  1.00 20.00    -0.083 C 
HETATM    3  C3  UNL     1     -42.450   5.495  -2.514  1.00 20.00    -0.002 C 
HETATM    4  C4  UNL     1     -41.668   4.480  -2.104  1.00 20.00    -0.009 C 
HETATM    5  C7  UNL     1     -40.665   4.644  -0.991  1.00 20.00     0.048 C 
HETATM    6  C8  UNL     1     -40.889   5.906  -0.156  1.00 20.00     0.006 C 
HETATM    7  C9  UNL     1     -41.149   7.112  -1.054  1.00 20.00     0.012 C 
HETATM    8  C10 UNL     1     -42.387   6.888  -1.937  1.00 20.00     0.031 C 
ENDROOT
BRANCH   8   9
HETATM    9  C6  UNL     1     -42.432   7.932  -3.012  1.00 20.00    -0.028 C 
HETATM   10  C5  UNL     1     -43.080   7.783  -4.172  1.00 20.00     0.007 C 
ENDBRANCH   8   9
TORSDOF 1
ENDMDL
MODEL 2
REMARK VINA RESULT:      -4.8     11.688     13.634
REMARK  1 active torsions:
REMARK  status: ('A' for Active; 'I' for Inactive)
REMARK    1  A    between atoms: C6_6  and  C10_10 
ROOT
HETATM    1  C1  UNL     1     -35.116  17.432   1.044  1.00 20.00     0.017 C 
HETATM    2  C2  UNL     1     -34.824  17.225  -0.102  1.00 20.00    -0.083 C 
HETATM    3  C3  UNL     1     -34.879  15.834  -2.044  1.00 20.00    -0.002 C 
HETATM    4  C4  UNL     1     -34.475  16.979  -1.463  1.00 20.00    -0.009 C 
HETATM    5  C7  UNL     1     -33.689  18.022  -2.214  1.00 20.00     0.048 C 
HETATM    6  C8  UNL     1     -33.732  17.834  -3.732  1.00 20.00     0.006 C 
HETATM    7  C9  UNL     1     -33.500  16.373  -4.105  1.00 20.00     0.012 C 
HETATM    8  C10 UNL     1     -34.567  15.465  -3.473  1.00 20.00     0.031 C 
ENDROOT
BRANCH   8   9
HETATM    9  C6  UNL     1     -34.140  14.032  -3.591  1.00 20.00    -0.028 C 
HETATM   10  C5  UNL     1     -34.549  13.207  -4.560  1.00 20.00     0.007 C 
ENDBRANCH   8   9
TORSDOF 1
ENDMDL
MODEL 3
REMARK VINA RESULT:      -4.7     11.479     13.182
REMARK  1 active torsions:
REMARK  status: ('A' for Active; 'I' for Inactive)
REMARK    1  A    between atoms: C6_6  and  C10_10 
ROOT
HETATM    1  C1  UNL     1     -34.527  16.713  -0.779  1.00 20.00     0.017 C 
HETATM    2  C2  UNL     1     -34.448  16.235  -1.877  1.00 20.00    -0.083 C 
HETATM    3  C3  UNL     1     -33.918  16.430  -4.199  1.00 20.00    -0.002 C 
HETATM    4  C4  UNL     1     -34.357  15.666  -3.182  1.00 20.00    -0.009 C 
HETATM    5  C7  UNL     1     -34.728  14.218  -3.374  1.00 20.00     0.048 C 
HETATM    6  C8  UNL     1     -34.211  13.631  -4.689  1.00 20.00     0.006 C 
HETATM    7  C9  UNL     1     -34.473  14.585  -5.850  1.00 20.00     0.012 C 
HETATM    8  C10 UNL     1     -33.784  15.939  -5.619  1.00 20.00     0.031 C 
ENDROOT
BRANCH   8   9
HETATM    9  C6  UNL     1     -34.309  16.943  -6.601  1.00 20.00    -0.028 C 
HETATM   10  C5  UNL     1     -35.107  16.638  -7.629  1.00 20.00     0.007 C 
ENDBRANCH   8   9
TORSDOF 1
ENDMDL
MODEL 4
REMARK VINA RESULT:      -4.6     10.424     12.185
REMARK  1 active torsions:
REMARK  status: ('A' for Active; 'I' for Inactive)
REMARK    1  A    between atoms: C6_6  and  C10_10 
ROOT
HETATM    1  C1  UNL     1     -38.762  14.763  -4.127  1.00 20.00     0.017 C 
HETATM    2  C2  UNL     1     -37.574  14.754  -3.961  1.00 20.00    -0.083 C 
HETATM    3  C3  UNL     1     -35.630  15.501  -2.789  1.00 20.00    -0.002 C 
HETATM    4  C4  UNL     1     -36.161  14.745  -3.767  1.00 20.00    -0.009 C 
HETATM    5  C7  UNL     1     -35.309  13.865  -4.647  1.00 20.00     0.048 C 
HETATM    6  C8  UNL     1     -33.904  13.633  -4.090  1.00 20.00     0.006 C 
HETATM    7  C9  UNL     1     -33.291  14.940  -3.598  1.00 20.00     0.012 C 
HETATM    8  C10 UNL     1     -34.152  15.574  -2.494  1.00 20.00     0.031 C 
ENDROOT
BRANCH   8   9
HETATM    9  C6  UNL     1     -33.707  16.985  -2.257  1.00 20.00    -0.028 C 
HETATM   10  C5  UNL     1     -33.718  17.584  -1.061  1.00 20.00     0.007 C 
ENDBRANCH   8   9
TORSDOF 1
ENDMDL
MODEL 5
REMARK VINA RESULT:      -4.5     11.168     13.044
REMARK  1 active torsions:
REMARK  status: ('A' for Active; 'I' for Inactive)
REMARK    1  A    between atoms: C6_6  and  C10_10 
ROOT
HETATM    1  C1  UNL     1     -34.776  17.241  -7.863  1.00 20.00     0.017 C 
HETATM    2  C2  UNL     1     -34.766  16.540  -6.889  1.00 20.00    -0.083 C 
HETATM    3  C3  UNL     1     -34.920  16.266  -4.521  1.00 20.00    -0.002 C 
HETATM    4  C4  UNL     1     -34.751  15.706  -5.732  1.00 20.00    -0.009 C 
HETATM    5  C7  UNL     1     -34.575  14.219  -5.907  1.00 20.00     0.048 C 
HETATM    6  C8  UNL     1     -34.978  13.414  -4.670  1.00 20.00     0.006 C 
HETATM    7  C9  UNL     1     -34.413  14.046  -3.402  1.00 20.00     0.012 C 
HETATM    8  C10 UNL     1     -34.920  15.486  -3.229  1.00 20.00     0.031 C 
ENDROOT
BRANCH   8   9
HETATM    9  C6  UNL     1     -34.116  16.178  -2.169  1.00 20.00    -0.028 C 
HETATM   10  C5  UNL     1     -34.611  16.571  -0.991  1.00 20.00     0.007 C 
ENDBRANCH   8   9
TORSDOF 1
ENDMDL
MODEL 6
REMARK VINA RESULT:      -4.4     12.284     14.160
REMARK  1 active torsions:
REMARK  status: ('A' for Active; 'I' for Inactive)
REMARK    1  A    between atoms: C6_6  and  C10_10 
ROOT
HETATM    1  C1  UNL     1     -33.675  18.893  -6.825  1.00 20.00     0.017 C 
HETATM    2  C2  UNL     1     -33.704  18.223  -5.830  1.00 20.00    -0.083 C 
HETATM    3  C3  UNL     1     -33.227  16.184  -4.680  1.00 20.00    -0.002 C 
HETATM    4  C4  UNL     1     -33.742  17.426  -4.647  1.00 20.00    -0.009 C 
HETATM    5  C7  UNL     1     -34.332  18.013  -3.391  1.00 20.00     0.048 C 
HETATM    6  C8  UNL     1     -33.952  17.240  -2.126  1.00 20.00     0.006 C 
HETATM    7  C9  UNL     1     -34.106  15.738  -2.341  1.00 20.00     0.012 C 
HETATM    8  C10 UNL     1     -33.214  15.250  -3.494  1.00 20.00     0.031 C 
ENDROOT
BRANCH   8   9
HETATM    9  C6  UNL     1     -33.614  13.859  -3.884  1.00 20.00    -0.028 C 
HETATM   10  C5  UNL     1     -34.864  13.499  -4.196  1.00 20.00     0.007 C 
ENDBRANCH   8   9
TORSDOF 1
ENDMDL
MODEL 7
REMARK VINA RESULT:      -4.4     11.262     12.305
REMARK  1 active torsions:
REMARK  status: ('A' for Active; 'I' for Inactive)
REMARK    1  A    between atoms: C6_6  and  C10_10 
ROOT
HETATM    1  C1  UNL     1     -37.839  16.197  -6.747  1.00 20.00     0.017 C 
HETATM    2  C2  UNL     1     -36.991  15.719  -6.046  1.00 20.00    -0.083 C 
HETATM    3  C3  UNL     1     -35.860  15.583  -3.945  1.00 20.00    -0.002 C 
HETATM    4  C4  UNL     1     -35.981  15.151  -5.213  1.00 20.00    -0.009 C 
HETATM    5  C7  UNL     1     -35.101  14.063  -5.773  1.00 20.00     0.048 C 
HETATM    6  C8  UNL     1     -34.358  13.272  -4.695  1.00 20.00     0.006 C 
HETATM    7  C9  UNL     1     -33.747  14.209  -3.658  1.00 20.00     0.012 C 
HETATM    8  C10 UNL     1     -34.829  15.060  -2.975  1.00 20.00     0.031 C 
ENDROOT
BRANCH   8   9
HETATM    9  C6  UNL     1     -34.183  16.172  -2.206  1.00 20.00    -0.028 C 
HETATM   10  C5  UNL     1     -34.591  16.585  -1.001  1.00 20.00     0.007 C 
ENDBRANCH   8   9
TORSDOF 1
ENDMDL
MODEL 8
REMARK VINA RESULT:      -4.3     12.343     14.118
REMARK  1 active torsions:
REMARK  status: ('A' for Active; 'I' for Inactive)
REMARK    1  A    between atoms: C6_6  and  C10_10 
ROOT
HETATM    1  C1  UNL     1     -34.565  14.438  -3.458  1.00 20.00     0.017 C 
HETATM    2  C2  UNL     1     -34.442  15.437  -2.804  1.00 20.00    -0.083 C 
HETATM    3  C3  UNL     1     -34.556  16.578  -0.708  1.00 20.00    -0.002 C 
HETATM    4  C4  UNL     1     -34.298  16.625  -2.027  1.00 20.00    -0.009 C 
HETATM    5  C7  UNL     1     -33.834  17.888  -2.706  1.00 20.00     0.048 C 
HETATM    6  C8  UNL     1     -33.336  18.953  -1.726  1.00 20.00     0.006 C 
HETATM    7  C9  UNL     1     -34.295  19.097  -0.549  1.00 20.00     0.012 C 
HETATM    8  C10 UNL     1     -34.442  17.769   0.211  1.00 20.00     0.031 C 
ENDROOT
BRANCH   8   9
HETATM    9  C6  UNL     1     -35.608  17.854   1.150  1.00 20.00    -0.028 C 
HETATM   10  C5  UNL     1     -35.520  17.676   2.472  1.00 20.00     0.007 C 
ENDBRANCH   8   9
TORSDOF 1
ENDMDL
MODEL 9
REMARK VINA RESULT:      -4.3     10.223     12.146
REMARK  1 active torsions:
REMARK  status: ('A' for Active; 'I' for Inactive)
REMARK    1  A    between atoms: C6_6  and  C10_10 
ROOT
HETATM    1  C1  UNL     1     -34.457  16.985  -0.500  1.00 20.00     0.017 C 
HETATM    2  C2  UNL     1     -34.682  16.400  -1.523  1.00 20.00    -0.083 C 
HETATM    3  C3  UNL     1     -36.022  16.053  -3.471  1.00 20.00    -0.002 C 
HETATM    4  C4  UNL     1     -34.949  15.702  -2.738  1.00 20.00    -0.009 C 
HETATM    5  C7  UNL     1     -34.004  14.613  -3.177  1.00 20.00     0.048 C 
HETATM    6  C8  UNL     1     -34.161  14.234  -4.651  1.00 20.00     0.006 C 
HETATM    7  C9  UNL     1     -35.633  14.080  -5.019  1.00 20.00     0.012 C 
HETATM    8  C10 UNL     1     -36.405  15.385  -4.769  1.00 20.00     0.031 C 
ENDROOT
BRANCH   8   9
HETATM    9  C6  UNL     1     -37.879  15.117  -4.835  1.00 20.00    -0.028 C 
HETATM   10  C5  UNL     1     -38.641  14.858  -3.768  1.00 20.00     0.007 C 
ENDBRANCH   8   9
TORSDOF 1
ENDMDL
