MODEL 1
REMARK VINA RESULT:      -5.1      0.000      0.000
REMARK  1 active torsions:
REMARK  status: ('A' for Active; 'I' for Inactive)
REMARK    1  A    between atoms: C1_1  and  C5_5 
ROOT
HETATM    1  C1  UNL     1     -34.095  16.238  -2.450  1.00 20.00    -0.097 C 
HETATM    2  C2  UNL     1     -34.427  16.623  -1.362  1.00 20.00    -0.110 C 
HETATM    3  C7  UNL     1     -34.832  17.094  -0.038  1.00 20.00     0.112 C 
ENDROOT
BRANCH   1   4
HETATM    4  C5  UNL     1     -33.692  15.767  -3.772  1.00 20.00     0.027 C 
HETATM    5  C3  UNL     1     -32.533  14.722  -3.715  1.00 20.00     0.024 C 
HETATM    6  C4  UNL     1     -33.584  13.595  -3.748  1.00 20.00     0.012 C 
HETATM    7  C6  UNL     1     -34.592  14.599  -4.384  1.00 20.00    -0.029 C 
HETATM    8  C9  UNL     1     -36.016  14.457  -3.837  1.00 20.00     0.016 C 
HETATM    9  C10 UNL     1     -34.617  14.494  -5.917  1.00 20.00     0.016 C 
HETATM   10  C8  UNL     1     -33.392  16.967  -4.667  1.00 20.00     0.030 C 
ENDBRANCH   1   4
TORSDOF 1
ENDMDL
MODEL 2
REMARK VINA RESULT:      -4.8      0.904      2.312
REMARK  1 active torsions:
REMARK  status: ('A' for Active; 'I' for Inactive)
REMARK    1  A    between atoms: C1_1  and  C5_5 
ROOT
HETATM    1  C1  UNL     1     -34.680  15.576  -2.608  1.00 20.00    -0.097 C 
HETATM    2  C2  UNL     1     -34.655  16.225  -1.598  1.00 20.00    -0.110 C 
HETATM    3  C7  UNL     1     -34.627  17.016  -0.368  1.00 20.00     0.112 C 
ENDROOT
BRANCH   1   4
HETATM    4  C5  UNL     1     -34.709  14.785  -3.836  1.00 20.00     0.027 C 
HETATM    5  C3  UNL     1     -36.104  14.137  -4.105  1.00 20.00     0.024 C 
HETATM    6  C4  UNL     1     -36.461  15.343  -4.997  1.00 20.00     0.012 C 
HETATM    7  C6  UNL     1     -34.938  15.618  -5.178  1.00 20.00    -0.029 C 
HETATM    8  C9  UNL     1     -34.582  17.107  -5.144  1.00 20.00     0.016 C 
HETATM    9  C10 UNL     1     -34.392  14.988  -6.469  1.00 20.00     0.016 C 
HETATM   10  C8  UNL     1     -33.559  13.780  -3.818  1.00 20.00     0.030 C 
ENDBRANCH   1   4
TORSDOF 1
ENDMDL
MODEL 3
REMARK VINA RESULT:      -4.5      1.068      2.279
REMARK  1 active torsions:
REMARK  status: ('A' for Active; 'I' for Inactive)
REMARK    1  A    between atoms: C1_1  and  C5_5 
ROOT
HETATM    1  C1  UNL     1     -35.139  15.953  -2.582  1.00 20.00    -0.097 C 
HETATM    2  C2  UNL     1     -34.853  16.457  -1.530  1.00 20.00    -0.110 C 
HETATM    3  C7  UNL     1     -34.507  17.071  -0.249  1.00 20.00     0.112 C 
ENDROOT
BRANCH   1   4
HETATM    4  C5  UNL     1     -35.485  15.339  -3.861  1.00 20.00     0.027 C 
HETATM    5  C3  UNL     1     -35.317  16.317  -5.067  1.00 20.00     0.024 C 
HETATM    6  C4  UNL     1     -33.903  15.748  -5.295  1.00 20.00     0.012 C 
HETATM    7  C6  UNL     1     -34.333  14.460  -4.530  1.00 20.00    -0.029 C 
HETATM    8  C9  UNL     1     -33.244  13.915  -3.602  1.00 20.00     0.016 C 
HETATM    9  C10 UNL     1     -34.794  13.351  -5.488  1.00 20.00     0.016 C 
HETATM   10  C8  UNL     1     -36.877  14.718  -3.763  1.00 20.00     0.030 C 
ENDBRANCH   1   4
TORSDOF 1
ENDMDL
MODEL 4
REMARK VINA RESULT:      -4.4     11.565     13.693
REMARK  1 active torsions:
REMARK  status: ('A' for Active; 'I' for Inactive)
REMARK    1  A    between atoms: C1_1  and  C5_5 
ROOT
HETATM    1  C1  UNL     1     -41.776   3.984  -1.846  1.00 20.00    -0.097 C 
HETATM    2  C2  UNL     1     -41.567   3.147  -2.681  1.00 20.00    -0.110 C 
HETATM    3  C7  UNL     1     -41.310   2.127  -3.697  1.00 20.00     0.112 C 
ENDROOT
BRANCH   1   4
HETATM    4  C5  UNL     1     -42.032   5.001  -0.829  1.00 20.00     0.027 C 
HETATM    5  C3  UNL     1     -40.744   5.781  -0.416  1.00 20.00     0.024 C 
HETATM    6  C4  UNL     1     -41.107   6.869  -1.447  1.00 20.00     0.012 C 
HETATM    7  C6  UNL     1     -42.589   6.392  -1.380  1.00 20.00    -0.029 C 
HETATM    8  C9  UNL     1     -43.281   6.374  -2.746  1.00 20.00     0.016 C 
HETATM    9  C10 UNL     1     -43.417   7.230  -0.395  1.00 20.00     0.016 C 
HETATM   10  C8  UNL     1     -42.768   4.365   0.348  1.00 20.00     0.030 C 
ENDBRANCH   1   4
TORSDOF 1
ENDMDL
MODEL 5
REMARK VINA RESULT:      -4.2      1.031      4.124
REMARK  1 active torsions:
REMARK  status: ('A' for Active; 'I' for Inactive)
REMARK    1  A    between atoms: C1_1  and  C5_5 
ROOT
HETATM    1  C1  UNL     1     -35.242  14.865  -5.337  1.00 20.00    -0.097 C 
HETATM    2  C2  UNL     1     -35.506  14.730  -6.500  1.00 20.00    -0.110 C 
HETATM    3  C7  UNL     1     -35.828  14.564  -7.917  1.00 20.00     0.112 C 
ENDROOT
BRANCH   1   4
HETATM    4  C5  UNL     1     -34.923  15.031  -3.921  1.00 20.00     0.027 C 
HETATM    5  C3  UNL     1     -33.980  13.910  -3.378  1.00 20.00     0.024 C 
HETATM    6  C4  UNL     1     -32.775  14.831  -3.651  1.00 20.00     0.012 C 
HETATM    7  C6  UNL     1     -33.740  16.054  -3.603  1.00 20.00    -0.029 C 
HETATM    8  C9  UNL     1     -33.429  17.112  -4.666  1.00 20.00     0.016 C 
HETATM    9  C10 UNL     1     -33.765  16.711  -2.215  1.00 20.00     0.016 C 
HETATM   10  C8  UNL     1     -36.218  15.182  -3.125  1.00 20.00     0.030 C 
ENDBRANCH   1   4
TORSDOF 1
ENDMDL
MODEL 6
REMARK VINA RESULT:      -4.1      1.331      3.511
REMARK  1 active torsions:
REMARK  status: ('A' for Active; 'I' for Inactive)
REMARK    1  A    between atoms: C1_1  and  C5_5 
ROOT
HETATM    1  C1  UNL     1     -36.460  14.740  -4.222  1.00 20.00    -0.097 C 
HETATM    2  C2  UNL     1     -37.621  14.868  -3.942  1.00 20.00    -0.110 C 
HETATM    3  C7  UNL     1     -39.035  15.022  -3.604  1.00 20.00     0.112 C 
ENDROOT
BRANCH   1   4
HETATM    4  C5  UNL     1     -35.047  14.584  -4.561  1.00 20.00     0.027 C 
HETATM    5  C3  UNL     1     -34.608  15.489  -5.755  1.00 20.00     0.024 C 
HETATM    6  C4  UNL     1     -34.140  16.552  -4.741  1.00 20.00     0.012 C 
HETATM    7  C6  UNL     1     -34.034  15.431  -3.664  1.00 20.00    -0.029 C 
HETATM    8  C9  UNL     1     -34.525  15.870  -2.282  1.00 20.00     0.016 C 
HETATM    9  C10 UNL     1     -32.604  14.878  -3.551  1.00 20.00     0.016 C 
HETATM   10  C8  UNL     1     -34.738  13.103  -4.766  1.00 20.00     0.030 C 
ENDBRANCH   1   4
TORSDOF 1
ENDMDL
MODEL 7
REMARK VINA RESULT:      -4.1      1.594      3.296
REMARK  1 active torsions:
REMARK  status: ('A' for Active; 'I' for Inactive)
REMARK    1  A    between atoms: C1_1  and  C5_5 
ROOT
HETATM    1  C1  UNL     1     -36.737  14.991  -3.701  1.00 20.00    -0.097 C 
HETATM    2  C2  UNL     1     -37.933  14.925  -3.795  1.00 20.00    -0.110 C 
HETATM    3  C7  UNL     1     -39.388  14.845  -3.911  1.00 20.00     0.112 C 
ENDROOT
BRANCH   1   4
HETATM    4  C5  UNL     1     -35.283  15.069  -3.586  1.00 20.00     0.027 C 
HETATM    5  C3  UNL     1     -34.588  13.680  -3.750  1.00 20.00     0.024 C 
HETATM    6  C4  UNL     1     -34.382  13.991  -5.246  1.00 20.00     0.012 C 
HETATM    7  C6  UNL     1     -34.516  15.508  -4.915  1.00 20.00    -0.029 C 
HETATM    8  C9  UNL     1     -35.321  16.287  -5.960  1.00 20.00     0.016 C 
HETATM    9  C10 UNL     1     -33.146  16.176  -4.719  1.00 20.00     0.016 C 
HETATM   10  C8  UNL     1     -34.917  15.790  -2.291  1.00 20.00     0.030 C 
ENDBRANCH   1   4
TORSDOF 1
ENDMDL
MODEL 8
REMARK VINA RESULT:      -4.0     11.085     13.142
REMARK  1 active torsions:
REMARK  status: ('A' for Active; 'I' for Inactive)
REMARK    1  A    between atoms: C1_1  and  C5_5 
ROOT
HETATM    1  C1  UNL     1     -42.283   6.365  -2.631  1.00 20.00    -0.097 C 
HETATM    2  C2  UNL     1     -42.321   7.277  -3.410  1.00 20.00    -0.110 C 
HETATM    3  C7  UNL     1     -42.367   8.387  -4.361  1.00 20.00     0.112 C 
ENDROOT
BRANCH   1   4
HETATM    4  C5  UNL     1     -42.238   5.256  -1.681  1.00 20.00     0.027 C 
HETATM    5  C3  UNL     1     -40.792   4.950  -1.175  1.00 20.00     0.024 C 
HETATM    6  C4  UNL     1     -41.060   5.850   0.047  1.00 20.00     0.012 C 
HETATM    7  C6  UNL     1     -42.588   5.636  -0.171  1.00 20.00    -0.029 C 
HETATM    8  C9  UNL     1     -43.415   6.905   0.055  1.00 20.00     0.016 C 
HETATM    9  C10 UNL     1     -43.139   4.501   0.705  1.00 20.00     0.016 C 
HETATM   10  C8  UNL     1     -42.946   4.045  -2.284  1.00 20.00     0.030 C 
ENDBRANCH   1   4
TORSDOF 1
ENDMDL
MODEL 9
REMARK VINA RESULT:      -4.0      1.337      4.125
REMARK  1 active torsions:
REMARK  status: ('A' for Active; 'I' for Inactive)
REMARK    1  A    between atoms: C1_1  and  C5_5 
ROOT
HETATM    1  C1  UNL     1     -34.945  14.959  -5.513  1.00 20.00    -0.097 C 
HETATM    2  C2  UNL     1     -35.451  14.861  -6.598  1.00 20.00    -0.110 C 
HETATM    3  C7  UNL     1     -36.069  14.739  -7.918  1.00 20.00     0.112 C 
ENDROOT
BRANCH   1   4
HETATM    4  C5  UNL     1     -34.330  15.082  -4.194  1.00 20.00     0.027 C 
HETATM    5  C3  UNL     1     -32.965  15.840  -4.232  1.00 20.00     0.024 C 
HETATM    6  C4  UNL     1     -33.713  17.144  -3.888  1.00 20.00     0.012 C 
HETATM    7  C6  UNL     1     -34.872  16.286  -3.298  1.00 20.00    -0.029 C 
HETATM    8  C9  UNL     1     -36.262  16.833  -3.632  1.00 20.00     0.016 C 
HETATM    9  C10 UNL     1     -34.739  16.112  -1.777  1.00 20.00     0.016 C 
HETATM   10  C8  UNL     1     -34.247  13.702  -3.545  1.00 20.00     0.030 C 
ENDBRANCH   1   4
TORSDOF 1
ENDMDL
