MODEL 1
REMARK VINA RESULT:      -4.7      0.000      0.000
REMARK  0 active torsions:
REMARK  status: ('A' for Active; 'I' for Inactive)
ROOT
HETATM    1  C1  UNL     1     -32.219   6.670   2.858  1.00 20.00     0.014 C 
HETATM    2  C2  UNL     1     -33.106   6.226   3.535  1.00 20.00    -0.091 C 
HETATM    3  C3  UNL     1     -34.878   3.939   5.892  1.00 20.00     0.003 C 
HETATM    4  C4  UNL     1     -35.013   5.288   6.601  1.00 20.00     0.003 C 
HETATM    5  C5  UNL     1     -34.015   4.195   4.657  1.00 20.00     0.039 C 
HETATM    6  C6  UNL     1     -34.223   6.290   5.761  1.00 20.00     0.039 C 
HETATM    7  C7  UNL     1     -34.187   5.684   4.360  1.00 20.00     0.099 C 
HETATM    8 CL8  UNL     1     -35.728   5.982   3.503  1.00 20.00    -0.105 Cl
ENDROOT
TORSDOF 0
ENDMDL
MODEL 2
REMARK VINA RESULT:      -4.2     12.115     13.099
REMARK  0 active torsions:
REMARK  status: ('A' for Active; 'I' for Inactive)
ROOT
HETATM    1  C1  UNL     1     -34.673  16.389  -1.381  1.00 20.00     0.014 C 
HETATM    2  C2  UNL     1     -34.399  15.798  -2.390  1.00 20.00    -0.091 C 
HETATM    3  C3  UNL     1     -34.811  13.503  -5.304  1.00 20.00     0.003 C 
HETATM    4  C4  UNL     1     -34.485  14.830  -5.993  1.00 20.00     0.003 C 
HETATM    5  C5  UNL     1     -34.901  13.813  -3.809  1.00 20.00     0.039 C 
HETATM    6  C6  UNL     1     -34.397  15.873  -4.881  1.00 20.00     0.039 C 
HETATM    7  C7  UNL     1     -34.066  15.078  -3.620  1.00 20.00     0.099 C 
HETATM    8 CL8  UNL     1     -32.323  14.680  -3.564  1.00 20.00    -0.105 Cl
ENDROOT
TORSDOF 0
ENDMDL
MODEL 3
REMARK VINA RESULT:      -4.2     12.074     13.024
REMARK  0 active torsions:
REMARK  status: ('A' for Active; 'I' for Inactive)
ROOT
HETATM    1  C1  UNL     1     -34.541  16.490  -1.143  1.00 20.00     0.014 C 
HETATM    2  C2  UNL     1     -34.476  15.978  -2.227  1.00 20.00    -0.091 C 
HETATM    3  C3  UNL     1     -34.717  13.336  -4.852  1.00 20.00     0.003 C 
HETATM    4  C4  UNL     1     -35.624  14.428  -5.421  1.00 20.00     0.003 C 
HETATM    5  C5  UNL     1     -34.267  13.833  -3.478  1.00 20.00     0.039 C 
HETATM    6  C6  UNL     1     -35.679  15.528  -4.363  1.00 20.00     0.039 C 
HETATM    7  C7  UNL     1     -34.399  15.353  -3.548  1.00 20.00     0.099 C 
HETATM    8 CL8  UNL     1     -33.002  16.068  -4.408  1.00 20.00    -0.105 Cl
ENDROOT
TORSDOF 0
ENDMDL
MODEL 4
REMARK VINA RESULT:      -4.1     11.849     12.977
REMARK  0 active torsions:
REMARK  status: ('A' for Active; 'I' for Inactive)
ROOT
HETATM    1  C1  UNL     1     -34.490  16.512  -1.246  1.00 20.00     0.014 C 
HETATM    2  C2  UNL     1     -34.760  15.891  -2.238  1.00 20.00    -0.091 C 
HETATM    3  C3  UNL     1     -34.549  14.703  -5.769  1.00 20.00     0.003 C 
HETATM    4  C4  UNL     1     -34.411  13.394  -4.988  1.00 20.00     0.003 C 
HETATM    5  C5  UNL     1     -34.598  15.816  -4.723  1.00 20.00     0.039 C 
HETATM    6  C6  UNL     1     -34.381  13.783  -3.511  1.00 20.00     0.039 C 
HETATM    7  C7  UNL     1     -35.089  15.135  -3.447  1.00 20.00     0.099 C 
HETATM    8 CL8  UNL     1     -36.864  14.920  -3.490  1.00 20.00    -0.105 Cl
ENDROOT
TORSDOF 0
ENDMDL
MODEL 5
REMARK VINA RESULT:      -4.1      9.699     10.248
REMARK  0 active torsions:
REMARK  status: ('A' for Active; 'I' for Inactive)
ROOT
HETATM    1  C1  UNL     1     -41.555   2.368  -3.409  1.00 20.00     0.014 C 
HETATM    2  C2  UNL     1     -41.711   3.284  -2.647  1.00 20.00    -0.091 C 
HETATM    3  C3  UNL     1     -40.840   6.143  -0.413  1.00 20.00     0.003 C 
HETATM    4  C4  UNL     1     -41.810   6.798  -1.398  1.00 20.00     0.003 C 
HETATM    5  C5  UNL     1     -40.648   4.707  -0.900  1.00 20.00     0.039 C 
HETATM    6  C6  UNL     1     -42.153   5.726  -2.431  1.00 20.00     0.039 C 
HETATM    7  C7  UNL     1     -41.900   4.399  -1.719  1.00 20.00     0.099 C 
HETATM    8 CL8  UNL     1     -43.270   3.989  -0.645  1.00 20.00    -0.105 Cl
ENDROOT
TORSDOF 0
ENDMDL
MODEL 6
REMARK VINA RESULT:      -4.0     12.462     13.312
REMARK  0 active torsions:
REMARK  status: ('A' for Active; 'I' for Inactive)
ROOT
HETATM    1  C1  UNL     1     -34.640  14.766  -6.954  1.00 20.00     0.014 C 
HETATM    2  C2  UNL     1     -34.431  14.877  -5.777  1.00 20.00    -0.091 C 
HETATM    3  C3  UNL     1     -33.674  16.520  -2.513  1.00 20.00     0.003 C 
HETATM    4  C4  UNL     1     -35.000  15.817  -2.211  1.00 20.00     0.003 C 
HETATM    5  C5  UNL     1     -33.395  16.279  -3.997  1.00 20.00     0.039 C 
HETATM    6  C6  UNL     1     -35.456  15.191  -3.528  1.00 20.00     0.039 C 
HETATM    7  C7  UNL     1     -34.176  15.013  -4.342  1.00 20.00     0.099 C 
HETATM    8 CL8  UNL     1     -33.285  13.557  -3.806  1.00 20.00    -0.105 Cl
ENDROOT
TORSDOF 0
ENDMDL
MODEL 7
REMARK VINA RESULT:      -3.9      1.796      2.469
REMARK  0 active torsions:
REMARK  status: ('A' for Active; 'I' for Inactive)
ROOT
HETATM    1  C1  UNL     1     -32.184   8.389   2.020  1.00 20.00     0.014 C 
HETATM    2  C2  UNL     1     -32.594   7.457   2.657  1.00 20.00    -0.091 C 
HETATM    3  C3  UNL     1     -34.342   5.599   5.380  1.00 20.00     0.003 C 
HETATM    4  C4  UNL     1     -35.030   5.046   4.130  1.00 20.00     0.003 C 
HETATM    5  C5  UNL     1     -33.381   6.682   4.890  1.00 20.00     0.039 C 
HETATM    6  C6  UNL     1     -34.454   5.825   2.950  1.00 20.00     0.039 C 
HETATM    7  C7  UNL     1     -33.093   6.322   3.434  1.00 20.00     0.099 C 
HETATM    8 CL8  UNL     1     -31.874   5.016   3.337  1.00 20.00    -0.105 Cl
ENDROOT
TORSDOF 0
ENDMDL
MODEL 8
REMARK VINA RESULT:      -3.8     11.852     13.311
REMARK  0 active torsions:
REMARK  status: ('A' for Active; 'I' for Inactive)
ROOT
HETATM    1  C1  UNL     1     -33.668  18.387  -4.517  1.00 20.00     0.014 C 
HETATM    2  C2  UNL     1     -33.847  17.276  -4.096  1.00 20.00    -0.091 C 
HETATM    3  C3  UNL     1     -34.877  13.690  -4.060  1.00 20.00     0.003 C 
HETATM    4  C4  UNL     1     -33.398  13.596  -3.678  1.00 20.00     0.003 C 
HETATM    5  C5  UNL     1     -35.145  15.166  -4.355  1.00 20.00     0.039 C 
HETATM    6  C6  UNL     1     -32.848  15.018  -3.765  1.00 20.00     0.039 C 
HETATM    7  C7  UNL     1     -34.065  15.923  -3.585  1.00 20.00     0.099 C 
HETATM    8 CL8  UNL     1     -34.500  16.056  -1.855  1.00 20.00    -0.105 Cl
ENDROOT
TORSDOF 0
ENDMDL
MODEL 9
REMARK VINA RESULT:      -3.7     11.947     13.536
REMARK  0 active torsions:
REMARK  status: ('A' for Active; 'I' for Inactive)
ROOT
HETATM    1  C1  UNL     1     -35.612  14.405  -7.916  1.00 20.00     0.014 C 
HETATM    2  C2  UNL     1     -35.308  14.515  -6.759  1.00 20.00    -0.091 C 
HETATM    3  C3  UNL     1     -33.607  13.779  -3.520  1.00 20.00     0.003 C 
HETATM    4  C4  UNL     1     -33.202  15.234  -3.764  1.00 20.00     0.003 C 
HETATM    5  C5  UNL     1     -34.401  13.348  -4.753  1.00 20.00     0.039 C 
HETATM    6  C6  UNL     1     -33.767  15.606  -5.134  1.00 20.00     0.039 C 
HETATM    7  C7  UNL     1     -34.936  14.648  -5.350  1.00 20.00     0.099 C 
HETATM    8 CL8  UNL     1     -36.382  15.204  -4.455  1.00 20.00    -0.105 Cl
ENDROOT
TORSDOF 0
ENDMDL
