MODEL 1
REMARK VINA RESULT:      -4.8      0.000      0.000
REMARK  0 active torsions:
REMARK  status: ('A' for Active; 'I' for Inactive)
ROOT
HETATM    1  C1  UNL     1     -34.321  16.294  -6.358  1.00 20.00     0.001 C 
HETATM    2  C2  UNL     1     -35.286  17.374  -2.012  1.00 20.00     0.001 C 
HETATM    3  C3  UNL     1     -33.408  16.957  -5.332  1.00 20.00     0.005 C 
HETATM    4  C4  UNL     1     -34.972  17.810  -3.448  1.00 20.00     0.005 C 
HETATM    5  C5  UNL     1     -34.367  14.777  -6.207  1.00 20.00     0.005 C 
HETATM    6  C6  UNL     1     -34.527  16.057  -1.784  1.00 20.00     0.005 C 
HETATM    7  C7  UNL     1     -35.132  13.361  -4.152  1.00 20.00     0.010 A 
HETATM    8  C8  UNL     1     -33.805  16.912  -3.858  1.00 20.00    -0.010 C 
HETATM    9  C9  UNL     1     -35.406  14.379  -5.221  1.00 20.00    -0.010 A 
HETATM   10  C10 UNL     1     -34.145  15.568  -3.196  1.00 20.00    -0.006 C 
HETATM   11  C11 UNL     1     -35.317  14.814  -3.783  1.00 20.00    -0.006 A 
ENDROOT
TORSDOF 0
ENDMDL
MODEL 2
REMARK VINA RESULT:      -4.8      1.001      3.309
REMARK  0 active torsions:
REMARK  status: ('A' for Active; 'I' for Inactive)
ROOT
HETATM    1  C1  UNL     1     -33.628  17.866  -4.693  1.00 20.00     0.001 C 
HETATM    2  C2  UNL     1     -34.836  13.461  -5.050  1.00 20.00     0.001 C 
HETATM    3  C3  UNL     1     -34.773  17.270  -5.506  1.00 20.00     0.005 C 
HETATM    4  C4  UNL     1     -34.265  14.734  -5.684  1.00 20.00     0.005 C 
HETATM    5  C5  UNL     1     -33.992  18.059  -3.225  1.00 20.00     0.005 C 
HETATM    6  C6  UNL     1     -35.865  13.923  -4.005  1.00 20.00     0.005 C 
HETATM    7  C7  UNL     1     -34.718  16.268  -1.470  1.00 20.00     0.010 A 
HETATM    8  C8  UNL     1     -35.213  15.837  -5.215  1.00 20.00    -0.010 C 
HETATM    9  C9  UNL     1     -33.722  16.819  -2.450  1.00 20.00    -0.010 A 
HETATM   10  C10 UNL     1     -35.558  15.417  -3.779  1.00 20.00    -0.006 C 
HETATM   11  C11 UNL     1     -34.445  15.537  -2.763  1.00 20.00    -0.006 A 
ENDROOT
TORSDOF 0
ENDMDL
MODEL 3
REMARK VINA RESULT:      -4.7      1.183      1.486
REMARK  0 active torsions:
REMARK  status: ('A' for Active; 'I' for Inactive)
ROOT
HETATM    1  C1  UNL     1     -36.156  15.254  -5.541  1.00 20.00     0.001 C 
HETATM    2  C2  UNL     1     -35.128  16.981  -1.424  1.00 20.00     0.001 C 
HETATM    3  C3  UNL     1     -35.670  16.662  -5.209  1.00 20.00     0.005 C 
HETATM    4  C4  UNL     1     -36.036  16.948  -2.659  1.00 20.00     0.005 C 
HETATM    5  C5  UNL     1     -35.014  14.248  -5.632  1.00 20.00     0.005 C 
HETATM    6  C6  UNL     1     -33.712  16.647  -1.920  1.00 20.00     0.005 C 
HETATM    7  C7  UNL     1     -33.294  13.556  -3.793  1.00 20.00     0.010 A 
HETATM    8  C8  UNL     1     -35.060  16.923  -3.834  1.00 20.00    -0.010 C 
HETATM    9  C9  UNL     1     -34.705  13.682  -4.292  1.00 20.00    -0.010 A 
HETATM   10  C10 UNL     1     -33.915  16.036  -3.322  1.00 20.00    -0.006 C 
HETATM   11  C11 UNL     1     -34.229  14.565  -3.170  1.00 20.00    -0.006 A 
ENDROOT
TORSDOF 0
ENDMDL
MODEL 4
REMARK VINA RESULT:      -4.6      1.461      2.412
REMARK  0 active torsions:
REMARK  status: ('A' for Active; 'I' for Inactive)
ROOT
HETATM    1  C1  UNL     1     -34.785  14.309  -6.050  1.00 20.00     0.001 C 
HETATM    2  C2  UNL     1     -33.653  16.505  -2.192  1.00 20.00     0.001 C 
HETATM    3  C3  UNL     1     -34.467  13.705  -4.687  1.00 20.00     0.005 C 
HETATM    4  C4  UNL     1     -33.270  15.577  -3.351  1.00 20.00     0.005 C 
HETATM    5  C5  UNL     1     -36.225  14.800  -6.151  1.00 20.00     0.005 C 
HETATM    6  C6  UNL     1     -35.145  16.256  -1.915  1.00 20.00     0.005 C 
HETATM    7  C7  UNL     1     -37.437  16.615  -4.717  1.00 20.00     0.010 A 
HETATM    8  C8  UNL     1     -34.455  14.619  -3.463  1.00 20.00    -0.010 C 
HETATM    9  C9  UNL     1     -36.339  16.197  -5.653  1.00 20.00    -0.010 A 
HETATM   10  C10 UNL     1     -35.664  15.517  -3.165  1.00 20.00    -0.006 C 
HETATM   11  C11 UNL     1     -36.012  16.539  -4.224  1.00 20.00    -0.006 A 
ENDROOT
TORSDOF 0
ENDMDL
MODEL 5
REMARK VINA RESULT:      -4.6      1.000      3.214
REMARK  0 active torsions:
REMARK  status: ('A' for Active; 'I' for Inactive)
ROOT
HETATM    1  C1  UNL     1     -35.305  13.850  -4.764  1.00 20.00     0.001 C 
HETATM    2  C2  UNL     1     -34.909  18.096  -6.437  1.00 20.00     0.001 C 
HETATM    3  C3  UNL     1     -34.511  14.307  -5.983  1.00 20.00     0.005 C 
HETATM    4  C4  UNL     1     -35.425  16.659  -6.576  1.00 20.00     0.005 C 
HETATM    5  C5  UNL     1     -34.552  14.073  -3.457  1.00 20.00     0.005 C 
HETATM    6  C6  UNL     1     -33.589  18.007  -5.654  1.00 20.00     0.005 C 
HETATM    7  C7  UNL     1     -33.680  16.312  -2.435  1.00 20.00     0.010 A 
HETATM    8  C8  UNL     1     -34.233  15.798  -6.162  1.00 20.00    -0.010 C 
HETATM    9  C9  UNL     1     -34.798  15.445  -2.938  1.00 20.00    -0.010 A 
HETATM   10  C10 UNL     1     -33.598  16.602  -5.018  1.00 20.00    -0.006 C 
HETATM   11  C11 UNL     1     -34.382  16.658  -3.726  1.00 20.00    -0.006 A 
ENDROOT
TORSDOF 0
ENDMDL
MODEL 6
REMARK VINA RESULT:      -4.6      1.111      4.061
REMARK  0 active torsions:
REMARK  status: ('A' for Active; 'I' for Inactive)
ROOT
HETATM    1  C1  UNL     1     -34.636  15.585  -2.567  1.00 20.00     0.001 C 
HETATM    2  C2  UNL     1     -35.672  14.645  -6.930  1.00 20.00     0.001 C 
HETATM    3  C3  UNL     1     -34.143  14.418  -3.418  1.00 20.00     0.005 C 
HETATM    4  C4  UNL     1     -35.760  14.292  -5.440  1.00 20.00     0.005 C 
HETATM    5  C5  UNL     1     -33.845  16.865  -2.815  1.00 20.00     0.005 C 
HETATM    6  C6  UNL     1     -34.307  15.324  -7.133  1.00 20.00     0.005 C 
HETATM    7  C7  UNL     1     -33.555  18.203  -5.039  1.00 20.00     0.010 A 
HETATM    8  C8  UNL     1     -34.332  14.482  -4.932  1.00 20.00    -0.010 C 
HETATM    9  C9  UNL     1     -34.421  17.625  -3.956  1.00 20.00    -0.010 A 
HETATM   10  C10 UNL     1     -33.839  15.708  -5.715  1.00 20.00    -0.006 C 
HETATM   11  C11 UNL     1     -34.462  17.033  -5.339  1.00 20.00    -0.006 A 
ENDROOT
TORSDOF 0
ENDMDL
MODEL 7
REMARK VINA RESULT:      -4.6      0.959      2.710
REMARK  0 active torsions:
REMARK  status: ('A' for Active; 'I' for Inactive)
ROOT
HETATM    1  C1  UNL     1     -34.832  13.537  -5.306  1.00 20.00     0.001 C 
HETATM    2  C2  UNL     1     -33.934  16.975  -2.414  1.00 20.00     0.001 C 
HETATM    3  C3  UNL     1     -35.681  14.025  -4.137  1.00 20.00     0.005 C 
HETATM    4  C4  UNL     1     -34.102  15.474  -2.678  1.00 20.00     0.005 C 
HETATM    5  C5  UNL     1     -35.032  14.375  -6.564  1.00 20.00     0.005 C 
HETATM    6  C6  UNL     1     -34.901  17.693  -3.370  1.00 20.00     0.005 C 
HETATM    7  C7  UNL     1     -34.605  16.927  -6.915  1.00 20.00     0.010 A 
HETATM    8  C8  UNL     1     -35.372  15.389  -3.523  1.00 20.00    -0.010 C 
HETATM    9  C9  UNL     1     -34.120  15.549  -6.564  1.00 20.00    -0.010 A 
HETATM   10  C10 UNL     1     -35.281  16.631  -4.422  1.00 20.00    -0.006 C 
HETATM   11  C11 UNL     1     -34.214  16.603  -5.493  1.00 20.00    -0.006 A 
ENDROOT
TORSDOF 0
ENDMDL
MODEL 8
REMARK VINA RESULT:      -4.6      1.362      3.596
REMARK  0 active torsions:
REMARK  status: ('A' for Active; 'I' for Inactive)
ROOT
HETATM    1  C1  UNL     1     -33.195  15.526  -4.090  1.00 20.00     0.001 C 
HETATM    2  C2  UNL     1     -35.605  14.796  -7.918  1.00 20.00     0.001 C 
HETATM    3  C3  UNL     1     -33.401  16.477  -5.265  1.00 20.00     0.005 C 
HETATM    4  C4  UNL     1     -34.256  15.005  -7.220  1.00 20.00     0.005 C 
HETATM    5  C5  UNL     1     -34.365  15.543  -3.112  1.00 20.00     0.005 C 
HETATM    6  C6  UNL     1     -36.635  15.613  -7.121  1.00 20.00     0.005 C 
HETATM    7  C7  UNL     1     -36.871  14.957  -3.550  1.00 20.00     0.010 A 
HETATM    8  C8  UNL     1     -34.510  16.175  -6.270  1.00 20.00    -0.010 C 
HETATM    9  C9  UNL     1     -35.417  14.582  -3.536  1.00 20.00    -0.010 A 
HETATM   10  C10 UNL     1     -35.943  15.924  -5.778  1.00 20.00    -0.006 C 
HETATM   11  C11 UNL     1     -36.132  14.745  -4.850  1.00 20.00    -0.006 A 
ENDROOT
TORSDOF 0
ENDMDL
MODEL 9
REMARK VINA RESULT:      -4.5      1.377      3.725
REMARK  0 active torsions:
REMARK  status: ('A' for Active; 'I' for Inactive)
ROOT
HETATM    1  C1  UNL     1     -34.876  16.455  -1.729  1.00 20.00     0.001 C 
HETATM    2  C2  UNL     1     -34.591  13.234  -4.974  1.00 20.00     0.001 C 
HETATM    3  C3  UNL     1     -33.673  16.103  -2.597  1.00 20.00     0.005 C 
HETATM    4  C4  UNL     1     -34.186  13.766  -3.594  1.00 20.00     0.005 C 
HETATM    5  C5  UNL     1     -35.861  17.376  -2.440  1.00 20.00     0.005 C 
HETATM    6  C6  UNL     1     -34.826  14.468  -5.861  1.00 20.00     0.005 C 
HETATM    7  C7  UNL     1     -37.186  16.958  -4.651  1.00 20.00     0.010 A 
HETATM    8  C8  UNL     1     -33.890  15.244  -3.841  1.00 20.00    -0.010 C 
HETATM    9  C9  UNL     1     -36.835  16.586  -3.238  1.00 20.00    -0.010 A 
HETATM   10  C10 UNL     1     -34.952  15.647  -4.875  1.00 20.00    -0.006 C 
HETATM   11  C11 UNL     1     -36.378  15.713  -4.376  1.00 20.00    -0.006 A 
ENDROOT
TORSDOF 0
ENDMDL
