MODEL 1
REMARK VINA RESULT:      -4.6      0.000      0.000
REMARK  0 active torsions:
REMARK  status: ('A' for Active; 'I' for Inactive)
ROOT
HETATM    1  C1  UNL     1     -37.071  14.500  -3.868  1.00 20.00     0.179 C 
HETATM    2  C2  UNL     1     -33.438  13.687  -3.910  1.00 20.00    -0.010 C 
HETATM    3  C3  UNL     1     -32.969  14.860  -3.462  1.00 20.00    -0.023 C 
HETATM    4  C4  UNL     1     -34.852  13.478  -4.363  1.00 20.00     0.161 C 
HETATM    5  C5  UNL     1     -35.083  15.951  -4.264  1.00 20.00     0.143 C 
HETATM    6  C6  UNL     1     -33.816  16.102  -3.410  1.00 20.00     0.022 C 
HETATM    7  C7  UNL     1     -34.152  16.448  -1.959  1.00 20.00     0.016 C 
HETATM    8  N8  UNL     1     -38.221  14.386  -3.768  1.00 20.00    -0.172 NA
HETATM    9  N9  UNL     1     -35.733  14.631  -3.985  1.00 20.00    -0.316 N 
ENDROOT
TORSDOF 0
ENDMDL
MODEL 2
REMARK VINA RESULT:      -4.2      0.985      2.112
REMARK  0 active torsions:
REMARK  status: ('A' for Active; 'I' for Inactive)
ROOT
HETATM    1  C1  UNL     1     -37.108  14.852  -3.839  1.00 20.00     0.179 C 
HETATM    2  C2  UNL     1     -34.231  16.715  -5.292  1.00 20.00    -0.010 C 
HETATM    3  C3  UNL     1     -33.245  16.118  -4.609  1.00 20.00    -0.023 C 
HETATM    4  C4  UNL     1     -35.683  16.570  -4.949  1.00 20.00     0.161 C 
HETATM    5  C5  UNL     1     -34.917  15.498  -2.841  1.00 20.00     0.143 C 
HETATM    6  C6  UNL     1     -33.502  15.269  -3.394  1.00 20.00     0.022 C 
HETATM    7  C7  UNL     1     -33.257  13.796  -3.721  1.00 20.00     0.016 C 
HETATM    8  N8  UNL     1     -38.135  14.324  -3.736  1.00 20.00    -0.172 NA
HETATM    9  N9  UNL     1     -35.913  15.467  -3.958  1.00 20.00    -0.316 N 
ENDROOT
TORSDOF 0
ENDMDL
MODEL 3
REMARK VINA RESULT:      -4.1     12.109     12.942
REMARK  0 active torsions:
REMARK  status: ('A' for Active; 'I' for Inactive)
ROOT
HETATM    1  C1  UNL     1     -32.651   6.642   3.356  1.00 20.00     0.179 C 
HETATM    2  C2  UNL     1     -34.203   6.216   6.713  1.00 20.00    -0.010 C 
HETATM    3  C3  UNL     1     -35.004   5.181   6.429  1.00 20.00    -0.023 C 
HETATM    4  C4  UNL     1     -33.496   7.027   5.669  1.00 20.00     0.161 C 
HETATM    5  C5  UNL     1     -34.921   5.847   4.010  1.00 20.00     0.143 C 
HETATM    6  C6  UNL     1     -35.306   4.754   5.019  1.00 20.00     0.022 C 
HETATM    7  C7  UNL     1     -34.605   3.431   4.709  1.00 20.00     0.016 C 
HETATM    8  N8  UNL     1     -31.875   6.874   2.526  1.00 20.00    -0.172 NA
HETATM    9  N9  UNL     1     -33.554   6.372   4.321  1.00 20.00    -0.316 N 
ENDROOT
TORSDOF 0
ENDMDL
MODEL 4
REMARK VINA RESULT:      -4.0      1.825      2.542
REMARK  0 active torsions:
REMARK  status: ('A' for Active; 'I' for Inactive)
ROOT
HETATM    1  C1  UNL     1     -34.886  13.878  -4.281  1.00 20.00     0.179 C 
HETATM    2  C2  UNL     1     -33.623  17.377  -4.425  1.00 20.00    -0.010 C 
HETATM    3  C3  UNL     1     -34.135  17.819  -3.268  1.00 20.00    -0.023 C 
HETATM    4  C4  UNL     1     -34.017  16.080  -5.063  1.00 20.00     0.161 C 
HETATM    5  C5  UNL     1     -35.857  15.996  -3.395  1.00 20.00     0.143 C 
HETATM    6  C6  UNL     1     -35.194  17.064  -2.512  1.00 20.00     0.022 C 
HETATM    7  C7  UNL     1     -34.600  16.455  -1.242  1.00 20.00     0.016 C 
HETATM    8  N8  UNL     1     -34.951  12.728  -4.413  1.00 20.00    -0.172 NA
HETATM    9  N9  UNL     1     -34.809  15.216  -4.127  1.00 20.00    -0.316 N 
ENDROOT
TORSDOF 0
ENDMDL
MODEL 5
REMARK VINA RESULT:      -4.0      1.409      2.277
REMARK  0 active torsions:
REMARK  status: ('A' for Active; 'I' for Inactive)
ROOT
HETATM    1  C1  UNL     1     -36.881  14.569  -3.993  1.00 20.00     0.179 C 
HETATM    2  C2  UNL     1     -33.440  15.938  -3.616  1.00 20.00    -0.010 C 
HETATM    3  C3  UNL     1     -33.205  16.234  -4.902  1.00 20.00    -0.023 C 
HETATM    4  C4  UNL     1     -34.593  15.098  -3.157  1.00 20.00     0.161 C 
HETATM    5  C5  UNL     1     -34.939  14.540  -5.555  1.00 20.00     0.143 C 
HETATM    6  C6  UNL     1     -34.061  15.711  -6.022  1.00 20.00     0.022 C 
HETATM    7  C7  UNL     1     -34.901  16.843  -6.614  1.00 20.00     0.016 C 
HETATM    8  N8  UNL     1     -37.988  14.301  -3.770  1.00 20.00    -0.172 NA
HETATM    9  N9  UNL     1     -35.595  14.881  -4.253  1.00 20.00    -0.316 N 
ENDROOT
TORSDOF 0
ENDMDL
MODEL 6
REMARK VINA RESULT:      -4.0      1.184      2.358
REMARK  0 active torsions:
REMARK  status: ('A' for Active; 'I' for Inactive)
ROOT
HETATM    1  C1  UNL     1     -37.510  14.593  -3.791  1.00 20.00     0.179 C 
HETATM    2  C2  UNL     1     -34.118  16.023  -3.237  1.00 20.00    -0.010 C 
HETATM    3  C3  UNL     1     -33.491  15.450  -4.274  1.00 20.00    -0.023 C 
HETATM    4  C4  UNL     1     -35.482  15.617  -2.766  1.00 20.00     0.161 C 
HETATM    5  C5  UNL     1     -35.251  13.659  -4.280  1.00 20.00     0.143 C 
HETATM    6  C6  UNL     1     -34.087  14.305  -5.046  1.00 20.00     0.022 C 
HETATM    7  C7  UNL     1     -34.520  14.778  -6.434  1.00 20.00     0.016 C 
HETATM    8  N8  UNL     1     -38.664  14.484  -3.824  1.00 20.00    -0.172 NA
HETATM    9  N9  UNL     1     -36.168  14.720  -3.754  1.00 20.00    -0.316 N 
ENDROOT
TORSDOF 0
ENDMDL
MODEL 7
REMARK VINA RESULT:      -4.0      2.057      2.471
REMARK  0 active torsions:
REMARK  status: ('A' for Active; 'I' for Inactive)
ROOT
HETATM    1  C1  UNL     1     -35.269  16.834  -6.123  1.00 20.00     0.179 C 
HETATM    2  C2  UNL     1     -34.364  13.476  -4.796  1.00 20.00    -0.010 C 
HETATM    3  C3  UNL     1     -33.759  13.868  -3.666  1.00 20.00    -0.023 C 
HETATM    4  C4  UNL     1     -34.723  14.412  -5.911  1.00 20.00     0.161 C 
HETATM    5  C5  UNL     1     -33.337  16.103  -4.729  1.00 20.00     0.143 C 
HETATM    6  C6  UNL     1     -33.343  15.293  -3.424  1.00 20.00     0.022 C 
HETATM    7  C7  UNL     1     -34.246  15.932  -2.369  1.00 20.00     0.016 C 
HETATM    8  N8  UNL     1     -35.847  17.683  -6.664  1.00 20.00    -0.172 NA
HETATM    9  N9  UNL     1     -34.598  15.848  -5.495  1.00 20.00    -0.316 N 
ENDROOT
TORSDOF 0
ENDMDL
MODEL 8
REMARK VINA RESULT:      -3.9      2.098      3.613
REMARK  0 active torsions:
REMARK  status: ('A' for Active; 'I' for Inactive)
ROOT
HETATM    1  C1  UNL     1     -33.703  16.603  -2.413  1.00 20.00     0.179 C 
HETATM    2  C2  UNL     1     -33.962  16.049  -6.085  1.00 20.00    -0.010 C 
HETATM    3  C3  UNL     1     -34.373  14.774  -6.063  1.00 20.00    -0.023 C 
HETATM    4  C4  UNL     1     -33.424  16.767  -4.885  1.00 20.00     0.161 C 
HETATM    5  C5  UNL     1     -33.364  14.544  -3.776  1.00 20.00     0.143 C 
HETATM    6  C6  UNL     1     -34.294  13.920  -4.827  1.00 20.00     0.022 C 
HETATM    7  C7  UNL     1     -35.696  13.678  -4.265  1.00 20.00     0.016 C 
HETATM    8  N8  UNL     1     -33.729  17.121  -1.376  1.00 20.00    -0.172 NA
HETATM    9  N9  UNL     1     -33.672  16.000  -3.619  1.00 20.00    -0.316 N 
ENDROOT
TORSDOF 0
ENDMDL
MODEL 9
REMARK VINA RESULT:      -3.9      2.120      3.643
REMARK  0 active torsions:
REMARK  status: ('A' for Active; 'I' for Inactive)
ROOT
HETATM    1  C1  UNL     1     -33.680  17.444  -4.715  1.00 20.00     0.179 C 
HETATM    2  C2  UNL     1     -33.445  13.833  -3.842  1.00 20.00    -0.010 C 
HETATM    3  C3  UNL     1     -34.405  13.372  -4.656  1.00 20.00    -0.023 C 
HETATM    4  C4  UNL     1     -33.240  15.288  -3.545  1.00 20.00     0.161 C 
HETATM    5  C5  UNL     1     -35.426  15.666  -4.666  1.00 20.00     0.143 C 
HETATM    6  C6  UNL     1     -35.404  14.277  -5.323  1.00 20.00     0.022 C 
HETATM    7  C7  UNL     1     -35.113  14.367  -6.821  1.00 20.00     0.016 C 
HETATM    8  N8  UNL     1     -33.383  18.547  -4.921  1.00 20.00    -0.172 NA
HETATM    9  N9  UNL     1     -34.026  16.163  -4.476  1.00 20.00    -0.316 N 
ENDROOT
TORSDOF 0
ENDMDL
