MODEL 1
REMARK VINA RESULT:      -4.8      0.000      0.000
REMARK  2 active torsions:
REMARK  status: ('A' for Active; 'I' for Inactive)
REMARK    1  A    between atoms: C6_6  and  C10_10 
REMARK    2  A    between atoms: C7_7  and  C11_11 
ROOT
HETATM    1  C1  UNL     1     -33.587  13.704  -3.665  1.00 20.00    -0.025 C 
HETATM    2  C2  UNL     1     -32.638  14.649  -3.682  1.00 20.00    -0.025 C 
HETATM    3  C3  UNL     1     -34.193  15.228  -5.284  1.00 20.00     0.017 C 
HETATM    4  C4  UNL     1     -34.846  14.321  -4.234  1.00 20.00     0.013 C 
HETATM    5  C5  UNL     1     -33.258  15.896  -4.268  1.00 20.00     0.013 C 
HETATM    6  C6  UNL     1     -35.366  15.342  -3.184  1.00 20.00    -0.002 C 
HETATM    7  C7  UNL     1     -34.302  16.491  -3.284  1.00 20.00    -0.002 C 
ENDROOT
BRANCH   6   8
HETATM    8  C10 UNL     1     -36.774  15.837  -3.496  1.00 20.00     0.001 C 
HETATM    9  C8  UNL     1     -37.671  14.723  -3.929  1.00 20.00     0.005 C 
ENDBRANCH   6   8
BRANCH   7  10
HETATM   10  C11 UNL     1     -33.735  16.906  -1.933  1.00 20.00     0.001 C 
HETATM   11  C9  UNL     1     -34.670  16.579  -0.813  1.00 20.00     0.005 C 
ENDBRANCH   7  10
TORSDOF 2
ENDMDL
MODEL 2
REMARK VINA RESULT:      -4.7      1.452      3.616
REMARK  2 active torsions:
REMARK  status: ('A' for Active; 'I' for Inactive)
REMARK    1  A    between atoms: C6_6  and  C10_10 
REMARK    2  A    between atoms: C7_7  and  C11_11 
ROOT
HETATM    1  C1  UNL     1     -33.324  13.821  -3.778  1.00 20.00    -0.025 C 
HETATM    2  C2  UNL     1     -34.614  13.466  -3.858  1.00 20.00    -0.025 C 
HETATM    3  C3  UNL     1     -34.541  15.492  -2.760  1.00 20.00     0.017 C 
HETATM    4  C4  UNL     1     -33.281  15.325  -3.618  1.00 20.00     0.013 C 
HETATM    5  C5  UNL     1     -35.434  14.730  -3.746  1.00 20.00     0.013 C 
HETATM    6  C6  UNL     1     -33.717  15.938  -4.978  1.00 20.00    -0.002 C 
HETATM    7  C7  UNL     1     -35.250  15.605  -5.016  1.00 20.00    -0.002 C 
ENDROOT
BRANCH   6   8
HETATM    8  C10 UNL     1     -33.455  17.438  -5.054  1.00 20.00     0.001 C 
HETATM    9  C8  UNL     1     -34.719  18.212  -5.245  1.00 20.00     0.005 C 
ENDBRANCH   6   8
BRANCH   7  10
HETATM   10  C11 UNL     1     -35.689  14.939  -6.314  1.00 20.00     0.001 C 
HETATM   11  C9  UNL     1     -34.579  14.885  -7.314  1.00 20.00     0.005 C 
ENDBRANCH   7  10
TORSDOF 2
ENDMDL
MODEL 3
REMARK VINA RESULT:      -4.7      0.742      3.135
REMARK  2 active torsions:
REMARK  status: ('A' for Active; 'I' for Inactive)
REMARK    1  A    between atoms: C6_6  and  C10_10 
REMARK    2  A    between atoms: C7_7  and  C11_11 
ROOT
HETATM    1  C1  UNL     1     -33.687  16.255  -5.204  1.00 20.00    -0.025 C 
HETATM    2  C2  UNL     1     -34.180  15.071  -5.594  1.00 20.00    -0.025 C 
HETATM    3  C3  UNL     1     -32.926  14.687  -3.697  1.00 20.00     0.017 C 
HETATM    4  C4  UNL     1     -33.383  16.150  -3.726  1.00 20.00     0.013 C 
HETATM    5  C5  UNL     1     -34.200  14.173  -4.379  1.00 20.00     0.013 C 
HETATM    6  C6  UNL     1     -34.747  16.092  -2.984  1.00 20.00    -0.002 C 
HETATM    7  C7  UNL     1     -35.270  14.662  -3.366  1.00 20.00    -0.002 C 
ENDROOT
BRANCH   6   8
HETATM    8  C10 UNL     1     -34.601  16.265  -1.476  1.00 20.00     0.001 C 
HETATM    9  C8  UNL     1     -33.747  17.442  -1.133  1.00 20.00     0.005 C 
ENDBRANCH   6   8
BRANCH   7  10
HETATM   10  C11 UNL     1     -36.696  14.666  -3.902  1.00 20.00     0.001 C 
HETATM   11  C9  UNL     1     -37.307  16.030  -3.848  1.00 20.00     0.005 C 
ENDBRANCH   7  10
TORSDOF 2
ENDMDL
MODEL 4
REMARK VINA RESULT:      -4.7      1.452      2.883
REMARK  2 active torsions:
REMARK  status: ('A' for Active; 'I' for Inactive)
REMARK    1  A    between atoms: C6_6  and  C10_10 
REMARK    2  A    between atoms: C7_7  and  C11_11 
ROOT
HETATM    1  C1  UNL     1     -34.986  15.510  -2.574  1.00 20.00    -0.025 C 
HETATM    2  C2  UNL     1     -33.748  16.024  -2.610  1.00 20.00    -0.025 C 
HETATM    3  C3  UNL     1     -33.665  13.991  -3.696  1.00 20.00     0.017 C 
HETATM    4  C4  UNL     1     -35.100  14.532  -3.723  1.00 20.00     0.013 C 
HETATM    5  C5  UNL     1     -33.033  15.386  -3.778  1.00 20.00     0.013 C 
HETATM    6  C6  UNL     1     -35.120  15.370  -5.032  1.00 20.00    -0.002 C 
HETATM    7  C7  UNL     1     -33.639  15.885  -5.118  1.00 20.00    -0.002 C 
ENDROOT
BRANCH   6   8
HETATM    8  C10 UNL     1     -35.509  14.541  -6.251  1.00 20.00     0.001 C 
HETATM    9  C8  UNL     1     -34.646  14.851  -7.431  1.00 20.00     0.005 C 
ENDBRANCH   6   8
BRANCH   7  10
HETATM   10  C11 UNL     1     -33.537  17.388  -5.340  1.00 20.00     0.001 C 
HETATM   11  C9  UNL     1     -34.884  18.027  -5.453  1.00 20.00     0.005 C 
ENDBRANCH   7  10
TORSDOF 2
ENDMDL
MODEL 5
REMARK VINA RESULT:      -4.6      1.237      3.449
REMARK  2 active torsions:
REMARK  status: ('A' for Active; 'I' for Inactive)
REMARK    1  A    between atoms: C6_6  and  C10_10 
REMARK    2  A    between atoms: C7_7  and  C11_11 
ROOT
HETATM    1  C1  UNL     1     -33.723  17.064  -1.725  1.00 20.00    -0.025 C 
HETATM    2  C2  UNL     1     -34.753  16.245  -1.469  1.00 20.00    -0.025 C 
HETATM    3  C3  UNL     1     -35.409  17.635  -3.188  1.00 20.00     0.017 C 
HETATM    4  C4  UNL     1     -33.879  17.549  -3.149  1.00 20.00     0.013 C 
HETATM    5  C5  UNL     1     -35.600  16.187  -2.718  1.00 20.00     0.013 C 
HETATM    6  C6  UNL     1     -33.585  16.337  -4.077  1.00 20.00    -0.002 C 
HETATM    7  C7  UNL     1     -34.846  15.431  -3.846  1.00 20.00    -0.002 C 
ENDROOT
BRANCH   6   8
HETATM    8  C10 UNL     1     -33.433  16.743  -5.539  1.00 20.00     0.001 C 
HETATM    9  C8  UNL     1     -34.376  15.994  -6.423  1.00 20.00     0.005 C 
ENDBRANCH   6   8
BRANCH   7  10
HETATM   10  C11 UNL     1     -34.496  13.986  -3.515  1.00 20.00     0.001 C 
HETATM   11  C9  UNL     1     -33.023  13.739  -3.595  1.00 20.00     0.005 C 
ENDBRANCH   7  10
TORSDOF 2
ENDMDL
MODEL 6
REMARK VINA RESULT:      -4.6      1.339      2.888
REMARK  2 active torsions:
REMARK  status: ('A' for Active; 'I' for Inactive)
REMARK    1  A    between atoms: C6_6  and  C10_10 
REMARK    2  A    between atoms: C7_7  and  C11_11 
ROOT
HETATM    1  C1  UNL     1     -34.161  13.564  -4.516  1.00 20.00    -0.025 C 
HETATM    2  C2  UNL     1     -34.444  14.276  -5.616  1.00 20.00    -0.025 C 
HETATM    3  C3  UNL     1     -36.156  14.646  -4.115  1.00 20.00     0.017 C 
HETATM    4  C4  UNL     1     -34.894  14.211  -3.361  1.00 20.00     0.013 C 
HETATM    5  C5  UNL     1     -35.370  15.395  -5.198  1.00 20.00     0.013 C 
HETATM    6  C6  UNL     1     -34.187  15.566  -3.077  1.00 20.00    -0.002 C 
HETATM    7  C7  UNL     1     -34.607  16.426  -4.322  1.00 20.00    -0.002 C 
ENDROOT
BRANCH   6   8
HETATM    8  C10 UNL     1     -34.639  16.199  -1.766  1.00 20.00     0.001 C 
HETATM    9  C8  UNL     1     -33.728  17.303  -1.340  1.00 20.00     0.005 C 
ENDBRANCH   6   8
BRANCH   7  10
HETATM   10  C11 UNL     1     -33.428  17.098  -5.014  1.00 20.00     0.001 C 
HETATM   11  C9  UNL     1     -33.549  18.588  -4.996  1.00 20.00     0.005 C 
ENDBRANCH   7  10
TORSDOF 2
ENDMDL
MODEL 7
REMARK VINA RESULT:      -4.5     11.193     12.833
REMARK  2 active torsions:
REMARK  status: ('A' for Active; 'I' for Inactive)
REMARK    1  A    between atoms: C6_6  and  C10_10 
REMARK    2  A    between atoms: C7_7  and  C11_11 
ROOT
HETATM    1  C1  UNL     1     -42.994   5.754   0.351  1.00 20.00    -0.025 C 
HETATM    2  C2  UNL     1     -42.901   6.982  -0.178  1.00 20.00    -0.025 C 
HETATM    3  C3  UNL     1     -40.774   6.090  -0.171  1.00 20.00     0.017 C 
HETATM    4  C4  UNL     1     -41.809   4.958  -0.152  1.00 20.00     0.013 C 
HETATM    5  C5  UNL     1     -41.652   7.011  -1.028  1.00 20.00     0.013 C 
HETATM    6  C6  UNL     1     -42.048   4.694  -1.664  1.00 20.00    -0.002 C 
HETATM    7  C7  UNL     1     -41.838   6.120  -2.287  1.00 20.00    -0.002 C 
ENDROOT
BRANCH   6   8
HETATM    8  C10 UNL     1     -41.076   3.670  -2.240  1.00 20.00     0.001 C 
HETATM    9  C8  UNL     1     -41.778   2.647  -3.074  1.00 20.00     0.005 C 
ENDBRANCH   6   8
BRANCH   7  10
HETATM   10  C11 UNL     1     -42.975   6.549  -3.205  1.00 20.00     0.001 C 
HETATM   11  C9  UNL     1     -42.659   7.820  -3.925  1.00 20.00     0.005 C 
ENDBRANCH   7  10
TORSDOF 2
ENDMDL
MODEL 8
REMARK VINA RESULT:      -4.4      1.339      3.042
REMARK  2 active torsions:
REMARK  status: ('A' for Active; 'I' for Inactive)
REMARK    1  A    between atoms: C6_6  and  C10_10 
REMARK    2  A    between atoms: C7_7  and  C11_11 
ROOT
HETATM    1  C1  UNL     1     -35.301  16.304  -6.314  1.00 20.00    -0.025 C 
HETATM    2  C2  UNL     1     -34.060  15.816  -6.446  1.00 20.00    -0.025 C 
HETATM    3  C3  UNL     1     -33.928  17.603  -4.995  1.00 20.00     0.017 C 
HETATM    4  C4  UNL     1     -35.355  17.042  -4.993  1.00 20.00     0.013 C 
HETATM    5  C5  UNL     1     -33.282  16.230  -5.219  1.00 20.00     0.013 C 
HETATM    6  C6  UNL     1     -35.293  15.968  -3.871  1.00 20.00    -0.002 C 
HETATM    7  C7  UNL     1     -33.806  15.473  -3.969  1.00 20.00    -0.002 C 
ENDROOT
BRANCH   6   8
HETATM    8  C10 UNL     1     -35.616  16.540  -2.495  1.00 20.00     0.001 C 
HETATM    9  C8  UNL     1     -34.494  16.332  -1.531  1.00 20.00     0.005 C 
ENDBRANCH   6   8
BRANCH   7  10
HETATM   10  C11 UNL     1     -33.681  13.957  -4.047  1.00 20.00     0.001 C 
HETATM   11  C9  UNL     1     -35.017  13.292  -4.137  1.00 20.00     0.005 C 
ENDBRANCH   7  10
TORSDOF 2
ENDMDL
MODEL 9
REMARK VINA RESULT:      -4.4     10.852     12.617
REMARK  2 active torsions:
REMARK  status: ('A' for Active; 'I' for Inactive)
REMARK    1  A    between atoms: C6_6  and  C10_10 
REMARK    2  A    between atoms: C7_7  and  C11_11 
ROOT
HETATM    1  C1  UNL     1     -40.714   6.954  -0.452  1.00 20.00    -0.025 C 
HETATM    2  C2  UNL     1     -40.959   5.754   0.091  1.00 20.00    -0.025 C 
HETATM    3  C3  UNL     1     -43.005   6.738  -0.316  1.00 20.00     0.017 C 
HETATM    4  C4  UNL     1     -41.945   7.350  -1.239  1.00 20.00     0.013 C 
HETATM    5  C5  UNL     1     -42.354   5.349  -0.326  1.00 20.00     0.013 C 
HETATM    6  C6  UNL     1     -42.005   6.421  -2.484  1.00 20.00    -0.002 C 
HETATM    7  C7  UNL     1     -42.391   5.039  -1.847  1.00 20.00    -0.002 C 
ENDROOT
BRANCH   6   8
HETATM    8  C10 UNL     1     -43.033   6.884  -3.511  1.00 20.00     0.001 C 
HETATM    9  C8  UNL     1     -42.588   8.122  -4.221  1.00 20.00     0.005 C 
ENDBRANCH   6   8
BRANCH   7  10
HETATM   10  C11 UNL     1     -41.480   3.899  -2.285  1.00 20.00     0.001 C 
HETATM   11  C9  UNL     1     -42.229   2.845  -3.036  1.00 20.00     0.005 C 
ENDBRANCH   7  10
TORSDOF 2
ENDMDL
