MODEL 1
REMARK VINA RESULT:      -5.3      0.000      0.000
REMARK  1 active torsions:
REMARK  status: ('A' for Active; 'I' for Inactive)
REMARK    1  A    between atoms: C5_5  and  C6_6 
ROOT
HETATM    1  C1  UNL     1     -35.616   5.672   3.713  1.00 20.00     0.024 A 
HETATM    2  C2  UNL     1     -34.837   4.254   5.775  1.00 20.00     0.275 C 
HETATM    3  C3  UNL     1     -33.900   6.428   5.533  1.00 20.00     0.285 C 
HETATM    4  C4  UNL     1     -34.794   4.563   4.316  1.00 20.00     0.030 A 
HETATM    5  C5  UNL     1     -34.187   5.907   4.152  1.00 20.00     0.051 A 
HETATM    6  N7  UNL     1     -34.642   5.548   6.462  1.00 20.00     0.084 N 
HETATM    7  H18 UNL     1     -35.563   5.962   6.616  1.00 20.00     0.315 HD
ENDROOT
BRANCH   5   8
HETATM    8  C6  UNL     1     -33.144   6.145   3.106  1.00 20.00     0.363 C 
HETATM    9  F8  UNL     1     -31.952   5.639   3.515  1.00 20.00    -0.214 F 
HETATM   10  F9  UNL     1     -32.957   7.480   2.933  1.00 20.00    -0.214 F 
ENDBRANCH   5   8
TORSDOF 1
ENDMDL
MODEL 2
REMARK VINA RESULT:      -4.3      2.582      3.107
REMARK  1 active torsions:
REMARK  status: ('A' for Active; 'I' for Inactive)
REMARK    1  A    between atoms: C5_5  and  C6_6 
ROOT
HETATM    1  C1  UNL     1     -34.718   3.900   4.882  1.00 20.00     0.024 A 
HETATM    2  C2  UNL     1     -35.258   5.683   3.038  1.00 20.00     0.275 C 
HETATM    3  C3  UNL     1     -33.226   5.949   4.246  1.00 20.00     0.285 C 
HETATM    4  C4  UNL     1     -35.470   5.113   4.402  1.00 20.00     0.030 A 
HETATM    5  C5  UNL     1     -34.215   5.297   5.172  1.00 20.00     0.051 A 
HETATM    6  N7  UNL     1     -33.795   5.820   2.886  1.00 20.00     0.084 N 
HETATM    7  H18 UNL     1     -33.440   4.953   2.479  1.00 20.00     0.315 HD
ENDROOT
BRANCH   5   8
HETATM    8  C6  UNL     1     -34.257   5.798   6.581  1.00 20.00     0.363 C 
HETATM    9  F8  UNL     1     -35.472   5.537   7.131  1.00 20.00    -0.214 F 
HETATM   10  F9  UNL     1     -34.109   7.148   6.598  1.00 20.00    -0.214 F 
ENDBRANCH   5   8
TORSDOF 1
ENDMDL
MODEL 3
REMARK VINA RESULT:      -4.0     11.801     12.646
REMARK  1 active torsions:
REMARK  status: ('A' for Active; 'I' for Inactive)
REMARK    1  A    between atoms: C5_5  and  C6_6 
ROOT
HETATM    1  C1  UNL     1     -35.725  15.428  -3.167  1.00 20.00     0.024 A 
HETATM    2  C2  UNL     1     -33.841  17.043  -2.323  1.00 20.00     0.275 C 
HETATM    3  C3  UNL     1     -33.564  16.083  -4.483  1.00 20.00     0.285 C 
HETATM    4  C4  UNL     1     -34.519  15.713  -2.312  1.00 20.00     0.030 A 
HETATM    5  C5  UNL     1     -34.330  15.095  -3.648  1.00 20.00     0.051 A 
HETATM    6  N7  UNL     1     -33.621  17.366  -3.748  1.00 20.00     0.084 N 
HETATM    7  H18 UNL     1     -34.437  17.881  -4.081  1.00 20.00     0.315 HD
ENDROOT
BRANCH   5   8
HETATM    8  C6  UNL     1     -33.936  13.656  -3.768  1.00 20.00     0.363 C 
HETATM    9  F8  UNL     1     -32.602  13.519  -3.549  1.00 20.00    -0.214 F 
HETATM   10  F9  UNL     1     -34.166  13.216  -5.032  1.00 20.00    -0.214 F 
ENDBRANCH   5   8
TORSDOF 1
ENDMDL
MODEL 4
REMARK VINA RESULT:      -4.0     11.541     12.463
REMARK  1 active torsions:
REMARK  status: ('A' for Active; 'I' for Inactive)
REMARK    1  A    between atoms: C5_5  and  C6_6 
ROOT
HETATM    1  C1  UNL     1     -36.525  14.729  -3.742  1.00 20.00     0.024 A 
HETATM    2  C2  UNL     1     -34.915  14.013  -5.682  1.00 20.00     0.275 C 
HETATM    3  C3  UNL     1     -34.135  13.713  -3.455  1.00 20.00     0.285 C 
HETATM    4  C4  UNL     1     -35.551  15.068  -4.840  1.00 20.00     0.030 A 
HETATM    5  C5  UNL     1     -35.051  14.905  -3.452  1.00 20.00     0.051 A 
HETATM    6  N7  UNL     1     -34.383  13.013  -4.735  1.00 20.00     0.084 N 
HETATM    7  H18 UNL     1     -35.111  12.316  -4.573  1.00 20.00     0.315 HD
ENDROOT
BRANCH   5   8
HETATM    8  C6  UNL     1     -34.612  16.097  -2.660  1.00 20.00     0.363 C 
HETATM    9  F8  UNL     1     -33.306  16.369  -2.915  1.00 20.00    -0.214 F 
HETATM   10  F9  UNL     1     -34.698  15.828  -1.331  1.00 20.00    -0.214 F 
ENDBRANCH   5   8
TORSDOF 1
ENDMDL
MODEL 5
REMARK VINA RESULT:      -4.0     12.168     13.053
REMARK  1 active torsions:
REMARK  status: ('A' for Active; 'I' for Inactive)
REMARK    1  A    between atoms: C5_5  and  C6_6 
ROOT
HETATM    1  C1  UNL     1     -33.391  13.715  -3.741  1.00 20.00     0.024 A 
HETATM    2  C2  UNL     1     -34.639  14.444  -5.928  1.00 20.00     0.275 C 
HETATM    3  C3  UNL     1     -33.451  16.129  -4.740  1.00 20.00     0.285 C 
HETATM    4  C4  UNL     1     -34.654  14.068  -4.483  1.00 20.00     0.030 A 
HETATM    5  C5  UNL     1     -33.936  15.126  -3.730  1.00 20.00     0.051 A 
HETATM    6  N7  UNL     1     -33.591  15.476  -6.060  1.00 20.00     0.084 N 
HETATM    7  H18 UNL     1     -32.710  15.002  -6.269  1.00 20.00     0.315 HD
ENDROOT
BRANCH   5   8
HETATM    8  C6  UNL     1     -34.505  15.667  -2.456  1.00 20.00     0.363 C 
HETATM    9  F8  UNL     1     -35.554  16.487  -2.726  1.00 20.00    -0.214 F 
HETATM   10  F9  UNL     1     -33.576  16.427  -1.819  1.00 20.00    -0.214 F 
ENDBRANCH   5   8
TORSDOF 1
ENDMDL
MODEL 6
REMARK VINA RESULT:      -3.9      2.613      3.486
REMARK  1 active torsions:
REMARK  status: ('A' for Active; 'I' for Inactive)
REMARK    1  A    between atoms: C5_5  and  C6_6 
ROOT
HETATM    1  C1  UNL     1     -34.031   6.773   5.665  1.00 20.00     0.024 A 
HETATM    2  C2  UNL     1     -32.904   6.253   3.357  1.00 20.00     0.275 C 
HETATM    3  C3  UNL     1     -35.083   5.372   3.726  1.00 20.00     0.285 C 
HETATM    4  C4  UNL     1     -33.045   6.008   4.822  1.00 20.00     0.030 A 
HETATM    5  C5  UNL     1     -34.392   5.434   5.060  1.00 20.00     0.051 A 
HETATM    6  N7  UNL     1     -34.277   6.210   2.812  1.00 20.00     0.084 N 
HETATM    7  H18 UNL     1     -34.655   7.158   2.841  1.00 20.00     0.315 HD
ENDROOT
BRANCH   5   8
HETATM    8  C6  UNL     1     -34.565   4.258   5.970  1.00 20.00     0.363 C 
HETATM    9  F8  UNL     1     -34.753   3.129   5.238  1.00 20.00    -0.214 F 
HETATM   10  F9  UNL     1     -35.682   4.417   6.726  1.00 20.00    -0.214 F 
ENDBRANCH   5   8
TORSDOF 1
ENDMDL
MODEL 7
REMARK VINA RESULT:      -3.9     11.745     12.650
REMARK  1 active torsions:
REMARK  status: ('A' for Active; 'I' for Inactive)
REMARK    1  A    between atoms: C5_5  and  C6_6 
ROOT
HETATM    1  C1  UNL     1     -33.262  16.214  -4.364  1.00 20.00     0.024 A 
HETATM    2  C2  UNL     1     -33.628  13.662  -3.890  1.00 20.00     0.275 C 
HETATM    3  C3  UNL     1     -35.379  15.146  -3.265  1.00 20.00     0.285 C 
HETATM    4  C4  UNL     1     -33.003  14.974  -3.549  1.00 20.00     0.030 A 
HETATM    5  C5  UNL     1     -34.085  15.900  -3.133  1.00 20.00     0.051 A 
HETATM    6  N7  UNL     1     -35.068  13.940  -4.064  1.00 20.00     0.084 N 
HETATM    7  H18 UNL     1     -35.226  14.167  -5.047  1.00 20.00     0.315 HD
ENDROOT
BRANCH   5   8
HETATM    8  C6  UNL     1     -33.921  16.761  -1.921  1.00 20.00     0.363 C 
HETATM    9  F8  UNL     1     -34.474  16.151  -0.840  1.00 20.00    -0.214 F 
HETATM   10  F9  UNL     1     -34.592  17.930  -2.088  1.00 20.00    -0.214 F 
ENDBRANCH   5   8
TORSDOF 1
ENDMDL
MODEL 8
REMARK VINA RESULT:      -3.8      1.880      2.568
REMARK  1 active torsions:
REMARK  status: ('A' for Active; 'I' for Inactive)
REMARK    1  A    between atoms: C5_5  and  C6_6 
ROOT
HETATM    1  C1  UNL     1     -32.993   5.982   4.308  1.00 20.00     0.024 A 
HETATM    2  C2  UNL     1     -34.341   5.918   6.555  1.00 20.00     0.275 C 
HETATM    3  C3  UNL     1     -34.898   4.296   4.907  1.00 20.00     0.285 C 
HETATM    4  C4  UNL     1     -34.063   6.524   5.220  1.00 20.00     0.030 A 
HETATM    5  C5  UNL     1     -34.431   5.529   4.183  1.00 20.00     0.051 A 
HETATM    6  N7  UNL     1     -34.477   4.467   6.314  1.00 20.00     0.084 N 
HETATM    7  H18 UNL     1     -33.553   4.045   6.417  1.00 20.00     0.315 HD
ENDROOT
BRANCH   5   8
HETATM    8  C6  UNL     1     -35.213   5.946   2.977  1.00 20.00     0.363 C 
HETATM    9  F8  UNL     1     -36.543   5.794   3.210  1.00 20.00    -0.214 F 
HETATM   10  F9  UNL     1     -34.912   5.138   1.927  1.00 20.00    -0.214 F 
ENDBRANCH   5   8
TORSDOF 1
ENDMDL
MODEL 9
REMARK VINA RESULT:      -3.8      9.076      9.991
REMARK  1 active torsions:
REMARK  status: ('A' for Active; 'I' for Inactive)
REMARK    1  A    between atoms: C5_5  and  C6_6 
ROOT
HETATM    1  C1  UNL     1     -42.588   5.689  -0.041  1.00 20.00     0.024 A 
HETATM    2  C2  UNL     1     -40.945   7.554  -0.872  1.00 20.00     0.275 C 
HETATM    3  C3  UNL     1     -42.171   6.367  -2.530  1.00 20.00     0.285 C 
HETATM    4  C4  UNL     1     -41.198   6.180  -0.345  1.00 20.00     0.030 A 
HETATM    5  C5  UNL     1     -41.941   5.424  -1.383  1.00 20.00     0.051 A 
HETATM    6  N7  UNL     1     -41.871   7.720  -2.011  1.00 20.00     0.084 N 
HETATM    7  H18 UNL     1     -42.741   8.117  -1.652  1.00 20.00     0.315 HD
ENDROOT
BRANCH   5   8
HETATM    8  C6  UNL     1     -41.546   4.021  -1.725  1.00 20.00     0.363 C 
HETATM    9  F8  UNL     1     -40.198   3.880  -1.628  1.00 20.00    -0.214 F 
HETATM   10  F9  UNL     1     -41.869   3.751  -3.017  1.00 20.00    -0.214 F 
ENDBRANCH   5   8
TORSDOF 1
ENDMDL
