MODEL 1
REMARK VINA RESULT:      -5.2      0.000      0.000
REMARK  2 active torsions:
REMARK  status: ('A' for Active; 'I' for Inactive)
REMARK    1  A    between atoms: C8_8  and  C10_10 
REMARK    2  A    between atoms: C10_10  and  C11_11 
ROOT
HETATM    1  C1  UNL     1     -36.576  14.762  -7.918  1.00 20.00     0.012 C 
HETATM    2  C2  UNL     1     -35.664  14.743  -7.138  1.00 20.00    -0.113 C 
HETATM    3  C3  UNL     1     -34.231  16.124  -5.595  1.00 20.00     0.017 C 
HETATM    4  C4  UNL     1     -34.784  13.730  -5.007  1.00 20.00     0.017 C 
HETATM    5  C5  UNL     1     -33.103  16.121  -4.562  1.00 20.00     0.006 C 
HETATM    6  C6  UNL     1     -33.657  13.722  -3.973  1.00 20.00     0.006 C 
HETATM    7  C7  UNL     1     -34.502  14.720  -6.145  1.00 20.00     0.064 C 
HETATM    8  C8  UNL     1     -33.332  15.117  -3.425  1.00 20.00    -0.014 C 
ENDROOT
BRANCH   8   9
HETATM    9  C10 UNL     1     -34.393  15.586  -2.512  1.00 20.00     0.004 C 
BRANCH   9  10
HETATM   10  C11 UNL     1     -33.938  16.807  -1.720  1.00 20.00    -0.004 C 
HETATM   11  C9  UNL     1     -34.711  16.938  -0.417  1.00 20.00     0.005 C 
ENDBRANCH   9  10
ENDBRANCH   8   9
TORSDOF 2
ENDMDL
MODEL 2
REMARK VINA RESULT:      -4.9      0.937      5.006
REMARK  2 active torsions:
REMARK  status: ('A' for Active; 'I' for Inactive)
REMARK    1  A    between atoms: C8_8  and  C10_10 
REMARK    2  A    between atoms: C10_10  and  C11_11 
ROOT
HETATM    1  C1  UNL     1     -34.792  17.034  -0.160  1.00 20.00     0.012 C 
HETATM    2  C2  UNL     1     -34.362  16.652  -1.214  1.00 20.00    -0.113 C 
HETATM    3  C3  UNL     1     -34.635  14.979  -3.076  1.00 20.00     0.017 C 
HETATM    4  C4  UNL     1     -33.798  17.309  -3.579  1.00 20.00     0.017 C 
HETATM    5  C5  UNL     1     -34.137  14.502  -4.442  1.00 20.00     0.006 C 
HETATM    6  C6  UNL     1     -33.299  16.837  -4.946  1.00 20.00     0.006 C 
HETATM    7  C7  UNL     1     -33.816  16.166  -2.556  1.00 20.00     0.064 C 
HETATM    8  C8  UNL     1     -34.072  15.627  -5.483  1.00 20.00    -0.014 C 
ENDROOT
BRANCH   8   9
HETATM    9  C10 UNL     1     -35.425  16.017  -5.926  1.00 20.00     0.004 C 
BRANCH   9  10
HETATM   10  C11 UNL     1     -36.153  14.844  -6.573  1.00 20.00    -0.004 C 
HETATM   11  C9  UNL     1     -35.538  14.490  -7.918  1.00 20.00     0.005 C 
ENDBRANCH   9  10
ENDBRANCH   8   9
TORSDOF 2
ENDMDL
MODEL 3
REMARK VINA RESULT:      -4.8      0.884      4.850
REMARK  2 active torsions:
REMARK  status: ('A' for Active; 'I' for Inactive)
REMARK    1  A    between atoms: C8_8  and  C10_10 
REMARK    2  A    between atoms: C10_10  and  C11_11 
ROOT
HETATM    1  C1  UNL     1     -33.755  17.656  -1.152  1.00 20.00     0.012 C 
HETATM    2  C2  UNL     1     -34.092  16.670  -1.748  1.00 20.00    -0.113 C 
HETATM    3  C3  UNL     1     -35.742  15.706  -3.388  1.00 20.00     0.017 C 
HETATM    4  C4  UNL     1     -33.360  14.865  -3.345  1.00 20.00     0.017 C 
HETATM    5  C5  UNL     1     -36.165  14.477  -4.195  1.00 20.00     0.006 C 
HETATM    6  C6  UNL     1     -33.778  13.635  -4.152  1.00 20.00     0.006 C 
HETATM    7  C7  UNL     1     -34.522  15.415  -2.507  1.00 20.00     0.064 C 
HETATM    8  C8  UNL     1     -35.019  13.877  -5.019  1.00 20.00    -0.014 C 
ENDROOT
BRANCH   8   9
HETATM    9  C10 UNL     1     -34.695  14.734  -6.177  1.00 20.00     0.004 C 
BRANCH   9  10
HETATM   10  C11 UNL     1     -35.498  14.325  -7.407  1.00 20.00    -0.004 C 
HETATM   11  C9  UNL     1     -36.516  15.391  -7.780  1.00 20.00     0.005 C 
ENDBRANCH   9  10
ENDBRANCH   8   9
TORSDOF 2
ENDMDL
MODEL 4
REMARK VINA RESULT:      -4.8      1.307      1.692
REMARK  2 active torsions:
REMARK  status: ('A' for Active; 'I' for Inactive)
REMARK    1  A    between atoms: C8_8  and  C10_10 
REMARK    2  A    between atoms: C10_10  and  C11_11 
ROOT
HETATM    1  C1  UNL     1     -34.656  17.723  -7.918  1.00 20.00     0.012 C 
HETATM    2  C2  UNL     1     -34.451  16.918  -7.052  1.00 20.00    -0.113 C 
HETATM    3  C3  UNL     1     -33.305  16.494  -4.850  1.00 20.00     0.017 C 
HETATM    4  C4  UNL     1     -35.510  15.376  -5.366  1.00 20.00     0.017 C 
HETATM    5  C5  UNL     1     -33.065  15.503  -3.709  1.00 20.00     0.006 C 
HETATM    6  C6  UNL     1     -35.276  14.382  -4.227  1.00 20.00     0.006 C 
HETATM    7  C7  UNL     1     -34.189  15.893  -5.949  1.00 20.00     0.064 C 
HETATM    8  C8  UNL     1     -34.365  14.936  -3.124  1.00 20.00    -0.014 C 
ENDROOT
BRANCH   8   9
HETATM    9  C10 UNL     1     -35.069  15.952  -2.317  1.00 20.00     0.004 C 
BRANCH   9  10
HETATM   10  C11 UNL     1     -34.114  16.652  -1.357  1.00 20.00    -0.004 C 
HETATM   11  C9  UNL     1     -34.839  17.128  -0.109  1.00 20.00     0.005 C 
ENDBRANCH   9  10
ENDBRANCH   8   9
TORSDOF 2
ENDMDL
MODEL 5
REMARK VINA RESULT:      -4.5      2.833      7.235
REMARK  2 active torsions:
REMARK  status: ('A' for Active; 'I' for Inactive)
REMARK    1  A    between atoms: C8_8  and  C10_10 
REMARK    2  A    between atoms: C10_10  and  C11_11 
ROOT
HETATM    1  C1  UNL     1     -31.102  18.855   3.297  1.00 20.00     0.012 C 
HETATM    2  C2  UNL     1     -31.919  18.985   2.428  1.00 20.00    -0.113 C 
HETATM    3  C3  UNL     1     -32.369  18.757  -0.040  1.00 20.00     0.017 C 
HETATM    4  C4  UNL     1     -34.215  18.325   1.630  1.00 20.00     0.017 C 
HETATM    5  C5  UNL     1     -33.404  18.869  -1.161  1.00 20.00     0.006 C 
HETATM    6  C6  UNL     1     -35.254  18.435   0.513  1.00 20.00     0.006 C 
HETATM    7  C7  UNL     1     -32.958  19.149   1.320  1.00 20.00     0.064 C 
HETATM    8  C8  UNL     1     -34.690  18.085  -0.870  1.00 20.00    -0.014 C 
ENDROOT
BRANCH   8   9
HETATM    9  C10 UNL     1     -34.463  16.631  -0.996  1.00 20.00     0.004 C 
BRANCH   9  10
HETATM   10  C11 UNL     1     -33.869  16.282  -2.356  1.00 20.00    -0.004 C 
HETATM   11  C9  UNL     1     -34.585  15.096  -2.981  1.00 20.00     0.005 C 
ENDBRANCH   9  10
ENDBRANCH   8   9
TORSDOF 2
ENDMDL
MODEL 6
REMARK VINA RESULT:      -4.5      1.186      1.186
REMARK  2 active torsions:
REMARK  status: ('A' for Active; 'I' for Inactive)
REMARK    1  A    between atoms: C8_8  and  C10_10 
REMARK    2  A    between atoms: C10_10  and  C11_11 
ROOT
HETATM    1  C1  UNL     1     -38.082  15.348  -6.721  1.00 20.00     0.012 C 
HETATM    2  C2  UNL     1     -37.019  15.258  -6.171  1.00 20.00    -0.113 C 
HETATM    3  C3  UNL     1     -35.188  16.518  -4.988  1.00 20.00     0.017 C 
HETATM    4  C4  UNL     1     -35.742  14.149  -4.305  1.00 20.00     0.017 C 
HETATM    5  C5  UNL     1     -33.855  16.425  -4.241  1.00 20.00     0.006 C 
HETATM    6  C6  UNL     1     -34.412  14.051  -3.557  1.00 20.00     0.006 C 
HETATM    7  C7  UNL     1     -35.665  15.144  -5.471  1.00 20.00     0.064 C 
HETATM    8  C8  UNL     1     -33.883  15.413  -3.089  1.00 20.00    -0.014 C 
ENDROOT
BRANCH   8   9
HETATM    9  C10 UNL     1     -34.675  15.925  -1.953  1.00 20.00     0.004 C 
BRANCH   9  10
HETATM   10  C11 UNL     1     -33.946  17.057  -1.239  1.00 20.00    -0.004 C 
HETATM   11  C9  UNL     1     -34.630  17.413   0.071  1.00 20.00     0.005 C 
ENDBRANCH   9  10
ENDBRANCH   8   9
TORSDOF 2
ENDMDL
MODEL 7
REMARK VINA RESULT:      -4.3      1.192      1.982
REMARK  2 active torsions:
REMARK  status: ('A' for Active; 'I' for Inactive)
REMARK    1  A    between atoms: C8_8  and  C10_10 
REMARK    2  A    between atoms: C10_10  and  C11_11 
ROOT
HETATM    1  C1  UNL     1     -34.548  15.059  -7.918  1.00 20.00     0.012 C 
HETATM    2  C2  UNL     1     -34.800  14.998  -6.746  1.00 20.00    -0.113 C 
HETATM    3  C3  UNL     1     -33.840  14.707  -4.436  1.00 20.00     0.017 C 
HETATM    4  C4  UNL     1     -35.860  16.183  -4.793  1.00 20.00     0.017 C 
HETATM    5  C5  UNL     1     -34.127  14.673  -2.933  1.00 20.00     0.006 C 
HETATM    6  C6  UNL     1     -36.151  16.151  -3.292  1.00 20.00     0.006 C 
HETATM    7  C7  UNL     1     -35.119  14.921  -5.254  1.00 20.00     0.064 C 
HETATM    8  C8  UNL     1     -34.899  15.904  -2.441  1.00 20.00    -0.014 C 
ENDROOT
BRANCH   8   9
HETATM    9  C10 UNL     1     -34.031  17.098  -2.418  1.00 20.00     0.004 C 
BRANCH   9  10
HETATM   10  C11 UNL     1     -33.675  17.493  -0.989  1.00 20.00    -0.004 C 
HETATM   11  C9  UNL     1     -34.788  17.120  -0.022  1.00 20.00     0.005 C 
ENDBRANCH   9  10
ENDBRANCH   8   9
TORSDOF 2
ENDMDL
MODEL 8
REMARK VINA RESULT:      -4.1      2.344      6.497
REMARK  2 active torsions:
REMARK  status: ('A' for Active; 'I' for Inactive)
REMARK    1  A    between atoms: C8_8  and  C10_10 
REMARK    2  A    between atoms: C10_10  and  C11_11 
ROOT
HETATM    1  C1  UNL     1     -32.711  18.614   3.029  1.00 20.00     0.012 C 
HETATM    2  C2  UNL     1     -33.230  18.651   1.947  1.00 20.00    -0.113 C 
HETATM    3  C3  UNL     1     -32.831  18.778  -0.536  1.00 20.00     0.017 C 
HETATM    4  C4  UNL     1     -34.803  17.482   0.365  1.00 20.00     0.017 C 
HETATM    5  C5  UNL     1     -33.464  18.780  -1.929  1.00 20.00     0.006 C 
HETATM    6  C6  UNL     1     -35.440  17.481  -1.025  1.00 20.00     0.006 C 
HETATM    7  C7  UNL     1     -33.890  18.698   0.569  1.00 20.00     0.064 C 
HETATM    8  C8  UNL     1     -34.413  17.597  -2.158  1.00 20.00    -0.014 C 
ENDROOT
BRANCH   8   9
HETATM    9  C10 UNL     1     -33.659  16.338  -2.319  1.00 20.00     0.004 C 
BRANCH   9  10
HETATM   10  C11 UNL     1     -33.962  15.682  -3.661  1.00 20.00    -0.004 C 
HETATM   11  C9  UNL     1     -34.368  14.227  -3.484  1.00 20.00     0.005 C 
ENDBRANCH   9  10
ENDBRANCH   8   9
TORSDOF 2
ENDMDL
MODEL 9
REMARK VINA RESULT:      -4.1      1.705      4.839
REMARK  2 active torsions:
REMARK  status: ('A' for Active; 'I' for Inactive)
REMARK    1  A    between atoms: C8_8  and  C10_10 
REMARK    2  A    between atoms: C10_10  and  C11_11 
ROOT
HETATM    1  C1  UNL     1     -33.840  17.914  -0.246  1.00 20.00     0.012 C 
HETATM    2  C2  UNL     1     -33.808  17.219  -1.224  1.00 20.00    -0.113 C 
HETATM    3  C3  UNL     1     -35.024  15.456  -2.550  1.00 20.00     0.017 C 
HETATM    4  C4  UNL     1     -33.615  17.186  -3.735  1.00 20.00     0.017 C 
HETATM    5  C5  UNL     1     -35.033  14.593  -3.812  1.00 20.00     0.006 C 
HETATM    6  C6  UNL     1     -33.621  16.327  -5.000  1.00 20.00     0.006 C 
HETATM    7  C7  UNL     1     -33.770  16.333  -2.469  1.00 20.00     0.064 C 
HETATM    8  C8  UNL     1     -34.845  15.409  -5.098  1.00 20.00    -0.014 C 
ENDROOT
BRANCH   8   9
HETATM    9  C10 UNL     1     -36.061  16.182  -5.416  1.00 20.00     0.004 C 
BRANCH   9  10
HETATM   10  C11 UNL     1     -37.261  15.263  -5.621  1.00 20.00    -0.004 C 
HETATM   11  C9  UNL     1     -38.463  15.741  -4.823  1.00 20.00     0.005 C 
ENDBRANCH   9  10
ENDBRANCH   8   9
TORSDOF 2
ENDMDL
