MODEL 1
REMARK VINA RESULT:      -4.9      0.000      0.000
REMARK  1 active torsions:
REMARK  status: ('A' for Active; 'I' for Inactive)
REMARK    1  A    between atoms: C3_3  and  C6_6 
ROOT
HETATM    1  C1  UNL     1     -32.177   9.237   1.085  1.00 20.00     0.013 C 
HETATM    2  C2  UNL     1     -32.227   8.277   1.805  1.00 20.00    -0.107 C 
HETATM    3  C5  UNL     1     -31.795   7.298   4.088  1.00 20.00     0.033 A 
HETATM    4  C6  UNL     1     -33.274   7.198   3.827  1.00 20.00     0.030 A 
HETATM    5  C7  UNL     1     -32.287   7.125   2.670  1.00 20.00     0.027 A 
HETATM    6  C10 UNL     1     -32.000   5.814   1.984  1.00 20.00     0.030 C 
ENDROOT
BRANCH   4   7
HETATM    7  C3  UNL     1     -33.992   6.013   4.273  1.00 20.00    -0.018 C 
HETATM    8  C4  UNL     1     -34.356   5.696   5.531  1.00 20.00    -0.091 C 
HETATM    9  C8  UNL     1     -35.100   4.423   5.828  1.00 20.00     0.042 C 
HETATM   10  C9  UNL     1     -34.062   6.556   6.728  1.00 20.00     0.042 C 
ENDBRANCH   4   7
TORSDOF 1
ENDMDL
MODEL 2
REMARK VINA RESULT:      -4.9     10.625     11.810
REMARK  1 active torsions:
REMARK  status: ('A' for Active; 'I' for Inactive)
REMARK    1  A    between atoms: C3_3  and  C6_6 
ROOT
HETATM    1  C1  UNL     1     -34.376  15.175  -6.915  1.00 20.00     0.013 C 
HETATM    2  C2  UNL     1     -34.259  14.999  -5.733  1.00 20.00    -0.107 C 
HETATM    3  C5  UNL     1     -32.760  15.056  -3.706  1.00 20.00     0.033 A 
HETATM    4  C6  UNL     1     -33.883  16.029  -3.465  1.00 20.00     0.030 A 
HETATM    5  C7  UNL     1     -34.117  14.787  -4.314  1.00 20.00     0.027 A 
HETATM    6  C10 UNL     1     -34.908  13.624  -3.774  1.00 20.00     0.030 C 
ENDROOT
BRANCH   4   7
HETATM    7  C3  UNL     1     -34.448  16.138  -2.128  1.00 20.00    -0.018 C 
HETATM    8  C4  UNL     1     -34.236  17.112  -1.221  1.00 20.00    -0.091 C 
HETATM    9  C8  UNL     1     -34.902  17.078   0.127  1.00 20.00     0.042 C 
HETATM   10  C9  UNL     1     -33.339  18.294  -1.458  1.00 20.00     0.042 C 
ENDBRANCH   4   7
TORSDOF 1
ENDMDL
MODEL 3
REMARK VINA RESULT:      -4.8     10.634     11.878
REMARK  1 active torsions:
REMARK  status: ('A' for Active; 'I' for Inactive)
REMARK    1  A    between atoms: C3_3  and  C6_6 
ROOT
HETATM    1  C1  UNL     1     -34.417  15.132  -7.163  1.00 20.00     0.013 C 
HETATM    2  C2  UNL     1     -34.632  14.860  -6.014  1.00 20.00    -0.107 C 
HETATM    3  C5  UNL     1     -33.905  13.618  -3.943  1.00 20.00     0.033 A 
HETATM    4  C6  UNL     1     -33.909  15.086  -3.611  1.00 20.00     0.030 A 
HETATM    5  C7  UNL     1     -34.891  14.532  -4.634  1.00 20.00     0.027 A 
HETATM    6  C10 UNL     1     -36.350  14.374  -4.292  1.00 20.00     0.030 C 
ENDROOT
BRANCH   4   7
HETATM    7  C3  UNL     1     -34.360  15.511  -2.295  1.00 20.00    -0.018 C 
HETATM    8  C4  UNL     1     -34.274  16.742  -1.752  1.00 20.00    -0.091 C 
HETATM    9  C8  UNL     1     -34.792  17.020  -0.368  1.00 20.00     0.042 C 
HETATM   10  C9  UNL     1     -33.669  17.924  -2.455  1.00 20.00     0.042 C 
ENDBRANCH   4   7
TORSDOF 1
ENDMDL
MODEL 4
REMARK VINA RESULT:      -4.7     11.036     12.519
REMARK  1 active torsions:
REMARK  status: ('A' for Active; 'I' for Inactive)
REMARK    1  A    between atoms: C3_3  and  C6_6 
ROOT
HETATM    1  C1  UNL     1     -34.621  16.537  -1.131  1.00 20.00     0.013 C 
HETATM    2  C2  UNL     1     -34.201  16.245  -2.217  1.00 20.00    -0.107 C 
HETATM    3  C5  UNL     1     -32.742  14.724  -3.603  1.00 20.00     0.033 A 
HETATM    4  C6  UNL     1     -34.157  14.560  -4.089  1.00 20.00     0.030 A 
HETATM    5  C7  UNL     1     -33.695  15.895  -3.521  1.00 20.00     0.027 A 
HETATM    6  C10 UNL     1     -33.440  17.070  -4.429  1.00 20.00     0.030 C 
ENDROOT
BRANCH   4   7
HETATM    7  C3  UNL     1     -34.400  14.397  -5.515  1.00 20.00    -0.018 C 
HETATM    8  C4  UNL     1     -35.539  14.643  -6.190  1.00 20.00    -0.091 C 
HETATM    9  C8  UNL     1     -35.627  14.422  -7.675  1.00 20.00     0.042 C 
HETATM   10  C9  UNL     1     -36.800  15.148  -5.546  1.00 20.00     0.042 C 
ENDBRANCH   4   7
TORSDOF 1
ENDMDL
MODEL 5
REMARK VINA RESULT:      -4.6     10.849     12.175
REMARK  1 active torsions:
REMARK  status: ('A' for Active; 'I' for Inactive)
REMARK    1  A    between atoms: C3_3  and  C6_6 
ROOT
HETATM    1  C1  UNL     1     -31.963  19.040   1.149  1.00 20.00     0.013 C 
HETATM    2  C2  UNL     1     -32.870  18.557   0.527  1.00 20.00    -0.107 C 
HETATM    3  C5  UNL     1     -34.335  18.642  -1.524  1.00 20.00     0.033 A 
HETATM    4  C6  UNL     1     -33.598  17.330  -1.549  1.00 20.00     0.030 A 
HETATM    5  C7  UNL     1     -33.959  17.977  -0.219  1.00 20.00     0.027 A 
HETATM    6  C10 UNL     1     -35.072  17.421   0.630  1.00 20.00     0.030 C 
ENDROOT
BRANCH   4   7
HETATM    7  C3  UNL     1     -34.293  16.138  -2.014  1.00 20.00    -0.018 C 
HETATM    8  C4  UNL     1     -34.109  15.477  -3.174  1.00 20.00    -0.091 C 
HETATM    9  C8  UNL     1     -34.915  14.252  -3.507  1.00 20.00     0.042 C 
HETATM   10  C9  UNL     1     -33.111  15.886  -4.219  1.00 20.00     0.042 C 
ENDBRANCH   4   7
TORSDOF 1
ENDMDL
MODEL 6
REMARK VINA RESULT:      -4.6     10.431     11.765
REMARK  1 active torsions:
REMARK  status: ('A' for Active; 'I' for Inactive)
REMARK    1  A    between atoms: C3_3  and  C6_6 
ROOT
HETATM    1  C1  UNL     1     -35.073  17.674   1.154  1.00 20.00     0.013 C 
HETATM    2  C2  UNL     1     -35.100  17.455  -0.026  1.00 20.00    -0.107 C 
HETATM    3  C5  UNL     1     -33.817  17.245  -2.188  1.00 20.00     0.033 A 
HETATM    4  C6  UNL     1     -34.454  15.910  -1.909  1.00 20.00     0.030 A 
HETATM    5  C7  UNL     1     -35.132  17.192  -1.444  1.00 20.00     0.027 A 
HETATM    6  C10 UNL     1     -36.357  17.714  -2.148  1.00 20.00     0.030 C 
ENDROOT
BRANCH   4   7
HETATM    7  C3  UNL     1     -34.994  15.140  -3.020  1.00 20.00    -0.018 C 
HETATM    8  C4  UNL     1     -34.363  14.204  -3.756  1.00 20.00    -0.091 C 
HETATM    9  C8  UNL     1     -35.067  13.493  -4.879  1.00 20.00     0.042 C 
HETATM   10  C9  UNL     1     -32.936  13.790  -3.537  1.00 20.00     0.042 C 
ENDBRANCH   4   7
TORSDOF 1
ENDMDL
MODEL 7
REMARK VINA RESULT:      -4.4     11.156     12.070
REMARK  1 active torsions:
REMARK  status: ('A' for Active; 'I' for Inactive)
REMARK    1  A    between atoms: C3_3  and  C6_6 
ROOT
HETATM    1  C1  UNL     1     -33.601  18.549   1.912  1.00 20.00     0.013 C 
HETATM    2  C2  UNL     1     -34.070  18.293   0.837  1.00 20.00    -0.107 C 
HETATM    3  C5  UNL     1     -33.752  18.206  -1.663  1.00 20.00     0.033 A 
HETATM    4  C6  UNL     1     -34.025  16.802  -1.194  1.00 20.00     0.030 A 
HETATM    5  C7  UNL     1     -34.633  17.987  -0.455  1.00 20.00     0.027 A 
HETATM    6  C10 UNL     1     -36.099  18.307  -0.589  1.00 20.00     0.030 C 
ENDROOT
BRANCH   4   7
HETATM    7  C3  UNL     1     -34.850  15.930  -2.016  1.00 20.00    -0.018 C 
HETATM    8  C4  UNL     1     -34.466  15.191  -3.076  1.00 20.00    -0.091 C 
HETATM    9  C8  UNL     1     -35.450  14.335  -3.824  1.00 20.00     0.042 C 
HETATM   10  C9  UNL     1     -33.059  15.151  -3.600  1.00 20.00     0.042 C 
ENDBRANCH   4   7
TORSDOF 1
ENDMDL
MODEL 8
REMARK VINA RESULT:      -4.4     10.951     12.106
REMARK  1 active torsions:
REMARK  status: ('A' for Active; 'I' for Inactive)
REMARK    1  A    between atoms: C3_3  and  C6_6 
ROOT
HETATM    1  C1  UNL     1     -35.422  13.308  -4.524  1.00 20.00     0.013 C 
HETATM    2  C2  UNL     1     -34.659  14.217  -4.345  1.00 20.00    -0.107 C 
HETATM    3  C5  UNL     1     -33.769  16.443  -5.130  1.00 20.00     0.033 A 
HETATM    4  C6  UNL     1     -34.360  16.650  -3.761  1.00 20.00     0.030 A 
HETATM    5  C7  UNL     1     -33.741  15.309  -4.131  1.00 20.00     0.027 A 
HETATM    6  C10 UNL     1     -32.402  14.899  -3.574  1.00 20.00     0.030 C 
ENDROOT
BRANCH   4   7
HETATM    7  C3  UNL     1     -33.693  17.551  -2.833  1.00 20.00    -0.018 C 
HETATM    8  C4  UNL     1     -33.799  17.577  -1.490  1.00 20.00    -0.091 C 
HETATM    9  C8  UNL     1     -33.037  18.579  -0.668  1.00 20.00     0.042 C 
HETATM   10  C9  UNL     1     -34.665  16.635  -0.702  1.00 20.00     0.042 C 
ENDBRANCH   4   7
TORSDOF 1
ENDMDL
MODEL 9
REMARK VINA RESULT:      -4.3     11.110     12.324
REMARK  1 active torsions:
REMARK  status: ('A' for Active; 'I' for Inactive)
REMARK    1  A    between atoms: C3_3  and  C6_6 
ROOT
HETATM    1  C1  UNL     1     -34.786  17.134   0.073  1.00 20.00     0.013 C 
HETATM    2  C2  UNL     1     -34.559  16.961  -1.093  1.00 20.00    -0.107 C 
HETATM    3  C5  UNL     1     -33.401  15.585  -2.861  1.00 20.00     0.033 A 
HETATM    4  C6  UNL     1     -34.882  15.500  -3.120  1.00 20.00     0.030 A 
HETATM    5  C7  UNL     1     -34.286  16.754  -2.493  1.00 20.00     0.027 A 
HETATM    6  C10 UNL     1     -34.142  18.020  -3.296  1.00 20.00     0.030 C 
ENDROOT
BRANCH   4   7
HETATM    7  C3  UNL     1     -35.359  15.505  -4.495  1.00 20.00    -0.018 C 
HETATM    8  C4  UNL     1     -35.294  14.503  -5.393  1.00 20.00    -0.091 C 
HETATM    9  C8  UNL     1     -35.838  14.670  -6.785  1.00 20.00     0.042 C 
HETATM   10  C9  UNL     1     -34.687  13.160  -5.104  1.00 20.00     0.042 C 
ENDBRANCH   4   7
TORSDOF 1
ENDMDL
