MODEL 1
REMARK VINA RESULT:      -5.1      0.000      0.000
REMARK  0 active torsions:
REMARK  status: ('A' for Active; 'I' for Inactive)
ROOT
HETATM    1  C1  UNL     1     -33.555   6.410   5.668  1.00 20.00    -0.011 A 
HETATM    2  C2  UNL     1     -33.431   6.254   4.341  1.00 20.00    -0.011 A 
HETATM    3  C3  UNL     1     -34.645   5.496   6.175  1.00 20.00     0.033 A 
HETATM    4  C4  UNL     1     -35.836   5.475   3.815  1.00 20.00     0.016 A 
HETATM    5  C5  UNL     1     -34.348   5.262   3.759  1.00 20.00     0.030 A 
HETATM    6  C6  UNL     1     -35.150   4.761   4.949  1.00 20.00    -0.002 A 
HETATM    7 BR7  UNL     1     -32.268   7.149   3.230  1.00 20.00    -0.056 Br
ENDROOT
TORSDOF 0
ENDMDL
MODEL 2
REMARK VINA RESULT:      -4.8      1.570      2.350
REMARK  0 active torsions:
REMARK  status: ('A' for Active; 'I' for Inactive)
ROOT
HETATM    1  C1  UNL     1     -33.827   6.369   4.224  1.00 20.00    -0.011 A 
HETATM    2  C2  UNL     1     -34.074   6.294   5.540  1.00 20.00    -0.011 A 
HETATM    3  C3  UNL     1     -34.599   5.284   3.512  1.00 20.00     0.033 A 
HETATM    4  C4  UNL     1     -34.647   3.780   5.685  1.00 20.00     0.016 A 
HETATM    5  C5  UNL     1     -35.005   5.221   5.922  1.00 20.00     0.030 A 
HETATM    6  C6  UNL     1     -35.355   4.552   4.604  1.00 20.00    -0.002 A 
HETATM    7 BR7  UNL     1     -33.364   7.365   6.858  1.00 20.00    -0.056 Br
ENDROOT
TORSDOF 0
ENDMDL
MODEL 3
REMARK VINA RESULT:      -4.8      0.617      1.998
REMARK  0 active torsions:
REMARK  status: ('A' for Active; 'I' for Inactive)
ROOT
HETATM    1  C1  UNL     1     -34.516   5.354   3.401  1.00 20.00    -0.011 A 
HETATM    2  C2  UNL     1     -33.642   6.093   4.099  1.00 20.00    -0.011 A 
HETATM    3  C3  UNL     1     -35.527   4.755   4.349  1.00 20.00     0.033 A 
HETATM    4  C4  UNL     1     -33.825   4.873   6.367  1.00 20.00     0.016 A 
HETATM    5  C5  UNL     1     -33.900   6.131   5.547  1.00 20.00     0.030 A 
HETATM    6  C6  UNL     1     -35.130   5.257   5.723  1.00 20.00    -0.002 A 
HETATM    7 BR7  UNL     1     -32.196   7.016   3.430  1.00 20.00    -0.056 Br
ENDROOT
TORSDOF 0
ENDMDL
MODEL 4
REMARK VINA RESULT:      -4.2      1.871      3.035
REMARK  0 active torsions:
REMARK  status: ('A' for Active; 'I' for Inactive)
ROOT
HETATM    1  C1  UNL     1     -34.778   5.542   3.955  1.00 20.00    -0.011 A 
HETATM    2  C2  UNL     1     -33.838   6.138   4.703  1.00 20.00    -0.011 A 
HETATM    3  C3  UNL     1     -34.245   5.339   2.557  1.00 20.00     0.033 A 
HETATM    4  C4  UNL     1     -32.558   7.357   2.821  1.00 20.00     0.016 A 
HETATM    5  C5  UNL     1     -32.580   6.412   3.991  1.00 20.00     0.030 A 
HETATM    6  C6  UNL     1     -32.835   5.896   2.585  1.00 20.00    -0.002 A 
HETATM    7 BR7  UNL     1     -33.985   6.634   6.470  1.00 20.00    -0.056 Br
ENDROOT
TORSDOF 0
ENDMDL
MODEL 5
REMARK VINA RESULT:      -3.7      9.029     10.059
REMARK  0 active torsions:
REMARK  status: ('A' for Active; 'I' for Inactive)
ROOT
HETATM    1  C1  UNL     1     -42.317   5.868  -2.663  1.00 20.00    -0.011 A 
HETATM    2  C2  UNL     1     -41.802   4.727  -2.182  1.00 20.00    -0.011 A 
HETATM    3  C3  UNL     1     -41.795   7.029  -1.851  1.00 20.00     0.033 A 
HETATM    4  C4  UNL     1     -41.393   5.482   0.254  1.00 20.00     0.016 A 
HETATM    5  C5  UNL     1     -40.890   4.907  -1.042  1.00 20.00     0.030 A 
HETATM    6  C6  UNL     1     -40.879   6.409  -0.814  1.00 20.00    -0.002 A 
HETATM    7 BR7  UNL     1     -42.136   3.023  -2.792  1.00 20.00    -0.056 Br
ENDROOT
TORSDOF 0
ENDMDL
MODEL 6
REMARK VINA RESULT:      -3.7      8.746      9.754
REMARK  0 active torsions:
REMARK  status: ('A' for Active; 'I' for Inactive)
ROOT
HETATM    1  C1  UNL     1     -41.219   7.186  -0.987  1.00 20.00    -0.011 A 
HETATM    2  C2  UNL     1     -41.802   6.621  -2.055  1.00 20.00    -0.011 A 
HETATM    3  C3  UNL     1     -40.632   6.103  -0.113  1.00 20.00     0.033 A 
HETATM    4  C4  UNL     1     -42.355   4.319  -1.025  1.00 20.00     0.016 A 
HETATM    5  C5  UNL     1     -41.705   5.154  -2.093  1.00 20.00     0.030 A 
HETATM    6  C6  UNL     1     -40.943   4.803  -0.827  1.00 20.00    -0.002 A 
HETATM    7 BR7  UNL     1     -42.689   7.489  -3.414  1.00 20.00    -0.056 Br
ENDROOT
TORSDOF 0
ENDMDL
MODEL 7
REMARK VINA RESULT:      -3.6      8.908      9.997
REMARK  0 active torsions:
REMARK  status: ('A' for Active; 'I' for Inactive)
ROOT
HETATM    1  C1  UNL     1     -40.682   4.792  -0.906  1.00 20.00    -0.011 A 
HETATM    2  C2  UNL     1     -41.628   4.615  -1.841  1.00 20.00    -0.011 A 
HETATM    3  C3  UNL     1     -40.790   6.192  -0.350  1.00 20.00     0.033 A 
HETATM    4  C4  UNL     1     -41.916   7.074  -2.572  1.00 20.00     0.016 A 
HETATM    5  C5  UNL     1     -42.493   5.785  -2.057  1.00 20.00     0.030 A 
HETATM    6  C6  UNL     1     -41.953   6.824  -1.088  1.00 20.00    -0.002 A 
HETATM    7 BR7  UNL     1     -41.915   3.100  -2.845  1.00 20.00    -0.056 Br
ENDROOT
TORSDOF 0
ENDMDL
MODEL 8
REMARK VINA RESULT:      -3.6     12.210     12.963
REMARK  0 active torsions:
REMARK  status: ('A' for Active; 'I' for Inactive)
ROOT
HETATM    1  C1  UNL     1     -33.657  16.925  -3.820  1.00 20.00    -0.011 A 
HETATM    2  C2  UNL     1     -34.213  16.155  -2.872  1.00 20.00    -0.011 A 
HETATM    3  C3  UNL     1     -33.522  16.125  -5.093  1.00 20.00     0.033 A 
HETATM    4  C4  UNL     1     -33.454  13.849  -3.751  1.00 20.00     0.016 A 
HETATM    5  C5  UNL     1     -34.541  14.792  -3.315  1.00 20.00     0.030 A 
HETATM    6  C6  UNL     1     -34.093  14.759  -4.766  1.00 20.00    -0.002 A 
HETATM    7 BR7  UNL     1     -34.571  16.635  -1.132  1.00 20.00    -0.056 Br
ENDROOT
TORSDOF 0
ENDMDL
MODEL 9
REMARK VINA RESULT:      -3.5     12.579     13.210
REMARK  0 active torsions:
REMARK  status: ('A' for Active; 'I' for Inactive)
ROOT
HETATM    1  C1  UNL     1     -33.292  16.037  -4.651  1.00 20.00    -0.011 A 
HETATM    2  C2  UNL     1     -34.100  15.486  -5.569  1.00 20.00    -0.011 A 
HETATM    3  C3  UNL     1     -32.981  15.013  -3.586  1.00 20.00     0.033 A 
HETATM    4  C4  UNL     1     -35.224  13.703  -4.077  1.00 20.00     0.016 A 
HETATM    5  C5  UNL     1     -34.445  14.080  -5.308  1.00 20.00     0.030 A 
HETATM    6  C6  UNL     1     -33.721  13.759  -4.011  1.00 20.00    -0.002 A 
HETATM    7 BR7  UNL     1     -34.798  16.310  -7.060  1.00 20.00    -0.056 Br
ENDROOT
TORSDOF 0
ENDMDL
