MODEL 1
REMARK VINA RESULT:      -5.4      0.000      0.000
REMARK  4 active torsions:
REMARK  status: ('A' for Active; 'I' for Inactive)
REMARK    1  A    between atoms: C1_1  and  C7_7 
REMARK    2  A    between atoms: C2_2  and  C9_9 
REMARK    3  A    between atoms: C9_9  and  C11_11 
REMARK    4  A    between atoms: C10_10  and  C11_11 
ROOT
HETATM    1  C1  UNL     1     -33.778   6.509   3.927  1.00 20.00    -0.098 C 
HETATM    2  C2  UNL     1     -32.895   6.845   3.184  1.00 20.00    -0.106 C 
ENDROOT
BRANCH   1   3
HETATM    3  C7  UNL     1     -34.854   6.101   4.836  1.00 20.00     0.087 C 
HETATM    4  C4  UNL     1     -35.291   4.705   4.522  1.00 20.00    -0.014 C 
HETATM    5  C3  UNL     1     -34.880   3.829   5.444  1.00 20.00    -0.029 C 
HETATM    6  C5  UNL     1     -34.090   4.490   6.522  1.00 20.00     0.028 C 
HETATM    7  C6  UNL     1     -34.373   5.977   6.288  1.00 20.00     0.025 C 
ENDBRANCH   1   3
BRANCH   2   8
HETATM    8  C9  UNL     1     -31.819   7.256   2.273  1.00 20.00     0.094 C 
BRANCH   8   9
HETATM    9  C11 UNL     1     -31.559   8.759   2.369  1.00 20.00     0.012 C 
BRANCH   9  10
HETATM   10  C10 UNL     1     -32.539   9.550   1.504  1.00 20.00    -0.004 C 
HETATM   11  C8  UNL     1     -32.536   9.057   0.066  1.00 20.00     0.005 C 
ENDBRANCH   9  10
ENDBRANCH   8   9
ENDBRANCH   2   8
TORSDOF 4
ENDMDL
MODEL 2
REMARK VINA RESULT:      -4.8     10.728     12.046
REMARK  4 active torsions:
REMARK  status: ('A' for Active; 'I' for Inactive)
REMARK    1  A    between atoms: C1_1  and  C7_7 
REMARK    2  A    between atoms: C2_2  and  C9_9 
REMARK    3  A    between atoms: C9_9  and  C11_11 
REMARK    4  A    between atoms: C10_10  and  C11_11 
ROOT
HETATM    1  C1  UNL     1     -33.846  15.792  -2.733  1.00 20.00    -0.098 C 
HETATM    2  C2  UNL     1     -34.290  16.319  -1.749  1.00 20.00    -0.106 C 
ENDROOT
BRANCH   1   3
HETATM    3  C7  UNL     1     -33.305  15.149  -3.935  1.00 20.00     0.087 C 
HETATM    4  C4  UNL     1     -33.542  13.673  -3.881  1.00 20.00    -0.014 C 
HETATM    5  C3  UNL     1     -34.499  13.284  -4.729  1.00 20.00    -0.029 C 
HETATM    6  C5  UNL     1     -35.069  14.436  -5.485  1.00 20.00     0.028 C 
HETATM    7  C6  UNL     1     -34.066  15.558  -5.205  1.00 20.00     0.025 C 
ENDBRANCH   1   3
BRANCH   2   8
HETATM    8  C9  UNL     1     -34.829  16.965  -0.545  1.00 20.00     0.094 C 
BRANCH   8   9
HETATM    9  C11 UNL     1     -33.859  18.014  -0.001  1.00 20.00     0.012 C 
BRANCH   9  10
HETATM   10  C10 UNL     1     -34.178  18.368   1.451  1.00 20.00    -0.004 C 
HETATM   11  C8  UNL     1     -35.395  17.608   1.955  1.00 20.00     0.005 C 
ENDBRANCH   9  10
ENDBRANCH   8   9
ENDBRANCH   2   8
TORSDOF 4
ENDMDL
MODEL 3
REMARK VINA RESULT:      -4.8     10.790     12.154
REMARK  4 active torsions:
REMARK  status: ('A' for Active; 'I' for Inactive)
REMARK    1  A    between atoms: C1_1  and  C7_7 
REMARK    2  A    between atoms: C2_2  and  C9_9 
REMARK    3  A    between atoms: C9_9  and  C11_11 
REMARK    4  A    between atoms: C10_10  and  C11_11 
ROOT
HETATM    1  C1  UNL     1     -33.817  15.866  -2.642  1.00 20.00    -0.098 C 
HETATM    2  C2  UNL     1     -34.263  16.366  -1.644  1.00 20.00    -0.106 C 
ENDROOT
BRANCH   1   3
HETATM    3  C7  UNL     1     -33.274  15.255  -3.859  1.00 20.00     0.087 C 
HETATM    4  C4  UNL     1     -33.476  13.773  -3.826  1.00 20.00    -0.014 C 
HETATM    5  C3  UNL     1     -34.433  13.376  -4.671  1.00 20.00    -0.029 C 
HETATM    6  C5  UNL     1     -35.038  14.526  -5.402  1.00 20.00     0.028 C 
HETATM    7  C6  UNL     1     -34.057  15.666  -5.114  1.00 20.00     0.025 C 
ENDBRANCH   1   3
BRANCH   2   8
HETATM    8  C9  UNL     1     -34.806  16.980  -0.425  1.00 20.00     0.094 C 
BRANCH   8   9
HETATM    9  C11 UNL     1     -34.327  18.424  -0.275  1.00 20.00     0.012 C 
BRANCH   9  10
HETATM   10  C10 UNL     1     -33.304  18.556   0.853  1.00 20.00    -0.004 C 
HETATM   11  C8  UNL     1     -31.945  18.986   0.324  1.00 20.00     0.005 C 
ENDBRANCH   9  10
ENDBRANCH   8   9
ENDBRANCH   2   8
TORSDOF 4
ENDMDL
MODEL 4
REMARK VINA RESULT:      -4.7      0.790      5.914
REMARK  4 active torsions:
REMARK  status: ('A' for Active; 'I' for Inactive)
REMARK    1  A    between atoms: C1_1  and  C7_7 
REMARK    2  A    between atoms: C2_2  and  C9_9 
REMARK    3  A    between atoms: C9_9  and  C11_11 
REMARK    4  A    between atoms: C10_10  and  C11_11 
ROOT
HETATM    1  C1  UNL     1     -32.443   7.602   2.741  1.00 20.00    -0.098 C 
HETATM    2  C2  UNL     1     -33.051   6.785   3.380  1.00 20.00    -0.106 C 
ENDROOT
BRANCH   1   3
HETATM    3  C7  UNL     1     -31.700   8.597   1.961  1.00 20.00     0.087 C 
HETATM    4  C4  UNL     1     -31.455   8.087   0.576  1.00 20.00    -0.014 C 
HETATM    5  C3  UNL     1     -32.219   8.703  -0.331  1.00 20.00    -0.029 C 
HETATM    6  C5  UNL     1     -33.111   9.720   0.297  1.00 20.00     0.028 C 
HETATM    7  C6  UNL     1     -32.524   9.867   1.703  1.00 20.00     0.025 C 
ENDBRANCH   1   3
BRANCH   2   8
HETATM    8  C9  UNL     1     -33.797   5.790   4.161  1.00 20.00     0.094 C 
BRANCH   8   9
HETATM    9  C11 UNL     1     -34.004   6.263   5.600  1.00 20.00     0.012 C 
BRANCH   9  10
HETATM   10  C10 UNL     1     -34.692   5.192   6.445  1.00 20.00    -0.004 C 
HETATM   11  C8  UNL     1     -35.037   3.965   5.616  1.00 20.00     0.005 C 
ENDBRANCH   9  10
ENDBRANCH   8   9
ENDBRANCH   2   8
TORSDOF 4
ENDMDL
MODEL 5
REMARK VINA RESULT:      -4.7      0.812      5.555
REMARK  4 active torsions:
REMARK  status: ('A' for Active; 'I' for Inactive)
REMARK    1  A    between atoms: C1_1  and  C7_7 
REMARK    2  A    between atoms: C2_2  and  C9_9 
REMARK    3  A    between atoms: C9_9  and  C11_11 
REMARK    4  A    between atoms: C10_10  and  C11_11 
ROOT
HETATM    1  C1  UNL     1     -32.917   6.838   2.984  1.00 20.00    -0.098 C 
HETATM    2  C2  UNL     1     -33.809   6.127   3.362  1.00 20.00    -0.106 C 
ENDROOT
BRANCH   1   3
HETATM    3  C7  UNL     1     -31.830   7.708   2.524  1.00 20.00     0.087 C 
HETATM    4  C4  UNL     1     -31.853   7.817   1.032  1.00 20.00    -0.014 C 
HETATM    5  C3  UNL     1     -32.290   9.011   0.621  1.00 20.00    -0.029 C 
HETATM    6  C5  UNL     1     -32.642   9.897   1.769  1.00 20.00     0.028 C 
HETATM    7  C6  UNL     1     -32.026   9.166   2.964  1.00 20.00     0.025 C 
ENDBRANCH   1   3
BRANCH   2   8
HETATM    8  C9  UNL     1     -34.897   5.255   3.824  1.00 20.00     0.094 C 
BRANCH   8   9
HETATM    9  C11 UNL     1     -34.497   4.502   5.093  1.00 20.00     0.012 C 
BRANCH   9  10
HETATM   10  C10 UNL     1     -34.894   5.276   6.349  1.00 20.00    -0.004 C 
HETATM   11  C8  UNL     1     -34.022   6.506   6.544  1.00 20.00     0.005 C 
ENDBRANCH   9  10
ENDBRANCH   8   9
ENDBRANCH   2   8
TORSDOF 4
ENDMDL
MODEL 6
REMARK VINA RESULT:      -4.5     10.850     12.159
REMARK  4 active torsions:
REMARK  status: ('A' for Active; 'I' for Inactive)
REMARK    1  A    between atoms: C1_1  and  C7_7 
REMARK    2  A    between atoms: C2_2  and  C9_9 
REMARK    3  A    between atoms: C9_9  and  C11_11 
REMARK    4  A    between atoms: C10_10  and  C11_11 
ROOT
HETATM    1  C1  UNL     1     -34.646  15.857  -2.489  1.00 20.00    -0.098 C 
HETATM    2  C2  UNL     1     -34.205  14.933  -3.117  1.00 20.00    -0.106 C 
ENDROOT
BRANCH   1   3
HETATM    3  C7  UNL     1     -35.186  16.984  -1.722  1.00 20.00     0.087 C 
HETATM    4  C4  UNL     1     -34.652  16.959  -0.325  1.00 20.00    -0.014 C 
HETATM    5  C3  UNL     1     -33.746  17.918  -0.114  1.00 20.00    -0.029 C 
HETATM    6  C5  UNL     1     -33.514  18.738  -1.338  1.00 20.00     0.028 C 
HETATM    7  C6  UNL     1     -34.682  18.337  -2.243  1.00 20.00     0.025 C 
ENDBRANCH   1   3
BRANCH   2   8
HETATM    8  C9  UNL     1     -33.662  13.805  -3.886  1.00 20.00     0.094 C 
BRANCH   8   9
HETATM    9  C11 UNL     1     -34.706  13.243  -4.851  1.00 20.00     0.012 C 
BRANCH   9  10
HETATM   10  C10 UNL     1     -35.370  14.354  -5.662  1.00 20.00    -0.004 C 
HETATM   11  C8  UNL     1     -34.489  14.803  -6.817  1.00 20.00     0.005 C 
ENDBRANCH   9  10
ENDBRANCH   8   9
ENDBRANCH   2   8
TORSDOF 4
ENDMDL
MODEL 7
REMARK VINA RESULT:      -4.5     11.253     12.463
REMARK  4 active torsions:
REMARK  status: ('A' for Active; 'I' for Inactive)
REMARK    1  A    between atoms: C1_1  and  C7_7 
REMARK    2  A    between atoms: C2_2  and  C9_9 
REMARK    3  A    between atoms: C9_9  and  C11_11 
REMARK    4  A    between atoms: C10_10  and  C11_11 
ROOT
HETATM    1  C1  UNL     1     -34.619  15.994  -1.955  1.00 20.00    -0.098 C 
HETATM    2  C2  UNL     1     -34.893  16.727  -1.042  1.00 20.00    -0.106 C 
ENDROOT
BRANCH   1   3
HETATM    3  C7  UNL     1     -34.288  15.100  -3.069  1.00 20.00     0.087 C 
HETATM    4  C4  UNL     1     -35.233  15.323  -4.207  1.00 20.00    -0.014 C 
HETATM    5  C3  UNL     1     -34.652  15.965  -5.226  1.00 20.00    -0.029 C 
HETATM    6  C5  UNL     1     -33.226  16.288  -4.934  1.00 20.00     0.028 C 
HETATM    7  C6  UNL     1     -32.929  15.435  -3.698  1.00 20.00     0.025 C 
ENDBRANCH   1   3
BRANCH   2   8
HETATM    8  C9  UNL     1     -35.223  17.624   0.073  1.00 20.00     0.094 C 
BRANCH   8   9
HETATM    9  C11 UNL     1     -33.959  18.110   0.783  1.00 20.00     0.012 C 
BRANCH   9  10
HETATM   10  C10 UNL     1     -32.906  18.584  -0.218  1.00 20.00    -0.004 C 
HETATM   11  C8  UNL     1     -31.692  19.167   0.486  1.00 20.00     0.005 C 
ENDBRANCH   9  10
ENDBRANCH   8   9
ENDBRANCH   2   8
TORSDOF 4
ENDMDL
MODEL 8
REMARK VINA RESULT:      -4.4     11.126     12.195
REMARK  4 active torsions:
REMARK  status: ('A' for Active; 'I' for Inactive)
REMARK    1  A    between atoms: C1_1  and  C7_7 
REMARK    2  A    between atoms: C2_2  and  C9_9 
REMARK    3  A    between atoms: C9_9  and  C11_11 
REMARK    4  A    between atoms: C10_10  and  C11_11 
ROOT
HETATM    1  C1  UNL     1     -34.684  15.325  -2.879  1.00 20.00    -0.098 C 
HETATM    2  C2  UNL     1     -34.240  16.229  -2.223  1.00 20.00    -0.106 C 
ENDROOT
BRANCH   1   3
HETATM    3  C7  UNL     1     -35.225  14.222  -3.681  1.00 20.00     0.087 C 
HETATM    4  C4  UNL     1     -36.365  14.706  -4.519  1.00 20.00    -0.014 C 
HETATM    5  C3  UNL     1     -36.036  14.800  -5.811  1.00 20.00    -0.029 C 
HETATM    6  C5  UNL     1     -34.617  14.407  -6.051  1.00 20.00     0.028 C 
HETATM    7  C6  UNL     1     -34.226  13.727  -4.736  1.00 20.00     0.025 C 
ENDBRANCH   1   3
BRANCH   2   8
HETATM    8  C9  UNL     1     -33.698  17.332  -1.419  1.00 20.00     0.094 C 
BRANCH   8   9
HETATM    9  C11 UNL     1     -34.426  17.445  -0.079  1.00 20.00     0.012 C 
BRANCH   9  10
HETATM   10  C10 UNL     1     -33.695  18.391   0.873  1.00 20.00    -0.004 C 
HETATM   11  C8  UNL     1     -32.351  18.821   0.309  1.00 20.00     0.005 C 
ENDBRANCH   9  10
ENDBRANCH   8   9
ENDBRANCH   2   8
TORSDOF 4
ENDMDL
MODEL 9
REMARK VINA RESULT:      -4.2     10.776     12.364
REMARK  4 active torsions:
REMARK  status: ('A' for Active; 'I' for Inactive)
REMARK    1  A    between atoms: C1_1  and  C7_7 
REMARK    2  A    between atoms: C2_2  and  C9_9 
REMARK    3  A    between atoms: C9_9  and  C11_11 
REMARK    4  A    between atoms: C10_10  and  C11_11 
ROOT
HETATM    1  C1  UNL     1     -33.804  15.864  -2.678  1.00 20.00    -0.098 C 
HETATM    2  C2  UNL     1     -34.277  16.385  -1.703  1.00 20.00    -0.106 C 
ENDROOT
BRANCH   1   3
HETATM    3  C7  UNL     1     -33.229  15.227  -3.867  1.00 20.00     0.087 C 
HETATM    4  C4  UNL     1     -33.465  13.751  -3.826  1.00 20.00    -0.014 C 
HETATM    5  C3  UNL     1     -34.397  13.365  -4.703  1.00 20.00    -0.029 C 
HETATM    6  C5  UNL     1     -34.947  14.520  -5.469  1.00 20.00     0.028 C 
HETATM    7  C6  UNL     1     -33.953  15.641  -5.156  1.00 20.00     0.025 C 
ENDBRANCH   1   3
BRANCH   2   8
HETATM    8  C9  UNL     1     -34.852  17.025  -0.513  1.00 20.00     0.094 C 
BRANCH   8   9
HETATM    9  C11 UNL     1     -35.652  18.272  -0.890  1.00 20.00     0.012 C 
BRANCH   9  10
HETATM   10  C10 UNL     1     -36.681  17.965  -1.978  1.00 20.00    -0.004 C 
HETATM   11  C8  UNL     1     -36.517  18.888  -3.174  1.00 20.00     0.005 C 
ENDBRANCH   9  10
ENDBRANCH   8   9
ENDBRANCH   2   8
TORSDOF 4
ENDMDL
