MODEL 1
REMARK VINA RESULT:      -4.8      0.000      0.000
REMARK  6 active torsions:
REMARK  status: ('A' for Active; 'I' for Inactive)
REMARK    1  A    between atoms: C2_2  and  C6_6 
REMARK    2  A    between atoms: C6_6  and  C11_11 
REMARK    3  A    between atoms: C7_7  and  C9_9 
REMARK    4  A    between atoms: C8_8  and  C11_11 
REMARK    5  A    between atoms: C9_9  and  C10_10 
REMARK    6  A    between atoms: C10_10  and  C11_11 
ROOT
HETATM    1  C11 UNL     1     -33.382   5.777   3.793  1.00 20.00    -0.011 C 
ENDROOT
BRANCH   1   2
HETATM    2  C6  UNL     1     -33.861   6.920   4.723  1.00 20.00     0.037 C 
BRANCH   2   3
HETATM    3  C2  UNL     1     -33.916   6.564   6.193  1.00 20.00    -0.093 C 
HETATM    4  C1  UNL     1     -33.434   7.391   7.134  1.00 20.00     0.014 C 
HETATM    5  C3  UNL     1     -34.493   5.225   6.553  1.00 20.00     0.042 C 
ENDBRANCH   2   3
ENDBRANCH   1   2
BRANCH   1   6
HETATM    6  C8  UNL     1     -34.528   5.281   2.882  1.00 20.00     0.000 C 
HETATM    7  C5  UNL     1     -35.916   5.676   3.366  1.00 20.00     0.005 C 
ENDBRANCH   1   6
BRANCH   1   8
HETATM    8  C10 UNL     1     -32.107   6.198   3.023  1.00 20.00     0.005 C 
BRANCH   8   9
HETATM    9  C9  UNL     1     -31.834   7.707   2.986  1.00 20.00     0.000 C 
BRANCH   9  10
HETATM   10  C7  UNL     1     -31.905   8.295   1.574  1.00 20.00    -0.005 C 
HETATM   11  C4  UNL     1     -32.499   9.694   1.526  1.00 20.00     0.005 C 
ENDBRANCH   9  10
ENDBRANCH   8   9
ENDBRANCH   1   8
TORSDOF 6
ENDMDL
MODEL 2
REMARK VINA RESULT:      -4.3     10.808     12.481
REMARK  6 active torsions:
REMARK  status: ('A' for Active; 'I' for Inactive)
REMARK    1  A    between atoms: C2_2  and  C6_6 
REMARK    2  A    between atoms: C6_6  and  C11_11 
REMARK    3  A    between atoms: C7_7  and  C9_9 
REMARK    4  A    between atoms: C8_8  and  C11_11 
REMARK    5  A    between atoms: C9_9  and  C10_10 
REMARK    6  A    between atoms: C10_10  and  C11_11 
ROOT
HETATM    1  C11 UNL     1     -34.302  16.682  -2.902  1.00 20.00    -0.011 C 
ENDROOT
BRANCH   1   2
HETATM    2  C6  UNL     1     -34.024  15.180  -3.160  1.00 20.00     0.037 C 
BRANCH   2   3
HETATM    3  C2  UNL     1     -35.210  14.393  -3.675  1.00 20.00    -0.093 C 
HETATM    4  C1  UNL     1     -35.053  13.214  -4.298  1.00 20.00     0.014 C 
HETATM    5  C3  UNL     1     -36.569  15.006  -3.499  1.00 20.00     0.042 C 
ENDBRANCH   2   3
ENDBRANCH   1   2
BRANCH   1   6
HETATM    6  C8  UNL     1     -33.763  17.121  -1.522  1.00 20.00     0.000 C 
HETATM    7  C5  UNL     1     -34.743  16.901  -0.378  1.00 20.00     0.005 C 
ENDBRANCH   1   6
BRANCH   1   8
HETATM    8  C10 UNL     1     -33.783  17.542  -4.080  1.00 20.00     0.005 C 
BRANCH   8   9
HETATM    9  C9  UNL     1     -33.291  16.752  -5.299  1.00 20.00     0.000 C 
BRANCH   9  10
HETATM   10  C7  UNL     1     -34.293  16.751  -6.457  1.00 20.00    -0.005 C 
HETATM   11  C4  UNL     1     -34.388  15.415  -7.178  1.00 20.00     0.005 C 
ENDBRANCH   9  10
ENDBRANCH   8   9
ENDBRANCH   1   8
TORSDOF 6
ENDMDL
MODEL 3
REMARK VINA RESULT:      -4.3      1.017      4.756
REMARK  6 active torsions:
REMARK  status: ('A' for Active; 'I' for Inactive)
REMARK    1  A    between atoms: C2_2  and  C6_6 
REMARK    2  A    between atoms: C6_6  and  C11_11 
REMARK    3  A    between atoms: C7_7  and  C9_9 
REMARK    4  A    between atoms: C8_8  and  C11_11 
REMARK    5  A    between atoms: C9_9  and  C10_10 
REMARK    6  A    between atoms: C10_10  and  C11_11 
ROOT
HETATM    1  C11 UNL     1     -33.029   6.961   3.539  1.00 20.00    -0.011 C 
ENDROOT
BRANCH   1   2
HETATM    2  C6  UNL     1     -31.805   7.744   3.000  1.00 20.00     0.037 C 
BRANCH   2   3
HETATM    3  C2  UNL     1     -32.096   8.645   1.819  1.00 20.00    -0.093 C 
HETATM    4  C1  UNL     1     -31.702   8.323   0.576  1.00 20.00     0.014 C 
HETATM    5  C3  UNL     1     -32.804   9.938   2.101  1.00 20.00     0.042 C 
ENDBRANCH   2   3
ENDBRANCH   1   2
BRANCH   1   6
HETATM    6  C8  UNL     1     -33.160   5.585   2.850  1.00 20.00     0.000 C 
HETATM    7  C5  UNL     1     -34.563   5.280   2.343  1.00 20.00     0.005 C 
ENDBRANCH   1   6
BRANCH   1   8
HETATM    8  C10 UNL     1     -32.991   6.888   5.085  1.00 20.00     0.005 C 
BRANCH   8   9
HETATM    9  C9  UNL     1     -34.307   6.475   5.753  1.00 20.00     0.000 C 
BRANCH   9  10
HETATM   10  C7  UNL     1     -34.235   5.098   6.421  1.00 20.00    -0.005 C 
HETATM   11  C4  UNL     1     -35.025   4.024   5.689  1.00 20.00     0.005 C 
ENDBRANCH   9  10
ENDBRANCH   8   9
ENDBRANCH   1   8
TORSDOF 6
ENDMDL
MODEL 4
REMARK VINA RESULT:      -4.3     10.554     12.158
REMARK  6 active torsions:
REMARK  status: ('A' for Active; 'I' for Inactive)
REMARK    1  A    between atoms: C2_2  and  C6_6 
REMARK    2  A    between atoms: C6_6  and  C11_11 
REMARK    3  A    between atoms: C7_7  and  C9_9 
REMARK    4  A    between atoms: C8_8  and  C11_11 
REMARK    5  A    between atoms: C9_9  and  C10_10 
REMARK    6  A    between atoms: C10_10  and  C11_11 
ROOT
HETATM    1  C11 UNL     1     -33.844  16.513  -2.826  1.00 20.00    -0.011 C 
ENDROOT
BRANCH   1   2
HETATM    2  C6  UNL     1     -34.840  15.329  -2.750  1.00 20.00     0.037 C 
BRANCH   2   3
HETATM    3  C2  UNL     1     -34.482  14.139  -3.614  1.00 20.00    -0.093 C 
HETATM    4  C1  UNL     1     -35.413  13.477  -4.319  1.00 20.00     0.014 C 
HETATM    5  C3  UNL     1     -33.046  13.700  -3.615  1.00 20.00     0.042 C 
ENDBRANCH   2   3
ENDBRANCH   1   2
BRANCH   1   6
HETATM    6  C8  UNL     1     -34.218  17.486  -3.966  1.00 20.00     0.000 C 
HETATM    7  C5  UNL     1     -33.427  17.268  -5.248  1.00 20.00     0.005 C 
ENDBRANCH   1   6
BRANCH   1   8
HETATM    8  C10 UNL     1     -33.701  17.193  -1.442  1.00 20.00     0.005 C 
BRANCH   8   9
HETATM    9  C9  UNL     1     -34.794  16.844  -0.425  1.00 20.00     0.000 C 
BRANCH   9  10
HETATM   10  C7  UNL     1     -34.764  17.738   0.818  1.00 20.00    -0.005 C 
HETATM   11  C4  UNL     1     -33.496  18.567   0.942  1.00 20.00     0.005 C 
ENDBRANCH   9  10
ENDBRANCH   8   9
ENDBRANCH   1   8
TORSDOF 6
ENDMDL
MODEL 5
REMARK VINA RESULT:      -4.3     10.636     12.324
REMARK  6 active torsions:
REMARK  status: ('A' for Active; 'I' for Inactive)
REMARK    1  A    between atoms: C2_2  and  C6_6 
REMARK    2  A    between atoms: C6_6  and  C11_11 
REMARK    3  A    between atoms: C7_7  and  C9_9 
REMARK    4  A    between atoms: C8_8  and  C11_11 
REMARK    5  A    between atoms: C9_9  and  C10_10 
REMARK    6  A    between atoms: C10_10  and  C11_11 
ROOT
HETATM    1  C11 UNL     1     -33.355  15.538  -3.604  1.00 20.00    -0.011 C 
ENDROOT
BRANCH   1   2
HETATM    2  C6  UNL     1     -34.596  16.071  -2.845  1.00 20.00     0.037 C 
BRANCH   2   3
HETATM    3  C2  UNL     1     -34.288  17.031  -1.716  1.00 20.00    -0.093 C 
HETATM    4  C1  UNL     1     -34.658  16.769  -0.452  1.00 20.00     0.014 C 
HETATM    5  C3  UNL     1     -33.590  18.311  -2.074  1.00 20.00     0.042 C 
ENDBRANCH   2   3
ENDBRANCH   1   2
BRANCH   1   6
HETATM    6  C8  UNL     1     -33.384  13.996  -3.708  1.00 20.00     0.000 C 
HETATM    7  C5  UNL     1     -34.771  13.421  -3.959  1.00 20.00     0.005 C 
ENDBRANCH   1   6
BRANCH   1   8
HETATM    8  C10 UNL     1     -33.200  16.256  -4.967  1.00 20.00     0.005 C 
BRANCH   8   9
HETATM    9  C9  UNL     1     -34.459  16.964  -5.481  1.00 20.00     0.000 C 
BRANCH   9  10
HETATM   10  C7  UNL     1     -35.232  16.138  -6.513  1.00 20.00    -0.005 C 
HETATM   11  C4  UNL     1     -34.379  15.099  -7.224  1.00 20.00     0.005 C 
ENDBRANCH   9  10
ENDBRANCH   8   9
ENDBRANCH   1   8
TORSDOF 6
ENDMDL
MODEL 6
REMARK VINA RESULT:      -4.2     10.738     12.805
REMARK  6 active torsions:
REMARK  status: ('A' for Active; 'I' for Inactive)
REMARK    1  A    between atoms: C2_2  and  C6_6 
REMARK    2  A    between atoms: C6_6  and  C11_11 
REMARK    3  A    between atoms: C7_7  and  C9_9 
REMARK    4  A    between atoms: C8_8  and  C11_11 
REMARK    5  A    between atoms: C9_9  and  C10_10 
REMARK    6  A    between atoms: C10_10  and  C11_11 
ROOT
HETATM    1  C11 UNL     1     -34.033  15.619  -3.695  1.00 20.00    -0.011 C 
ENDROOT
BRANCH   1   2
HETATM    2  C6  UNL     1     -33.158  16.153  -4.856  1.00 20.00     0.037 C 
BRANCH   2   3
HETATM    3  C2  UNL     1     -33.927  16.590  -6.084  1.00 20.00    -0.093 C 
HETATM    4  C1  UNL     1     -34.296  17.869  -6.263  1.00 20.00     0.014 C 
HETATM    5  C3  UNL     1     -34.299  15.526  -7.076  1.00 20.00     0.042 C 
ENDBRANCH   2   3
ENDBRANCH   1   2
BRANCH   1   6
HETATM    6  C8  UNL     1     -33.912  14.084  -3.564  1.00 20.00     0.000 C 
HETATM    7  C5  UNL     1     -35.060  13.318  -4.208  1.00 20.00     0.005 C 
ENDBRANCH   1   6
BRANCH   1   8
HETATM    8  C10 UNL     1     -33.727  16.386  -2.385  1.00 20.00     0.005 C 
BRANCH   8   9
HETATM    9  C9  UNL     1     -34.821  16.313  -1.313  1.00 20.00     0.000 C 
BRANCH   9  10
HETATM   10  C7  UNL     1     -34.594  17.291  -0.157  1.00 20.00    -0.005 C 
HETATM   11  C4  UNL     1     -33.340  18.137  -0.312  1.00 20.00     0.005 C 
ENDBRANCH   9  10
ENDBRANCH   8   9
ENDBRANCH   1   8
TORSDOF 6
ENDMDL
MODEL 7
REMARK VINA RESULT:      -4.2     10.714     12.117
REMARK  6 active torsions:
REMARK  status: ('A' for Active; 'I' for Inactive)
REMARK    1  A    between atoms: C2_2  and  C6_6 
REMARK    2  A    between atoms: C6_6  and  C11_11 
REMARK    3  A    between atoms: C7_7  and  C9_9 
REMARK    4  A    between atoms: C8_8  and  C11_11 
REMARK    5  A    between atoms: C9_9  and  C10_10 
REMARK    6  A    between atoms: C10_10  and  C11_11 
ROOT
HETATM    1  C11 UNL     1     -35.284  16.424  -2.846  1.00 20.00    -0.011 C 
ENDROOT
BRANCH   1   2
HETATM    2  C6  UNL     1     -34.039  16.369  -1.925  1.00 20.00     0.037 C 
BRANCH   2   3
HETATM    3  C2  UNL     1     -34.063  17.338  -0.763  1.00 20.00    -0.093 C 
HETATM    4  C1  UNL     1     -34.971  17.232   0.221  1.00 20.00     0.014 C 
HETATM    5  C3  UNL     1     -33.056  18.451  -0.777  1.00 20.00     0.042 C 
ENDBRANCH   2   3
ENDBRANCH   1   2
BRANCH   1   6
HETATM    6  C8  UNL     1     -35.098  17.460  -3.977  1.00 20.00     0.000 C 
HETATM    7  C5  UNL     1     -33.683  17.516  -4.535  1.00 20.00     0.005 C 
ENDBRANCH   1   6
BRANCH   1   8
HETATM    8  C10 UNL     1     -35.653  15.006  -3.348  1.00 20.00     0.005 C 
BRANCH   8   9
HETATM    9  C9  UNL     1     -34.475  14.033  -3.483  1.00 20.00     0.000 C 
BRANCH   9  10
HETATM   10  C7  UNL     1     -34.435  13.325  -4.840  1.00 20.00    -0.005 C 
HETATM   11  C4  UNL     1     -34.901  14.196  -5.996  1.00 20.00     0.005 C 
ENDBRANCH   9  10
ENDBRANCH   8   9
ENDBRANCH   1   8
TORSDOF 6
ENDMDL
MODEL 8
REMARK VINA RESULT:      -4.2     11.254     13.154
REMARK  6 active torsions:
REMARK  status: ('A' for Active; 'I' for Inactive)
REMARK    1  A    between atoms: C2_2  and  C6_6 
REMARK    2  A    between atoms: C6_6  and  C11_11 
REMARK    3  A    between atoms: C7_7  and  C9_9 
REMARK    4  A    between atoms: C8_8  and  C11_11 
REMARK    5  A    between atoms: C9_9  and  C10_10 
REMARK    6  A    between atoms: C10_10  and  C11_11 
ROOT
HETATM    1  C11 UNL     1     -33.698  16.473  -4.266  1.00 20.00    -0.011 C 
ENDROOT
BRANCH   1   2
HETATM    2  C6  UNL     1     -34.990  15.907  -4.906  1.00 20.00     0.037 C 
BRANCH   2   3
HETATM    3  C2  UNL     1     -34.791  14.669  -5.754  1.00 20.00    -0.093 C 
HETATM    4  C1  UNL     1     -34.764  13.442  -5.209  1.00 20.00     0.014 C 
HETATM    5  C3  UNL     1     -34.581  14.873  -7.227  1.00 20.00     0.042 C 
ENDBRANCH   2   3
ENDBRANCH   1   2
BRANCH   1   6
HETATM    6  C8  UNL     1     -33.596  18.001  -4.469  1.00 20.00     0.000 C 
HETATM    7  C5  UNL     1     -33.673  18.436  -5.926  1.00 20.00     0.005 C 
ENDBRANCH   1   6
BRANCH   1   8
HETATM    8  C10 UNL     1     -33.583  16.028  -2.787  1.00 20.00     0.005 C 
BRANCH   8   9
HETATM    9  C9  UNL     1     -34.868  16.165  -1.961  1.00 20.00     0.000 C 
BRANCH   9  10
HETATM   10  C7  UNL     1     -34.636  16.808  -0.591  1.00 20.00    -0.005 C 
HETATM   11  C4  UNL     1     -33.573  17.895  -0.601  1.00 20.00     0.005 C 
ENDBRANCH   9  10
ENDBRANCH   8   9
ENDBRANCH   1   8
TORSDOF 6
ENDMDL
MODEL 9
REMARK VINA RESULT:      -4.1     10.819     12.229
REMARK  6 active torsions:
REMARK  status: ('A' for Active; 'I' for Inactive)
REMARK    1  A    between atoms: C2_2  and  C6_6 
REMARK    2  A    between atoms: C6_6  and  C11_11 
REMARK    3  A    between atoms: C7_7  and  C9_9 
REMARK    4  A    between atoms: C8_8  and  C11_11 
REMARK    5  A    between atoms: C9_9  and  C10_10 
REMARK    6  A    between atoms: C10_10  and  C11_11 
ROOT
HETATM    1  C11 UNL     1     -34.088  15.754  -3.614  1.00 20.00    -0.011 C 
ENDROOT
BRANCH   1   2
HETATM    2  C6  UNL     1     -33.684  16.344  -2.240  1.00 20.00     0.037 C 
BRANCH   2   3
HETATM    3  C2  UNL     1     -34.815  16.989  -1.467  1.00 20.00    -0.093 C 
HETATM    4  C1  UNL     1     -34.798  17.059  -0.126  1.00 20.00     0.014 C 
HETATM    5  C3  UNL     1     -35.980  17.508  -2.259  1.00 20.00     0.042 C 
ENDBRANCH   2   3
ENDBRANCH   1   2
BRANCH   1   6
HETATM    6  C8  UNL     1     -33.151  16.256  -4.736  1.00 20.00     0.000 C 
HETATM    7  C5  UNL     1     -33.702  17.443  -5.514  1.00 20.00     0.005 C 
ENDBRANCH   1   6
BRANCH   1   8
HETATM    8  C10 UNL     1     -34.198  14.211  -3.533  1.00 20.00     0.005 C 
BRANCH   8   9
HETATM    9  C9  UNL     1     -35.410  13.603  -4.249  1.00 20.00     0.000 C 
BRANCH   9  10
HETATM   10  C7  UNL     1     -36.677  14.451  -4.109  1.00 20.00    -0.005 C 
HETATM   11  C4  UNL     1     -37.086  15.152  -5.395  1.00 20.00     0.005 C 
ENDBRANCH   9  10
ENDBRANCH   8   9
ENDBRANCH   1   8
TORSDOF 6
ENDMDL
