MODEL 1
REMARK VINA RESULT:      -4.0      0.000      0.000
REMARK  0 active torsions:
REMARK  status: ('A' for Active; 'I' for Inactive)
ROOT
HETATM    1  C1  UNL     1     -34.530   4.685   6.400  1.00 20.00    -0.027 A 
HETATM    2  C2  UNL     1     -34.560   5.926   5.884  1.00 20.00    -0.010 A 
HETATM    3  C3  UNL     1     -34.534   4.007   5.047  1.00 20.00     0.051 A 
HETATM    4  C4  UNL     1     -34.582   5.440   4.442  1.00 20.00     0.035 A 
HETATM    5  C5  UNL     1     -35.840   5.780   3.655  1.00 20.00     0.032 C 
HETATM    6 BR6  UNL     1     -32.961   5.972   3.487  1.00 20.00    -0.081 Br
ENDROOT
TORSDOF 0
ENDMDL
MODEL 2
REMARK VINA RESULT:      -3.7      0.891      1.853
REMARK  0 active torsions:
REMARK  status: ('A' for Active; 'I' for Inactive)
ROOT
HETATM    1  C1  UNL     1     -35.134   3.926   5.152  1.00 20.00    -0.027 A 
HETATM    2  C2  UNL     1     -33.910   4.283   5.580  1.00 20.00    -0.010 A 
HETATM    3  C3  UNL     1     -35.483   5.313   4.659  1.00 20.00     0.051 A 
HETATM    4  C4  UNL     1     -34.073   5.736   5.163  1.00 20.00     0.035 A 
HETATM    5  C5  UNL     1     -34.057   6.750   6.299  1.00 20.00     0.032 C 
HETATM    6 BR6  UNL     1     -32.815   6.216   3.745  1.00 20.00    -0.081 Br
ENDROOT
TORSDOF 0
ENDMDL
MODEL 3
REMARK VINA RESULT:      -3.7      1.559      2.659
REMARK  0 active torsions:
REMARK  status: ('A' for Active; 'I' for Inactive)
ROOT
HETATM    1  C1  UNL     1     -34.411   5.608   2.952  1.00 20.00    -0.027 A 
HETATM    2  C2  UNL     1     -33.490   5.250   3.864  1.00 20.00    -0.010 A 
HETATM    3  C3  UNL     1     -35.539   5.671   3.959  1.00 20.00     0.051 A 
HETATM    4  C4  UNL     1     -34.481   5.244   5.018  1.00 20.00     0.035 A 
HETATM    5  C5  UNL     1     -34.716   3.890   5.673  1.00 20.00     0.032 C 
HETATM    6 BR6  UNL     1     -34.050   6.624   6.335  1.00 20.00    -0.081 Br
ENDROOT
TORSDOF 0
ENDMDL
MODEL 4
REMARK VINA RESULT:      -3.4      1.969      2.685
REMARK  0 active torsions:
REMARK  status: ('A' for Active; 'I' for Inactive)
ROOT
HETATM    1  C1  UNL     1     -32.831   6.203   3.326  1.00 20.00    -0.027 A 
HETATM    2  C2  UNL     1     -33.624   5.157   3.032  1.00 20.00    -0.010 A 
HETATM    3  C3  UNL     1     -33.724   6.703   4.440  1.00 20.00     0.051 A 
HETATM    4  C4  UNL     1     -34.654   5.503   4.097  1.00 20.00     0.035 A 
HETATM    5  C5  UNL     1     -36.037   5.869   3.576  1.00 20.00     0.032 C 
HETATM    6 BR6  UNL     1     -34.740   4.123   5.480  1.00 20.00    -0.081 Br
ENDROOT
TORSDOF 0
ENDMDL
MODEL 5
REMARK VINA RESULT:      -3.3      1.878      2.840
REMARK  0 active torsions:
REMARK  status: ('A' for Active; 'I' for Inactive)
ROOT
HETATM    1  C1  UNL     1     -33.861   6.262   3.130  1.00 20.00    -0.027 A 
HETATM    2  C2  UNL     1     -34.909   6.309   3.971  1.00 20.00    -0.010 A 
HETATM    3  C3  UNL     1     -32.914   5.706   4.170  1.00 20.00     0.051 A 
HETATM    4  C4  UNL     1     -34.119   5.769   5.153  1.00 20.00     0.035 A 
HETATM    5  C5  UNL     1     -33.960   6.725   6.327  1.00 20.00     0.032 C 
HETATM    6 BR6  UNL     1     -34.793   4.024   5.723  1.00 20.00    -0.081 Br
ENDROOT
TORSDOF 0
ENDMDL
MODEL 6
REMARK VINA RESULT:      -3.3      1.418      2.068
REMARK  0 active torsions:
REMARK  status: ('A' for Active; 'I' for Inactive)
ROOT
HETATM    1  C1  UNL     1     -34.466   4.702   6.490  1.00 20.00    -0.027 A 
HETATM    2  C2  UNL     1     -34.374   4.217   5.239  1.00 20.00    -0.010 A 
HETATM    3  C3  UNL     1     -34.430   6.148   6.045  1.00 20.00     0.051 A 
HETATM    4  C4  UNL     1     -34.309   5.593   4.596  1.00 20.00     0.035 A 
HETATM    5  C5  UNL     1     -33.009   5.919   3.873  1.00 20.00     0.032 C 
HETATM    6 BR6  UNL     1     -35.871   5.927   3.468  1.00 20.00    -0.081 Br
ENDROOT
TORSDOF 0
ENDMDL
MODEL 7
REMARK VINA RESULT:      -3.2     12.362     13.171
REMARK  0 active torsions:
REMARK  status: ('A' for Active; 'I' for Inactive)
ROOT
HETATM    1  C1  UNL     1     -34.701  13.356  -4.489  1.00 20.00    -0.027 A 
HETATM    2  C2  UNL     1     -35.205  14.599  -4.588  1.00 20.00    -0.010 A 
HETATM    3  C3  UNL     1     -33.461  13.804  -3.746  1.00 20.00     0.051 A 
HETATM    4  C4  UNL     1     -34.032  15.247  -3.868  1.00 20.00     0.035 A 
HETATM    5  C5  UNL     1     -33.204  16.214  -4.703  1.00 20.00     0.032 C 
HETATM    6 BR6  UNL     1     -34.589  16.044  -2.172  1.00 20.00    -0.081 Br
ENDROOT
TORSDOF 0
ENDMDL
MODEL 8
REMARK VINA RESULT:      -3.2     12.578     13.067
REMARK  0 active torsions:
REMARK  status: ('A' for Active; 'I' for Inactive)
ROOT
HETATM    1  C1  UNL     1     -34.813  13.296  -4.180  1.00 20.00    -0.027 A 
HETATM    2  C2  UNL     1     -33.682  13.856  -3.717  1.00 20.00    -0.010 A 
HETATM    3  C3  UNL     1     -35.569  14.605  -4.227  1.00 20.00     0.051 A 
HETATM    4  C4  UNL     1     -34.268  15.260  -3.679  1.00 20.00     0.035 A 
HETATM    5  C5  UNL     1     -34.379  15.887  -2.297  1.00 20.00     0.032 C 
HETATM    6 BR6  UNL     1     -33.361  16.444  -4.944  1.00 20.00    -0.081 Br
ENDROOT
TORSDOF 0
ENDMDL
MODEL 9
REMARK VINA RESULT:      -3.2      1.699      2.168
REMARK  0 active torsions:
REMARK  status: ('A' for Active; 'I' for Inactive)
ROOT
HETATM    1  C1  UNL     1     -35.491   4.516   4.522  1.00 20.00    -0.027 A 
HETATM    2  C2  UNL     1     -35.314   5.822   4.258  1.00 20.00    -0.010 A 
HETATM    3  C3  UNL     1     -34.111   4.341   5.118  1.00 20.00     0.051 A 
HETATM    4  C4  UNL     1     -33.895   5.849   4.803  1.00 20.00     0.035 A 
HETATM    5  C5  UNL     1     -32.807   6.159   3.784  1.00 20.00     0.032 C 
HETATM    6 BR6  UNL     1     -33.760   6.995   6.382  1.00 20.00    -0.081 Br
ENDROOT
TORSDOF 0
ENDMDL
