MODEL 1
REMARK VINA RESULT:      -4.7      0.000      0.000
REMARK  0 active torsions:
REMARK  status: ('A' for Active; 'I' for Inactive)
ROOT
HETATM    1  C1  UNL     1     -35.922  14.310  -5.579  1.00 20.00    -0.012 C 
HETATM    2  C2  UNL     1     -36.207  14.211  -4.266  1.00 20.00    -0.016 C 
HETATM    3  C3  UNL     1     -34.046  15.786  -5.883  1.00 20.00    -0.010 C 
HETATM    4  C4  UNL     1     -33.214  16.498  -4.837  1.00 20.00     0.014 C 
HETATM    5  C5  UNL     1     -34.480  14.514  -5.608  1.00 20.00     0.051 C 
HETATM    6  C6  UNL     1     -34.951  14.234  -3.499  1.00 20.00     0.034 C 
HETATM    7  C7  UNL     1     -33.922  13.906  -4.336  1.00 20.00     0.224 C 
HETATM    8  C8  UNL     1     -33.085  15.818  -3.648  1.00 20.00     0.216 C 
HETATM    9  C9  UNL     1     -34.436  15.536  -2.840  1.00 20.00     0.066 C 
HETATM   10  N10 UNL     1     -32.715  14.477  -3.913  1.00 20.00     0.115 N 
HETATM   11  H17 UNL     1     -32.260  13.997  -3.142  1.00 20.00     0.318 HD
ENDROOT
TORSDOF 0
ENDMDL
MODEL 2
REMARK VINA RESULT:      -4.7      1.267      2.930
REMARK  0 active torsions:
REMARK  status: ('A' for Active; 'I' for Inactive)
ROOT
HETATM    1  C1  UNL     1     -33.735  15.990  -2.692  1.00 20.00    -0.012 C 
HETATM    2  C2  UNL     1     -34.812  16.644  -3.171  1.00 20.00    -0.016 C 
HETATM    3  C3  UNL     1     -33.569  13.836  -3.751  1.00 20.00    -0.010 C 
HETATM    4  C4  UNL     1     -34.445  13.233  -4.829  1.00 20.00     0.014 C 
HETATM    5  C5  UNL     1     -33.293  15.178  -3.817  1.00 20.00     0.051 C 
HETATM    6  C6  UNL     1     -34.964  16.333  -4.601  1.00 20.00     0.034 C 
HETATM    7  C7  UNL     1     -33.770  15.871  -5.078  1.00 20.00     0.224 C 
HETATM    8  C8  UNL     1     -34.977  14.146  -5.710  1.00 20.00     0.216 C 
HETATM    9  C9  UNL     1     -35.955  15.248  -5.087  1.00 20.00     0.066 C 
HETATM   10  N10 UNL     1     -33.952  15.010  -6.167  1.00 20.00     0.115 N 
HETATM   11  H17 UNL     1     -34.142  15.471  -7.053  1.00 20.00     0.318 HD
ENDROOT
TORSDOF 0
ENDMDL
MODEL 3
REMARK VINA RESULT:      -4.6      1.146      1.842
REMARK  0 active torsions:
REMARK  status: ('A' for Active; 'I' for Inactive)
ROOT
HETATM    1  C1  UNL     1     -36.379  14.412  -4.169  1.00 20.00    -0.012 C 
HETATM    2  C2  UNL     1     -35.601  13.336  -4.397  1.00 20.00    -0.016 C 
HETATM    3  C3  UNL     1     -35.084  16.119  -3.074  1.00 20.00    -0.010 C 
HETATM    4  C4  UNL     1     -33.616  16.111  -2.701  1.00 20.00     0.014 C 
HETATM    5  C5  UNL     1     -35.454  15.534  -4.258  1.00 20.00     0.051 C 
HETATM    6  C6  UNL     1     -34.243  13.789  -4.737  1.00 20.00     0.034 C 
HETATM    7  C7  UNL     1     -34.305  15.092  -5.143  1.00 20.00     0.224 C 
HETATM    8  C8  UNL     1     -32.813  15.394  -3.557  1.00 20.00     0.216 C 
HETATM    9  C9  UNL     1     -33.118  13.828  -3.674  1.00 20.00     0.066 C 
HETATM   10  N10 UNL     1     -33.102  15.764  -4.893  1.00 20.00     0.115 N 
HETATM   11  H17 UNL     1     -32.359  15.578  -5.561  1.00 20.00     0.318 HD
ENDROOT
TORSDOF 0
ENDMDL
MODEL 4
REMARK VINA RESULT:      -4.6      0.892      3.085
REMARK  0 active torsions:
REMARK  status: ('A' for Active; 'I' for Inactive)
ROOT
HETATM    1  C1  UNL     1     -34.133  17.331  -3.031  1.00 20.00    -0.012 C 
HETATM    2  C2  UNL     1     -33.673  17.494  -4.287  1.00 20.00    -0.016 C 
HETATM    3  C3  UNL     1     -35.281  15.222  -2.864  1.00 20.00    -0.010 C 
HETATM    4  C4  UNL     1     -35.469  14.154  -3.920  1.00 20.00     0.014 C 
HETATM    5  C5  UNL     1     -34.082  15.890  -2.826  1.00 20.00     0.051 C 
HETATM    6  C6  UNL     1     -33.235  16.190  -4.810  1.00 20.00     0.034 C 
HETATM    7  C7  UNL     1     -33.016  15.348  -3.757  1.00 20.00     0.224 C 
HETATM    8  C8  UNL     1     -34.436  14.052  -4.823  1.00 20.00     0.216 C 
HETATM    9  C9  UNL     1     -34.151  15.342  -5.725  1.00 20.00     0.066 C 
HETATM   10  N10 UNL     1     -33.205  14.010  -4.123  1.00 20.00     0.115 N 
HETATM   11  H17 UNL     1     -32.434  13.591  -4.636  1.00 20.00     0.318 HD
ENDROOT
TORSDOF 0
ENDMDL
MODEL 5
REMARK VINA RESULT:      -4.6      1.300      2.478
REMARK  0 active torsions:
REMARK  status: ('A' for Active; 'I' for Inactive)
ROOT
HETATM    1  C1  UNL     1     -34.885  14.537  -6.977  1.00 20.00    -0.012 C 
HETATM    2  C2  UNL     1     -34.204  15.697  -6.902  1.00 20.00    -0.016 C 
HETATM    3  C3  UNL     1     -34.642  13.329  -4.910  1.00 20.00    -0.010 C 
HETATM    4  C4  UNL     1     -33.910  13.736  -3.648  1.00 20.00     0.014 C 
HETATM    5  C5  UNL     1     -35.318  14.299  -5.607  1.00 20.00     0.051 C 
HETATM    6  C6  UNL     1     -34.312  16.229  -5.533  1.00 20.00     0.034 C 
HETATM    7  C7  UNL     1     -35.388  15.650  -4.923  1.00 20.00     0.224 C 
HETATM    8  C8  UNL     1     -33.905  15.089  -3.401  1.00 20.00     0.216 C 
HETATM    9  C9  UNL     1     -33.187  16.009  -4.494  1.00 20.00     0.066 C 
HETATM   10  N10 UNL     1     -35.222  15.595  -3.534  1.00 20.00     0.115 N 
HETATM   11  H17 UNL     1     -35.397  16.468  -3.045  1.00 20.00     0.318 HD
ENDROOT
TORSDOF 0
ENDMDL
MODEL 6
REMARK VINA RESULT:      -4.6     11.672     13.331
REMARK  0 active torsions:
REMARK  status: ('A' for Active; 'I' for Inactive)
ROOT
HETATM    1  C1  UNL     1     -41.073   6.862  -0.701  1.00 20.00    -0.012 C 
HETATM    2  C2  UNL     1     -41.641   6.916  -1.921  1.00 20.00    -0.016 C 
HETATM    3  C3  UNL     1     -42.130   5.134   0.599  1.00 20.00    -0.010 C 
HETATM    4  C4  UNL     1     -43.226   4.172   0.194  1.00 20.00     0.014 C 
HETATM    5  C5  UNL     1     -41.175   5.456  -0.332  1.00 20.00     0.051 C 
HETATM    6  C6  UNL     1     -41.982   5.550  -2.352  1.00 20.00     0.034 C 
HETATM    7  C7  UNL     1     -41.243   4.663  -1.622  1.00 20.00     0.224 C 
HETATM    8  C8  UNL     1     -43.210   3.811  -1.134  1.00 20.00     0.216 C 
HETATM    9  C9  UNL     1     -43.417   4.992  -2.193  1.00 20.00     0.066 C 
HETATM   10  N10 UNL     1     -41.895   3.430  -1.500  1.00 20.00     0.115 N 
HETATM   11  H17 UNL     1     -41.834   2.829  -2.316  1.00 20.00     0.318 HD
ENDROOT
TORSDOF 0
ENDMDL
MODEL 7
REMARK VINA RESULT:      -4.5      1.476      2.573
REMARK  0 active torsions:
REMARK  status: ('A' for Active; 'I' for Inactive)
ROOT
HETATM    1  C1  UNL     1     -34.122  13.664  -3.639  1.00 20.00    -0.012 C 
HETATM    2  C2  UNL     1     -34.564  13.166  -4.811  1.00 20.00    -0.016 C 
HETATM    3  C3  UNL     1     -33.311  15.905  -3.974  1.00 20.00    -0.010 C 
HETATM    4  C4  UNL     1     -33.301  16.736  -5.240  1.00 20.00     0.014 C 
HETATM    5  C5  UNL     1     -34.392  15.091  -3.743  1.00 20.00     0.051 C 
HETATM    6  C6  UNL     1     -35.204  14.247  -5.579  1.00 20.00     0.034 C 
HETATM    7  C7  UNL     1     -35.539  15.255  -4.720  1.00 20.00     0.224 C 
HETATM    8  C8  UNL     1     -34.348  16.485  -6.097  1.00 20.00     0.216 C 
HETATM    9  C9  UNL     1     -34.440  15.003  -6.692  1.00 20.00     0.066 C 
HETATM   10  N10 UNL     1     -35.563  16.495  -5.369  1.00 20.00     0.115 N 
HETATM   11  H17 UNL     1     -36.394  16.674  -5.925  1.00 20.00     0.318 HD
ENDROOT
TORSDOF 0
ENDMDL
MODEL 8
REMARK VINA RESULT:      -4.5      0.891      1.338
REMARK  0 active torsions:
REMARK  status: ('A' for Active; 'I' for Inactive)
ROOT
HETATM    1  C1  UNL     1     -35.872  13.968  -4.261  1.00 20.00    -0.012 C 
HETATM    2  C2  UNL     1     -35.837  14.879  -3.270  1.00 20.00    -0.016 C 
HETATM    3  C3  UNL     1     -34.613  14.783  -6.144  1.00 20.00    -0.010 C 
HETATM    4  C4  UNL     1     -33.829  16.071  -6.280  1.00 20.00     0.014 C 
HETATM    5  C5  UNL     1     -34.591  14.137  -4.934  1.00 20.00     0.051 C 
HETATM    6  C6  UNL     1     -34.512  15.520  -3.254  1.00 20.00     0.034 C 
HETATM    7  C7  UNL     1     -33.629  14.715  -3.915  1.00 20.00     0.224 C 
HETATM    8  C8  UNL     1     -33.263  16.523  -5.110  1.00 20.00     0.216 C 
HETATM    9  C9  UNL     1     -34.275  16.893  -3.928  1.00 20.00     0.066 C 
HETATM   10  N10 UNL     1     -32.581  15.455  -4.476  1.00 20.00     0.115 N 
HETATM   11  H17 UNL     1     -31.856  15.738  -3.823  1.00 20.00     0.318 HD
ENDROOT
TORSDOF 0
ENDMDL
MODEL 9
REMARK VINA RESULT:      -4.5      1.338      2.596
REMARK  0 active torsions:
REMARK  status: ('A' for Active; 'I' for Inactive)
ROOT
HETATM    1  C1  UNL     1     -34.229  16.457  -6.317  1.00 20.00    -0.012 C 
HETATM    2  C2  UNL     1     -33.326  16.816  -5.384  1.00 20.00    -0.016 C 
HETATM    3  C3  UNL     1     -34.923  14.186  -5.930  1.00 20.00    -0.010 C 
HETATM    4  C4  UNL     1     -34.516  13.241  -4.819  1.00 20.00     0.014 C 
HETATM    5  C5  UNL     1     -35.092  15.512  -5.622  1.00 20.00     0.051 C 
HETATM    6  C6  UNL     1     -33.692  16.196  -4.100  1.00 20.00     0.034 C 
HETATM    7  C7  UNL     1     -35.011  15.843  -4.144  1.00 20.00     0.224 C 
HETATM    8  C8  UNL     1     -34.237  13.854  -3.619  1.00 20.00     0.216 C 
HETATM    9  C9  UNL     1     -33.018  14.889  -3.617  1.00 20.00     0.066 C 
HETATM   10  N10 UNL     1     -35.281  14.758  -3.301  1.00 20.00     0.115 N 
HETATM   11  H17 UNL     1     -35.362  14.990  -2.315  1.00 20.00     0.318 HD
ENDROOT
TORSDOF 0
ENDMDL
