MODEL 1
REMARK VINA RESULT:      -4.9      0.000      0.000
REMARK  0 active torsions:
REMARK  status: ('A' for Active; 'I' for Inactive)
ROOT
HETATM    1  C1  UNL     1     -34.153   6.088   5.688  1.00 20.00    -0.075 C 
HETATM    2  C2  UNL     1     -33.794   6.912   6.674  1.00 20.00     0.015 C 
HETATM    3  C3  UNL     1     -34.569   4.634   5.666  1.00 20.00     0.036 C 
HETATM    4  C4  UNL     1     -35.124   4.963   4.264  1.00 20.00     0.024 C 
HETATM    5  C5  UNL     1     -34.301   6.271   4.191  1.00 20.00     0.086 C 
HETATM    6 BR6  UNL     1     -32.619   6.162   3.241  1.00 20.00    -0.086 Br
ENDROOT
TORSDOF 0
ENDMDL
MODEL 2
REMARK VINA RESULT:      -4.2      1.857      2.575
REMARK  0 active torsions:
REMARK  status: ('A' for Active; 'I' for Inactive)
ROOT
HETATM    1  C1  UNL     1     -33.848   5.796   3.814  1.00 20.00    -0.075 C 
HETATM    2  C2  UNL     1     -32.855   6.248   3.046  1.00 20.00     0.015 C 
HETATM    3  C3  UNL     1     -35.326   5.594   3.566  1.00 20.00     0.036 C 
HETATM    4  C4  UNL     1     -35.268   4.698   4.820  1.00 20.00     0.024 C 
HETATM    5  C5  UNL     1     -33.903   5.291   5.241  1.00 20.00     0.086 C 
HETATM    6 BR6  UNL     1     -33.965   6.716   6.550  1.00 20.00    -0.086 Br
ENDROOT
TORSDOF 0
ENDMDL
MODEL 3
REMARK VINA RESULT:      -3.3      1.445      2.260
REMARK  0 active torsions:
REMARK  status: ('A' for Active; 'I' for Inactive)
ROOT
HETATM    1  C1  UNL     1     -34.516   5.194   5.830  1.00 20.00    -0.075 C 
HETATM    2  C2  UNL     1     -35.072   4.145   6.439  1.00 20.00     0.015 C 
HETATM    3  C3  UNL     1     -34.101   6.563   6.319  1.00 20.00     0.036 C 
HETATM    4  C4  UNL     1     -33.272   6.619   5.019  1.00 20.00     0.024 C 
HETATM    5  C5  UNL     1     -34.065   5.442   4.405  1.00 20.00     0.086 C 
HETATM    6 BR6  UNL     1     -35.518   5.925   3.220  1.00 20.00    -0.086 Br
ENDROOT
TORSDOF 0
ENDMDL
MODEL 4
REMARK VINA RESULT:      -3.2     12.023     12.692
REMARK  0 active torsions:
REMARK  status: ('A' for Active; 'I' for Inactive)
ROOT
HETATM    1  C1  UNL     1     -34.984  14.656  -3.745  1.00 20.00    -0.075 C 
HETATM    2  C2  UNL     1     -36.239  14.344  -4.071  1.00 20.00     0.015 C 
HETATM    3  C3  UNL     1     -33.717  13.837  -3.641  1.00 20.00     0.036 C 
HETATM    4  C4  UNL     1     -33.000  15.202  -3.687  1.00 20.00     0.024 C 
HETATM    5  C5  UNL     1     -34.310  15.956  -3.355  1.00 20.00     0.086 C 
HETATM    6 BR6  UNL     1     -34.572  16.421  -1.494  1.00 20.00    -0.086 Br
ENDROOT
TORSDOF 0
ENDMDL
MODEL 5
REMARK VINA RESULT:      -3.2      2.017      3.086
REMARK  0 active torsions:
REMARK  status: ('A' for Active; 'I' for Inactive)
ROOT
HETATM    1  C1  UNL     1     -34.134   5.730   3.644  1.00 20.00    -0.075 C 
HETATM    2  C2  UNL     1     -34.505   5.332   2.426  1.00 20.00     0.015 C 
HETATM    3  C3  UNL     1     -32.873   6.376   4.174  1.00 20.00     0.036 C 
HETATM    4  C4  UNL     1     -33.742   6.738   5.395  1.00 20.00     0.024 C 
HETATM    5  C5  UNL     1     -34.824   5.709   4.993  1.00 20.00     0.086 C 
HETATM    6 BR6  UNL     1     -34.724   3.987   5.872  1.00 20.00    -0.086 Br
ENDROOT
TORSDOF 0
ENDMDL
MODEL 6
REMARK VINA RESULT:      -3.2     12.368     13.013
REMARK  0 active torsions:
REMARK  status: ('A' for Active; 'I' for Inactive)
ROOT
HETATM    1  C1  UNL     1     -34.400  14.786  -3.382  1.00 20.00    -0.075 C 
HETATM    2  C2  UNL     1     -34.670  13.569  -3.857  1.00 20.00     0.015 C 
HETATM    3  C3  UNL     1     -35.117  15.687  -2.401  1.00 20.00     0.036 C 
HETATM    4  C4  UNL     1     -33.769  16.434  -2.323  1.00 20.00     0.024 C 
HETATM    5  C5  UNL     1     -33.263  15.759  -3.620  1.00 20.00     0.086 C 
HETATM    6 BR6  UNL     1     -33.469  16.787  -5.246  1.00 20.00    -0.086 Br
ENDROOT
TORSDOF 0
ENDMDL
MODEL 7
REMARK VINA RESULT:      -3.2     12.433     12.613
REMARK  0 active torsions:
REMARK  status: ('A' for Active; 'I' for Inactive)
ROOT
HETATM    1  C1  UNL     1     -34.719  15.016  -3.117  1.00 20.00    -0.075 C 
HETATM    2  C2  UNL     1     -34.587  15.942  -2.166  1.00 20.00     0.015 C 
HETATM    3  C3  UNL     1     -33.738  14.064  -3.766  1.00 20.00     0.036 C 
HETATM    4  C4  UNL     1     -35.000  13.311  -4.236  1.00 20.00     0.024 C 
HETATM    5  C5  UNL     1     -35.902  14.531  -3.931  1.00 20.00     0.086 C 
HETATM    6 BR6  UNL     1     -36.313  15.678  -5.434  1.00 20.00    -0.086 Br
ENDROOT
TORSDOF 0
ENDMDL
MODEL 8
REMARK VINA RESULT:      -3.2     12.291     13.128
REMARK  0 active torsions:
REMARK  status: ('A' for Active; 'I' for Inactive)
ROOT
HETATM    1  C1  UNL     1     -34.137  16.211  -2.709  1.00 20.00    -0.075 C 
HETATM    2  C2  UNL     1     -34.518  16.336  -1.436  1.00 20.00     0.015 C 
HETATM    3  C3  UNL     1     -34.263  17.119  -3.911  1.00 20.00     0.036 C 
HETATM    4  C4  UNL     1     -33.172  16.219  -4.527  1.00 20.00     0.024 C 
HETATM    5  C5  UNL     1     -33.416  15.116  -3.469  1.00 20.00     0.086 C 
HETATM    6 BR6  UNL     1     -34.582  13.669  -4.008  1.00 20.00    -0.086 Br
ENDROOT
TORSDOF 0
ENDMDL
MODEL 9
REMARK VINA RESULT:      -3.1     12.382     12.888
REMARK  0 active torsions:
REMARK  status: ('A' for Active; 'I' for Inactive)
ROOT
HETATM    1  C1  UNL     1     -34.143  14.954  -3.587  1.00 20.00    -0.075 C 
HETATM    2  C2  UNL     1     -34.081  15.911  -2.658  1.00 20.00     0.015 C 
HETATM    3  C3  UNL     1     -33.416  13.639  -3.755  1.00 20.00     0.036 C 
HETATM    4  C4  UNL     1     -34.551  13.302  -4.744  1.00 20.00     0.024 C 
HETATM    5  C5  UNL     1     -34.970  14.788  -4.845  1.00 20.00     0.086 C 
HETATM    6 BR6  UNL     1     -34.263  15.767  -6.357  1.00 20.00    -0.086 Br
ENDROOT
TORSDOF 0
ENDMDL
