MODEL 1
REMARK VINA RESULT:      -5.9      0.000      0.000
REMARK  1 active torsions:
REMARK  status: ('A' for Active; 'I' for Inactive)
REMARK    1  A    between atoms: C1_1  and  C6_6 
ROOT
HETATM    1  C1  UNL     1     -33.358   5.981   3.443  1.00 20.00    -0.029 A 
HETATM    2  C2  UNL     1     -34.038   5.995   4.603  1.00 20.00     0.168 A 
HETATM    3  C3  UNL     1     -34.324   5.046   2.764  1.00 20.00     0.124 A 
HETATM    4  C7  UNL     1     -35.115   5.044   4.097  1.00 20.00     0.300 A 
HETATM    5  F8  UNL     1     -33.845   6.611   5.778  1.00 20.00    -0.204 F 
HETATM    6  F9  UNL     1     -35.214   3.830   4.690  1.00 20.00    -0.198 F 
HETATM    7  F10 UNL     1     -36.380   5.516   4.002  1.00 20.00    -0.198 F 
ENDROOT
BRANCH   1   8
HETATM    8  C6  UNL     1     -32.067   6.687   3.011  1.00 20.00     0.018 A 
HETATM    9  C4  UNL     1     -32.033   8.033   2.286  1.00 20.00     0.010 A 
HETATM   10  C5  UNL     1     -31.509   7.941   3.687  1.00 20.00     0.010 A 
ENDBRANCH   1   8
TORSDOF 1
ENDMDL
MODEL 2
REMARK VINA RESULT:      -5.6      1.037      1.967
REMARK  1 active torsions:
REMARK  status: ('A' for Active; 'I' for Inactive)
REMARK    1  A    between atoms: C1_1  and  C6_6 
ROOT
HETATM    1  C1  UNL     1     -33.343   6.002   3.584  1.00 20.00    -0.029 A 
HETATM    2  C2  UNL     1     -34.195   5.177   2.949  1.00 20.00     0.168 A 
HETATM    3  C3  UNL     1     -34.115   5.978   4.877  1.00 20.00     0.124 A 
HETATM    4  C7  UNL     1     -35.112   5.035   4.158  1.00 20.00     0.300 A 
HETATM    5  F8  UNL     1     -34.234   4.667   1.710  1.00 20.00    -0.204 F 
HETATM    6  F9  UNL     1     -36.372   5.521   4.053  1.00 20.00    -0.198 F 
HETATM    7  F10 UNL     1     -35.232   3.808   4.718  1.00 20.00    -0.198 F 
ENDROOT
BRANCH   1   8
HETATM    8  C6  UNL     1     -32.054   6.689   3.118  1.00 20.00     0.018 A 
HETATM    9  C4  UNL     1     -32.023   7.999   2.329  1.00 20.00     0.010 A 
HETATM   10  C5  UNL     1     -31.500   7.976   3.734  1.00 20.00     0.010 A 
ENDBRANCH   1   8
TORSDOF 1
ENDMDL
MODEL 3
REMARK VINA RESULT:      -5.4      2.287      4.155
REMARK  1 active torsions:
REMARK  status: ('A' for Active; 'I' for Inactive)
REMARK    1  A    between atoms: C1_1  and  C6_6 
ROOT
HETATM    1  C1  UNL     1     -34.021   5.961   4.293  1.00 20.00    -0.029 A 
HETATM    2  C2  UNL     1     -33.595   5.845   3.022  1.00 20.00     0.168 A 
HETATM    3  C3  UNL     1     -33.049   7.062   4.632  1.00 20.00     0.124 A 
HETATM    4  C7  UNL     1     -32.539   6.933   3.174  1.00 20.00     0.300 A 
HETATM    5  F8  UNL     1     -33.955   5.060   1.998  1.00 20.00    -0.204 F 
HETATM    6  F9  UNL     1     -31.238   6.569   3.063  1.00 20.00    -0.198 F 
HETATM    7  F10 UNL     1     -32.677   8.054   2.428  1.00 20.00    -0.198 F 
ENDROOT
BRANCH   1   8
HETATM    8  C6  UNL     1     -35.116   5.222   5.071  1.00 20.00     0.018 A 
HETATM    9  C4  UNL     1     -35.029   3.749   5.475  1.00 20.00     0.010 A 
HETATM   10  C5  UNL     1     -34.990   4.805   6.538  1.00 20.00     0.010 A 
ENDBRANCH   1   8
TORSDOF 1
ENDMDL
MODEL 4
REMARK VINA RESULT:      -5.4      1.574      2.601
REMARK  1 active torsions:
REMARK  status: ('A' for Active; 'I' for Inactive)
REMARK    1  A    between atoms: C1_1  and  C6_6 
ROOT
HETATM    1  C1  UNL     1     -33.861   6.090   4.690  1.00 20.00    -0.029 A 
HETATM    2  C2  UNL     1     -34.564   4.964   4.904  1.00 20.00     0.168 A 
HETATM    3  C3  UNL     1     -33.745   6.423   6.155  1.00 20.00     0.124 A 
HETATM    4  C7  UNL     1     -34.563   5.134   6.418  1.00 20.00     0.300 A 
HETATM    5  F8  UNL     1     -35.083   4.033   4.092  1.00 20.00    -0.204 F 
HETATM    6  F9  UNL     1     -35.754   5.338   7.031  1.00 20.00    -0.198 F 
HETATM    7  F10 UNL     1     -33.919   4.199   7.157  1.00 20.00    -0.198 F 
ENDROOT
BRANCH   1   8
HETATM    8  C6  UNL     1     -33.370   6.754   3.398  1.00 20.00     0.018 A 
HETATM    9  C4  UNL     1     -32.021   7.462   3.263  1.00 20.00     0.010 A 
HETATM   10  C5  UNL     1     -32.259   6.186   2.513  1.00 20.00     0.010 A 
ENDBRANCH   1   8
TORSDOF 1
ENDMDL
MODEL 5
REMARK VINA RESULT:      -5.3      2.150      3.952
REMARK  1 active torsions:
REMARK  status: ('A' for Active; 'I' for Inactive)
REMARK    1  A    between atoms: C1_1  and  C6_6 
ROOT
HETATM    1  C1  UNL     1     -34.107   5.764   4.166  1.00 20.00    -0.029 A 
HETATM    2  C2  UNL     1     -33.170   6.656   4.533  1.00 20.00     0.168 A 
HETATM    3  C3  UNL     1     -33.713   5.787   2.712  1.00 20.00     0.124 A 
HETATM    4  C7  UNL     1     -32.635   6.824   3.116  1.00 20.00     0.300 A 
HETATM    5  F8  UNL     1     -32.830   7.206   5.707  1.00 20.00    -0.204 F 
HETATM    6  F9  UNL     1     -32.772   8.037   2.530  1.00 20.00    -0.198 F 
HETATM    7  F10 UNL     1     -31.360   6.435   2.874  1.00 20.00    -0.198 F 
ENDROOT
BRANCH   1   8
HETATM    8  C6  UNL     1     -35.170   5.012   4.976  1.00 20.00     0.018 A 
HETATM    9  C4  UNL     1     -34.906   3.704   5.722  1.00 20.00     0.010 A 
HETATM   10  C5  UNL     1     -35.196   4.949   6.504  1.00 20.00     0.010 A 
ENDBRANCH   1   8
TORSDOF 1
ENDMDL
MODEL 6
REMARK VINA RESULT:      -4.9     11.477     12.023
REMARK  1 active torsions:
REMARK  status: ('A' for Active; 'I' for Inactive)
REMARK    1  A    between atoms: C1_1  and  C6_6 
ROOT
HETATM    1  C1  UNL     1     -34.563  15.164  -3.076  1.00 20.00    -0.029 A 
HETATM    2  C2  UNL     1     -33.484  14.710  -3.739  1.00 20.00     0.168 A 
HETATM    3  C3  UNL     1     -35.547  14.542  -4.034  1.00 20.00     0.124 A 
HETATM    4  C7  UNL     1     -34.315  14.021  -4.816  1.00 20.00     0.300 A 
HETATM    5  F8  UNL     1     -32.164  14.823  -3.539  1.00 20.00    -0.204 F 
HETATM    6  F9  UNL     1     -34.214  14.486  -6.084  1.00 20.00    -0.198 F 
HETATM    7  F10 UNL     1     -34.234  12.672  -4.906  1.00 20.00    -0.198 F 
ENDROOT
BRANCH   1   8
HETATM    8  C6  UNL     1     -34.695  16.003  -1.800  1.00 20.00     0.018 A 
HETATM    9  C4  UNL     1     -33.731  17.125  -1.414  1.00 20.00     0.010 A 
HETATM   10  C5  UNL     1     -35.144  17.466  -1.781  1.00 20.00     0.010 A 
ENDBRANCH   1   8
TORSDOF 1
ENDMDL
MODEL 7
REMARK VINA RESULT:      -4.8     11.507     12.039
REMARK  1 active torsions:
REMARK  status: ('A' for Active; 'I' for Inactive)
REMARK    1  A    between atoms: C1_1  and  C6_6 
ROOT
HETATM    1  C1  UNL     1     -34.389  15.439  -2.797  1.00 20.00    -0.029 A 
HETATM    2  C2  UNL     1     -35.200  14.706  -3.580  1.00 20.00     0.168 A 
HETATM    3  C3  UNL     1     -33.163  15.169  -3.629  1.00 20.00     0.124 A 
HETATM    4  C7  UNL     1     -34.081  14.311  -4.536  1.00 20.00     0.300 A 
HETATM    5  F8  UNL     1     -36.508  14.417  -3.539  1.00 20.00    -0.204 F 
HETATM    6  F9  UNL     1     -33.742  13.001  -4.604  1.00 20.00    -0.198 F 
HETATM    7  F10 UNL     1     -34.166  14.740  -5.818  1.00 20.00    -0.198 F 
ENDROOT
BRANCH   1   8
HETATM    8  C6  UNL     1     -34.663  16.251  -1.525  1.00 20.00     0.018 A 
HETATM    9  C4  UNL     1     -33.761  17.379  -1.023  1.00 20.00     0.010 A 
HETATM   10  C5  UNL     1     -35.136  17.706  -1.523  1.00 20.00     0.010 A 
ENDBRANCH   1   8
TORSDOF 1
ENDMDL
MODEL 8
REMARK VINA RESULT:      -4.6     11.610     13.066
REMARK  1 active torsions:
REMARK  status: ('A' for Active; 'I' for Inactive)
REMARK    1  A    between atoms: C1_1  and  C6_6 
ROOT
HETATM    1  C1  UNL     1     -34.075  15.195  -5.740  1.00 20.00    -0.029 A 
HETATM    2  C2  UNL     1     -34.140  14.143  -4.904  1.00 20.00     0.168 A 
HETATM    3  C3  UNL     1     -33.290  16.048  -4.776  1.00 20.00     0.124 A 
HETATM    4  C7  UNL     1     -33.365  14.849  -3.798  1.00 20.00     0.300 A 
HETATM    5  F8  UNL     1     -34.687  12.924  -4.999  1.00 20.00    -0.204 F 
HETATM    6  F9  UNL     1     -34.015  15.107  -2.639  1.00 20.00    -0.198 F 
HETATM    7  F10 UNL     1     -32.163  14.335  -3.444  1.00 20.00    -0.198 F 
ENDROOT
BRANCH   1   8
HETATM    8  C6  UNL     1     -34.615  15.404  -7.159  1.00 20.00     0.018 A 
HETATM    9  C4  UNL     1     -35.605  14.459  -7.842  1.00 20.00     0.010 A 
HETATM   10  C5  UNL     1     -36.046  15.843  -7.475  1.00 20.00     0.010 A 
ENDBRANCH   1   8
TORSDOF 1
ENDMDL
MODEL 9
REMARK VINA RESULT:      -4.5     11.605     12.957
REMARK  1 active torsions:
REMARK  status: ('A' for Active; 'I' for Inactive)
REMARK    1  A    between atoms: C1_1  and  C6_6 
ROOT
HETATM    1  C1  UNL     1     -34.374  14.579  -5.855  1.00 20.00    -0.029 A 
HETATM    2  C2  UNL     1     -33.601  15.198  -4.946  1.00 20.00     0.168 A 
HETATM    3  C3  UNL     1     -34.704  13.423  -4.945  1.00 20.00     0.124 A 
HETATM    4  C7  UNL     1     -33.807  14.119  -3.890  1.00 20.00     0.300 A 
HETATM    5  F8  UNL     1     -32.899  16.340  -4.957  1.00 20.00    -0.204 F 
HETATM    6  F9  UNL     1     -32.727  13.398  -3.505  1.00 20.00    -0.198 F 
HETATM    7  F10 UNL     1     -34.448  14.468  -2.749  1.00 20.00    -0.198 F 
ENDROOT
BRANCH   1   8
HETATM    8  C6  UNL     1     -34.761  14.956  -7.290  1.00 20.00     0.018 A 
HETATM    9  C4  UNL     1     -36.119  14.641  -7.918  1.00 20.00     0.010 A 
HETATM   10  C5  UNL     1     -35.749  16.068  -7.646  1.00 20.00     0.010 A 
ENDBRANCH   1   8
TORSDOF 1
ENDMDL
