MODEL 1
REMARK VINA RESULT:      -4.7      0.000      0.000
REMARK  2 active torsions:
REMARK  status: ('A' for Active; 'I' for Inactive)
REMARK    1  A    between atoms: C4_4  and  C12_12 
REMARK    2  A    between atoms: C5_5  and  C11_11 
ROOT
HETATM    1  C1  UNL     1     -35.909  16.249  -2.889  1.00 20.00     0.004 A 
HETATM    2  C2  UNL     1     -35.743  17.301  -2.077  1.00 20.00    -0.017 A 
HETATM    3  C3  UNL     1     -33.652  16.467  -2.712  1.00 20.00    -0.010 A 
HETATM    4  C4  UNL     1     -34.620  15.732  -3.283  1.00 20.00    -0.054 A 
HETATM    5  C5  UNL     1     -34.271  17.558  -1.874  1.00 20.00     0.034 A 
ENDROOT
BRANCH   4   6
HETATM    6  C12 UNL     1     -34.472  14.566  -4.187  1.00 20.00    -0.024 C 
HETATM    7  C8  UNL     1     -33.274  13.705  -3.740  1.00 20.00     0.019 C 
HETATM    8  C9  UNL     1     -34.234  15.037  -5.637  1.00 20.00     0.019 C 
HETATM    9  C10 UNL     1     -35.748  13.699  -4.157  1.00 20.00     0.019 C 
ENDBRANCH   4   6
BRANCH   5  10
HETATM   10  C11 UNL     1     -33.864  17.460  -0.410  1.00 20.00    -0.012 C 
HETATM   11  C6  UNL     1     -32.906  18.590  -0.038  1.00 20.00     0.010 C 
HETATM   12  C7  UNL     1     -35.095  17.484   0.496  1.00 20.00     0.010 C 
ENDBRANCH   5  10
TORSDOF 2
ENDMDL
MODEL 2
REMARK VINA RESULT:      -4.7      1.633      3.049
REMARK  2 active torsions:
REMARK  status: ('A' for Active; 'I' for Inactive)
REMARK    1  A    between atoms: C4_4  and  C12_12 
REMARK    2  A    between atoms: C5_5  and  C11_11 
ROOT
HETATM    1  C1  UNL     1     -34.430  14.199  -4.843  1.00 20.00     0.004 A 
HETATM    2  C2  UNL     1     -34.283  14.193  -3.512  1.00 20.00    -0.017 A 
HETATM    3  C3  UNL     1     -35.574  16.037  -4.146  1.00 20.00    -0.010 A 
HETATM    4  C4  UNL     1     -35.227  15.337  -5.238  1.00 20.00    -0.054 A 
HETATM    5  C5  UNL     1     -35.004  15.376  -2.916  1.00 20.00     0.034 A 
ENDROOT
BRANCH   4   6
HETATM    6  C12 UNL     1     -35.569  15.617  -6.653  1.00 20.00    -0.024 C 
HETATM    7  C8  UNL     1     -34.673  16.749  -7.195  1.00 20.00     0.019 C 
HETATM    8  C9  UNL     1     -37.045  16.050  -6.774  1.00 20.00     0.019 C 
HETATM    9  C10 UNL     1     -35.357  14.356  -7.517  1.00 20.00     0.019 C 
ENDBRANCH   4   6
BRANCH   5  10
HETATM   10  C11 UNL     1     -34.066  16.297  -2.149  1.00 20.00    -0.012 C 
HETATM   11  C6  UNL     1     -33.799  17.578  -2.940  1.00 20.00     0.010 C 
HETATM   12  C7  UNL     1     -34.642  16.631  -0.773  1.00 20.00     0.010 C 
ENDBRANCH   5  10
TORSDOF 2
ENDMDL
MODEL 3
REMARK VINA RESULT:      -4.7      1.224      1.837
REMARK  2 active torsions:
REMARK  status: ('A' for Active; 'I' for Inactive)
REMARK    1  A    between atoms: C4_4  and  C12_12 
REMARK    2  A    between atoms: C5_5  and  C11_11 
ROOT
HETATM    1  C1  UNL     1     -34.445  16.901  -4.484  1.00 20.00     0.004 A 
HETATM    2  C2  UNL     1     -33.680  17.627  -3.658  1.00 20.00    -0.017 A 
HETATM    3  C3  UNL     1     -34.426  15.708  -2.548  1.00 20.00    -0.010 A 
HETATM    4  C4  UNL     1     -34.906  15.715  -3.801  1.00 20.00    -0.054 A 
HETATM    5  C5  UNL     1     -33.583  16.939  -2.320  1.00 20.00     0.034 A 
ENDROOT
BRANCH   4   6
HETATM    6  C12 UNL     1     -35.774  14.706  -4.455  1.00 20.00    -0.024 C 
HETATM    7  C8  UNL     1     -35.164  13.300  -4.284  1.00 20.00     0.019 C 
HETATM    8  C9  UNL     1     -35.909  15.010  -5.962  1.00 20.00     0.019 C 
HETATM    9  C10 UNL     1     -37.182  14.719  -3.826  1.00 20.00     0.019 C 
ENDBRANCH   4   6
BRANCH   5  10
HETATM   10  C11 UNL     1     -34.119  17.802  -1.186  1.00 20.00    -0.012 C 
HETATM   11  C6  UNL     1     -34.870  16.949  -0.165  1.00 20.00     0.010 C 
HETATM   12  C7  UNL     1     -32.984  18.570  -0.509  1.00 20.00     0.010 C 
ENDBRANCH   5  10
TORSDOF 2
ENDMDL
MODEL 4
REMARK VINA RESULT:      -4.6      1.233      2.177
REMARK  2 active torsions:
REMARK  status: ('A' for Active; 'I' for Inactive)
REMARK    1  A    between atoms: C4_4  and  C12_12 
REMARK    2  A    between atoms: C5_5  and  C11_11 
ROOT
HETATM    1  C1  UNL     1     -34.455  16.899  -4.450  1.00 20.00     0.004 A 
HETATM    2  C2  UNL     1     -33.682  17.613  -3.621  1.00 20.00    -0.017 A 
HETATM    3  C3  UNL     1     -34.480  15.719  -2.506  1.00 20.00    -0.010 A 
HETATM    4  C4  UNL     1     -34.949  15.728  -3.764  1.00 20.00    -0.054 A 
HETATM    5  C5  UNL     1     -33.612  16.932  -2.278  1.00 20.00     0.034 A 
ENDROOT
BRANCH   4   6
HETATM    6  C12 UNL     1     -35.833  14.735  -4.420  1.00 20.00    -0.024 C 
HETATM    7  C8  UNL     1     -35.964  15.061  -5.922  1.00 20.00     0.019 C 
HETATM    8  C9  UNL     1     -37.237  14.759  -3.781  1.00 20.00     0.019 C 
HETATM    9  C10 UNL     1     -35.250  13.314  -4.268  1.00 20.00     0.019 C 
ENDBRANCH   4   6
BRANCH   5  10
HETATM   10  C11 UNL     1     -34.139  17.813  -1.155  1.00 20.00    -0.012 C 
HETATM   11  C6  UNL     1     -34.853  16.974  -0.097  1.00 20.00     0.010 C 
HETATM   12  C7  UNL     1     -33.004  18.618  -0.521  1.00 20.00     0.010 C 
ENDBRANCH   5  10
TORSDOF 2
ENDMDL
MODEL 5
REMARK VINA RESULT:      -4.6      1.193      2.142
REMARK  2 active torsions:
REMARK  status: ('A' for Active; 'I' for Inactive)
REMARK    1  A    between atoms: C4_4  and  C12_12 
REMARK    2  A    between atoms: C5_5  and  C11_11 
ROOT
HETATM    1  C1  UNL     1     -34.131  17.003  -4.371  1.00 20.00     0.004 A 
HETATM    2  C2  UNL     1     -33.745  17.533  -3.203  1.00 20.00    -0.017 A 
HETATM    3  C3  UNL     1     -34.433  15.323  -2.869  1.00 20.00    -0.010 A 
HETATM    4  C4  UNL     1     -34.556  15.638  -4.167  1.00 20.00    -0.054 A 
HETATM    5  C5  UNL     1     -33.896  16.509  -2.107  1.00 20.00     0.034 A 
ENDROOT
BRANCH   4   6
HETATM    6  C12 UNL     1     -35.039  14.781  -5.277  1.00 20.00    -0.024 C 
HETATM    7  C8  UNL     1     -36.555  14.983  -5.474  1.00 20.00     0.019 C 
HETATM    8  C9  UNL     1     -34.771  13.294  -4.962  1.00 20.00     0.019 C 
HETATM    9  C10 UNL     1     -34.313  15.141  -6.590  1.00 20.00     0.019 C 
ENDBRANCH   4   6
BRANCH   5  10
HETATM   10  C11 UNL     1     -34.850  16.970  -1.013  1.00 20.00    -0.012 C 
HETATM   11  C6  UNL     1     -34.105  17.775   0.051  1.00 20.00     0.010 C 
HETATM   12  C7  UNL     1     -35.992  17.797  -1.606  1.00 20.00     0.010 C 
ENDBRANCH   5  10
TORSDOF 2
ENDMDL
MODEL 6
REMARK VINA RESULT:      -4.6      1.389      4.834
REMARK  2 active torsions:
REMARK  status: ('A' for Active; 'I' for Inactive)
REMARK    1  A    between atoms: C4_4  and  C12_12 
REMARK    2  A    between atoms: C5_5  and  C11_11 
ROOT
HETATM    1  C1  UNL     1     -33.849  15.524  -2.856  1.00 20.00     0.004 A 
HETATM    2  C2  UNL     1     -33.418  15.082  -4.045  1.00 20.00    -0.017 A 
HETATM    3  C3  UNL     1     -33.591  17.414  -4.094  1.00 20.00    -0.010 A 
HETATM    4  C4  UNL     1     -33.956  16.963  -2.884  1.00 20.00    -0.054 A 
HETATM    5  C5  UNL     1     -33.204  16.251  -4.973  1.00 20.00     0.034 A 
ENDROOT
BRANCH   4   6
HETATM    6  C12 UNL     1     -34.407  17.750  -1.710  1.00 20.00    -0.024 C 
HETATM    7  C8  UNL     1     -35.714  18.496  -2.048  1.00 20.00     0.019 C 
HETATM    8  C9  UNL     1     -33.333  18.784  -1.313  1.00 20.00     0.019 C 
HETATM    9  C10 UNL     1     -34.660  16.821  -0.505  1.00 20.00     0.019 C 
ENDBRANCH   4   6
BRANCH   5  10
HETATM   10  C11 UNL     1     -34.068  16.162  -6.223  1.00 20.00    -0.012 C 
HETATM   11  C6  UNL     1     -34.599  14.742  -6.415  1.00 20.00     0.010 C 
HETATM   12  C7  UNL     1     -35.225  17.159  -6.153  1.00 20.00     0.010 C 
ENDBRANCH   5  10
TORSDOF 2
ENDMDL
MODEL 7
REMARK VINA RESULT:      -4.5      1.110      4.606
REMARK  2 active torsions:
REMARK  status: ('A' for Active; 'I' for Inactive)
REMARK    1  A    between atoms: C4_4  and  C12_12 
REMARK    2  A    between atoms: C5_5  and  C11_11 
ROOT
HETATM    1  C1  UNL     1     -36.089  17.262  -2.685  1.00 20.00     0.004 A 
HETATM    2  C2  UNL     1     -36.205  16.222  -3.522  1.00 20.00    -0.017 A 
HETATM    3  C3  UNL     1     -34.575  15.751  -1.913  1.00 20.00    -0.010 A 
HETATM    4  C4  UNL     1     -35.083  16.973  -1.690  1.00 20.00    -0.054 A 
HETATM    5  C5  UNL     1     -35.243  15.135  -3.117  1.00 20.00     0.034 A 
ENDROOT
BRANCH   4   6
HETATM    6  C12 UNL     1     -34.727  17.933  -0.617  1.00 20.00    -0.024 C 
HETATM    7  C8  UNL     1     -35.478  19.263  -0.833  1.00 20.00     0.019 C 
HETATM    8  C9  UNL     1     -33.210  18.210  -0.627  1.00 20.00     0.019 C 
HETATM    9  C10 UNL     1     -35.112  17.362   0.764  1.00 20.00     0.019 C 
ENDBRANCH   4   6
BRANCH   5  10
HETATM   10  C11 UNL     1     -34.248  14.803  -4.220  1.00 20.00    -0.012 C 
HETATM   11  C6  UNL     1     -32.813  14.998  -3.732  1.00 20.00     0.010 C 
HETATM   12  C7  UNL     1     -34.451  13.372  -4.719  1.00 20.00     0.010 C 
ENDBRANCH   5  10
TORSDOF 2
ENDMDL
MODEL 8
REMARK VINA RESULT:      -4.5     13.021     14.594
REMARK  2 active torsions:
REMARK  status: ('A' for Active; 'I' for Inactive)
REMARK    1  A    between atoms: C4_4  and  C12_12 
REMARK    2  A    between atoms: C5_5  and  C11_11 
ROOT
HETATM    1  C1  UNL     1     -43.086   4.765  -3.294  1.00 20.00     0.004 A 
HETATM    2  C2  UNL     1     -42.683   5.847  -2.614  1.00 20.00    -0.017 A 
HETATM    3  C3  UNL     1     -41.431   3.990  -1.940  1.00 20.00    -0.010 A 
HETATM    4  C4  UNL     1     -42.314   3.617  -2.880  1.00 20.00    -0.054 A 
HETATM    5  C5  UNL     1     -41.572   5.467  -1.669  1.00 20.00     0.034 A 
ENDROOT
BRANCH   4   6
HETATM    6  C12 UNL     1     -42.525   2.267  -3.455  1.00 20.00    -0.024 C 
HETATM    7  C8  UNL     1     -43.417   2.365  -4.709  1.00 20.00     0.019 C 
HETATM    8  C9  UNL     1     -43.211   1.346  -2.426  1.00 20.00     0.019 C 
HETATM    9  C10 UNL     1     -41.174   1.636  -3.853  1.00 20.00     0.019 C 
ENDBRANCH   4   6
BRANCH   5  10
HETATM   10  C11 UNL     1     -41.927   5.754  -0.216  1.00 20.00    -0.012 C 
HETATM   11  C6  UNL     1     -43.104   6.724  -0.127  1.00 20.00     0.010 C 
HETATM   12  C7  UNL     1     -42.247   4.457   0.528  1.00 20.00     0.010 C 
ENDBRANCH   5  10
TORSDOF 2
ENDMDL
MODEL 9
REMARK VINA RESULT:      -4.5      1.238      4.849
REMARK  2 active torsions:
REMARK  status: ('A' for Active; 'I' for Inactive)
REMARK    1  A    between atoms: C4_4  and  C12_12 
REMARK    2  A    between atoms: C5_5  and  C11_11 
ROOT
HETATM    1  C1  UNL     1     -35.699  15.083  -3.218  1.00 20.00     0.004 A 
HETATM    2  C2  UNL     1     -35.362  14.253  -4.214  1.00 20.00    -0.017 A 
HETATM    3  C3  UNL     1     -33.772  15.960  -4.048  1.00 20.00    -0.010 A 
HETATM    4  C4  UNL     1     -34.718  16.138  -3.113  1.00 20.00    -0.054 A 
HETATM    5  C5  UNL     1     -34.083  14.726  -4.858  1.00 20.00     0.034 A 
ENDROOT
BRANCH   4   6
HETATM    6  C12 UNL     1     -34.813  17.214  -2.098  1.00 20.00    -0.024 C 
HETATM    7  C8  UNL     1     -33.710  18.264  -2.341  1.00 20.00     0.019 C 
HETATM    8  C9  UNL     1     -34.641  16.632  -0.679  1.00 20.00     0.019 C 
HETATM    9  C10 UNL     1     -36.188  17.909  -2.178  1.00 20.00     0.019 C 
ENDBRANCH   4   6
BRANCH   5  10
HETATM   10  C11 UNL     1     -34.262  15.039  -6.337  1.00 20.00    -0.012 C 
HETATM   11  C6  UNL     1     -35.544  14.404  -6.874  1.00 20.00     0.010 C 
HETATM   12  C7  UNL     1     -34.277  16.550  -6.572  1.00 20.00     0.010 C 
ENDBRANCH   5  10
TORSDOF 2
ENDMDL
