MODEL 1
REMARK VINA RESULT:      -5.5      0.000      0.000
REMARK  0 active torsions:
REMARK  status: ('A' for Active; 'I' for Inactive)
ROOT
HETATM    1  C1  UNL     1     -33.290   6.222   3.755  1.00 20.00     0.041 A 
HETATM    2  C2  UNL     1     -34.065   6.023   4.836  1.00 20.00     0.101 A 
HETATM    3  C3  UNL     1     -34.118   5.317   2.872  1.00 20.00     0.138 A 
HETATM    4  C4  UNL     1     -35.016   5.080   4.110  1.00 20.00     0.287 A 
HETATM    5  F5  UNL     1     -35.071   3.793   4.529  1.00 20.00    -0.199 F 
HETATM    6  F6  UNL     1     -36.303   5.476   3.956  1.00 20.00    -0.199 F 
HETATM    7 CL7  UNL     1     -31.843   7.183   3.463  1.00 20.00    -0.087 Cl
HETATM    8 CL8  UNL     1     -34.014   6.624   6.493  1.00 20.00    -0.081 Cl
ENDROOT
TORSDOF 0
ENDMDL
MODEL 2
REMARK VINA RESULT:      -5.2      1.060      2.562
REMARK  0 active torsions:
REMARK  status: ('A' for Active; 'I' for Inactive)
ROOT
HETATM    1  C1  UNL     1     -34.026   6.203   5.907  1.00 20.00     0.041 A 
HETATM    2  C2  UNL     1     -33.977   5.890   4.600  1.00 20.00     0.101 A 
HETATM    3  C3  UNL     1     -35.136   5.223   6.203  1.00 20.00     0.138 A 
HETATM    4  C4  UNL     1     -35.089   4.854   4.700  1.00 20.00     0.287 A 
HETATM    5  F5  UNL     1     -36.239   5.094   4.025  1.00 20.00    -0.199 F 
HETATM    6  F6  UNL     1     -34.773   3.561   4.447  1.00 20.00    -0.199 F 
HETATM    7 CL7  UNL     1     -33.129   7.338   6.913  1.00 20.00    -0.087 Cl
HETATM    8 CL8  UNL     1     -32.995   6.458   3.250  1.00 20.00    -0.081 Cl
ENDROOT
TORSDOF 0
ENDMDL
MODEL 3
REMARK VINA RESULT:      -4.6      1.678      2.096
REMARK  0 active torsions:
REMARK  status: ('A' for Active; 'I' for Inactive)
ROOT
HETATM    1  C1  UNL     1     -33.922   6.406   5.296  1.00 20.00     0.041 A 
HETATM    2  C2  UNL     1     -34.590   5.264   5.052  1.00 20.00     0.101 A 
HETATM    3  C3  UNL     1     -33.985   6.867   3.859  1.00 20.00     0.138 A 
HETATM    4  C4  UNL     1     -34.754   5.556   3.566  1.00 20.00     0.287 A 
HETATM    5  F5  UNL     1     -34.140   4.726   2.688  1.00 20.00    -0.199 F 
HETATM    6  F6  UNL     1     -36.011   5.733   3.093  1.00 20.00    -0.199 F 
HETATM    7 CL7  UNL     1     -33.227   7.114   6.752  1.00 20.00    -0.087 Cl
HETATM    8 CL8  UNL     1     -35.097   3.914   6.066  1.00 20.00    -0.081 Cl
ENDROOT
TORSDOF 0
ENDMDL
MODEL 4
REMARK VINA RESULT:      -4.5      2.479      3.165
REMARK  0 active torsions:
REMARK  status: ('A' for Active; 'I' for Inactive)
ROOT
HETATM    1  C1  UNL     1     -34.342   5.249   4.406  1.00 20.00     0.041 A 
HETATM    2  C2  UNL     1     -33.630   6.280   4.895  1.00 20.00     0.101 A 
HETATM    3  C3  UNL     1     -33.804   5.414   3.004  1.00 20.00     0.138 A 
HETATM    4  C4  UNL     1     -32.980   6.602   3.556  1.00 20.00     0.287 A 
HETATM    5  F5  UNL     1     -33.266   7.798   2.986  1.00 20.00    -0.199 F 
HETATM    6  F6  UNL     1     -31.638   6.453   3.453  1.00 20.00    -0.199 F 
HETATM    7 CL7  UNL     1     -35.484   4.117   5.126  1.00 20.00    -0.087 Cl
HETATM    8 CL8  UNL     1     -33.489   7.007   6.495  1.00 20.00    -0.081 Cl
ENDROOT
TORSDOF 0
ENDMDL
MODEL 5
REMARK VINA RESULT:      -4.1     12.463     12.914
REMARK  0 active torsions:
REMARK  status: ('A' for Active; 'I' for Inactive)
ROOT
HETATM    1  C1  UNL     1     -34.762  14.256  -5.833  1.00 20.00     0.041 A 
HETATM    2  C2  UNL     1     -33.986  15.083  -5.109  1.00 20.00     0.101 A 
HETATM    3  C3  UNL     1     -34.780  13.182  -4.771  1.00 20.00     0.138 A 
HETATM    4  C4  UNL     1     -33.887  14.125  -3.929  1.00 20.00     0.287 A 
HETATM    5  F5  UNL     1     -32.665  13.623  -3.625  1.00 20.00    -0.199 F 
HETATM    6  F6  UNL     1     -34.431  14.515  -2.752  1.00 20.00    -0.199 F 
HETATM    7 CL7  UNL     1     -35.494  14.373  -7.432  1.00 20.00    -0.087 Cl
HETATM    8 CL8  UNL     1     -33.319  16.688  -5.403  1.00 20.00    -0.081 Cl
ENDROOT
TORSDOF 0
ENDMDL
MODEL 6
REMARK VINA RESULT:      -3.9     11.915     12.378
REMARK  0 active torsions:
REMARK  status: ('A' for Active; 'I' for Inactive)
ROOT
HETATM    1  C1  UNL     1     -34.463  15.262  -2.953  1.00 20.00     0.041 A 
HETATM    2  C2  UNL     1     -35.321  14.682  -3.811  1.00 20.00     0.101 A 
HETATM    3  C3  UNL     1     -33.240  14.825  -3.726  1.00 20.00     0.138 A 
HETATM    4  C4  UNL     1     -34.219  14.154  -4.720  1.00 20.00     0.287 A 
HETATM    5  F5  UNL     1     -34.079  12.811  -4.828  1.00 20.00    -0.199 F 
HETATM    6  F6  UNL     1     -34.158  14.637  -5.984  1.00 20.00    -0.199 F 
HETATM    7 CL7  UNL     1     -34.674  16.191  -1.471  1.00 20.00    -0.087 Cl
HETATM    8 CL8  UNL     1     -37.079  14.565  -3.875  1.00 20.00    -0.081 Cl
ENDROOT
TORSDOF 0
ENDMDL
MODEL 7
REMARK VINA RESULT:      -3.9     12.049     12.567
REMARK  0 active torsions:
REMARK  status: ('A' for Active; 'I' for Inactive)
ROOT
HETATM    1  C1  UNL     1     -35.370  14.777  -3.853  1.00 20.00     0.041 A 
HETATM    2  C2  UNL     1     -34.460  15.334  -3.034  1.00 20.00     0.101 A 
HETATM    3  C3  UNL     1     -34.337  14.343  -4.866  1.00 20.00     0.138 A 
HETATM    4  C4  UNL     1     -33.282  14.981  -3.931  1.00 20.00     0.287 A 
HETATM    5  F5  UNL     1     -32.581  16.001  -4.485  1.00 20.00    -0.199 F 
HETATM    6  F6  UNL     1     -32.358  14.115  -3.450  1.00 20.00    -0.199 F 
HETATM    7 CL7  UNL     1     -37.122  14.608  -3.780  1.00 20.00    -0.087 Cl
HETATM    8 CL8  UNL     1     -34.572  16.170  -1.485  1.00 20.00    -0.081 Cl
ENDROOT
TORSDOF 0
ENDMDL
MODEL 8
REMARK VINA RESULT:      -3.9      1.335      2.393
REMARK  0 active torsions:
REMARK  status: ('A' for Active; 'I' for Inactive)
ROOT
HETATM    1  C1  UNL     1     -33.347   6.234   4.046  1.00 20.00     0.041 A 
HETATM    2  C2  UNL     1     -34.066   5.375   3.301  1.00 20.00     0.101 A 
HETATM    3  C3  UNL     1     -34.195   6.027   5.279  1.00 20.00     0.138 A 
HETATM    4  C4  UNL     1     -35.029   5.037   4.431  1.00 20.00     0.287 A 
HETATM    5  F5  UNL     1     -36.330   5.384   4.277  1.00 20.00    -0.199 F 
HETATM    6  F6  UNL     1     -35.037   3.764   4.895  1.00 20.00    -0.199 F 
HETATM    7 CL7  UNL     1     -31.935   7.235   3.717  1.00 20.00    -0.087 Cl
HETATM    8 CL8  UNL     1     -33.950   4.830   1.628  1.00 20.00    -0.081 Cl
ENDROOT
TORSDOF 0
ENDMDL
MODEL 9
REMARK VINA RESULT:      -3.9     12.461     13.201
REMARK  0 active torsions:
REMARK  status: ('A' for Active; 'I' for Inactive)
ROOT
HETATM    1  C1  UNL     1     -34.154  15.498  -5.548  1.00 20.00     0.041 A 
HETATM    2  C2  UNL     1     -34.208  14.595  -4.554  1.00 20.00     0.101 A 
HETATM    3  C3  UNL     1     -33.098  16.334  -4.865  1.00 20.00     0.138 A 
HETATM    4  C4  UNL     1     -33.152  15.301  -3.714  1.00 20.00     0.287 A 
HETATM    5  F5  UNL     1     -33.533  15.809  -2.517  1.00 20.00    -0.199 F 
HETATM    6  F6  UNL     1     -31.986  14.649  -3.486  1.00 20.00    -0.199 F 
HETATM    7 CL7  UNL     1     -34.999  15.657  -7.086  1.00 20.00    -0.087 Cl
HETATM    8 CL8  UNL     1     -35.150  13.126  -4.298  1.00 20.00    -0.081 Cl
ENDROOT
TORSDOF 0
ENDMDL
