MODEL 1
REMARK VINA RESULT:      -5.4      0.000      0.000
REMARK  1 active torsions:
REMARK  status: ('A' for Active; 'I' for Inactive)
REMARK    1  A    between atoms: C5_5  and  C7_7 
ROOT
HETATM    1  C1  UNL     1     -34.692   5.612   6.593  1.00 20.00     0.001 C 
HETATM    2  C2  UNL     1     -34.907   4.184   6.091  1.00 20.00     0.001 C 
HETATM    3  C3  UNL     1     -34.004   6.364   5.456  1.00 20.00     0.018 C 
HETATM    4  C4  UNL     1     -34.340   4.141   4.674  1.00 20.00     0.018 C 
HETATM    5  C5  UNL     1     -34.382   5.595   4.183  1.00 20.00     0.054 C 
HETATM    6  C6  UNL     1     -35.790   5.978   3.696  1.00 20.00     0.024 C 
ENDROOT
BRANCH   5   7
HETATM    7  C7  UNL     1     -33.375   5.839   3.058  1.00 20.00     0.395 C 
HETATM    8  F8  UNL     1     -32.164   5.421   3.440  1.00 20.00    -0.170 F 
HETATM    9  F9  UNL     1     -33.752   5.166   1.964  1.00 20.00    -0.170 F 
HETATM   10  F10 UNL     1     -33.324   7.147   2.777  1.00 20.00    -0.170 F 
ENDBRANCH   5   7
TORSDOF 1
ENDMDL
MODEL 2
REMARK VINA RESULT:      -5.3      0.048      1.212
REMARK  1 active torsions:
REMARK  status: ('A' for Active; 'I' for Inactive)
REMARK    1  A    between atoms: C5_5  and  C7_7 
ROOT
HETATM    1  C1  UNL     1     -34.703   5.634   6.588  1.00 20.00     0.001 C 
HETATM    2  C2  UNL     1     -34.889   4.199   6.096  1.00 20.00     0.001 C 
HETATM    3  C3  UNL     1     -34.012   6.388   5.454  1.00 20.00     0.018 C 
HETATM    4  C4  UNL     1     -34.301   4.153   4.687  1.00 20.00     0.018 C 
HETATM    5  C5  UNL     1     -34.360   5.602   4.182  1.00 20.00     0.054 C 
HETATM    6  C6  UNL     1     -35.767   5.958   3.674  1.00 20.00     0.024 C 
ENDROOT
BRANCH   5   7
HETATM    7  C7  UNL     1     -33.342   5.852   3.069  1.00 20.00     0.395 C 
HETATM    8  F8  UNL     1     -33.331   7.152   2.753  1.00 20.00    -0.170 F 
HETATM    9  F9  UNL     1     -32.123   5.487   3.485  1.00 20.00    -0.170 F 
HETATM   10  F10 UNL     1     -33.673   5.137   1.988  1.00 20.00    -0.170 F 
ENDBRANCH   5   7
TORSDOF 1
ENDMDL
MODEL 3
REMARK VINA RESULT:      -5.0      0.995      1.223
REMARK  1 active torsions:
REMARK  status: ('A' for Active; 'I' for Inactive)
REMARK    1  A    between atoms: C5_5  and  C7_7 
ROOT
HETATM    1  C1  UNL     1     -34.760   5.434   6.410  1.00 20.00     0.001 C 
HETATM    2  C2  UNL     1     -34.923   4.272   5.431  1.00 20.00     0.001 C 
HETATM    3  C3  UNL     1     -33.752   6.389   5.774  1.00 20.00     0.018 C 
HETATM    4  C4  UNL     1     -34.006   4.579   4.249  1.00 20.00     0.018 C 
HETATM    5  C5  UNL     1     -33.828   6.104   4.268  1.00 20.00     0.054 C 
HETATM    6  C6  UNL     1     -35.031   6.814   3.626  1.00 20.00     0.024 C 
ENDROOT
BRANCH   5   7
HETATM    7  C7  UNL     1     -32.547   6.530   3.549  1.00 20.00     0.395 C 
HETATM    8  F8  UNL     1     -31.844   7.354   4.334  1.00 20.00    -0.170 F 
HETATM    9  F9  UNL     1     -31.809   5.450   3.268  1.00 20.00    -0.170 F 
HETATM   10  F10 UNL     1     -32.859   7.161   2.412  1.00 20.00    -0.170 F 
ENDBRANCH   5   7
TORSDOF 1
ENDMDL
MODEL 4
REMARK VINA RESULT:      -4.6      2.307      3.437
REMARK  1 active torsions:
REMARK  status: ('A' for Active; 'I' for Inactive)
REMARK    1  A    between atoms: C5_5  and  C7_7 
ROOT
HETATM    1  C1  UNL     1     -32.653   6.200   2.977  1.00 20.00     0.001 C 
HETATM    2  C2  UNL     1     -32.904   7.281   4.029  1.00 20.00     0.001 C 
HETATM    3  C3  UNL     1     -33.302   4.926   3.514  1.00 20.00     0.018 C 
HETATM    4  C4  UNL     1     -33.693   6.609   5.151  1.00 20.00     0.018 C 
HETATM    5  C5  UNL     1     -34.385   5.409   4.488  1.00 20.00     0.054 C 
HETATM    6  C6  UNL     1     -35.657   5.842   3.740  1.00 20.00     0.024 C 
ENDROOT
BRANCH   5   7
HETATM    7  C7  UNL     1     -34.743   4.330   5.512  1.00 20.00     0.395 C 
HETATM    8  F8  UNL     1     -35.258   3.268   4.884  1.00 20.00    -0.170 F 
HETATM    9  F9  UNL     1     -33.642   3.960   6.177  1.00 20.00    -0.170 F 
HETATM   10  F10 UNL     1     -35.642   4.813   6.377  1.00 20.00    -0.170 F 
ENDBRANCH   5   7
TORSDOF 1
ENDMDL
MODEL 5
REMARK VINA RESULT:      -4.6      2.395      3.520
REMARK  1 active torsions:
REMARK  status: ('A' for Active; 'I' for Inactive)
REMARK    1  A    between atoms: C5_5  and  C7_7 
ROOT
HETATM    1  C1  UNL     1     -34.329   6.964   3.169  1.00 20.00     0.001 C 
HETATM    2  C2  UNL     1     -32.874   6.549   3.385  1.00 20.00     0.001 C 
HETATM    3  C3  UNL     1     -35.173   6.018   4.020  1.00 20.00     0.018 C 
HETATM    4  C4  UNL     1     -32.907   5.372   4.357  1.00 20.00     0.018 C 
HETATM    5  C5  UNL     1     -34.229   5.525   5.124  1.00 20.00     0.054 C 
HETATM    6  C6  UNL     1     -34.100   6.561   6.253  1.00 20.00     0.024 C 
ENDROOT
BRANCH   5   7
HETATM    7  C7  UNL     1     -34.696   4.193   5.712  1.00 20.00     0.395 C 
HETATM    8  F8  UNL     1     -35.173   3.413   4.735  1.00 20.00    -0.170 F 
HETATM    9  F9  UNL     1     -33.667   3.578   6.306  1.00 20.00    -0.170 F 
HETATM   10  F10 UNL     1     -35.661   4.413   6.613  1.00 20.00    -0.170 F 
ENDBRANCH   5   7
TORSDOF 1
ENDMDL
MODEL 6
REMARK VINA RESULT:      -4.4      8.179      9.925
REMARK  1 active torsions:
REMARK  status: ('A' for Active; 'I' for Inactive)
REMARK    1  A    between atoms: C5_5  and  C7_7 
ROOT
HETATM    1  C1  UNL     1     -42.962   6.253  -3.275  1.00 20.00     0.001 C 
HETATM    2  C2  UNL     1     -42.427   7.611  -2.820  1.00 20.00     0.001 C 
HETATM    3  C3  UNL     1     -42.384   5.222  -2.308  1.00 20.00     0.018 C 
HETATM    4  C4  UNL     1     -41.551   7.337  -1.599  1.00 20.00     0.018 C 
HETATM    5  C5  UNL     1     -42.068   6.008  -1.028  1.00 20.00     0.054 C 
HETATM    6  C6  UNL     1     -43.331   6.220  -0.178  1.00 20.00     0.024 C 
ENDROOT
BRANCH   5   7
HETATM    7  C7  UNL     1     -41.003   5.305  -0.185  1.00 20.00     0.395 C 
HETATM    8  F8  UNL     1     -40.195   4.595  -0.980  1.00 20.00    -0.170 F 
HETATM    9  F9  UNL     1     -40.282   6.217   0.478  1.00 20.00    -0.170 F 
HETATM   10  F10 UNL     1     -41.594   4.485   0.692  1.00 20.00    -0.170 F 
ENDBRANCH   5   7
TORSDOF 1
ENDMDL
MODEL 7
REMARK VINA RESULT:      -4.4     11.953     12.550
REMARK  1 active torsions:
REMARK  status: ('A' for Active; 'I' for Inactive)
REMARK    1  A    between atoms: C5_5  and  C7_7 
ROOT
HETATM    1  C1  UNL     1     -33.662  16.492  -2.352  1.00 20.00     0.001 C 
HETATM    2  C2  UNL     1     -35.171  16.383  -2.131  1.00 20.00     0.001 C 
HETATM    3  C3  UNL     1     -33.294  15.383  -3.335  1.00 20.00     0.018 C 
HETATM    4  C4  UNL     1     -35.643  15.213  -2.992  1.00 20.00     0.018 C 
HETATM    5  C5  UNL     1     -34.589  15.082  -4.101  1.00 20.00     0.054 C 
HETATM    6  C6  UNL     1     -34.828  16.109  -5.220  1.00 20.00     0.024 C 
ENDROOT
BRANCH   5   7
HETATM    7  C7  UNL     1     -34.575  13.676  -4.701  1.00 20.00     0.395 C 
HETATM    8  F8  UNL     1     -35.581  12.958  -4.189  1.00 20.00    -0.170 F 
HETATM    9  F9  UNL     1     -34.717  13.752  -6.030  1.00 20.00    -0.170 F 
HETATM   10  F10 UNL     1     -33.413  13.077  -4.414  1.00 20.00    -0.170 F 
ENDBRANCH   5   7
TORSDOF 1
ENDMDL
MODEL 8
REMARK VINA RESULT:      -4.4     11.770     12.912
REMARK  1 active torsions:
REMARK  status: ('A' for Active; 'I' for Inactive)
REMARK    1  A    between atoms: C5_5  and  C7_7 
ROOT
HETATM    1  C1  UNL     1     -34.802  15.987  -2.208  1.00 20.00     0.001 C 
HETATM    2  C2  UNL     1     -33.673  16.698  -2.953  1.00 20.00     0.001 C 
HETATM    3  C3  UNL     1     -35.415  15.003  -3.202  1.00 20.00     0.018 C 
HETATM    4  C4  UNL     1     -33.656  16.110  -4.362  1.00 20.00     0.018 C 
HETATM    5  C5  UNL     1     -34.305  14.725  -4.224  1.00 20.00     0.054 C 
HETATM    6  C6  UNL     1     -33.301  13.690  -3.691  1.00 20.00     0.024 C 
ENDROOT
BRANCH   5   7
HETATM    7  C7  UNL     1     -34.876  14.236  -5.556  1.00 20.00     0.395 C 
HETATM    8  F8  UNL     1     -34.102  14.660  -6.561  1.00 20.00    -0.170 F 
HETATM    9  F9  UNL     1     -34.916  12.898  -5.563  1.00 20.00    -0.170 F 
HETATM   10  F10 UNL     1     -36.114  14.716  -5.717  1.00 20.00    -0.170 F 
ENDBRANCH   5   7
TORSDOF 1
ENDMDL
MODEL 9
REMARK VINA RESULT:      -4.4     11.913     13.406
REMARK  1 active torsions:
REMARK  status: ('A' for Active; 'I' for Inactive)
REMARK    1  A    between atoms: C5_5  and  C7_7 
ROOT
HETATM    1  C1  UNL     1     -34.344  16.301  -6.839  1.00 20.00     0.001 C 
HETATM    2  C2  UNL     1     -33.608  17.162  -5.812  1.00 20.00     0.001 C 
HETATM    3  C3  UNL     1     -34.398  14.892  -6.252  1.00 20.00     0.018 C 
HETATM    4  C4  UNL     1     -33.252  16.233  -4.654  1.00 20.00     0.018 C 
HETATM    5  C5  UNL     1     -34.270  15.086  -4.736  1.00 20.00     0.054 C 
HETATM    6  C6  UNL     1     -35.615  15.489  -4.109  1.00 20.00     0.024 C 
ENDROOT
BRANCH   5   7
HETATM    7  C7  UNL     1     -33.750  13.822  -4.048  1.00 20.00     0.395 C 
HETATM    8  F8  UNL     1     -32.469  13.993  -3.702  1.00 20.00    -0.170 F 
HETATM    9  F9  UNL     1     -34.476  13.577  -2.951  1.00 20.00    -0.170 F 
HETATM   10  F10 UNL     1     -33.848  12.783  -4.885  1.00 20.00    -0.170 F 
ENDBRANCH   5   7
TORSDOF 1
ENDMDL
