MODEL 1
REMARK VINA RESULT:      -5.0      0.000      0.000
REMARK  0 active torsions:
REMARK  status: ('A' for Active; 'I' for Inactive)
ROOT
HETATM    1  C1  UNL     1     -34.099   6.435   5.619  1.00 20.00    -0.064 A 
HETATM    2  C2  UNL     1     -33.556   7.043   6.656  1.00 20.00     0.016 C 
HETATM    3  C3  UNL     1     -34.995   4.015   4.598  1.00 20.00     0.017 A 
HETATM    4  C4  UNL     1     -34.491   4.127   5.971  1.00 20.00     0.017 A 
HETATM    5  C5  UNL     1     -34.203   6.470   4.238  1.00 20.00     0.099 A 
HETATM    6  C6  UNL     1     -34.971   5.389   5.236  1.00 20.00     0.000 A 
HETATM    7 BR7  UNL     1     -32.618   6.013   3.283  1.00 20.00    -0.085 Br
ENDROOT
TORSDOF 0
ENDMDL
MODEL 2
REMARK VINA RESULT:      -3.7      1.784      2.987
REMARK  0 active torsions:
REMARK  status: ('A' for Active; 'I' for Inactive)
ROOT
HETATM    1  C1  UNL     1     -34.558   5.219   4.562  1.00 20.00    -0.064 A 
HETATM    2  C2  UNL     1     -34.863   3.969   4.854  1.00 20.00     0.016 C 
HETATM    3  C3  UNL     1     -32.761   6.891   3.267  1.00 20.00     0.017 A 
HETATM    4  C4  UNL     1     -32.628   5.431   3.205  1.00 20.00     0.017 A 
HETATM    5  C5  UNL     1     -34.654   6.523   5.018  1.00 20.00     0.099 A 
HETATM    6  C6  UNL     1     -33.985   6.054   3.573  1.00 20.00     0.000 A 
HETATM    7 BR7  UNL     1     -33.581   6.943   6.537  1.00 20.00    -0.085 Br
ENDROOT
TORSDOF 0
ENDMDL
MODEL 3
REMARK VINA RESULT:      -3.7     12.650     13.160
REMARK  0 active torsions:
REMARK  status: ('A' for Active; 'I' for Inactive)
ROOT
HETATM    1  C1  UNL     1     -35.723  14.191  -4.222  1.00 20.00    -0.064 A 
HETATM    2  C2  UNL     1     -36.973  14.517  -3.953  1.00 20.00     0.016 C 
HETATM    3  C3  UNL     1     -33.054  14.714  -3.670  1.00 20.00     0.017 A 
HETATM    4  C4  UNL     1     -34.132  15.408  -2.959  1.00 20.00     0.017 A 
HETATM    5  C5  UNL     1     -34.890  13.701  -5.215  1.00 20.00     0.099 A 
HETATM    6  C6  UNL     1     -34.427  14.076  -3.666  1.00 20.00     0.000 A 
HETATM    7 BR7  UNL     1     -34.571  14.884  -6.676  1.00 20.00    -0.085 Br
ENDROOT
TORSDOF 0
ENDMDL
MODEL 4
REMARK VINA RESULT:      -3.6     12.507     13.569
REMARK  0 active torsions:
REMARK  status: ('A' for Active; 'I' for Inactive)
ROOT
HETATM    1  C1  UNL     1     -34.249  15.833  -2.484  1.00 20.00    -0.064 A 
HETATM    2  C2  UNL     1     -34.648  16.386  -1.354  1.00 20.00     0.016 C 
HETATM    3  C3  UNL     1     -33.415  16.300  -5.089  1.00 20.00     0.017 A 
HETATM    4  C4  UNL     1     -33.698  17.405  -4.167  1.00 20.00     0.017 A 
HETATM    5  C5  UNL     1     -34.369  14.699  -3.270  1.00 20.00     0.099 A 
HETATM    6  C6  UNL     1     -33.402  16.005  -3.604  1.00 20.00     0.000 A 
HETATM    7 BR7  UNL     1     -36.063  14.456  -4.110  1.00 20.00    -0.085 Br
ENDROOT
TORSDOF 0
ENDMDL
MODEL 5
REMARK VINA RESULT:      -3.6     12.672     12.962
REMARK  0 active torsions:
REMARK  status: ('A' for Active; 'I' for Inactive)
ROOT
HETATM    1  C1  UNL     1     -34.927  15.399  -2.918  1.00 20.00    -0.064 A 
HETATM    2  C2  UNL     1     -34.459  16.117  -1.914  1.00 20.00     0.016 C 
HETATM    3  C3  UNL     1     -34.351  13.426  -4.782  1.00 20.00     0.017 A 
HETATM    4  C4  UNL     1     -33.372  13.828  -3.766  1.00 20.00     0.017 A 
HETATM    5  C5  UNL     1     -35.826  15.414  -3.971  1.00 20.00     0.099 A 
HETATM    6  C6  UNL     1     -34.863  14.132  -3.544  1.00 20.00     0.000 A 
HETATM    7 BR7  UNL     1     -35.378  16.574  -5.416  1.00 20.00    -0.085 Br
ENDROOT
TORSDOF 0
ENDMDL
MODEL 6
REMARK VINA RESULT:      -3.6      1.438      2.199
REMARK  0 active torsions:
REMARK  status: ('A' for Active; 'I' for Inactive)
ROOT
HETATM    1  C1  UNL     1     -35.340   5.395   3.820  1.00 20.00    -0.064 A 
HETATM    2  C2  UNL     1     -36.389   6.095   3.432  1.00 20.00     0.016 C 
HETATM    3  C3  UNL     1     -33.940   4.389   5.995  1.00 20.00     0.017 A 
HETATM    4  C4  UNL     1     -35.200   5.119   6.168  1.00 20.00     0.017 A 
HETATM    5  C5  UNL     1     -34.042   5.054   3.479  1.00 20.00     0.099 A 
HETATM    6  C6  UNL     1     -34.869   4.493   4.804  1.00 20.00     0.000 A 
HETATM    7 BR7  UNL     1     -32.763   6.462   3.610  1.00 20.00    -0.085 Br
ENDROOT
TORSDOF 0
ENDMDL
MODEL 7
REMARK VINA RESULT:      -3.5      1.906      2.606
REMARK  0 active torsions:
REMARK  status: ('A' for Active; 'I' for Inactive)
ROOT
HETATM    1  C1  UNL     1     -33.234   6.267   3.772  1.00 20.00    -0.064 A 
HETATM    2  C2  UNL     1     -32.698   7.144   2.943  1.00 20.00     0.016 C 
HETATM    3  C3  UNL     1     -35.540   4.889   4.464  1.00 20.00     0.017 A 
HETATM    4  C4  UNL     1     -35.502   5.778   3.299  1.00 20.00     0.017 A 
HETATM    5  C5  UNL     1     -33.163   5.770   5.063  1.00 20.00     0.099 A 
HETATM    6  C6  UNL     1     -34.187   5.227   3.875  1.00 20.00     0.000 A 
HETATM    7 BR7  UNL     1     -33.749   6.959   6.433  1.00 20.00    -0.085 Br
ENDROOT
TORSDOF 0
ENDMDL
MODEL 8
REMARK VINA RESULT:      -3.5     12.619     13.519
REMARK  0 active torsions:
REMARK  status: ('A' for Active; 'I' for Inactive)
ROOT
HETATM    1  C1  UNL     1     -33.866  14.882  -3.660  1.00 20.00    -0.064 A 
HETATM    2  C2  UNL     1     -34.413  13.691  -3.805  1.00 20.00     0.016 C 
HETATM    3  C3  UNL     1     -33.910  17.260  -2.230  1.00 20.00     0.017 A 
HETATM    4  C4  UNL     1     -34.795  16.143  -1.883  1.00 20.00     0.017 A 
HETATM    5  C5  UNL     1     -33.223  15.901  -4.343  1.00 20.00     0.099 A 
HETATM    6  C6  UNL     1     -33.527  15.877  -2.712  1.00 20.00     0.000 A 
HETATM    7 BR7  UNL     1     -34.310  16.890  -5.557  1.00 20.00    -0.085 Br
ENDROOT
TORSDOF 0
ENDMDL
MODEL 9
REMARK VINA RESULT:      -3.5      8.978      9.816
REMARK  0 active torsions:
REMARK  status: ('A' for Active; 'I' for Inactive)
ROOT
HETATM    1  C1  UNL     1     -41.295   4.623  -0.947  1.00 20.00    -0.064 A 
HETATM    2  C2  UNL     1     -41.132   3.905  -2.041  1.00 20.00     0.016 C 
HETATM    3  C3  UNL     1     -43.049   5.329   1.085  1.00 20.00     0.017 A 
HETATM    4  C4  UNL     1     -43.417   4.341   0.065  1.00 20.00     0.017 A 
HETATM    5  C5  UNL     1     -40.900   5.790  -0.313  1.00 20.00     0.099 A 
HETATM    6  C6  UNL     1     -41.933   4.653   0.316  1.00 20.00     0.000 A 
HETATM    7 BR7  UNL     1     -41.537   7.407  -1.098  1.00 20.00    -0.085 Br
ENDROOT
TORSDOF 0
ENDMDL
