MODEL 1
REMARK VINA RESULT:      -4.1      0.000      0.000
REMARK  1 active torsions:
REMARK  status: ('A' for Active; 'I' for Inactive)
REMARK    1  A    between atoms: C8_8  and  N9_9 
ROOT
HETATM    1  C1  UNL     1     -34.433  14.320  -3.520  1.00 20.00     0.050 C 
HETATM    2  C2  UNL     1     -34.747  13.352  -4.387  1.00 20.00     0.136 C 
HETATM    3  C3  UNL     1     -34.130  15.657  -4.073  1.00 20.00     0.033 C 
HETATM    4  C4  UNL     1     -34.062  15.775  -5.574  1.00 20.00     0.085 C 
HETATM    5  C7  UNL     1     -35.090  14.831  -6.175  1.00 20.00     0.180 C 
HETATM    6  N9  UNL     1     -33.881  16.692  -3.340  1.00 20.00    -0.289 NA
HETATM    7  O10 UNL     1     -34.902  13.478  -5.743  1.00 20.00    -0.363 OA
ENDROOT
BRANCH   6   8
HETATM    8  C8  UNL     1     -33.922  16.436  -1.908  1.00 20.00     0.108 A 
HETATM    9  C5  UNL     1     -33.606  17.577  -0.982  1.00 20.00     0.029 A 
HETATM   10  C6  UNL     1     -35.017  17.086  -1.113  1.00 20.00     0.029 A 
ENDBRANCH   6   8
TORSDOF 1
ENDMDL
MODEL 2
REMARK VINA RESULT:      -4.0      1.250      1.628
REMARK  1 active torsions:
REMARK  status: ('A' for Active; 'I' for Inactive)
REMARK    1  A    between atoms: C8_8  and  N9_9 
ROOT
HETATM    1  C1  UNL     1     -35.832  15.257  -3.231  1.00 20.00     0.050 C 
HETATM    2  C2  UNL     1     -36.402  14.356  -4.038  1.00 20.00     0.136 C 
HETATM    3  C3  UNL     1     -34.365  15.183  -3.055  1.00 20.00     0.033 C 
HETATM    4  C4  UNL     1     -33.661  14.011  -3.689  1.00 20.00     0.085 C 
HETATM    5  C7  UNL     1     -34.370  13.672  -4.990  1.00 20.00     0.180 C 
HETATM    6  N9  UNL     1     -33.687  16.035  -2.360  1.00 20.00    -0.289 NA
HETATM    7  O10 UNL     1     -35.764  13.409  -4.797  1.00 20.00    -0.363 OA
ENDROOT
BRANCH   6   8
HETATM    8  C8  UNL     1     -34.488  17.087  -1.753  1.00 20.00     0.108 A 
HETATM    9  C5  UNL     1     -34.648  17.074  -0.259  1.00 20.00     0.029 A 
HETATM   10  C6  UNL     1     -33.779  18.109  -0.912  1.00 20.00     0.029 A 
ENDBRANCH   6   8
TORSDOF 1
ENDMDL
MODEL 3
REMARK VINA RESULT:      -4.0     12.229     14.112
REMARK  1 active torsions:
REMARK  status: ('A' for Active; 'I' for Inactive)
REMARK    1  A    between atoms: C8_8  and  N9_9 
ROOT
HETATM    1  C1  UNL     1     -41.104   4.537  -1.369  1.00 20.00     0.050 C 
HETATM    2  C2  UNL     1     -40.740   5.645  -0.715  1.00 20.00     0.136 C 
HETATM    3  C3  UNL     1     -42.154   4.670  -2.402  1.00 20.00     0.033 C 
HETATM    4  C4  UNL     1     -42.821   6.016  -2.527  1.00 20.00     0.085 C 
HETATM    5  C7  UNL     1     -41.788   7.092  -2.235  1.00 20.00     0.180 C 
HETATM    6  N9  UNL     1     -42.544   3.693  -3.152  1.00 20.00    -0.289 NA
HETATM    7  O10 UNL     1     -41.176   6.923  -0.951  1.00 20.00    -0.363 OA
ENDROOT
BRANCH   6   8
HETATM    8  C8  UNL     1     -41.863   2.432  -2.897  1.00 20.00     0.108 A 
HETATM    9  C5  UNL     1     -42.510   1.172  -3.399  1.00 20.00     0.029 A 
HETATM   10  C6  UNL     1     -41.279   1.703  -4.073  1.00 20.00     0.029 A 
ENDBRANCH   6   8
TORSDOF 1
ENDMDL
MODEL 4
REMARK VINA RESULT:      -4.0      2.611      4.620
REMARK  1 active torsions:
REMARK  status: ('A' for Active; 'I' for Inactive)
REMARK    1  A    between atoms: C8_8  and  N9_9 
ROOT
HETATM    1  C1  UNL     1     -34.662  16.312  -1.336  1.00 20.00     0.050 C 
HETATM    2  C2  UNL     1     -34.706  17.116  -0.270  1.00 20.00     0.136 C 
HETATM    3  C3  UNL     1     -34.082  16.862  -2.581  1.00 20.00     0.033 C 
HETATM    4  C4  UNL     1     -33.725  18.326  -2.577  1.00 20.00     0.085 C 
HETATM    5  C7  UNL     1     -33.234  18.696  -1.186  1.00 20.00     0.180 C 
HETATM    6  N9  UNL     1     -33.918  16.168  -3.658  1.00 20.00    -0.289 NA
HETATM    7  O10 UNL     1     -34.196  18.385  -0.171  1.00 20.00    -0.363 OA
ENDROOT
BRANCH   6   8
HETATM    8  C8  UNL     1     -34.353  14.784  -3.552  1.00 20.00     0.108 A 
HETATM    9  C5  UNL     1     -34.329  13.943  -4.798  1.00 20.00     0.029 A 
HETATM   10  C6  UNL     1     -33.316  13.710  -3.716  1.00 20.00     0.029 A 
ENDBRANCH   6   8
TORSDOF 1
ENDMDL
MODEL 5
REMARK VINA RESULT:      -4.0     11.143     12.096
REMARK  1 active torsions:
REMARK  status: ('A' for Active; 'I' for Inactive)
REMARK    1  A    between atoms: C8_8  and  N9_9 
ROOT
HETATM    1  C1  UNL     1     -33.270   6.840   4.926  1.00 20.00     0.050 C 
HETATM    2  C2  UNL     1     -33.913   6.343   5.987  1.00 20.00     0.136 C 
HETATM    3  C3  UNL     1     -33.509   6.190   3.619  1.00 20.00     0.033 C 
HETATM    4  C4  UNL     1     -34.345   4.936   3.624  1.00 20.00     0.085 C 
HETATM    5  C7  UNL     1     -35.409   5.074   4.701  1.00 20.00     0.180 C 
HETATM    6  N9  UNL     1     -33.005   6.616   2.508  1.00 20.00    -0.289 NA
HETATM    7  O10 UNL     1     -34.844   5.337   5.991  1.00 20.00    -0.363 OA
ENDROOT
BRANCH   6   8
HETATM    8  C8  UNL     1     -32.171   7.801   2.644  1.00 20.00     0.108 A 
HETATM    9  C5  UNL     1     -31.604   8.406   1.391  1.00 20.00     0.029 A 
HETATM   10  C6  UNL     1     -32.714   9.101   2.122  1.00 20.00     0.029 A 
ENDBRANCH   6   8
TORSDOF 1
ENDMDL
MODEL 6
REMARK VINA RESULT:      -3.9     11.693     12.680
REMARK  1 active torsions:
REMARK  status: ('A' for Active; 'I' for Inactive)
REMARK    1  A    between atoms: C8_8  and  N9_9 
ROOT
HETATM    1  C1  UNL     1     -34.534   5.523   3.776  1.00 20.00     0.050 C 
HETATM    2  C2  UNL     1     -35.361   4.657   4.370  1.00 20.00     0.136 C 
HETATM    3  C3  UNL     1     -33.690   6.368   4.649  1.00 20.00     0.033 C 
HETATM    4  C4  UNL     1     -33.940   6.278   6.132  1.00 20.00     0.085 C 
HETATM    5  C7  UNL     1     -34.327   4.847   6.467  1.00 20.00     0.180 C 
HETATM    6  N9  UNL     1     -32.803   7.193   4.200  1.00 20.00    -0.289 NA
HETATM    7  O10 UNL     1     -35.459   4.400   5.713  1.00 20.00    -0.363 OA
ENDROOT
BRANCH   6   8
HETATM    8  C8  UNL     1     -32.696   7.228   2.750  1.00 20.00     0.108 A 
HETATM    9  C5  UNL     1     -32.574   8.572   2.088  1.00 20.00     0.029 A 
HETATM   10  C6  UNL     1     -31.386   7.659   2.156  1.00 20.00     0.029 A 
ENDBRANCH   6   8
TORSDOF 1
ENDMDL
MODEL 7
REMARK VINA RESULT:      -3.9      2.070      2.920
REMARK  1 active torsions:
REMARK  status: ('A' for Active; 'I' for Inactive)
REMARK    1  A    between atoms: C8_8  and  N9_9 
ROOT
HETATM    1  C1  UNL     1     -34.084  17.617  -3.025  1.00 20.00     0.050 C 
HETATM    2  C2  UNL     1     -33.608  17.506  -4.269  1.00 20.00     0.136 C 
HETATM    3  C3  UNL     1     -34.268  16.369  -2.253  1.00 20.00     0.033 C 
HETATM    4  C4  UNL     1     -34.037  15.073  -2.986  1.00 20.00     0.085 C 
HETATM    5  C7  UNL     1     -32.914  15.283  -3.988  1.00 20.00     0.180 C 
HETATM    6  N9  UNL     1     -34.654  16.345  -1.019  1.00 20.00    -0.289 NA
HETATM    7  O10 UNL     1     -33.188  16.360  -4.892  1.00 20.00    -0.363 OA
ENDROOT
BRANCH   6   8
HETATM    8  C8  UNL     1     -34.898  17.657  -0.441  1.00 20.00     0.108 A 
HETATM    9  C5  UNL     1     -35.284  17.724   1.010  1.00 20.00     0.029 A 
HETATM   10  C6  UNL     1     -33.917  18.166   0.577  1.00 20.00     0.029 A 
ENDBRANCH   6   8
TORSDOF 1
ENDMDL
MODEL 8
REMARK VINA RESULT:      -3.9      2.698      3.816
REMARK  1 active torsions:
REMARK  status: ('A' for Active; 'I' for Inactive)
REMARK    1  A    between atoms: C8_8  and  N9_9 
ROOT
HETATM    1  C1  UNL     1     -35.329  13.714  -4.201  1.00 20.00     0.050 C 
HETATM    2  C2  UNL     1     -34.046  13.344  -4.257  1.00 20.00     0.136 C 
HETATM    3  C3  UNL     1     -35.649  14.946  -3.447  1.00 20.00     0.033 C 
HETATM    4  C4  UNL     1     -34.520  15.594  -2.689  1.00 20.00     0.085 C 
HETATM    5  C7  UNL     1     -33.238  15.406  -3.484  1.00 20.00     0.180 C 
HETATM    6  N9  UNL     1     -36.837  15.449  -3.375  1.00 20.00    -0.289 NA
HETATM    7  O10 UNL     1     -32.967  14.026  -3.758  1.00 20.00    -0.363 OA
ENDROOT
BRANCH   6   8
HETATM    8  C8  UNL     1     -37.851  14.700  -4.103  1.00 20.00     0.108 A 
HETATM    9  C5  UNL     1     -39.292  15.038  -3.847  1.00 20.00     0.029 A 
HETATM   10  C6  UNL     1     -38.649  15.433  -5.143  1.00 20.00     0.029 A 
ENDBRANCH   6   8
TORSDOF 1
ENDMDL
MODEL 9
REMARK VINA RESULT:      -3.8      1.272      1.850
REMARK  1 active torsions:
REMARK  status: ('A' for Active; 'I' for Inactive)
REMARK    1  A    between atoms: C8_8  and  N9_9 
ROOT
HETATM    1  C1  UNL     1     -36.012  15.999  -4.206  1.00 20.00     0.050 C 
HETATM    2  C2  UNL     1     -36.522  15.614  -5.380  1.00 20.00     0.136 C 
HETATM    3  C3  UNL     1     -35.023  15.104  -3.566  1.00 20.00     0.033 C 
HETATM    4  C4  UNL     1     -34.787  13.769  -4.225  1.00 20.00     0.085 C 
HETATM    5  C7  UNL     1     -34.908  13.948  -5.729  1.00 20.00     0.180 C 
HETATM    6  N9  UNL     1     -34.405  15.393  -2.469  1.00 20.00    -0.289 NA
HETATM    7  O10 UNL     1     -36.170  14.508  -6.109  1.00 20.00    -0.363 OA
ENDROOT
BRANCH   6   8
HETATM    8  C8  UNL     1     -34.762  16.685  -1.902  1.00 20.00     0.108 A 
HETATM    9  C5  UNL     1     -34.738  16.825  -0.406  1.00 20.00     0.029 A 
HETATM   10  C6  UNL     1     -33.675  17.480  -1.237  1.00 20.00     0.029 A 
ENDBRANCH   6   8
TORSDOF 1
ENDMDL
