MODEL 1
REMARK VINA RESULT:      -5.3      0.000      0.000
REMARK  0 active torsions:
REMARK  status: ('A' for Active; 'I' for Inactive)
ROOT
HETATM    1  C1  UNL     1     -34.589  16.681  -0.710  1.00 20.00     0.012 C 
HETATM    2  C2  UNL     1     -34.723  16.423  -1.875  1.00 20.00    -0.112 C 
HETATM    3  C3  UNL     1     -33.404  13.682  -3.801  1.00 20.00    -0.026 C 
HETATM    4  C4  UNL     1     -32.756  14.840  -3.599  1.00 20.00    -0.024 C 
HETATM    5  C5  UNL     1     -34.581  14.568  -5.778  1.00 20.00     0.009 C 
HETATM    6  C6  UNL     1     -33.814  15.893  -5.551  1.00 20.00     0.010 C 
HETATM    7  C7  UNL     1     -35.609  14.741  -3.501  1.00 20.00     0.026 C 
HETATM    8  C8  UNL     1     -34.889  16.105  -3.305  1.00 20.00     0.072 C 
HETATM    9  C9  UNL     1     -34.771  13.832  -4.432  1.00 20.00     0.009 C 
HETATM   10  C10 UNL     1     -33.519  16.075  -4.043  1.00 20.00     0.023 C 
ENDROOT
TORSDOF 0
ENDMDL
MODEL 2
REMARK VINA RESULT:      -4.9      1.041      3.628
REMARK  0 active torsions:
REMARK  status: ('A' for Active; 'I' for Inactive)
ROOT
HETATM    1  C1  UNL     1     -34.918  14.815  -7.841  1.00 20.00     0.012 C 
HETATM    2  C2  UNL     1     -34.891  15.238  -6.718  1.00 20.00    -0.112 C 
HETATM    3  C3  UNL     1     -33.406  13.835  -3.754  1.00 20.00    -0.026 C 
HETATM    4  C4  UNL     1     -34.652  13.560  -4.174  1.00 20.00    -0.024 C 
HETATM    5  C5  UNL     1     -34.159  15.817  -2.497  1.00 20.00     0.009 C 
HETATM    6  C6  UNL     1     -35.594  15.482  -2.967  1.00 20.00     0.010 C 
HETATM    7  C7  UNL     1     -33.399  16.031  -4.874  1.00 20.00     0.026 C 
HETATM    8  C8  UNL     1     -34.858  15.759  -5.339  1.00 20.00     0.072 C 
HETATM    9  C9  UNL     1     -33.131  15.306  -3.532  1.00 20.00     0.009 C 
HETATM   10  C10 UNL     1     -35.541  14.778  -4.344  1.00 20.00     0.023 C 
ENDROOT
TORSDOF 0
ENDMDL
MODEL 3
REMARK VINA RESULT:      -4.9      0.944      2.250
REMARK  0 active torsions:
REMARK  status: ('A' for Active; 'I' for Inactive)
ROOT
HETATM    1  C1  UNL     1     -34.614  16.611  -0.874  1.00 20.00     0.012 C 
HETATM    2  C2  UNL     1     -34.343  16.109  -1.930  1.00 20.00    -0.112 C 
HETATM    3  C3  UNL     1     -36.423  15.512  -4.807  1.00 20.00    -0.026 C 
HETATM    4  C4  UNL     1     -36.295  14.656  -3.780  1.00 20.00    -0.024 C 
HETATM    5  C5  UNL     1     -34.464  14.569  -5.968  1.00 20.00     0.009 C 
HETATM    6  C6  UNL     1     -34.335  13.573  -4.792  1.00 20.00     0.010 C 
HETATM    7  C7  UNL     1     -34.204  16.502  -4.397  1.00 20.00     0.026 C 
HETATM    8  C8  UNL     1     -34.009  15.495  -3.228  1.00 20.00     0.072 C 
HETATM    9  C9  UNL     1     -35.119  15.881  -5.480  1.00 20.00     0.009 C 
HETATM   10  C10 UNL     1     -34.868  14.226  -3.494  1.00 20.00     0.023 C 
ENDROOT
TORSDOF 0
ENDMDL
MODEL 4
REMARK VINA RESULT:      -4.8      0.902      2.338
REMARK  0 active torsions:
REMARK  status: ('A' for Active; 'I' for Inactive)
ROOT
HETATM    1  C1  UNL     1     -34.654  17.032  -0.752  1.00 20.00     0.012 C 
HETATM    2  C2  UNL     1     -34.545  16.230  -1.637  1.00 20.00    -0.112 C 
HETATM    3  C3  UNL     1     -35.199  16.574  -5.161  1.00 20.00    -0.026 C 
HETATM    4  C4  UNL     1     -36.125  16.221  -4.255  1.00 20.00    -0.024 C 
HETATM    5  C5  UNL     1     -34.471  14.239  -5.474  1.00 20.00     0.009 C 
HETATM    6  C6  UNL     1     -35.554  13.838  -4.445  1.00 20.00     0.010 C 
HETATM    7  C7  UNL     1     -33.357  15.702  -3.774  1.00 20.00     0.026 C 
HETATM    8  C8  UNL     1     -34.409  15.244  -2.725  1.00 20.00     0.072 C 
HETATM    9  C9  UNL     1     -33.980  15.677  -5.191  1.00 20.00     0.009 C 
HETATM   10  C10 UNL     1     -35.770  14.993  -3.437  1.00 20.00     0.023 C 
ENDROOT
TORSDOF 0
ENDMDL
MODEL 5
REMARK VINA RESULT:      -4.8      1.172      2.733
REMARK  0 active torsions:
REMARK  status: ('A' for Active; 'I' for Inactive)
ROOT
HETATM    1  C1  UNL     1     -33.482  18.521  -5.284  1.00 20.00     0.012 C 
HETATM    2  C2  UNL     1     -33.599  17.329  -5.204  1.00 20.00    -0.112 C 
HETATM    3  C3  UNL     1     -35.632  15.349  -2.989  1.00 20.00    -0.026 C 
HETATM    4  C4  UNL     1     -34.389  15.767  -2.698  1.00 20.00    -0.024 C 
HETATM    5  C5  UNL     1     -34.793  13.320  -4.111  1.00 20.00     0.009 C 
HETATM    6  C6  UNL     1     -33.366  13.798  -3.754  1.00 20.00     0.010 C 
HETATM    7  C7  UNL     1     -35.201  15.419  -5.415  1.00 20.00     0.026 C 
HETATM    8  C8  UNL     1     -33.743  15.865  -5.108  1.00 20.00     0.072 C 
HETATM    9  C9  UNL     1     -35.736  14.536  -4.261  1.00 20.00     0.009 C 
HETATM   10  C10 UNL     1     -33.331  15.345  -3.701  1.00 20.00     0.023 C 
ENDROOT
TORSDOF 0
ENDMDL
MODEL 6
REMARK VINA RESULT:      -4.7     11.832     13.418
REMARK  0 active torsions:
REMARK  status: ('A' for Active; 'I' for Inactive)
ROOT
HETATM    1  C1  UNL     1     -42.928   2.266  -2.577  1.00 20.00     0.012 C 
HETATM    2  C2  UNL     1     -42.403   3.335  -2.423  1.00 20.00    -0.112 C 
HETATM    3  C3  UNL     1     -42.483   5.561   0.405  1.00 20.00    -0.026 C 
HETATM    4  C4  UNL     1     -43.390   5.570  -0.585  1.00 20.00    -0.024 C 
HETATM    5  C5  UNL     1     -40.985   7.091  -0.819  1.00 20.00     0.009 C 
HETATM    6  C6  UNL     1     -42.045   7.112  -1.946  1.00 20.00     0.010 C 
HETATM    7  C7  UNL     1     -40.741   4.610  -1.056  1.00 20.00     0.026 C 
HETATM    8  C8  UNL     1     -41.757   4.646  -2.233  1.00 20.00     0.072 C 
HETATM    9  C9  UNL     1     -41.053   5.748  -0.055  1.00 20.00     0.009 C 
HETATM   10  C10 UNL     1     -42.806   5.764  -1.972  1.00 20.00     0.023 C 
ENDROOT
TORSDOF 0
ENDMDL
MODEL 7
REMARK VINA RESULT:      -4.6      1.116      3.023
REMARK  0 active torsions:
REMARK  status: ('A' for Active; 'I' for Inactive)
ROOT
HETATM    1  C1  UNL     1     -38.231  14.803  -4.154  1.00 20.00     0.012 C 
HETATM    2  C2  UNL     1     -37.073  14.776  -3.839  1.00 20.00    -0.112 C 
HETATM    3  C3  UNL     1     -34.132  15.504  -5.783  1.00 20.00    -0.026 C 
HETATM    4  C4  UNL     1     -34.712  14.295  -5.721  1.00 20.00    -0.024 C 
HETATM    5  C5  UNL     1     -32.759  15.058  -3.784  1.00 20.00     0.009 C 
HETATM    6  C6  UNL     1     -33.418  13.659  -3.731  1.00 20.00     0.010 C 
HETATM    7  C7  UNL     1     -35.002  16.152  -3.570  1.00 20.00     0.026 C 
HETATM    8  C8  UNL     1     -35.651  14.744  -3.451  1.00 20.00     0.072 C 
HETATM    9  C9  UNL     1     -33.724  16.071  -4.440  1.00 20.00     0.009 C 
HETATM   10  C10 UNL     1     -34.848  13.733  -4.318  1.00 20.00     0.023 C 
ENDROOT
TORSDOF 0
ENDMDL
MODEL 8
REMARK VINA RESULT:      -4.6     11.191     12.711
REMARK  0 active torsions:
REMARK  status: ('A' for Active; 'I' for Inactive)
ROOT
HETATM    1  C1  UNL     1     -42.293   8.013  -4.002  1.00 20.00     0.012 C 
HETATM    2  C2  UNL     1     -42.401   7.560  -2.896  1.00 20.00    -0.112 C 
HETATM    3  C3  UNL     1     -40.885   4.639  -1.437  1.00 20.00    -0.026 C 
HETATM    4  C4  UNL     1     -42.044   4.626  -2.116  1.00 20.00    -0.024 C 
HETATM    5  C5  UNL     1     -42.020   5.170   0.686  1.00 20.00     0.009 C 
HETATM    6  C6  UNL     1     -43.353   5.132  -0.099  1.00 20.00     0.010 C 
HETATM    7  C7  UNL     1     -41.167   7.002  -0.793  1.00 20.00     0.026 C 
HETATM    8  C8  UNL     1     -42.533   7.005  -1.537  1.00 20.00     0.072 C 
HETATM    9  C9  UNL     1     -40.865   5.582  -0.254  1.00 20.00     0.009 C 
HETATM   10  C10 UNL     1     -43.106   5.559  -1.567  1.00 20.00     0.023 C 
ENDROOT
TORSDOF 0
ENDMDL
MODEL 9
REMARK VINA RESULT:      -4.5     11.671     13.282
REMARK  0 active torsions:
REMARK  status: ('A' for Active; 'I' for Inactive)
ROOT
HETATM    1  C1  UNL     1     -41.547   2.756  -3.025  1.00 20.00     0.012 C 
HETATM    2  C2  UNL     1     -42.121   3.678  -2.515  1.00 20.00    -0.112 C 
HETATM    3  C3  UNL     1     -40.802   6.546  -0.783  1.00 20.00    -0.026 C 
HETATM    4  C4  UNL     1     -41.082   5.373  -0.192  1.00 20.00    -0.024 C 
HETATM    5  C5  UNL     1     -43.109   7.363  -0.480  1.00 20.00     0.009 C 
HETATM    6  C6  UNL     1     -43.417   6.017   0.218  1.00 20.00     0.010 C 
HETATM    7  C7  UNL     1     -42.450   6.157  -2.574  1.00 20.00     0.026 C 
HETATM    8  C8  UNL     1     -42.825   4.812  -1.890  1.00 20.00     0.072 C 
HETATM    9  C9  UNL     1     -41.971   7.174  -1.510  1.00 20.00     0.009 C 
HETATM   10  C10 UNL     1     -42.515   4.905  -0.368  1.00 20.00     0.023 C 
ENDROOT
TORSDOF 0
ENDMDL
