MODEL 1
REMARK VINA RESULT:      -4.7      0.000      0.000
REMARK  1 active torsions:
REMARK  status: ('A' for Active; 'I' for Inactive)
REMARK    1  A    between atoms: C3_3  and  C8_8 
ROOT
HETATM    1  C1  UNL     1     -32.990  15.751  -3.776  1.00 20.00    -0.025 C 
HETATM    2  C2  UNL     1     -34.070  15.691  -2.985  1.00 20.00    -0.024 C 
HETATM    3  C4  UNL     1     -34.583  17.131  -4.703  1.00 20.00     0.018 C 
HETATM    4  C5  UNL     1     -33.463  16.185  -5.146  1.00 20.00     0.013 C 
HETATM    5  C6  UNL     1     -35.269  16.073  -3.830  1.00 20.00     0.024 C 
HETATM    6  C7  UNL     1     -34.255  14.999  -5.772  1.00 20.00     0.004 C 
HETATM    7  C8  UNL     1     -35.556  14.948  -4.874  1.00 20.00     0.020 C 
HETATM    8  C9  UNL     1     -34.485  15.206  -7.267  1.00 20.00     0.012 C 
HETATM    9  C10 UNL     1     -36.882  15.189  -5.604  1.00 20.00     0.024 C 
ENDROOT
BRANCH   7  10
HETATM   10  C3  UNL     1     -35.688  13.601  -4.206  1.00 20.00     0.241 C 
HETATM   11  O11 UNL     1     -35.019  12.622  -4.520  1.00 20.00    -0.306 OA
ENDBRANCH   7  10
TORSDOF 1
ENDMDL
MODEL 2
REMARK VINA RESULT:      -4.7      1.601      2.169
REMARK  1 active torsions:
REMARK  status: ('A' for Active; 'I' for Inactive)
REMARK    1  A    between atoms: C3_3  and  C8_8 
ROOT
HETATM    1  C1  UNL     1     -34.472  16.132  -1.867  1.00 20.00    -0.025 C 
HETATM    2  C2  UNL     1     -35.378  16.970  -2.387  1.00 20.00    -0.024 C 
HETATM    3  C4  UNL     1     -33.855  16.519  -4.051  1.00 20.00     0.018 C 
HETATM    4  C5  UNL     1     -33.838  15.386  -3.019  1.00 20.00     0.013 C 
HETATM    5  C6  UNL     1     -35.359  16.777  -3.891  1.00 20.00     0.024 C 
HETATM    6  C7  UNL     1     -34.900  14.399  -3.588  1.00 20.00     0.004 C 
HETATM    7  C8  UNL     1     -35.954  15.378  -4.248  1.00 20.00     0.020 C 
HETATM    8  C9  UNL     1     -34.267  13.373  -4.524  1.00 20.00     0.012 C 
HETATM    9  C10 UNL     1     -36.153  15.225  -5.760  1.00 20.00     0.024 C 
ENDROOT
BRANCH   7  10
HETATM   10  C3  UNL     1     -37.316  15.187  -3.628  1.00 20.00     0.241 C 
HETATM   11  O11 UNL     1     -37.972  14.155  -3.739  1.00 20.00    -0.306 OA
ENDBRANCH   7  10
TORSDOF 1
ENDMDL
MODEL 3
REMARK VINA RESULT:      -4.7      1.562      2.305
REMARK  1 active torsions:
REMARK  status: ('A' for Active; 'I' for Inactive)
REMARK    1  A    between atoms: C3_3  and  C8_8 
ROOT
HETATM    1  C1  UNL     1     -33.310  13.768  -3.764  1.00 20.00    -0.025 C 
HETATM    2  C2  UNL     1     -34.551  13.323  -4.004  1.00 20.00    -0.024 C 
HETATM    3  C4  UNL     1     -34.765  15.342  -2.924  1.00 20.00     0.018 C 
HETATM    4  C5  UNL     1     -33.396  15.269  -3.607  1.00 20.00     0.013 C 
HETATM    5  C6  UNL     1     -35.467  14.530  -4.021  1.00 20.00     0.024 C 
HETATM    6  C7  UNL     1     -33.690  15.877  -5.011  1.00 20.00     0.004 C 
HETATM    7  C8  UNL     1     -35.171  15.396  -5.286  1.00 20.00     0.020 C 
HETATM    8  C9  UNL     1     -33.465  17.387  -5.026  1.00 20.00     0.012 C 
HETATM    9  C10 UNL     1     -36.213  16.507  -5.457  1.00 20.00     0.024 C 
ENDROOT
BRANCH   7  10
HETATM   10  C3  UNL     1     -35.236  14.568  -6.545  1.00 20.00     0.241 C 
HETATM   11  O11 UNL     1     -34.489  14.735  -7.504  1.00 20.00    -0.306 OA
ENDBRANCH   7  10
TORSDOF 1
ENDMDL
MODEL 4
REMARK VINA RESULT:      -4.7      1.094      2.917
REMARK  1 active torsions:
REMARK  status: ('A' for Active; 'I' for Inactive)
REMARK    1  A    between atoms: C3_3  and  C8_8 
ROOT
HETATM    1  C1  UNL     1     -35.968  16.749  -5.341  1.00 20.00    -0.025 C 
HETATM    2  C2  UNL     1     -35.408  15.795  -6.098  1.00 20.00    -0.024 C 
HETATM    3  C4  UNL     1     -33.694  16.875  -5.011  1.00 20.00     0.018 C 
HETATM    4  C5  UNL     1     -34.996  17.065  -4.227  1.00 20.00     0.013 C 
HETATM    5  C6  UNL     1     -34.064  15.463  -5.482  1.00 20.00     0.024 C 
HETATM    6  C7  UNL     1     -34.979  15.849  -3.253  1.00 20.00     0.004 C 
HETATM    7  C8  UNL     1     -34.277  14.728  -4.120  1.00 20.00     0.020 C 
HETATM    8  C9  UNL     1     -34.295  16.198  -1.934  1.00 20.00     0.012 C 
HETATM    9  C10 UNL     1     -32.956  14.185  -3.566  1.00 20.00     0.024 C 
ENDROOT
BRANCH   7  10
HETATM   10  C3  UNL     1     -35.185  13.533  -4.279  1.00 20.00     0.241 C 
HETATM   11  O11 UNL     1     -34.844  12.494  -4.836  1.00 20.00    -0.306 OA
ENDBRANCH   7  10
TORSDOF 1
ENDMDL
MODEL 5
REMARK VINA RESULT:      -4.6      2.011      3.167
REMARK  1 active torsions:
REMARK  status: ('A' for Active; 'I' for Inactive)
REMARK    1  A    between atoms: C3_3  and  C8_8 
ROOT
HETATM    1  C1  UNL     1     -33.355  13.660  -3.725  1.00 20.00    -0.025 C 
HETATM    2  C2  UNL     1     -32.619  14.780  -3.701  1.00 20.00    -0.024 C 
HETATM    3  C4  UNL     1     -34.224  15.073  -5.322  1.00 20.00     0.018 C 
HETATM    4  C5  UNL     1     -34.700  14.021  -4.314  1.00 20.00     0.013 C 
HETATM    5  C6  UNL     1     -33.477  15.895  -4.263  1.00 20.00     0.024 C 
HETATM    6  C7  UNL     1     -35.461  14.885  -3.265  1.00 20.00     0.004 C 
HETATM    7  C8  UNL     1     -34.628  16.229  -3.261  1.00 20.00     0.020 C 
HETATM    8  C9  UNL     1     -36.941  15.019  -3.616  1.00 20.00     0.012 C 
HETATM    9  C10 UNL     1     -35.390  17.489  -3.686  1.00 20.00     0.024 C 
ENDROOT
BRANCH   7  10
HETATM   10  C3  UNL     1     -34.087  16.515  -1.882  1.00 20.00     0.241 C 
HETATM   11  O11 UNL     1     -34.733  16.344  -0.853  1.00 20.00    -0.306 OA
ENDBRANCH   7  10
TORSDOF 1
ENDMDL
MODEL 6
REMARK VINA RESULT:      -4.6      1.165      1.415
REMARK  1 active torsions:
REMARK  status: ('A' for Active; 'I' for Inactive)
REMARK    1  A    between atoms: C3_3  and  C8_8 
ROOT
HETATM    1  C1  UNL     1     -33.740  16.687  -2.175  1.00 20.00    -0.025 C 
HETATM    2  C2  UNL     1     -34.793  15.926  -1.846  1.00 20.00    -0.024 C 
HETATM    3  C4  UNL     1     -35.494  17.347  -3.513  1.00 20.00     0.018 C 
HETATM    4  C5  UNL     1     -33.972  17.187  -3.583  1.00 20.00     0.013 C 
HETATM    5  C6  UNL     1     -35.725  15.905  -3.041  1.00 20.00     0.024 C 
HETATM    6  C7  UNL     1     -33.808  15.976  -4.550  1.00 20.00     0.004 C 
HETATM    7  C8  UNL     1     -35.072  15.090  -4.203  1.00 20.00     0.020 C 
HETATM    8  C9  UNL     1     -33.691  16.430  -6.002  1.00 20.00     0.012 C 
HETATM    9  C10 UNL     1     -36.063  14.862  -5.349  1.00 20.00     0.024 C 
ENDROOT
BRANCH   7  10
HETATM   10  C3  UNL     1     -34.648  13.719  -3.739  1.00 20.00     0.241 C 
HETATM   11  O11 UNL     1     -34.940  12.684  -4.332  1.00 20.00    -0.306 OA
ENDBRANCH   7  10
TORSDOF 1
ENDMDL
MODEL 7
REMARK VINA RESULT:      -4.5      1.091      2.940
REMARK  1 active torsions:
REMARK  status: ('A' for Active; 'I' for Inactive)
REMARK    1  A    between atoms: C3_3  and  C8_8 
ROOT
HETATM    1  C1  UNL     1     -35.824  14.964  -7.155  1.00 20.00    -0.025 C 
HETATM    2  C2  UNL     1     -34.498  14.942  -6.960  1.00 20.00    -0.024 C 
HETATM    3  C4  UNL     1     -35.307  16.773  -5.828  1.00 20.00     0.018 C 
HETATM    4  C5  UNL     1     -36.431  15.748  -6.014  1.00 20.00     0.013 C 
HETATM    5  C6  UNL     1     -34.219  15.702  -5.679  1.00 20.00     0.024 C 
HETATM    6  C7  UNL     1     -36.309  14.882  -4.725  1.00 20.00     0.004 C 
HETATM    7  C8  UNL     1     -34.750  14.887  -4.458  1.00 20.00     0.020 C 
HETATM    8  C9  UNL     1     -37.180  15.429  -3.597  1.00 20.00     0.012 C 
HETATM    9  C10 UNL     1     -34.301  15.511  -3.132  1.00 20.00     0.024 C 
ENDROOT
BRANCH   7  10
HETATM   10  C3  UNL     1     -34.207  13.479  -4.460  1.00 20.00     0.241 C 
HETATM   11  O11 UNL     1     -34.914  12.481  -4.552  1.00 20.00    -0.306 OA
ENDBRANCH   7  10
TORSDOF 1
ENDMDL
MODEL 8
REMARK VINA RESULT:      -4.5      1.445      2.818
REMARK  1 active torsions:
REMARK  status: ('A' for Active; 'I' for Inactive)
REMARK    1  A    between atoms: C3_3  and  C8_8 
ROOT
HETATM    1  C1  UNL     1     -35.410  17.007  -6.326  1.00 20.00    -0.025 C 
HETATM    2  C2  UNL     1     -36.365  16.086  -6.508  1.00 20.00    -0.024 C 
HETATM    3  C4  UNL     1     -34.347  15.012  -6.763  1.00 20.00     0.018 C 
HETATM    4  C5  UNL     1     -34.153  16.274  -5.916  1.00 20.00     0.013 C 
HETATM    5  C6  UNL     1     -35.750  14.733  -6.207  1.00 20.00     0.024 C 
HETATM    6  C7  UNL     1     -34.366  15.740  -4.468  1.00 20.00     0.004 C 
HETATM    7  C8  UNL     1     -35.460  14.617  -4.677  1.00 20.00     0.020 C 
HETATM    8  C9  UNL     1     -33.051  15.281  -3.841  1.00 20.00     0.012 C 
HETATM    9  C10 UNL     1     -35.038  13.194  -4.296  1.00 20.00     0.024 C 
ENDROOT
BRANCH   7  10
HETATM   10  C3  UNL     1     -36.693  14.918  -3.861  1.00 20.00     0.241 C 
HETATM   11  O11 UNL     1     -37.656  14.161  -3.786  1.00 20.00    -0.306 OA
ENDBRANCH   7  10
TORSDOF 1
ENDMDL
MODEL 9
REMARK VINA RESULT:      -4.5      1.815      3.399
REMARK  1 active torsions:
REMARK  status: ('A' for Active; 'I' for Inactive)
REMARK    1  A    between atoms: C3_3  and  C8_8 
ROOT
HETATM    1  C1  UNL     1     -34.272  13.461  -4.824  1.00 20.00    -0.025 C 
HETATM    2  C2  UNL     1     -34.878  14.076  -5.848  1.00 20.00    -0.024 C 
HETATM    3  C4  UNL     1     -36.303  14.218  -4.048  1.00 20.00     0.018 C 
HETATM    4  C5  UNL     1     -34.868  14.018  -3.551  1.00 20.00     0.013 C 
HETATM    5  C6  UNL     1     -35.873  15.057  -5.259  1.00 20.00     0.024 C 
HETATM    6  C7  UNL     1     -34.362  15.483  -3.391  1.00 20.00     0.004 C 
HETATM    7  C8  UNL     1     -35.109  16.230  -4.568  1.00 20.00     0.020 C 
HETATM    8  C9  UNL     1     -34.629  16.018  -1.986  1.00 20.00     0.012 C 
HETATM    9  C10 UNL     1     -36.067  17.350  -4.148  1.00 20.00     0.024 C 
ENDROOT
BRANCH   7  10
HETATM   10  C3  UNL     1     -34.114  16.865  -5.509  1.00 20.00     0.241 C 
HETATM   11  O11 UNL     1     -32.934  17.045  -5.225  1.00 20.00    -0.306 OA
ENDBRANCH   7  10
TORSDOF 1
ENDMDL
