MODEL 1
REMARK VINA RESULT:      -4.4      0.000      0.000
REMARK  0 active torsions:
REMARK  status: ('A' for Active; 'I' for Inactive)
ROOT
HETATM    1  C1  UNL     1     -31.780   7.564   3.245  1.00 20.00     0.013 C 
HETATM    2  C2  UNL     1     -32.698   6.807   3.405  1.00 20.00    -0.104 C 
HETATM    3  C3  UNL     1     -35.118   6.498   4.035  1.00 20.00     0.069 A 
HETATM    4  C4  UNL     1     -33.801   5.896   3.597  1.00 20.00     0.057 A 
HETATM    5  C5  UNL     1     -34.323   5.674   5.013  1.00 20.00     0.133 A 
HETATM    6  C6  UNL     1     -33.848   4.779   2.584  1.00 20.00     0.032 C 
HETATM    7 CL7  UNL     1     -34.975   4.103   5.484  1.00 20.00    -0.100 Cl
HETATM    8 CL8  UNL     1     -33.590   6.527   6.379  1.00 20.00    -0.100 Cl
ENDROOT
TORSDOF 0
ENDMDL
MODEL 2
REMARK VINA RESULT:      -4.2      2.078      3.665
REMARK  0 active torsions:
REMARK  status: ('A' for Active; 'I' for Inactive)
ROOT
HETATM    1  C1  UNL     1     -35.095   3.909   5.660  1.00 20.00     0.013 C 
HETATM    2  C2  UNL     1     -34.564   4.959   5.422  1.00 20.00    -0.104 C 
HETATM    3  C3  UNL     1     -34.542   7.072   4.048  1.00 20.00     0.069 A 
HETATM    4  C4  UNL     1     -33.925   6.222   5.137  1.00 20.00     0.057 A 
HETATM    5  C5  UNL     1     -33.222   6.394   3.793  1.00 20.00     0.133 A 
HETATM    6  C6  UNL     1     -33.407   6.930   6.364  1.00 20.00     0.032 C 
HETATM    7 CL7  UNL     1     -31.787   7.414   3.665  1.00 20.00    -0.100 Cl
HETATM    8 CL8  UNL     1     -33.206   5.072   2.618  1.00 20.00    -0.100 Cl
ENDROOT
TORSDOF 0
ENDMDL
MODEL 3
REMARK VINA RESULT:      -4.1     12.154     12.637
REMARK  0 active torsions:
REMARK  status: ('A' for Active; 'I' for Inactive)
ROOT
HETATM    1  C1  UNL     1     -34.670  16.335  -1.539  1.00 20.00     0.013 C 
HETATM    2  C2  UNL     1     -34.865  15.641  -2.499  1.00 20.00    -0.104 C 
HETATM    3  C3  UNL     1     -34.052  13.762  -3.969  1.00 20.00     0.069 A 
HETATM    4  C4  UNL     1     -35.100  14.806  -3.653  1.00 20.00     0.057 A 
HETATM    5  C5  UNL     1     -34.185  14.965  -4.864  1.00 20.00     0.133 A 
HETATM    6  C6  UNL     1     -36.546  14.420  -3.837  1.00 20.00     0.032 C 
HETATM    7 CL7  UNL     1     -34.814  14.710  -6.494  1.00 20.00    -0.100 Cl
HETATM    8 CL8  UNL     1     -32.865  16.142  -4.837  1.00 20.00    -0.100 Cl
ENDROOT
TORSDOF 0
ENDMDL
MODEL 4
REMARK VINA RESULT:      -4.0     12.371     12.995
REMARK  0 active torsions:
REMARK  status: ('A' for Active; 'I' for Inactive)
ROOT
HETATM    1  C1  UNL     1     -34.717  16.454  -1.205  1.00 20.00     0.013 C 
HETATM    2  C2  UNL     1     -34.447  15.895  -2.233  1.00 20.00    -0.104 C 
HETATM    3  C3  UNL     1     -32.669  15.224  -3.888  1.00 20.00     0.069 A 
HETATM    4  C4  UNL     1     -34.123  15.223  -3.469  1.00 20.00     0.057 A 
HETATM    5  C5  UNL     1     -33.657  16.065  -4.654  1.00 20.00     0.133 A 
HETATM    6  C6  UNL     1     -34.914  13.960  -3.697  1.00 20.00     0.032 C 
HETATM    7 CL7  UNL     1     -34.050  15.573  -6.303  1.00 20.00    -0.100 Cl
HETATM    8 CL8  UNL     1     -33.513  17.822  -4.499  1.00 20.00    -0.100 Cl
ENDROOT
TORSDOF 0
ENDMDL
MODEL 5
REMARK VINA RESULT:      -4.0     12.118     13.056
REMARK  0 active torsions:
REMARK  status: ('A' for Active; 'I' for Inactive)
ROOT
HETATM    1  C1  UNL     1     -34.654  16.289  -1.500  1.00 20.00     0.013 C 
HETATM    2  C2  UNL     1     -34.280  15.825  -2.543  1.00 20.00    -0.104 C 
HETATM    3  C3  UNL     1     -33.136  16.207  -4.755  1.00 20.00     0.069 A 
HETATM    4  C4  UNL     1     -33.831  15.267  -3.796  1.00 20.00     0.057 A 
HETATM    5  C5  UNL     1     -34.522  15.715  -5.081  1.00 20.00     0.133 A 
HETATM    6  C6  UNL     1     -33.285  13.866  -3.673  1.00 20.00     0.032 C 
HETATM    7 CL7  UNL     1     -34.698  14.593  -6.433  1.00 20.00    -0.100 Cl
HETATM    8 CL8  UNL     1     -35.834  16.899  -5.023  1.00 20.00    -0.100 Cl
ENDROOT
TORSDOF 0
ENDMDL
MODEL 6
REMARK VINA RESULT:      -3.8     12.041     13.120
REMARK  0 active torsions:
REMARK  status: ('A' for Active; 'I' for Inactive)
ROOT
HETATM    1  C1  UNL     1     -34.304  15.204  -7.117  1.00 20.00     0.013 C 
HETATM    2  C2  UNL     1     -34.058  15.564  -5.999  1.00 20.00    -0.104 C 
HETATM    3  C3  UNL     1     -32.795  15.148  -3.858  1.00 20.00     0.069 A 
HETATM    4  C4  UNL     1     -33.762  15.997  -4.654  1.00 20.00     0.057 A 
HETATM    5  C5  UNL     1     -34.255  15.142  -3.490  1.00 20.00     0.133 A 
HETATM    6  C6  UNL     1     -33.658  17.495  -4.509  1.00 20.00     0.032 C 
HETATM    7 CL7  UNL     1     -34.720  15.901  -1.965  1.00 20.00    -0.100 Cl
HETATM    8 CL8  UNL     1     -35.159  13.653  -3.795  1.00 20.00    -0.100 Cl
ENDROOT
TORSDOF 0
ENDMDL
MODEL 7
REMARK VINA RESULT:      -3.8     11.848     12.649
REMARK  0 active torsions:
REMARK  status: ('A' for Active; 'I' for Inactive)
ROOT
HETATM    1  C1  UNL     1     -34.577  16.341  -1.323  1.00 20.00     0.013 C 
HETATM    2  C2  UNL     1     -34.938  16.039  -2.427  1.00 20.00    -0.104 C 
HETATM    3  C3  UNL     1     -35.984  14.303  -3.925  1.00 20.00     0.069 A 
HETATM    4  C4  UNL     1     -35.372  15.676  -3.755  1.00 20.00     0.057 A 
HETATM    5  C5  UNL     1     -34.616  14.574  -4.492  1.00 20.00     0.133 A 
HETATM    6  C6  UNL     1     -35.994  16.816  -4.522  1.00 20.00     0.032 C 
HETATM    7 CL7  UNL     1     -34.451  14.630  -6.249  1.00 20.00    -0.100 Cl
HETATM    8 CL8  UNL     1     -33.246  13.761  -3.721  1.00 20.00    -0.100 Cl
ENDROOT
TORSDOF 0
ENDMDL
MODEL 8
REMARK VINA RESULT:      -3.8      2.409      3.362
REMARK  0 active torsions:
REMARK  status: ('A' for Active; 'I' for Inactive)
ROOT
HETATM    1  C1  UNL     1     -34.083   6.144   6.254  1.00 20.00     0.013 C 
HETATM    2  C2  UNL     1     -33.785   6.196   5.093  1.00 20.00    -0.104 C 
HETATM    3  C3  UNL     1     -32.113   5.627   3.296  1.00 20.00     0.069 A 
HETATM    4  C4  UNL     1     -33.427   6.260   3.696  1.00 20.00     0.057 A 
HETATM    5  C5  UNL     1     -32.240   7.128   3.288  1.00 20.00     0.133 A 
HETATM    6  C6  UNL     1     -34.598   6.083   2.762  1.00 20.00     0.032 C 
HETATM    7 CL7  UNL     1     -32.232   7.944   1.722  1.00 20.00    -0.100 Cl
HETATM    8 CL8  UNL     1     -31.326   8.023   4.510  1.00 20.00    -0.100 Cl
ENDROOT
TORSDOF 0
ENDMDL
MODEL 9
REMARK VINA RESULT:      -3.8     11.989     12.802
REMARK  0 active torsions:
REMARK  status: ('A' for Active; 'I' for Inactive)
ROOT
HETATM    1  C1  UNL     1     -34.468  14.912  -7.057  1.00 20.00     0.013 C 
HETATM    2  C2  UNL     1     -34.547  14.751  -5.870  1.00 20.00    -0.104 C 
HETATM    3  C3  UNL     1     -36.031  14.412  -3.862  1.00 20.00     0.069 A 
HETATM    4  C4  UNL     1     -34.642  14.556  -4.443  1.00 20.00     0.057 A 
HETATM    5  C5  UNL     1     -35.249  15.671  -3.596  1.00 20.00     0.133 A 
HETATM    6  C6  UNL     1     -33.555  13.677  -3.878  1.00 20.00     0.032 C 
HETATM    7 CL7  UNL     1     -34.676  15.950  -1.949  1.00 20.00    -0.100 Cl
HETATM    8 CL8  UNL     1     -35.828  17.159  -4.359  1.00 20.00    -0.100 Cl
ENDROOT
TORSDOF 0
ENDMDL
