MODEL 1
REMARK VINA RESULT:      -5.2      0.000      0.000
REMARK  1 active torsions:
REMARK  status: ('A' for Active; 'I' for Inactive)
REMARK    1  A    between atoms: C4_4  and  C6_6 
ROOT
HETATM    1  C1  UNL     1     -34.246   6.186   5.894  1.00 20.00     0.062 C 
HETATM    2  C2  UNL     1     -35.530   5.198   4.512  1.00 20.00     0.062 C 
HETATM    3  C3  UNL     1     -33.824   4.189   5.291  1.00 20.00     0.062 C 
HETATM    4  C4  UNL     1     -33.983   5.537   4.473  1.00 20.00     0.067 C 
HETATM    5  C5  UNL     1     -35.054   4.864   5.949  1.00 20.00     0.106 C 
HETATM    6  F7  UNL     1     -35.784   4.406   6.953  1.00 20.00    -0.243 F 
ENDROOT
BRANCH   4   7
HETATM    7  C6  UNL     1     -33.169   6.049   3.350  1.00 20.00     0.395 C 
HETATM    8  F8  UNL     1     -33.234   7.402   3.250  1.00 20.00    -0.170 F 
HETATM    9  F9  UNL     1     -31.856   5.726   3.486  1.00 20.00    -0.170 F 
HETATM   10  F10 UNL     1     -33.577   5.546   2.155  1.00 20.00    -0.170 F 
ENDBRANCH   4   7
TORSDOF 1
ENDMDL
MODEL 2
REMARK VINA RESULT:      -5.2      0.050      1.660
REMARK  1 active torsions:
REMARK  status: ('A' for Active; 'I' for Inactive)
REMARK    1  A    between atoms: C4_4  and  C6_6 
ROOT
HETATM    1  C1  UNL     1     -33.794   4.234   5.305  1.00 20.00     0.062 C 
HETATM    2  C2  UNL     1     -34.237   6.241   5.863  1.00 20.00     0.062 C 
HETATM    3  C3  UNL     1     -35.504   5.211   4.497  1.00 20.00     0.062 C 
HETATM    4  C4  UNL     1     -33.959   5.563   4.458  1.00 20.00     0.067 C 
HETATM    5  C5  UNL     1     -35.033   4.914   5.942  1.00 20.00     0.106 C 
HETATM    6  F7  UNL     1     -35.763   4.472   6.954  1.00 20.00    -0.243 F 
ENDROOT
BRANCH   4   7
HETATM    7  C6  UNL     1     -33.143   6.057   3.329  1.00 20.00     0.395 C 
HETATM    8  F8  UNL     1     -31.828   5.751   3.480  1.00 20.00    -0.170 F 
HETATM    9  F9  UNL     1     -33.538   5.524   2.144  1.00 20.00    -0.170 F 
HETATM   10  F10 UNL     1     -33.220   7.408   3.199  1.00 20.00    -0.170 F 
ENDBRANCH   4   7
TORSDOF 1
ENDMDL
MODEL 3
REMARK VINA RESULT:      -5.2      0.019      1.201
REMARK  1 active torsions:
REMARK  status: ('A' for Active; 'I' for Inactive)
REMARK    1  A    between atoms: C4_4  and  C6_6 
ROOT
HETATM    1  C1  UNL     1     -34.236   6.185   5.888  1.00 20.00     0.062 C 
HETATM    2  C2  UNL     1     -35.528   5.194   4.516  1.00 20.00     0.062 C 
HETATM    3  C3  UNL     1     -33.822   4.184   5.294  1.00 20.00     0.062 C 
HETATM    4  C4  UNL     1     -33.980   5.528   4.469  1.00 20.00     0.067 C 
HETATM    5  C5  UNL     1     -35.047   4.866   5.952  1.00 20.00     0.106 C 
HETATM    6  F7  UNL     1     -35.775   4.416   6.962  1.00 20.00    -0.243 F 
ENDROOT
BRANCH   4   7
HETATM    7  C6  UNL     1     -33.168   6.032   3.341  1.00 20.00     0.395 C 
HETATM    8  F8  UNL     1     -33.569   5.510   2.153  1.00 20.00    -0.170 F 
HETATM    9  F9  UNL     1     -33.245   7.384   3.223  1.00 20.00    -0.170 F 
HETATM   10  F10 UNL     1     -31.853   5.722   3.483  1.00 20.00    -0.170 F 
ENDBRANCH   4   7
TORSDOF 1
ENDMDL
MODEL 4
REMARK VINA RESULT:      -5.0      0.658      1.419
REMARK  1 active torsions:
REMARK  status: ('A' for Active; 'I' for Inactive)
REMARK    1  A    between atoms: C4_4  and  C6_6 
ROOT
HETATM    1  C1  UNL     1     -33.705   4.248   5.218  1.00 20.00     0.062 C 
HETATM    2  C2  UNL     1     -34.251   6.090   6.136  1.00 20.00     0.062 C 
HETATM    3  C3  UNL     1     -35.370   5.351   4.483  1.00 20.00     0.062 C 
HETATM    4  C4  UNL     1     -33.839   5.722   4.651  1.00 20.00     0.067 C 
HETATM    5  C5  UNL     1     -35.011   4.766   5.872  1.00 20.00     0.106 C 
HETATM    6  F7  UNL     1     -35.809   4.116   6.704  1.00 20.00    -0.243 F 
ENDROOT
BRANCH   4   7
HETATM    7  C6  UNL     1     -32.947   6.448   3.723  1.00 20.00     0.395 C 
HETATM    8  F8  UNL     1     -33.635   7.297   2.916  1.00 20.00    -0.170 F 
HETATM    9  F9  UNL     1     -32.024   7.195   4.384  1.00 20.00    -0.170 F 
HETATM   10  F10 UNL     1     -32.261   5.602   2.910  1.00 20.00    -0.170 F 
ENDBRANCH   4   7
TORSDOF 1
ENDMDL
MODEL 5
REMARK VINA RESULT:      -4.7      1.638      3.602
REMARK  1 active torsions:
REMARK  status: ('A' for Active; 'I' for Inactive)
REMARK    1  A    between atoms: C4_4  and  C6_6 
ROOT
HETATM    1  C1  UNL     1     -34.437   4.120   4.068  1.00 20.00     0.062 C 
HETATM    2  C2  UNL     1     -35.589   5.904   3.910  1.00 20.00     0.062 C 
HETATM    3  C3  UNL     1     -33.462   6.006   3.910  1.00 20.00     0.062 C 
HETATM    4  C4  UNL     1     -34.501   5.430   4.959  1.00 20.00     0.067 C 
HETATM    5  C5  UNL     1     -34.492   5.263   3.023  1.00 20.00     0.106 C 
HETATM    6  F7  UNL     1     -34.487   5.149   1.704  1.00 20.00    -0.243 F 
ENDROOT
BRANCH   4   7
HETATM    7  C6  UNL     1     -34.508   5.556   6.432  1.00 20.00     0.395 C 
HETATM    8  F8  UNL     1     -35.725   5.268   6.962  1.00 20.00    -0.170 F 
HETATM    9  F9  UNL     1     -33.614   4.717   7.019  1.00 20.00    -0.170 F 
HETATM   10  F10 UNL     1     -34.191   6.815   6.835  1.00 20.00    -0.170 F 
ENDBRANCH   4   7
TORSDOF 1
ENDMDL
MODEL 6
REMARK VINA RESULT:      -4.6      1.337      3.728
REMARK  1 active torsions:
REMARK  status: ('A' for Active; 'I' for Inactive)
REMARK    1  A    between atoms: C4_4  and  C6_6 
ROOT
HETATM    1  C1  UNL     1     -34.744   6.149   3.456  1.00 20.00     0.062 C 
HETATM    2  C2  UNL     1     -33.542   6.869   5.059  1.00 20.00     0.062 C 
HETATM    3  C3  UNL     1     -32.800   5.343   3.773  1.00 20.00     0.062 C 
HETATM    4  C4  UNL     1     -34.082   5.424   4.700  1.00 20.00     0.067 C 
HETATM    5  C5  UNL     1     -33.330   6.778   3.527  1.00 20.00     0.106 C 
HETATM    6  F7  UNL     1     -32.817   7.701   2.728  1.00 20.00    -0.243 F 
ENDROOT
BRANCH   4   7
HETATM    7  C6  UNL     1     -34.655   4.394   5.593  1.00 20.00     0.395 C 
HETATM    8  F8  UNL     1     -35.242   3.386   4.896  1.00 20.00    -0.170 F 
HETATM    9  F9  UNL     1     -33.709   3.826   6.387  1.00 20.00    -0.170 F 
HETATM   10  F10 UNL     1     -35.605   4.907   6.418  1.00 20.00    -0.170 F 
ENDBRANCH   4   7
TORSDOF 1
ENDMDL
MODEL 7
REMARK VINA RESULT:      -4.6      1.353      3.722
REMARK  1 active torsions:
REMARK  status: ('A' for Active; 'I' for Inactive)
REMARK    1  A    between atoms: C4_4  and  C6_6 
ROOT
HETATM    1  C1  UNL     1     -33.398   6.793   5.055  1.00 20.00     0.062 C 
HETATM    2  C2  UNL     1     -32.908   5.309   3.608  1.00 20.00     0.062 C 
HETATM    3  C3  UNL     1     -34.796   6.292   3.531  1.00 20.00     0.062 C 
HETATM    4  C4  UNL     1     -34.092   5.425   4.655  1.00 20.00     0.067 C 
HETATM    5  C5  UNL     1     -33.331   6.797   3.507  1.00 20.00     0.106 C 
HETATM    6  F7  UNL     1     -32.813   7.730   2.725  1.00 20.00    -0.243 F 
ENDROOT
BRANCH   4   7
HETATM    7  C6  UNL     1     -34.670   4.382   5.529  1.00 20.00     0.395 C 
HETATM    8  F8  UNL     1     -33.726   3.786   6.303  1.00 20.00    -0.170 F 
HETATM    9  F9  UNL     1     -35.609   4.887   6.371  1.00 20.00    -0.170 F 
HETATM   10  F10 UNL     1     -35.272   3.396   4.813  1.00 20.00    -0.170 F 
ENDBRANCH   4   7
TORSDOF 1
ENDMDL
MODEL 8
REMARK VINA RESULT:      -4.6      1.350      3.734
REMARK  1 active torsions:
REMARK  status: ('A' for Active; 'I' for Inactive)
REMARK    1  A    between atoms: C4_4  and  C6_6 
ROOT
HETATM    1  C1  UNL     1     -34.812   6.283   3.555  1.00 20.00     0.062 C 
HETATM    2  C2  UNL     1     -33.401   6.800   5.064  1.00 20.00     0.062 C 
HETATM    3  C3  UNL     1     -32.920   5.311   3.620  1.00 20.00     0.062 C 
HETATM    4  C4  UNL     1     -34.093   5.428   4.678  1.00 20.00     0.067 C 
HETATM    5  C5  UNL     1     -33.350   6.795   3.515  1.00 20.00     0.106 C 
HETATM    6  F7  UNL     1     -32.844   7.728   2.723  1.00 20.00    -0.243 F 
ENDROOT
BRANCH   4   7
HETATM    7  C6  UNL     1     -34.659   4.387   5.564  1.00 20.00     0.395 C 
HETATM    8  F8  UNL     1     -35.562   4.900   6.439  1.00 20.00    -0.170 F 
HETATM    9  F9  UNL     1     -35.298   3.415   4.862  1.00 20.00    -0.170 F 
HETATM   10  F10 UNL     1     -33.699   3.773   6.303  1.00 20.00    -0.170 F 
ENDBRANCH   4   7
TORSDOF 1
ENDMDL
MODEL 9
REMARK VINA RESULT:      -4.2     12.495     13.302
REMARK  1 active torsions:
REMARK  status: ('A' for Active; 'I' for Inactive)
REMARK    1  A    between atoms: C4_4  and  C6_6 
ROOT
HETATM    1  C1  UNL     1     -34.138  16.575  -4.308  1.00 20.00     0.062 C 
HETATM    2  C2  UNL     1     -35.055  15.142  -3.029  1.00 20.00     0.062 C 
HETATM    3  C3  UNL     1     -33.043  14.867  -3.667  1.00 20.00     0.062 C 
HETATM    4  C4  UNL     1     -34.402  15.021  -4.467  1.00 20.00     0.067 C 
HETATM    5  C5  UNL     1     -33.774  16.006  -2.914  1.00 20.00     0.106 C 
HETATM    6  F7  UNL     1     -33.347  16.676  -1.855  1.00 20.00    -0.243 F 
ENDROOT
BRANCH   4   7
HETATM    7  C6  UNL     1     -34.880  14.272  -5.649  1.00 20.00     0.395 C 
HETATM    8  F8  UNL     1     -36.172  14.565  -5.948  1.00 20.00    -0.170 F 
HETATM    9  F9  UNL     1     -34.145  14.550  -6.758  1.00 20.00    -0.170 F 
HETATM   10  F10 UNL     1     -34.814  12.928  -5.459  1.00 20.00    -0.170 F 
ENDBRANCH   4   7
TORSDOF 1
ENDMDL
