MODEL 1
REMARK VINA RESULT:      -4.1      0.000      0.000
REMARK  0 active torsions:
REMARK  status: ('A' for Active; 'I' for Inactive)
ROOT
HETATM    1  C1  UNL     1     -34.726  15.669  -2.910  1.00 20.00    -0.059 A 
HETATM    2  C2  UNL     1     -35.713  15.189  -3.694  1.00 20.00    -0.055 A 
HETATM    3  C3  UNL     1     -33.642  15.413  -3.941  1.00 20.00     0.138 A 
HETATM    4  C4  UNL     1     -34.757  14.744  -4.810  1.00 20.00     0.077 A 
HETATM    5  C5  UNL     1     -34.709  16.314  -1.510  1.00 20.00     0.045 C 
HETATM    6  C6  UNL     1     -37.240  15.062  -3.515  1.00 20.00     0.046 C 
HETATM    7  C7  UNL     1     -34.693  13.220  -4.970  1.00 20.00     0.039 C 
HETATM    8 CL8  UNL     1     -32.184  14.462  -3.428  1.00 20.00    -0.118 Cl
HETATM    9 CL9  UNL     1     -35.032  15.522  -6.425  1.00 20.00    -0.113 Cl
ENDROOT
TORSDOF 0
ENDMDL
MODEL 2
REMARK VINA RESULT:      -4.0      0.738      3.029
REMARK  0 active torsions:
REMARK  status: ('A' for Active; 'I' for Inactive)
ROOT
HETATM    1  C1  UNL     1     -35.949  14.812  -3.912  1.00 20.00    -0.059 A 
HETATM    2  C2  UNL     1     -34.939  15.307  -3.167  1.00 20.00    -0.055 A 
HETATM    3  C3  UNL     1     -35.021  14.183  -4.936  1.00 20.00     0.138 A 
HETATM    4  C4  UNL     1     -33.849  14.854  -4.148  1.00 20.00     0.077 A 
HETATM    5  C5  UNL     1     -37.482  14.814  -3.748  1.00 20.00     0.045 C 
HETATM    6  C6  UNL     1     -34.890  16.105  -1.847  1.00 20.00     0.046 C 
HETATM    7  C7  UNL     1     -33.134  16.026  -4.831  1.00 20.00     0.039 C 
HETATM    8 CL8  UNL     1     -35.292  14.573  -6.687  1.00 20.00    -0.118 Cl
HETATM    9 CL9  UNL     1     -32.627  13.697  -3.471  1.00 20.00    -0.113 Cl
ENDROOT
TORSDOF 0
ENDMDL
MODEL 3
REMARK VINA RESULT:      -3.9      1.739      2.735
REMARK  0 active torsions:
REMARK  status: ('A' for Active; 'I' for Inactive)
ROOT
HETATM    1  C1  UNL     1     -34.454  16.475  -4.656  1.00 20.00    -0.059 A 
HETATM    2  C2  UNL     1     -34.822  15.806  -3.544  1.00 20.00    -0.055 A 
HETATM    3  C3  UNL     1     -35.257  15.581  -5.583  1.00 20.00     0.138 A 
HETATM    4  C4  UNL     1     -35.593  14.726  -4.317  1.00 20.00     0.077 A 
HETATM    5  C5  UNL     1     -33.596  17.733  -4.896  1.00 20.00     0.045 C 
HETATM    6  C6  UNL     1     -34.523  16.001  -2.043  1.00 20.00     0.046 C 
HETATM    7  C7  UNL     1     -34.941  13.341  -4.221  1.00 20.00     0.039 C 
HETATM    8 CL8  UNL     1     -34.403  14.831  -6.997  1.00 20.00    -0.118 Cl
HETATM    9 CL9  UNL     1     -37.360  14.603  -3.928  1.00 20.00    -0.113 Cl
ENDROOT
TORSDOF 0
ENDMDL
MODEL 4
REMARK VINA RESULT:      -3.9      1.829      2.990
REMARK  0 active torsions:
REMARK  status: ('A' for Active; 'I' for Inactive)
ROOT
HETATM    1  C1  UNL     1     -34.737  15.825  -2.437  1.00 20.00    -0.059 A 
HETATM    2  C2  UNL     1     -33.951  15.236  -3.361  1.00 20.00    -0.055 A 
HETATM    3  C3  UNL     1     -36.027  15.392  -3.108  1.00 20.00     0.138 A 
HETATM    4  C4  UNL     1     -35.130  14.809  -4.248  1.00 20.00     0.077 A 
HETATM    5  C5  UNL     1     -34.441  16.593  -1.133  1.00 20.00     0.045 C 
HETATM    6  C6  UNL     1     -32.423  15.098  -3.518  1.00 20.00     0.046 C 
HETATM    7  C7  UNL     1     -35.158  15.539  -5.596  1.00 20.00     0.039 C 
HETATM    8 CL8  UNL     1     -37.268  16.663  -3.476  1.00 20.00    -0.118 Cl
HETATM    9 CL9  UNL     1     -35.297  13.023  -4.511  1.00 20.00    -0.113 Cl
ENDROOT
TORSDOF 0
ENDMDL
MODEL 5
REMARK VINA RESULT:      -3.9      2.044      2.979
REMARK  0 active torsions:
REMARK  status: ('A' for Active; 'I' for Inactive)
ROOT
HETATM    1  C1  UNL     1     -33.796  16.950  -4.145  1.00 20.00    -0.059 A 
HETATM    2  C2  UNL     1     -34.035  15.908  -4.966  1.00 20.00    -0.055 A 
HETATM    3  C3  UNL     1     -33.850  16.104  -2.887  1.00 20.00     0.138 A 
HETATM    4  C4  UNL     1     -34.247  14.912  -3.817  1.00 20.00     0.077 A 
HETATM    5  C5  UNL     1     -33.499  18.443  -4.392  1.00 20.00     0.045 C 
HETATM    6  C6  UNL     1     -34.135  15.769  -6.500  1.00 20.00     0.046 C 
HETATM    7  C7  UNL     1     -35.692  14.407  -3.722  1.00 20.00     0.039 C 
HETATM    8 CL8  UNL     1     -34.956  16.632  -1.549  1.00 20.00    -0.118 Cl
HETATM    9 CL9  UNL     1     -33.100  13.507  -3.785  1.00 20.00    -0.113 Cl
ENDROOT
TORSDOF 0
ENDMDL
MODEL 6
REMARK VINA RESULT:      -3.9      2.115      3.295
REMARK  0 active torsions:
REMARK  status: ('A' for Active; 'I' for Inactive)
ROOT
HETATM    1  C1  UNL     1     -33.414  15.427  -3.766  1.00 20.00    -0.059 A 
HETATM    2  C2  UNL     1     -34.057  16.319  -2.985  1.00 20.00    -0.055 A 
HETATM    3  C3  UNL     1     -33.390  16.346  -4.973  1.00 20.00     0.138 A 
HETATM    4  C4  UNL     1     -34.240  17.340  -4.116  1.00 20.00     0.077 A 
HETATM    5  C5  UNL     1     -32.842  14.018  -3.510  1.00 20.00     0.045 C 
HETATM    6  C6  UNL     1     -34.512  16.300  -1.511  1.00 20.00     0.046 C 
HETATM    7  C7  UNL     1     -35.707  17.527  -4.521  1.00 20.00     0.039 C 
HETATM    8 CL8  UNL     1     -34.032  15.708  -6.545  1.00 20.00    -0.118 Cl
HETATM    9 CL9  UNL     1     -33.468  18.957  -3.836  1.00 20.00    -0.113 Cl
ENDROOT
TORSDOF 0
ENDMDL
MODEL 7
REMARK VINA RESULT:      -3.8      1.707      2.695
REMARK  0 active torsions:
REMARK  status: ('A' for Active; 'I' for Inactive)
ROOT
HETATM    1  C1  UNL     1     -35.957  15.373  -3.898  1.00 20.00    -0.059 A 
HETATM    2  C2  UNL     1     -35.055  15.051  -4.848  1.00 20.00    -0.055 A 
HETATM    3  C3  UNL     1     -35.033  16.362  -3.212  1.00 20.00     0.138 A 
HETATM    4  C4  UNL     1     -33.940  15.909  -4.233  1.00 20.00     0.077 A 
HETATM    5  C5  UNL     1     -37.418  14.952  -3.643  1.00 20.00     0.045 C 
HETATM    6  C6  UNL     1     -35.094  14.108  -6.069  1.00 20.00     0.046 C 
HETATM    7  C7  UNL     1     -32.778  15.074  -3.682  1.00 20.00     0.039 C 
HETATM    8 CL8  UNL     1     -34.757  16.177  -1.428  1.00 20.00    -0.118 Cl
HETATM    9 CL9  UNL     1     -33.298  17.229  -5.298  1.00 20.00    -0.113 Cl
ENDROOT
TORSDOF 0
ENDMDL
MODEL 8
REMARK VINA RESULT:      -3.8      1.662      3.545
REMARK  0 active torsions:
REMARK  status: ('A' for Active; 'I' for Inactive)
ROOT
HETATM    1  C1  UNL     1     -34.276  15.406  -5.972  1.00 20.00    -0.059 A 
HETATM    2  C2  UNL     1     -34.420  14.605  -4.897  1.00 20.00    -0.055 A 
HETATM    3  C3  UNL     1     -33.250  16.298  -5.298  1.00 20.00     0.138 A 
HETATM    4  C4  UNL     1     -33.497  15.451  -4.008  1.00 20.00     0.077 A 
HETATM    5  C5  UNL     1     -34.874  15.384  -7.393  1.00 20.00     0.045 C 
HETATM    6  C6  UNL     1     -35.259  13.339  -4.625  1.00 20.00     0.046 C 
HETATM    7  C7  UNL     1     -34.241  16.138  -2.857  1.00 20.00     0.039 C 
HETATM    8 CL8  UNL     1     -33.548  18.088  -5.291  1.00 20.00    -0.118 Cl
HETATM    9 CL9  UNL     1     -32.032  14.593  -3.369  1.00 20.00    -0.113 Cl
ENDROOT
TORSDOF 0
ENDMDL
MODEL 9
REMARK VINA RESULT:      -3.7      2.085      3.131
REMARK  0 active torsions:
REMARK  status: ('A' for Active; 'I' for Inactive)
ROOT
HETATM    1  C1  UNL     1     -34.347  14.754  -3.961  1.00 20.00    -0.059 A 
HETATM    2  C2  UNL     1     -34.736  15.445  -5.052  1.00 20.00    -0.055 A 
HETATM    3  C3  UNL     1     -35.330  15.454  -3.040  1.00 20.00     0.138 A 
HETATM    4  C4  UNL     1     -35.704  16.345  -4.270  1.00 20.00     0.077 A 
HETATM    5  C5  UNL     1     -33.333  13.614  -3.739  1.00 20.00     0.045 C 
HETATM    6  C6  UNL     1     -34.316  15.405  -6.536  1.00 20.00     0.046 C 
HETATM    7  C7  UNL     1     -35.256  17.811  -4.228  1.00 20.00     0.039 C 
HETATM    8 CL8  UNL     1     -34.686  16.210  -1.521  1.00 20.00    -0.118 Cl
HETATM    9 CL9  UNL     1     -37.442  16.247  -4.780  1.00 20.00    -0.113 Cl
ENDROOT
TORSDOF 0
ENDMDL
