MODEL 1
REMARK VINA RESULT:      -4.9      0.000      0.000
REMARK  0 active torsions:
REMARK  status: ('A' for Active; 'I' for Inactive)
ROOT
HETATM    1  C1  UNL     1     -33.763   6.270   5.866  1.00 20.00     0.129 C 
HETATM    2  C2  UNL     1     -33.984   6.388   4.549  1.00 20.00     0.136 C 
HETATM    3  C3  UNL     1     -34.248   5.117   6.687  1.00 20.00     0.073 C 
HETATM    4  C4  UNL     1     -35.296   4.266   5.968  1.00 20.00     0.008 C 
HETATM    5  C5  UNL     1     -34.908   4.032   4.509  1.00 20.00     0.016 C 
HETATM    6  C6  UNL     1     -34.727   5.357   3.724  1.00 20.00     0.009 C 
HETATM    7  C7  UNL     1     -36.099   5.942   3.339  1.00 20.00     0.022 C 
HETATM    8  C8  UNL     1     -33.939   5.063   2.436  1.00 20.00     0.022 C 
HETATM    9  F9  UNL     1     -33.079   7.255   6.491  1.00 20.00    -0.208 F 
HETATM   10  F10 UNL     1     -33.510   7.493   3.925  1.00 20.00    -0.207 F 
ENDROOT
TORSDOF 0
ENDMDL
MODEL 2
REMARK VINA RESULT:      -4.7      9.097     10.361
REMARK  0 active torsions:
REMARK  status: ('A' for Active; 'I' for Inactive)
ROOT
HETATM    1  C1  UNL     1     -41.917   6.765  -2.290  1.00 20.00     0.129 C 
HETATM    2  C2  UNL     1     -42.330   5.518  -2.558  1.00 20.00     0.136 C 
HETATM    3  C3  UNL     1     -41.008   7.109  -1.152  1.00 20.00     0.073 C 
HETATM    4  C4  UNL     1     -40.865   5.978  -0.134  1.00 20.00     0.008 C 
HETATM    5  C5  UNL     1     -40.710   4.627  -0.830  1.00 20.00     0.016 C 
HETATM    6  C6  UNL     1     -41.905   4.300  -1.763  1.00 20.00     0.009 C 
HETATM    7  C7  UNL     1     -43.111   3.816  -0.937  1.00 20.00     0.022 C 
HETATM    8  C8  UNL     1     -41.485   3.177  -2.726  1.00 20.00     0.022 C 
HETATM    9  F9  UNL     1     -42.362   7.769  -3.078  1.00 20.00    -0.208 F 
HETATM   10  F10 UNL     1     -43.171   5.342  -3.604  1.00 20.00    -0.207 F 
ENDROOT
TORSDOF 0
ENDMDL
MODEL 3
REMARK VINA RESULT:      -4.6     12.673     13.857
REMARK  0 active torsions:
REMARK  status: ('A' for Active; 'I' for Inactive)
ROOT
HETATM    1  C1  UNL     1     -34.288  15.558  -6.142  1.00 20.00     0.129 C 
HETATM    2  C2  UNL     1     -33.680  15.952  -5.014  1.00 20.00     0.136 C 
HETATM    3  C3  UNL     1     -35.061  14.282  -6.263  1.00 20.00     0.073 C 
HETATM    4  C4  UNL     1     -34.815  13.318  -5.102  1.00 20.00     0.008 C 
HETATM    5  C5  UNL     1     -34.801  14.058  -3.766  1.00 20.00     0.016 C 
HETATM    6  C6  UNL     1     -33.724  15.172  -3.716  1.00 20.00     0.009 C 
HETATM    7  C7  UNL     1     -32.332  14.560  -3.472  1.00 20.00     0.022 C 
HETATM    8  C8  UNL     1     -34.054  16.124  -2.554  1.00 20.00     0.022 C 
HETATM    9  F9  UNL     1     -34.182  16.345  -7.236  1.00 20.00    -0.208 F 
HETATM   10  F10 UNL     1     -32.993  17.119  -5.041  1.00 20.00    -0.207 F 
ENDROOT
TORSDOF 0
ENDMDL
MODEL 4
REMARK VINA RESULT:      -4.6     12.554     14.051
REMARK  0 active torsions:
REMARK  status: ('A' for Active; 'I' for Inactive)
ROOT
HETATM    1  C1  UNL     1     -34.722  14.683  -6.566  1.00 20.00     0.129 C 
HETATM    2  C2  UNL     1     -34.573  14.124  -5.356  1.00 20.00     0.136 C 
HETATM    3  C3  UNL     1     -34.269  16.071  -6.897  1.00 20.00     0.073 C 
HETATM    4  C4  UNL     1     -33.935  16.906  -5.661  1.00 20.00     0.008 C 
HETATM    5  C5  UNL     1     -33.144  16.087  -4.642  1.00 20.00     0.016 C 
HETATM    6  C6  UNL     1     -33.904  14.815  -4.185  1.00 20.00     0.009 C 
HETATM    7  C7  UNL     1     -34.988  15.180  -3.155  1.00 20.00     0.022 C 
HETATM    8  C8  UNL     1     -32.902  13.853  -3.524  1.00 20.00     0.022 C 
HETATM    9  F9  UNL     1     -35.330  13.962  -7.534  1.00 20.00    -0.208 F 
HETATM   10  F10 UNL     1     -35.046  12.868  -5.179  1.00 20.00    -0.207 F 
ENDROOT
TORSDOF 0
ENDMDL
MODEL 5
REMARK VINA RESULT:      -4.5     12.111     12.892
REMARK  0 active torsions:
REMARK  status: ('A' for Active; 'I' for Inactive)
ROOT
HETATM    1  C1  UNL     1     -34.155  13.905  -4.054  1.00 20.00     0.129 C 
HETATM    2  C2  UNL     1     -33.635  15.008  -3.496  1.00 20.00     0.136 C 
HETATM    3  C3  UNL     1     -35.614  13.727  -4.334  1.00 20.00     0.073 C 
HETATM    4  C4  UNL     1     -36.492  14.760  -3.627  1.00 20.00     0.008 C 
HETATM    5  C5  UNL     1     -35.879  16.157  -3.718  1.00 20.00     0.016 C 
HETATM    6  C6  UNL     1     -34.456  16.221  -3.108  1.00 20.00     0.009 C 
HETATM    7  C7  UNL     1     -34.535  16.279  -1.571  1.00 20.00     0.022 C 
HETATM    8  C8  UNL     1     -33.760  17.496  -3.612  1.00 20.00     0.022 C 
HETATM    9  F9  UNL     1     -33.318  12.890  -4.364  1.00 20.00    -0.208 F 
HETATM   10  F10 UNL     1     -32.300  15.035  -3.275  1.00 20.00    -0.207 F 
ENDROOT
TORSDOF 0
ENDMDL
MODEL 6
REMARK VINA RESULT:      -4.5      8.559      9.748
REMARK  0 active torsions:
REMARK  status: ('A' for Active; 'I' for Inactive)
ROOT
HETATM    1  C1  UNL     1     -41.367   7.426  -1.101  1.00 20.00     0.129 C 
HETATM    2  C2  UNL     1     -41.169   6.250  -0.489  1.00 20.00     0.136 C 
HETATM    3  C3  UNL     1     -42.276   7.604  -2.277  1.00 20.00     0.073 C 
HETATM    4  C4  UNL     1     -42.690   6.282  -2.923  1.00 20.00     0.008 C 
HETATM    5  C5  UNL     1     -43.037   5.238  -1.863  1.00 20.00     0.016 C 
HETATM    6  C6  UNL     1     -41.860   4.964  -0.893  1.00 20.00     0.009 C 
HETATM    7  C7  UNL     1     -40.820   4.044  -1.559  1.00 20.00     0.022 C 
HETATM    8  C8  UNL     1     -42.408   4.259   0.360  1.00 20.00     0.022 C 
HETATM    9  F9  UNL     1     -40.697   8.507  -0.644  1.00 20.00    -0.208 F 
HETATM   10  F10 UNL     1     -40.303   6.218   0.551  1.00 20.00    -0.207 F 
ENDROOT
TORSDOF 0
ENDMDL
MODEL 7
REMARK VINA RESULT:      -4.5     12.413     13.744
REMARK  0 active torsions:
REMARK  status: ('A' for Active; 'I' for Inactive)
ROOT
HETATM    1  C1  UNL     1     -33.556  14.310  -4.134  1.00 20.00     0.129 C 
HETATM    2  C2  UNL     1     -34.474  14.082  -5.085  1.00 20.00     0.136 C 
HETATM    3  C3  UNL     1     -32.991  15.663  -3.837  1.00 20.00     0.073 C 
HETATM    4  C4  UNL     1     -33.295  16.694  -4.924  1.00 20.00     0.008 C 
HETATM    5  C5  UNL     1     -34.741  16.578  -5.402  1.00 20.00     0.016 C 
HETATM    6  C6  UNL     1     -35.072  15.168  -5.955  1.00 20.00     0.009 C 
HETATM    7  C7  UNL     1     -34.514  15.008  -7.381  1.00 20.00     0.022 C 
HETATM    8  C8  UNL     1     -36.601  15.005  -6.005  1.00 20.00     0.022 C 
HETATM    9  F9  UNL     1     -33.103  13.257  -3.417  1.00 20.00    -0.208 F 
HETATM   10  F10 UNL     1     -34.889  12.807  -5.270  1.00 20.00    -0.207 F 
ENDROOT
TORSDOF 0
ENDMDL
MODEL 8
REMARK VINA RESULT:      -4.3     12.356     13.538
REMARK  0 active torsions:
REMARK  status: ('A' for Active; 'I' for Inactive)
ROOT
HETATM    1  C1  UNL     1     -33.137  14.820  -3.965  1.00 20.00     0.129 C 
HETATM    2  C2  UNL     1     -33.598  15.740  -4.824  1.00 20.00     0.136 C 
HETATM    3  C3  UNL     1     -33.753  13.466  -3.794  1.00 20.00     0.073 C 
HETATM    4  C4  UNL     1     -35.138  13.351  -4.431  1.00 20.00     0.008 C 
HETATM    5  C5  UNL     1     -35.169  14.016  -5.806  1.00 20.00     0.016 C 
HETATM    6  C6  UNL     1     -34.777  15.515  -5.748  1.00 20.00     0.009 C 
HETATM    7  C7  UNL     1     -35.960  16.358  -5.236  1.00 20.00     0.022 C 
HETATM    8  C8  UNL     1     -34.417  15.986  -7.167  1.00 20.00     0.022 C 
HETATM    9  F9  UNL     1     -32.071  15.137  -3.197  1.00 20.00    -0.208 F 
HETATM   10  F10 UNL     1     -32.964  16.936  -4.867  1.00 20.00    -0.207 F 
ENDROOT
TORSDOF 0
ENDMDL
MODEL 9
REMARK VINA RESULT:      -4.3     12.286     13.027
REMARK  0 active torsions:
REMARK  status: ('A' for Active; 'I' for Inactive)
ROOT
HETATM    1  C1  UNL     1     -36.352  14.548  -3.827  1.00 20.00     0.129 C 
HETATM    2  C2  UNL     1     -35.991  15.672  -3.191  1.00 20.00     0.136 C 
HETATM    3  C3  UNL     1     -35.377  13.526  -4.320  1.00 20.00     0.073 C 
HETATM    4  C4  UNL     1     -33.934  14.030  -4.336  1.00 20.00     0.008 C 
HETATM    5  C5  UNL     1     -33.612  14.818  -3.067  1.00 20.00     0.016 C 
HETATM    6  C6  UNL     1     -34.555  16.032  -2.867  1.00 20.00     0.009 C 
HETATM    7  C7  UNL     1     -34.129  17.195  -3.782  1.00 20.00     0.022 C 
HETATM    8  C8  UNL     1     -34.458  16.496  -1.404  1.00 20.00     0.022 C 
HETATM    9  F9  UNL     1     -37.668  14.335  -4.053  1.00 20.00    -0.208 F 
HETATM   10  F10 UNL     1     -36.970  16.528  -2.816  1.00 20.00    -0.207 F 
ENDROOT
TORSDOF 0
ENDMDL
