MODEL 1
REMARK VINA RESULT:      -5.1      0.000      0.000
REMARK  2 active torsions:
REMARK  status: ('A' for Active; 'I' for Inactive)
REMARK    1  A    between atoms: C1_1  and  C6_6 
REMARK    2  A    between atoms: C2_2  and  C8_8 
ROOT
HETATM    1  C1  UNL     1     -33.647   5.960   3.343  1.00 20.00    -0.100 C 
HETATM    2  C2  UNL     1     -32.912   6.854   3.023  1.00 20.00    -0.088 C 
ENDROOT
BRANCH   1   3
HETATM    3  C6  UNL     1     -34.524   4.893   3.725  1.00 20.00     0.069 A 
HETATM    4  C5  UNL     1     -35.928   5.229   4.160  1.00 20.00     0.023 A 
HETATM    5  C7  UNL     1     -34.939   4.713   5.166  1.00 20.00    -0.002 A 
HETATM    6  C9  UNL     1     -34.456   5.601   6.262  1.00 20.00     0.011 C 
ENDBRANCH   1   3
BRANCH   2   7
HETATM    7  C8  UNL     1     -32.017   7.943   2.633  1.00 20.00     0.055 A 
HETATM    8  C3  UNL     1     -32.501   9.119   1.930  1.00 20.00    -0.003 A 
HETATM    9  C4  UNL     1     -31.758   8.260   1.237  1.00 20.00    -0.003 A 
HETATM   10  C10 UNL     1     -30.885   8.138   3.607  1.00 20.00     0.038 C 
ENDBRANCH   2   7
TORSDOF 2
ENDMDL
MODEL 2
REMARK VINA RESULT:      -4.8     10.464     11.735
REMARK  2 active torsions:
REMARK  status: ('A' for Active; 'I' for Inactive)
REMARK    1  A    between atoms: C1_1  and  C6_6 
REMARK    2  A    between atoms: C2_2  and  C8_8 
ROOT
HETATM    1  C1  UNL     1     -34.488  16.412  -1.361  1.00 20.00    -0.100 C 
HETATM    2  C2  UNL     1     -34.187  15.870  -2.389  1.00 20.00    -0.088 C 
ENDROOT
BRANCH   1   3
HETATM    3  C6  UNL     1     -34.848  17.060  -0.134  1.00 20.00     0.069 A 
HETATM    4  C5  UNL     1     -35.303  18.496  -0.178  1.00 20.00     0.023 A 
HETATM    5  C7  UNL     1     -33.981  18.153   0.446  1.00 20.00    -0.002 A 
HETATM    6  C9  UNL     1     -32.713  18.603  -0.197  1.00 20.00     0.011 C 
ENDBRANCH   1   3
BRANCH   2   7
HETATM    7  C8  UNL     1     -33.820  15.209  -3.641  1.00 20.00     0.055 A 
HETATM    8  C3  UNL     1     -34.555  14.062  -4.146  1.00 20.00    -0.003 A 
HETATM    9  C4  UNL     1     -33.332  13.839  -3.670  1.00 20.00    -0.003 A 
HETATM   10  C10 UNL     1     -33.252  16.166  -4.655  1.00 20.00     0.038 C 
ENDBRANCH   2   7
TORSDOF 2
ENDMDL
MODEL 3
REMARK VINA RESULT:      -4.6     10.595     11.856
REMARK  2 active torsions:
REMARK  status: ('A' for Active; 'I' for Inactive)
REMARK    1  A    between atoms: C1_1  and  C6_6 
REMARK    2  A    between atoms: C2_2  and  C8_8 
ROOT
HETATM    1  C1  UNL     1     -34.592  15.745  -2.278  1.00 20.00    -0.100 C 
HETATM    2  C2  UNL     1     -34.527  16.561  -1.400  1.00 20.00    -0.088 C 
ENDROOT
BRANCH   1   3
HETATM    3  C6  UNL     1     -34.670  14.772  -3.327  1.00 20.00     0.069 A 
HETATM    4  C5  UNL     1     -33.423  14.017  -3.710  1.00 20.00     0.023 A 
HETATM    5  C7  UNL     1     -34.009  15.020  -4.663  1.00 20.00    -0.002 A 
HETATM    6  C9  UNL     1     -33.268  16.276  -4.975  1.00 20.00     0.011 C 
ENDBRANCH   1   3
BRANCH   2   7
HETATM    7  C8  UNL     1     -34.447  17.555  -0.330  1.00 20.00     0.055 A 
HETATM    8  C3  UNL     1     -35.129  17.371   0.940  1.00 20.00    -0.003 A 
HETATM    9  C4  UNL     1     -35.616  18.296   0.117  1.00 20.00    -0.003 A 
HETATM   10  C10 UNL     1     -33.124  18.273  -0.305  1.00 20.00     0.038 C 
ENDBRANCH   2   7
TORSDOF 2
ENDMDL
MODEL 4
REMARK VINA RESULT:      -4.5      0.712      5.028
REMARK  2 active torsions:
REMARK  status: ('A' for Active; 'I' for Inactive)
REMARK    1  A    between atoms: C1_1  and  C6_6 
REMARK    2  A    between atoms: C2_2  and  C8_8 
ROOT
HETATM    1  C1  UNL     1     -32.798   6.338   3.463  1.00 20.00    -0.100 C 
HETATM    2  C2  UNL     1     -33.760   5.831   3.972  1.00 20.00    -0.088 C 
ENDROOT
BRANCH   1   3
HETATM    3  C6  UNL     1     -31.650   6.943   2.856  1.00 20.00     0.069 A 
HETATM    4  C5  UNL     1     -31.086   8.201   3.465  1.00 20.00     0.023 A 
HETATM    5  C7  UNL     1     -31.765   8.261   2.126  1.00 20.00    -0.002 A 
HETATM    6  C9  UNL     1     -33.058   8.989   1.977  1.00 20.00     0.011 C 
ENDBRANCH   1   3
BRANCH   2   7
HETATM    7  C8  UNL     1     -34.932   5.213   4.591  1.00 20.00     0.055 A 
HETATM    8  C3  UNL     1     -35.030   5.025   6.029  1.00 20.00    -0.003 A 
HETATM    9  C4  UNL     1     -34.849   3.937   5.286  1.00 20.00    -0.003 A 
HETATM   10  C10 UNL     1     -36.206   5.511   3.846  1.00 20.00     0.038 C 
ENDBRANCH   2   7
TORSDOF 2
ENDMDL
MODEL 5
REMARK VINA RESULT:      -4.4     10.782     11.614
REMARK  2 active torsions:
REMARK  status: ('A' for Active; 'I' for Inactive)
REMARK    1  A    between atoms: C1_1  and  C6_6 
REMARK    2  A    between atoms: C2_2  and  C8_8 
ROOT
HETATM    1  C1  UNL     1     -34.366  15.526  -2.440  1.00 20.00    -0.100 C 
HETATM    2  C2  UNL     1     -34.379  16.401  -1.618  1.00 20.00    -0.088 C 
ENDROOT
BRANCH   1   3
HETATM    3  C6  UNL     1     -34.350  14.480  -3.420  1.00 20.00     0.069 A 
HETATM    4  C5  UNL     1     -34.549  14.843  -4.869  1.00 20.00     0.023 A 
HETATM    5  C7  UNL     1     -35.615  14.077  -4.140  1.00 20.00    -0.002 A 
HETATM    6  C9  UNL     1     -36.937  14.712  -3.866  1.00 20.00     0.011 C 
ENDBRANCH   1   3
BRANCH   2   7
HETATM    7  C8  UNL     1     -34.396  17.467  -0.617  1.00 20.00     0.055 A 
HETATM    8  C3  UNL     1     -35.112  17.327   0.640  1.00 20.00    -0.003 A 
HETATM    9  C4  UNL     1     -35.622  18.164  -0.260  1.00 20.00    -0.003 A 
HETATM   10  C10 UNL     1     -33.119  18.265  -0.600  1.00 20.00     0.038 C 
ENDBRANCH   2   7
TORSDOF 2
ENDMDL
MODEL 6
REMARK VINA RESULT:      -4.4      9.052     11.271
REMARK  2 active torsions:
REMARK  status: ('A' for Active; 'I' for Inactive)
REMARK    1  A    between atoms: C1_1  and  C6_6 
REMARK    2  A    between atoms: C2_2  and  C8_8 
ROOT
HETATM    1  C1  UNL     1     -41.288   4.247  -1.584  1.00 20.00    -0.100 C 
HETATM    2  C2  UNL     1     -41.705   3.474  -2.402  1.00 20.00    -0.088 C 
ENDROOT
BRANCH   1   3
HETATM    3  C6  UNL     1     -40.789   5.169  -0.607  1.00 20.00     0.069 A 
HETATM    4  C5  UNL     1     -41.770   5.861   0.304  1.00 20.00     0.023 A 
HETATM    5  C7  UNL     1     -41.040   6.652  -0.744  1.00 20.00    -0.002 A 
HETATM    6  C9  UNL     1     -41.790   7.240  -1.891  1.00 20.00     0.011 C 
ENDBRANCH   1   3
BRANCH   2   7
HETATM    7  C8  UNL     1     -42.214   2.534  -3.400  1.00 20.00     0.055 A 
HETATM    8  C3  UNL     1     -42.129   1.096  -3.211  1.00 20.00    -0.003 A 
HETATM    9  C4  UNL     1     -41.331   1.636  -4.128  1.00 20.00    -0.003 A 
HETATM   10  C10 UNL     1     -43.417   3.064  -4.134  1.00 20.00     0.038 C 
ENDBRANCH   2   7
TORSDOF 2
ENDMDL
MODEL 7
REMARK VINA RESULT:      -4.4     10.555     11.877
REMARK  2 active torsions:
REMARK  status: ('A' for Active; 'I' for Inactive)
REMARK    1  A    between atoms: C1_1  and  C6_6 
REMARK    2  A    between atoms: C2_2  and  C8_8 
ROOT
HETATM    1  C1  UNL     1     -34.662  16.239  -1.461  1.00 20.00    -0.100 C 
HETATM    2  C2  UNL     1     -34.678  15.551  -2.444  1.00 20.00    -0.088 C 
ENDROOT
BRANCH   1   3
HETATM    3  C6  UNL     1     -34.642  17.061  -0.286  1.00 20.00     0.069 A 
HETATM    4  C5  UNL     1     -35.450  18.333  -0.278  1.00 20.00     0.023 A 
HETATM    5  C7  UNL     1     -33.949  18.403  -0.294  1.00 20.00    -0.002 A 
HETATM    6  C9  UNL     1     -33.239  18.937  -1.492  1.00 20.00     0.011 C 
ENDBRANCH   1   3
BRANCH   2   7
HETATM    7  C8  UNL     1     -34.698  14.713  -3.643  1.00 20.00     0.055 A 
HETATM    8  C3  UNL     1     -35.345  15.146  -4.870  1.00 20.00    -0.003 A 
HETATM    9  C4  UNL     1     -35.937  14.174  -4.181  1.00 20.00    -0.003 A 
HETATM   10  C10 UNL     1     -33.461  13.865  -3.777  1.00 20.00     0.038 C 
ENDBRANCH   2   7
TORSDOF 2
ENDMDL
MODEL 8
REMARK VINA RESULT:      -4.3     10.551     11.882
REMARK  2 active torsions:
REMARK  status: ('A' for Active; 'I' for Inactive)
REMARK    1  A    between atoms: C1_1  and  C6_6 
REMARK    2  A    between atoms: C2_2  and  C8_8 
ROOT
HETATM    1  C1  UNL     1     -34.563  16.170  -1.927  1.00 20.00    -0.100 C 
HETATM    2  C2  UNL     1     -34.959  15.435  -2.790  1.00 20.00    -0.088 C 
ENDROOT
BRANCH   1   3
HETATM    3  C6  UNL     1     -34.090  17.048  -0.898  1.00 20.00     0.069 A 
HETATM    4  C5  UNL     1     -34.962  17.285   0.309  1.00 20.00     0.023 A 
HETATM    5  C7  UNL     1     -34.734  18.396  -0.676  1.00 20.00    -0.002 A 
HETATM    6  C9  UNL     1     -35.863  18.898  -1.511  1.00 20.00     0.011 C 
ENDBRANCH   1   3
BRANCH   2   7
HETATM    7  C8  UNL     1     -35.441  14.539  -3.840  1.00 20.00     0.055 A 
HETATM    8  C3  UNL     1     -34.756  13.299  -4.164  1.00 20.00    -0.003 A 
HETATM    9  C4  UNL     1     -34.671  14.289  -5.048  1.00 20.00    -0.003 A 
HETATM   10  C10 UNL     1     -36.942  14.553  -3.969  1.00 20.00     0.038 C 
ENDBRANCH   2   7
TORSDOF 2
ENDMDL
MODEL 9
REMARK VINA RESULT:      -4.3     10.935     11.827
REMARK  2 active torsions:
REMARK  status: ('A' for Active; 'I' for Inactive)
REMARK    1  A    between atoms: C1_1  and  C6_6 
REMARK    2  A    between atoms: C2_2  and  C8_8 
ROOT
HETATM    1  C1  UNL     1     -34.233  17.014  -0.969  1.00 20.00    -0.100 C 
HETATM    2  C2  UNL     1     -34.157  16.341  -1.960  1.00 20.00    -0.088 C 
ENDROOT
BRANCH   1   3
HETATM    3  C6  UNL     1     -34.322  17.819   0.214  1.00 20.00     0.069 A 
HETATM    4  C5  UNL     1     -35.305  17.424   1.286  1.00 20.00     0.023 A 
HETATM    5  C7  UNL     1     -35.542  18.669   0.480  1.00 20.00    -0.002 A 
HETATM    6  C9  UNL     1     -36.697  18.740  -0.462  1.00 20.00     0.011 C 
ENDBRANCH   1   3
BRANCH   2   7
HETATM    7  C8  UNL     1     -34.066  15.520  -3.167  1.00 20.00     0.055 A 
HETATM    8  C3  UNL     1     -32.819  14.899  -3.580  1.00 20.00    -0.003 A 
HETATM    9  C4  UNL     1     -33.259  15.922  -4.308  1.00 20.00    -0.003 A 
HETATM   10  C10 UNL     1     -35.339  14.768  -3.453  1.00 20.00     0.038 C 
ENDBRANCH   2   7
TORSDOF 2
ENDMDL
