MODEL 1
REMARK VINA RESULT:      -4.9      0.000      0.000
REMARK  0 active torsions:
REMARK  status: ('A' for Active; 'I' for Inactive)
ROOT
HETATM    1  C1  UNL     1     -34.533  14.363  -5.991  1.00 20.00     0.005 C 
HETATM    2  C2  UNL     1     -35.863  15.998  -4.647  1.00 20.00     0.005 C 
HETATM    3  C3  UNL     1     -34.425  13.444  -4.764  1.00 20.00     0.011 C 
HETATM    4  C4  UNL     1     -35.752  15.079  -3.421  1.00 20.00     0.011 C 
HETATM    5  C5  UNL     1     -33.369  16.190  -4.740  1.00 20.00     0.084 C 
HETATM    6  C6  UNL     1     -34.629  15.834  -5.552  1.00 20.00    -0.009 C 
HETATM    7  C7  UNL     1     -34.438  14.281  -3.473  1.00 20.00     0.058 C 
HETATM    8  C8  UNL     1     -33.269  15.272  -3.523  1.00 20.00     0.247 C 
HETATM    9  F9  UNL     1     -32.094  14.594  -3.557  1.00 20.00    -0.206 F 
HETATM   10  F10 UNL     1     -33.247  16.015  -2.388  1.00 20.00    -0.206 F 
ENDROOT
TORSDOF 0
ENDMDL
MODEL 2
REMARK VINA RESULT:      -4.7      1.919      3.055
REMARK  0 active torsions:
REMARK  status: ('A' for Active; 'I' for Inactive)
ROOT
HETATM    1  C1  UNL     1     -34.632  15.574  -2.684  1.00 20.00     0.005 C 
HETATM    2  C2  UNL     1     -33.216  13.784  -3.707  1.00 20.00     0.005 C 
HETATM    3  C3  UNL     1     -35.813  15.141  -3.567  1.00 20.00     0.011 C 
HETATM    4  C4  UNL     1     -34.398  13.356  -4.590  1.00 20.00     0.011 C 
HETATM    5  C5  UNL     1     -33.272  16.070  -4.726  1.00 20.00     0.084 C 
HETATM    6  C6  UNL     1     -33.298  15.290  -3.397  1.00 20.00    -0.009 C 
HETATM    7  C7  UNL     1     -35.297  14.566  -4.897  1.00 20.00     0.058 C 
HETATM    8  C8  UNL     1     -34.451  15.636  -5.596  1.00 20.00     0.247 C 
HETATM    9  F9  UNL     1     -35.223  16.712  -5.891  1.00 20.00    -0.206 F 
HETATM   10  F10 UNL     1     -33.993  15.160  -6.781  1.00 20.00    -0.206 F 
ENDROOT
TORSDOF 0
ENDMDL
MODEL 3
REMARK VINA RESULT:      -4.7      1.907      2.775
REMARK  0 active torsions:
REMARK  status: ('A' for Active; 'I' for Inactive)
ROOT
HETATM    1  C1  UNL     1     -33.301  16.392  -4.500  1.00 20.00     0.005 C 
HETATM    2  C2  UNL     1     -34.476  15.741  -2.391  1.00 20.00     0.005 C 
HETATM    3  C3  UNL     1     -34.637  16.338  -5.259  1.00 20.00     0.011 C 
HETATM    4  C4  UNL     1     -35.809  15.686  -3.152  1.00 20.00     0.011 C 
HETATM    5  C5  UNL     1     -33.534  13.975  -3.894  1.00 20.00     0.084 C 
HETATM    6  C6  UNL     1     -33.308  15.392  -3.331  1.00 20.00    -0.009 C 
HETATM    7  C7  UNL     1     -35.566  15.292  -4.619  1.00 20.00     0.058 C 
HETATM    8  C8  UNL     1     -34.862  13.931  -4.648  1.00 20.00     0.247 C 
HETATM    9  F9  UNL     1     -34.646  13.552  -5.932  1.00 20.00    -0.206 F 
HETATM   10  F10 UNL     1     -35.667  12.985  -4.102  1.00 20.00    -0.206 F 
ENDROOT
TORSDOF 0
ENDMDL
MODEL 4
REMARK VINA RESULT:      -4.6      0.779      2.452
REMARK  0 active torsions:
REMARK  status: ('A' for Active; 'I' for Inactive)
ROOT
HETATM    1  C1  UNL     1     -36.414  14.444  -4.008  1.00 20.00     0.005 C 
HETATM    2  C2  UNL     1     -34.854  13.907  -5.886  1.00 20.00     0.005 C 
HETATM    3  C3  UNL     1     -35.991  15.920  -4.081  1.00 20.00     0.011 C 
HETATM    4  C4  UNL     1     -34.430  15.382  -5.955  1.00 20.00     0.011 C 
HETATM    5  C5  UNL     1     -34.053  13.778  -3.518  1.00 20.00     0.084 C 
HETATM    6  C6  UNL     1     -35.256  13.532  -4.448  1.00 20.00    -0.009 C 
HETATM    7  C7  UNL     1     -34.534  16.029  -4.563  1.00 20.00     0.058 C 
HETATM    8  C8  UNL     1     -33.640  15.246  -3.595  1.00 20.00     0.247 C 
HETATM    9  F9  UNL     1     -33.701  15.804  -2.360  1.00 20.00    -0.206 F 
HETATM   10  F10 UNL     1     -32.344  15.337  -3.989  1.00 20.00    -0.206 F 
ENDROOT
TORSDOF 0
ENDMDL
MODEL 5
REMARK VINA RESULT:      -4.6      1.415      2.543
REMARK  0 active torsions:
REMARK  status: ('A' for Active; 'I' for Inactive)
ROOT
HETATM    1  C1  UNL     1     -35.878  16.233  -4.744  1.00 20.00     0.005 C 
HETATM    2  C2  UNL     1     -33.387  16.442  -4.796  1.00 20.00     0.005 C 
HETATM    3  C3  UNL     1     -35.794  15.593  -3.350  1.00 20.00     0.011 C 
HETATM    4  C4  UNL     1     -33.305  15.800  -3.403  1.00 20.00     0.011 C 
HETATM    5  C5  UNL     1     -34.488  14.380  -5.691  1.00 20.00     0.084 C 
HETATM    6  C6  UNL     1     -34.613  15.910  -5.559  1.00 20.00    -0.009 C 
HETATM    7  C7  UNL     1     -34.473  14.818  -3.202  1.00 20.00     0.058 C 
HETATM    8  C8  UNL     1     -34.407  13.752  -4.301  1.00 20.00     0.247 C 
HETATM    9  F9  UNL     1     -35.420  12.864  -4.140  1.00 20.00    -0.206 F 
HETATM   10  F10 UNL     1     -33.257  13.043  -4.185  1.00 20.00    -0.206 F 
ENDROOT
TORSDOF 0
ENDMDL
MODEL 6
REMARK VINA RESULT:      -4.6     11.851     12.847
REMARK  0 active torsions:
REMARK  status: ('A' for Active; 'I' for Inactive)
ROOT
HETATM    1  C1  UNL     1     -43.410   6.842  -0.081  1.00 20.00     0.005 C 
HETATM    2  C2  UNL     1     -43.416   4.942  -1.706  1.00 20.00     0.005 C 
HETATM    3  C3  UNL     1     -42.273   7.511  -0.869  1.00 20.00     0.011 C 
HETATM    4  C4  UNL     1     -42.278   5.611  -2.491  1.00 20.00     0.011 C 
HETATM    5  C5  UNL     1     -41.965   4.842   0.331  1.00 20.00     0.084 C 
HETATM    6  C6  UNL     1     -43.327   5.312  -0.214  1.00 20.00    -0.009 C 
HETATM    7  C7  UNL     1     -41.396   6.440  -1.542  1.00 20.00     0.058 C 
HETATM    8  C8  UNL     1     -40.841   5.512  -0.456  1.00 20.00     0.247 C 
HETATM    9  F9  UNL     1     -40.047   6.216   0.389  1.00 20.00    -0.206 F 
HETATM   10  F10 UNL     1     -40.050   4.565  -1.020  1.00 20.00    -0.206 F 
ENDROOT
TORSDOF 0
ENDMDL
MODEL 7
REMARK VINA RESULT:      -4.6      1.422      2.621
REMARK  0 active torsions:
REMARK  status: ('A' for Active; 'I' for Inactive)
ROOT
HETATM    1  C1  UNL     1     -34.551  15.126  -5.747  1.00 20.00     0.005 C 
HETATM    2  C2  UNL     1     -33.666  13.501  -4.064  1.00 20.00     0.005 C 
HETATM    3  C3  UNL     1     -33.615  16.210  -5.190  1.00 20.00     0.011 C 
HETATM    4  C4  UNL     1     -32.733  14.588  -3.508  1.00 20.00     0.011 C 
HETATM    5  C5  UNL     1     -35.657  14.915  -3.512  1.00 20.00     0.084 C 
HETATM    6  C6  UNL     1     -34.946  14.137  -4.636  1.00 20.00    -0.009 C 
HETATM    7  C7  UNL     1     -33.369  15.977  -3.689  1.00 20.00     0.058 C 
HETATM    8  C8  UNL     1     -34.721  15.992  -2.966  1.00 20.00     0.247 C 
HETATM    9  F9  UNL     1     -35.299  17.212  -3.098  1.00 20.00    -0.206 F 
HETATM   10  F10 UNL     1     -34.532  15.803  -1.635  1.00 20.00    -0.206 F 
ENDROOT
TORSDOF 0
ENDMDL
MODEL 8
REMARK VINA RESULT:      -4.5      1.425      2.523
REMARK  0 active torsions:
REMARK  status: ('A' for Active; 'I' for Inactive)
ROOT
HETATM    1  C1  UNL     1     -33.101  16.095  -4.726  1.00 20.00     0.005 C 
HETATM    2  C2  UNL     1     -34.582  14.592  -6.068  1.00 20.00     0.005 C 
HETATM    3  C3  UNL     1     -33.034  15.035  -3.615  1.00 20.00     0.011 C 
HETATM    4  C4  UNL     1     -34.514  13.535  -4.955  1.00 20.00     0.011 C 
HETATM    5  C5  UNL     1     -35.586  16.230  -4.463  1.00 20.00     0.084 C 
HETATM    6  C6  UNL     1     -34.443  16.005  -5.472  1.00 20.00    -0.009 C 
HETATM    7  C7  UNL     1     -34.336  14.216  -3.587  1.00 20.00     0.058 C 
HETATM    8  C8  UNL     1     -35.510  15.174  -3.362  1.00 20.00     0.247 C 
HETATM    9  F9  UNL     1     -35.385  15.780  -2.155  1.00 20.00    -0.206 F 
HETATM   10  F10 UNL     1     -36.672  14.475  -3.318  1.00 20.00    -0.206 F 
ENDROOT
TORSDOF 0
ENDMDL
MODEL 9
REMARK VINA RESULT:      -4.5     11.646     12.643
REMARK  0 active torsions:
REMARK  status: ('A' for Active; 'I' for Inactive)
ROOT
HETATM    1  C1  UNL     1     -42.268   5.440   0.581  1.00 20.00     0.005 C 
HETATM    2  C2  UNL     1     -40.716   4.566  -1.174  1.00 20.00     0.005 C 
HETATM    3  C3  UNL     1     -43.415   5.451  -0.441  1.00 20.00     0.011 C 
HETATM    4  C4  UNL     1     -41.864   4.580  -2.195  1.00 20.00     0.011 C 
HETATM    5  C5  UNL     1     -40.968   7.034  -0.843  1.00 20.00     0.084 C 
HETATM    6  C6  UNL     1     -40.920   5.673  -0.124  1.00 20.00    -0.009 C 
HETATM    7  C7  UNL     1     -42.862   5.701  -1.855  1.00 20.00     0.058 C 
HETATM    8  C8  UNL     1     -42.112   7.037  -1.856  1.00 20.00     0.247 C 
HETATM    9  F9  UNL     1     -42.972   8.047  -1.572  1.00 20.00    -0.206 F 
HETATM   10  F10 UNL     1     -41.624   7.291  -3.096  1.00 20.00    -0.206 F 
ENDROOT
TORSDOF 0
ENDMDL
