MODEL 1
REMARK VINA RESULT:      -6.1      0.000      0.000
REMARK  1 active torsions:
REMARK  status: ('A' for Active; 'I' for Inactive)
REMARK    1  A    between atoms: C3_3  and  C6_6 
ROOT
HETATM    1  C1  UNL     1     -32.166   9.045   0.998  1.00 20.00     0.013 C 
HETATM    2  C2  UNL     1     -32.123   8.298   1.937  1.00 20.00    -0.107 C 
HETATM    3  C5  UNL     1     -32.214   5.922   2.782  1.00 20.00     0.033 A 
HETATM    4  C6  UNL     1     -33.361   6.669   3.407  1.00 20.00     0.030 A 
HETATM    5  C7  UNL     1     -32.071   7.400   3.065  1.00 20.00     0.027 A 
HETATM    6  C10 UNL     1     -31.112   7.815   4.150  1.00 20.00     0.030 C 
ENDROOT
BRANCH   4   7
HETATM    7  C3  UNL     1     -33.718   6.386   4.790  1.00 20.00    -0.018 C 
HETATM    8  C4  UNL     1     -34.546   5.427   5.248  1.00 20.00    -0.091 C 
HETATM    9  C8  UNL     1     -34.811   5.266   6.718  1.00 20.00     0.042 C 
HETATM   10  C9  UNL     1     -35.265   4.452   4.361  1.00 20.00     0.042 C 
ENDBRANCH   4   7
TORSDOF 1
ENDMDL
MODEL 2
REMARK VINA RESULT:      -4.8      1.145      4.794
REMARK  1 active torsions:
REMARK  status: ('A' for Active; 'I' for Inactive)
REMARK    1  A    between atoms: C3_3  and  C6_6 
ROOT
HETATM    1  C1  UNL     1     -34.120   6.507   6.200  1.00 20.00     0.013 C 
HETATM    2  C2  UNL     1     -33.738   6.364   5.071  1.00 20.00    -0.107 C 
HETATM    3  C5  UNL     1     -31.842   5.762   3.519  1.00 20.00     0.033 A 
HETATM    4  C6  UNL     1     -32.234   7.185   3.224  1.00 20.00     0.030 A 
HETATM    5  C7  UNL     1     -33.279   6.192   3.715  1.00 20.00     0.027 A 
HETATM    6  C10 UNL     1     -34.311   5.633   2.771  1.00 20.00     0.030 C 
ENDROOT
BRANCH   4   7
HETATM    7  C3  UNL     1     -32.231   7.647   1.842  1.00 20.00    -0.018 C 
HETATM    8  C4  UNL     1     -32.436   8.900   1.393  1.00 20.00    -0.091 C 
HETATM    9  C8  UNL     1     -32.399   9.214  -0.077  1.00 20.00     0.042 C 
HETATM   10  C9  UNL     1     -32.713  10.074   2.287  1.00 20.00     0.042 C 
ENDBRANCH   4   7
TORSDOF 1
ENDMDL
MODEL 3
REMARK VINA RESULT:      -4.6     10.719     12.048
REMARK  1 active torsions:
REMARK  status: ('A' for Active; 'I' for Inactive)
REMARK    1  A    between atoms: C3_3  and  C6_6 
ROOT
HETATM    1  C1  UNL     1     -34.352  14.963  -7.144  1.00 20.00     0.013 C 
HETATM    2  C2  UNL     1     -34.535  14.735  -5.980  1.00 20.00    -0.107 C 
HETATM    3  C5  UNL     1     -36.162  14.116  -4.154  1.00 20.00     0.033 A 
HETATM    4  C6  UNL     1     -35.599  15.471  -3.819  1.00 20.00     0.030 A 
HETATM    5  C7  UNL     1     -34.753  14.461  -4.581  1.00 20.00     0.027 A 
HETATM    6  C10 UNL     1     -33.620  13.739  -3.901  1.00 20.00     0.030 C 
ENDROOT
BRANCH   4   7
HETATM    7  C3  UNL     1     -35.311  15.791  -2.427  1.00 20.00    -0.018 C 
HETATM    8  C4  UNL     1     -34.592  16.826  -1.953  1.00 20.00    -0.091 C 
HETATM    9  C8  UNL     1     -34.385  17.018  -0.476  1.00 20.00     0.042 C 
HETATM   10  C9  UNL     1     -33.943  17.863  -2.825  1.00 20.00     0.042 C 
ENDBRANCH   4   7
TORSDOF 1
ENDMDL
MODEL 4
REMARK VINA RESULT:      -4.6     10.713     11.763
REMARK  1 active torsions:
REMARK  status: ('A' for Active; 'I' for Inactive)
REMARK    1  A    between atoms: C3_3  and  C6_6 
ROOT
HETATM    1  C1  UNL     1     -33.687  13.453  -4.143  1.00 20.00     0.013 C 
HETATM    2  C2  UNL     1     -34.202  14.410  -3.636  1.00 20.00    -0.107 C 
HETATM    3  C5  UNL     1     -34.124  16.893  -3.190  1.00 20.00     0.033 A 
HETATM    4  C6  UNL     1     -34.076  16.192  -1.859  1.00 20.00     0.030 A 
HETATM    5  C7  UNL     1     -34.822  15.561  -3.027  1.00 20.00     0.027 A 
HETATM    6  C10 UNL     1     -36.328  15.553  -3.061  1.00 20.00     0.030 C 
ENDROOT
BRANCH   4   7
HETATM    7  C3  UNL     1     -34.797  16.767  -0.732  1.00 20.00    -0.018 C 
HETATM    8  C4  UNL     1     -34.377  17.731   0.109  1.00 20.00    -0.091 C 
HETATM    9  C8  UNL     1     -35.249  18.218   1.232  1.00 20.00     0.042 C 
HETATM   10  C9  UNL     1     -33.034  18.398   0.012  1.00 20.00     0.042 C 
ENDBRANCH   4   7
TORSDOF 1
ENDMDL
MODEL 5
REMARK VINA RESULT:      -4.5     11.286     12.244
REMARK  1 active torsions:
REMARK  status: ('A' for Active; 'I' for Inactive)
REMARK    1  A    between atoms: C3_3  and  C6_6 
ROOT
HETATM    1  C1  UNL     1     -31.837  18.911   0.326  1.00 20.00     0.013 C 
HETATM    2  C2  UNL     1     -32.887  18.566  -0.143  1.00 20.00    -0.107 C 
HETATM    3  C5  UNL     1     -35.103  17.412   0.202  1.00 20.00     0.033 A 
HETATM    4  C6  UNL     1     -34.359  16.653  -0.863  1.00 20.00     0.030 A 
HETATM    5  C7  UNL     1     -34.148  18.152  -0.707  1.00 20.00     0.027 A 
HETATM    6  C10 UNL     1     -34.737  19.119  -1.701  1.00 20.00     0.030 C 
ENDROOT
BRANCH   4   7
HETATM    7  C3  UNL     1     -35.100  16.115  -1.996  1.00 20.00    -0.018 C 
HETATM    8  C4  UNL     1     -34.601  15.565  -3.119  1.00 20.00    -0.091 C 
HETATM    9  C8  UNL     1     -35.509  15.053  -4.203  1.00 20.00     0.042 C 
HETATM   10  C9  UNL     1     -33.133  15.411  -3.394  1.00 20.00     0.042 C 
ENDBRANCH   4   7
TORSDOF 1
ENDMDL
MODEL 6
REMARK VINA RESULT:      -4.5     10.597     13.019
REMARK  1 active torsions:
REMARK  status: ('A' for Active; 'I' for Inactive)
REMARK    1  A    between atoms: C3_3  and  C6_6 
ROOT
HETATM    1  C1  UNL     1     -34.419  16.639  -0.961  1.00 20.00     0.013 C 
HETATM    2  C2  UNL     1     -34.684  15.998  -1.940  1.00 20.00    -0.107 C 
HETATM    3  C5  UNL     1     -34.149  14.013  -3.403  1.00 20.00     0.033 A 
HETATM    4  C6  UNL     1     -33.977  15.252  -4.240  1.00 20.00     0.030 A 
HETATM    5  C7  UNL     1     -35.004  15.228  -3.117  1.00 20.00     0.027 A 
HETATM    6  C10 UNL     1     -36.476  15.136  -3.423  1.00 20.00     0.030 C 
ENDROOT
BRANCH   4   7
HETATM    7  C3  UNL     1     -34.392  15.226  -5.636  1.00 20.00    -0.018 C 
HETATM    8  C4  UNL     1     -34.445  16.258  -6.499  1.00 20.00    -0.091 C 
HETATM    9  C8  UNL     1     -34.900  16.063  -7.918  1.00 20.00     0.042 C 
HETATM   10  C9  UNL     1     -34.065  17.667  -6.141  1.00 20.00     0.042 C 
ENDBRANCH   4   7
TORSDOF 1
ENDMDL
MODEL 7
REMARK VINA RESULT:      -4.5     11.212     11.991
REMARK  1 active torsions:
REMARK  status: ('A' for Active; 'I' for Inactive)
REMARK    1  A    between atoms: C3_3  and  C6_6 
ROOT
HETATM    1  C1  UNL     1     -35.204  17.759   2.568  1.00 20.00     0.013 C 
HETATM    2  C2  UNL     1     -34.828  17.811   1.430  1.00 20.00    -0.107 C 
HETATM    3  C5  UNL     1     -35.417  18.142  -1.002  1.00 20.00     0.033 A 
HETATM    4  C6  UNL     1     -34.846  16.757  -0.858  1.00 20.00     0.030 A 
HETATM    5  C7  UNL     1     -34.375  17.874   0.062  1.00 20.00     0.027 A 
HETATM    6  C10 UNL     1     -33.016  18.497  -0.119  1.00 20.00     0.030 C 
ENDROOT
BRANCH   4   7
HETATM    7  C3  UNL     1     -33.982  16.237  -1.909  1.00 20.00    -0.018 C 
HETATM    8  C4  UNL     1     -34.339  15.510  -2.985  1.00 20.00    -0.091 C 
HETATM    9  C8  UNL     1     -33.317  15.046  -3.984  1.00 20.00     0.042 C 
HETATM   10  C9  UNL     1     -35.753  15.102  -3.286  1.00 20.00     0.042 C 
ENDBRANCH   4   7
TORSDOF 1
ENDMDL
MODEL 8
REMARK VINA RESULT:      -4.5     11.099     12.149
REMARK  1 active torsions:
REMARK  status: ('A' for Active; 'I' for Inactive)
REMARK    1  A    between atoms: C3_3  and  C6_6 
ROOT
HETATM    1  C1  UNL     1     -37.906  14.823  -3.739  1.00 20.00     0.013 C 
HETATM    2  C2  UNL     1     -36.790  15.261  -3.677  1.00 20.00    -0.107 C 
HETATM    3  C5  UNL     1     -34.333  14.804  -3.325  1.00 20.00     0.033 A 
HETATM    4  C6  UNL     1     -34.780  15.742  -2.237  1.00 20.00     0.030 A 
HETATM    5  C7  UNL     1     -35.449  15.786  -3.603  1.00 20.00     0.027 A 
HETATM    6  C10 UNL     1     -35.165  16.913  -4.562  1.00 20.00     0.030 C 
ENDROOT
BRANCH   4   7
HETATM    7  C3  UNL     1     -33.881  16.805  -1.808  1.00 20.00    -0.018 C 
HETATM    8  C4  UNL     1     -33.941  17.525  -0.671  1.00 20.00    -0.091 C 
HETATM    9  C8  UNL     1     -32.928  18.596  -0.375  1.00 20.00     0.042 C 
HETATM   10  C9  UNL     1     -34.993  17.336   0.384  1.00 20.00     0.042 C 
ENDBRANCH   4   7
TORSDOF 1
ENDMDL
MODEL 9
REMARK VINA RESULT:      -4.5     10.658     12.395
REMARK  1 active torsions:
REMARK  status: ('A' for Active; 'I' for Inactive)
REMARK    1  A    between atoms: C3_3  and  C6_6 
ROOT
HETATM    1  C1  UNL     1     -32.427  18.779   0.226  1.00 20.00     0.013 C 
HETATM    2  C2  UNL     1     -33.186  18.309  -0.576  1.00 20.00    -0.107 C 
HETATM    3  C5  UNL     1     -34.690  16.390  -1.224  1.00 20.00     0.033 A 
HETATM    4  C6  UNL     1     -33.619  16.500  -2.275  1.00 20.00     0.030 A 
HETATM    5  C7  UNL     1     -34.098  17.744  -1.541  1.00 20.00     0.027 A 
HETATM    6  C10 UNL     1     -34.982  18.751  -2.229  1.00 20.00     0.030 C 
ENDROOT
BRANCH   4   7
HETATM    7  C3  UNL     1     -33.972  16.271  -3.670  1.00 20.00    -0.018 C 
HETATM    8  C4  UNL     1     -33.919  15.112  -4.353  1.00 20.00    -0.091 C 
HETATM    9  C8  UNL     1     -34.320  15.043  -5.800  1.00 20.00     0.042 C 
HETATM   10  C9  UNL     1     -33.467  13.810  -3.756  1.00 20.00     0.042 C 
ENDBRANCH   4   7
TORSDOF 1
ENDMDL
