MODEL 1
REMARK VINA RESULT:      -5.2      0.000      0.000
REMARK  0 active torsions:
REMARK  status: ('A' for Active; 'I' for Inactive)
ROOT
HETATM    1  C1  UNL     1     -33.721   7.125   6.761  1.00 20.00     0.013 C 
HETATM    2  C2  UNL     1     -34.085   6.292   5.976  1.00 20.00    -0.106 C 
HETATM    3  C3  UNL     1     -35.320   5.778   3.845  1.00 20.00     0.041 A 
HETATM    4  C4  UNL     1     -33.926   5.256   3.641  1.00 20.00     0.079 A 
HETATM    5  C5  UNL     1     -34.521   5.293   5.034  1.00 20.00     0.033 A 
HETATM    6  C6  UNL     1     -34.917   3.981   5.656  1.00 20.00     0.030 C 
HETATM    7 BR7  UNL     1     -32.576   6.496   3.099  1.00 20.00    -0.089 Br
ENDROOT
TORSDOF 0
ENDMDL
MODEL 2
REMARK VINA RESULT:      -4.3      1.801      2.806
REMARK  0 active torsions:
REMARK  status: ('A' for Active; 'I' for Inactive)
ROOT
HETATM    1  C1  UNL     1     -32.310   6.485   3.190  1.00 20.00     0.013 C 
HETATM    2  C2  UNL     1     -33.264   6.090   3.804  1.00 20.00    -0.106 C 
HETATM    3  C3  UNL     1     -34.139   4.651   5.674  1.00 20.00     0.041 A 
HETATM    4  C4  UNL     1     -34.610   6.044   5.981  1.00 20.00     0.079 A 
HETATM    5  C5  UNL     1     -34.407   5.617   4.542  1.00 20.00     0.033 A 
HETATM    6  C6  UNL     1     -35.637   5.390   3.704  1.00 20.00     0.030 C 
HETATM    7 BR7  UNL     1     -33.389   7.231   6.850  1.00 20.00    -0.089 Br
ENDROOT
TORSDOF 0
ENDMDL
MODEL 3
REMARK VINA RESULT:      -3.7     12.046     12.789
REMARK  0 active torsions:
REMARK  status: ('A' for Active; 'I' for Inactive)
ROOT
HETATM    1  C1  UNL     1     -34.676  16.457  -1.195  1.00 20.00     0.013 C 
HETATM    2  C2  UNL     1     -34.460  15.933  -2.254  1.00 20.00    -0.106 C 
HETATM    3  C3  UNL     1     -34.446  13.814  -3.611  1.00 20.00     0.041 A 
HETATM    4  C4  UNL     1     -35.352  14.760  -4.347  1.00 20.00     0.079 A 
HETATM    5  C5  UNL     1     -34.202  15.304  -3.524  1.00 20.00     0.033 A 
HETATM    6  C6  UNL     1     -33.019  15.865  -4.267  1.00 20.00     0.030 C 
HETATM    7 BR7  UNL     1     -37.162  14.910  -3.753  1.00 20.00    -0.089 Br
ENDROOT
TORSDOF 0
ENDMDL
MODEL 4
REMARK VINA RESULT:      -3.5     12.559     13.267
REMARK  0 active torsions:
REMARK  status: ('A' for Active; 'I' for Inactive)
ROOT
HETATM    1  C1  UNL     1     -34.575  16.308  -1.527  1.00 20.00     0.013 C 
HETATM    2  C2  UNL     1     -34.332  15.772  -2.573  1.00 20.00    -0.106 C 
HETATM    3  C3  UNL     1     -35.058  15.297  -4.936  1.00 20.00     0.041 A 
HETATM    4  C4  UNL     1     -33.717  15.964  -5.051  1.00 20.00     0.079 A 
HETATM    5  C5  UNL     1     -34.041  15.128  -3.829  1.00 20.00     0.033 A 
HETATM    6  C6  UNL     1     -33.361  13.792  -3.700  1.00 20.00     0.030 C 
HETATM    7 BR7  UNL     1     -33.656  17.872  -4.966  1.00 20.00    -0.089 Br
ENDROOT
TORSDOF 0
ENDMDL
MODEL 5
REMARK VINA RESULT:      -3.5     12.445     12.891
REMARK  0 active torsions:
REMARK  status: ('A' for Active; 'I' for Inactive)
ROOT
HETATM    1  C1  UNL     1     -34.571  16.377  -1.557  1.00 20.00     0.013 C 
HETATM    2  C2  UNL     1     -34.615  15.636  -2.501  1.00 20.00    -0.106 C 
HETATM    3  C3  UNL     1     -36.033  14.233  -4.035  1.00 20.00     0.041 A 
HETATM    4  C4  UNL     1     -35.313  15.205  -4.926  1.00 20.00     0.079 A 
HETATM    5  C5  UNL     1     -34.669  14.747  -3.633  1.00 20.00     0.033 A 
HETATM    6  C6  UNL     1     -33.505  13.798  -3.736  1.00 20.00     0.030 C 
HETATM    7 BR7  UNL     1     -36.044  16.962  -5.108  1.00 20.00    -0.089 Br
ENDROOT
TORSDOF 0
ENDMDL
MODEL 6
REMARK VINA RESULT:      -3.5     12.207     12.934
REMARK  0 active torsions:
REMARK  status: ('A' for Active; 'I' for Inactive)
ROOT
HETATM    1  C1  UNL     1     -37.587  14.774  -3.803  1.00 20.00     0.013 C 
HETATM    2  C2  UNL     1     -36.404  14.871  -3.625  1.00 20.00    -0.106 C 
HETATM    3  C3  UNL     1     -34.149  13.755  -3.679  1.00 20.00     0.041 A 
HETATM    4  C4  UNL     1     -34.034  14.944  -4.591  1.00 20.00     0.079 A 
HETATM    5  C5  UNL     1     -34.984  14.988  -3.411  1.00 20.00     0.033 A 
HETATM    6  C6  UNL     1     -34.599  15.854  -2.242  1.00 20.00     0.030 C 
HETATM    7 BR7  UNL     1     -34.677  14.763  -6.382  1.00 20.00    -0.089 Br
ENDROOT
TORSDOF 0
ENDMDL
MODEL 7
REMARK VINA RESULT:      -3.5      9.531     10.023
REMARK  0 active torsions:
REMARK  status: ('A' for Active; 'I' for Inactive)
ROOT
HETATM    1  C1  UNL     1     -43.338   5.402   1.273  1.00 20.00     0.013 C 
HETATM    2  C2  UNL     1     -42.572   5.565   0.363  1.00 20.00    -0.106 C 
HETATM    3  C3  UNL     1     -40.714   4.615  -1.044  1.00 20.00     0.041 A 
HETATM    4  C4  UNL     1     -41.815   4.961  -2.007  1.00 20.00     0.079 A 
HETATM    5  C5  UNL     1     -41.653   5.759  -0.729  1.00 20.00     0.033 A 
HETATM    6  C6  UNL     1     -41.115   7.160  -0.848  1.00 20.00     0.030 C 
HETATM    7 BR7  UNL     1     -43.241   3.706  -2.224  1.00 20.00    -0.089 Br
ENDROOT
TORSDOF 0
ENDMDL
MODEL 8
REMARK VINA RESULT:      -3.4     12.764     13.215
REMARK  0 active torsions:
REMARK  status: ('A' for Active; 'I' for Inactive)
ROOT
HETATM    1  C1  UNL     1     -36.848  14.752  -3.783  1.00 20.00     0.013 C 
HETATM    2  C2  UNL     1     -35.777  15.160  -3.428  1.00 20.00    -0.106 C 
HETATM    3  C3  UNL     1     -33.278  14.856  -3.435  1.00 20.00     0.041 A 
HETATM    4  C4  UNL     1     -33.522  16.219  -4.020  1.00 20.00     0.079 A 
HETATM    5  C5  UNL     1     -34.490  15.651  -3.002  1.00 20.00     0.033 A 
HETATM    6  C6  UNL     1     -34.478  16.250  -1.622  1.00 20.00     0.030 C 
HETATM    7 BR7  UNL     1     -33.975  16.329  -5.874  1.00 20.00    -0.089 Br
ENDROOT
TORSDOF 0
ENDMDL
MODEL 9
REMARK VINA RESULT:      -3.4      9.013     10.120
REMARK  0 active torsions:
REMARK  status: ('A' for Active; 'I' for Inactive)
ROOT
HETATM    1  C1  UNL     1     -41.615   3.401  -2.597  1.00 20.00     0.013 C 
HETATM    2  C2  UNL     1     -41.722   4.184  -1.693  1.00 20.00    -0.106 C 
HETATM    3  C3  UNL     1     -40.723   6.115  -0.426  1.00 20.00     0.041 A 
HETATM    4  C4  UNL     1     -42.065   6.594  -0.902  1.00 20.00     0.079 A 
HETATM    5  C5  UNL     1     -41.850   5.123  -0.609  1.00 20.00     0.033 A 
HETATM    6  C6  UNL     1     -42.496   4.561   0.629  1.00 20.00     0.030 C 
HETATM    7 BR7  UNL     1     -42.198   7.244  -2.695  1.00 20.00    -0.089 Br
ENDROOT
TORSDOF 0
ENDMDL
