MODEL 1
REMARK VINA RESULT:      -4.7      0.000      0.000
REMARK  1 active torsions:
REMARK  status: ('A' for Active; 'I' for Inactive)
REMARK    1  A    between atoms: C8_8  and  C11_11 
ROOT
HETATM    1  C1  UNL     1     -36.092  14.784  -4.160  1.00 20.00    -0.084 C 
HETATM    2  C2  UNL     1     -37.366  14.836  -3.760  1.00 20.00     0.014 C 
HETATM    3  C3  UNL     1     -35.587  15.060  -5.554  1.00 20.00     0.038 C 
HETATM    4  C4  UNL     1     -34.093  13.618  -4.383  1.00 20.00     0.014 C 
HETATM    5  C5  UNL     1     -33.469  15.924  -4.491  1.00 20.00     0.010 C 
HETATM    6  C6  UNL     1     -34.902  14.372  -3.322  1.00 20.00     0.018 C 
HETATM    7  C7  UNL     1     -34.079  14.800  -5.357  1.00 20.00    -0.010 C 
HETATM    8  C8  UNL     1     -33.986  15.592  -3.071  1.00 20.00    -0.003 C 
ENDROOT
BRANCH   8   9
HETATM    9  C11 UNL     1     -34.645  16.773  -2.373  1.00 20.00    -0.018 C 
HETATM   10  C9  UNL     1     -34.548  16.629  -0.853  1.00 20.00     0.010 C 
HETATM   11  C10 UNL     1     -34.015  18.090  -2.824  1.00 20.00     0.010 C 
ENDBRANCH   8   9
TORSDOF 1
ENDMDL
MODEL 2
REMARK VINA RESULT:      -4.7      1.329      2.958
REMARK  1 active torsions:
REMARK  status: ('A' for Active; 'I' for Inactive)
REMARK    1  A    between atoms: C8_8  and  C11_11 
ROOT
HETATM    1  C1  UNL     1     -34.195  15.164  -5.611  1.00 20.00    -0.084 C 
HETATM    2  C2  UNL     1     -34.438  15.333  -6.914  1.00 20.00     0.014 C 
HETATM    3  C3  UNL     1     -33.258  15.992  -4.768  1.00 20.00     0.038 C 
HETATM    4  C4  UNL     1     -33.527  13.812  -3.842  1.00 20.00     0.014 C 
HETATM    5  C5  UNL     1     -34.807  15.557  -2.825  1.00 20.00     0.010 C 
HETATM    6  C6  UNL     1     -34.751  14.070  -4.726  1.00 20.00     0.018 C 
HETATM    7  C7  UNL     1     -33.404  15.276  -3.410  1.00 20.00    -0.010 C 
HETATM    8  C8  UNL     1     -35.733  14.673  -3.695  1.00 20.00    -0.003 C 
ENDROOT
BRANCH   8   9
HETATM    9  C11 UNL     1     -36.916  15.428  -4.282  1.00 20.00    -0.018 C 
HETATM   10  C9  UNL     1     -38.230  14.711  -3.964  1.00 20.00     0.010 C 
HETATM   11  C10 UNL     1     -36.955  16.865  -3.763  1.00 20.00     0.010 C 
ENDBRANCH   8   9
TORSDOF 1
ENDMDL
MODEL 3
REMARK VINA RESULT:      -4.5      1.389      2.729
REMARK  1 active torsions:
REMARK  status: ('A' for Active; 'I' for Inactive)
REMARK    1  A    between atoms: C8_8  and  C11_11 
ROOT
HETATM    1  C1  UNL     1     -34.640  15.550  -2.930  1.00 20.00    -0.084 C 
HETATM    2  C2  UNL     1     -35.058  16.377  -1.967  1.00 20.00     0.014 C 
HETATM    3  C3  UNL     1     -35.379  14.339  -3.443  1.00 20.00     0.038 C 
HETATM    4  C4  UNL     1     -33.032  14.112  -3.799  1.00 20.00     0.014 C 
HETATM    5  C5  UNL     1     -34.326  14.794  -5.690  1.00 20.00     0.010 C 
HETATM    6  C6  UNL     1     -33.314  15.612  -3.657  1.00 20.00     0.018 C 
HETATM    7  C7  UNL     1     -34.368  13.823  -4.488  1.00 20.00    -0.010 C 
HETATM    8  C8  UNL     1     -33.541  16.006  -5.135  1.00 20.00    -0.003 C 
ENDROOT
BRANCH   8   9
HETATM    9  C11 UNL     1     -34.244  17.337  -5.357  1.00 20.00    -0.018 C 
HETATM   10  C9  UNL     1     -33.430  18.486  -4.759  1.00 20.00     0.010 C 
HETATM   11  C10 UNL     1     -34.490  17.578  -6.846  1.00 20.00     0.010 C 
ENDBRANCH   8   9
TORSDOF 1
ENDMDL
MODEL 4
REMARK VINA RESULT:      -4.4      1.488      2.831
REMARK  1 active torsions:
REMARK  status: ('A' for Active; 'I' for Inactive)
REMARK    1  A    between atoms: C8_8  and  C11_11 
ROOT
HETATM    1  C1  UNL     1     -34.646  16.523  -6.339  1.00 20.00    -0.084 C 
HETATM    2  C2  UNL     1     -34.144  17.753  -6.491  1.00 20.00     0.014 C 
HETATM    3  C3  UNL     1     -34.286  15.310  -7.158  1.00 20.00     0.038 C 
HETATM    4  C4  UNL     1     -36.472  15.088  -6.233  1.00 20.00     0.014 C 
HETATM    5  C5  UNL     1     -34.719  13.929  -5.092  1.00 20.00     0.010 C 
HETATM    6  C6  UNL     1     -35.726  16.106  -5.364  1.00 20.00     0.018 C 
HETATM    7  C7  UNL     1     -35.216  14.259  -6.517  1.00 20.00    -0.010 C 
HETATM    8  C8  UNL     1     -35.129  15.181  -4.279  1.00 20.00    -0.003 C 
ENDROOT
BRANCH   8   9
HETATM    9  C11 UNL     1     -33.989  15.776  -3.466  1.00 20.00    -0.018 C 
HETATM   10  C9  UNL     1     -34.422  16.014  -2.018  1.00 20.00     0.010 C 
HETATM   11  C10 UNL     1     -32.759  14.871  -3.512  1.00 20.00     0.010 C 
ENDBRANCH   8   9
TORSDOF 1
ENDMDL
MODEL 5
REMARK VINA RESULT:      -4.4      1.094      3.317
REMARK  1 active torsions:
REMARK  status: ('A' for Active; 'I' for Inactive)
REMARK    1  A    between atoms: C8_8  and  C11_11 
ROOT
HETATM    1  C1  UNL     1     -33.784  14.852  -3.597  1.00 20.00    -0.084 C 
HETATM    2  C2  UNL     1     -33.509  13.566  -3.833  1.00 20.00     0.014 C 
HETATM    3  C3  UNL     1     -33.139  16.037  -4.271  1.00 20.00     0.038 C 
HETATM    4  C4  UNL     1     -33.972  16.638  -2.120  1.00 20.00     0.014 C 
HETATM    5  C5  UNL     1     -35.335  17.247  -3.988  1.00 20.00     0.010 C 
HETATM    6  C6  UNL     1     -34.747  15.391  -2.561  1.00 20.00     0.018 C 
HETATM    7  C7  UNL     1     -33.856  17.192  -3.542  1.00 20.00    -0.010 C 
HETATM    8  C8  UNL     1     -35.966  16.037  -3.258  1.00 20.00    -0.003 C 
ENDROOT
BRANCH   8   9
HETATM    9  C11 UNL     1     -36.757  15.118  -4.177  1.00 20.00    -0.018 C 
HETATM   10  C9  UNL     1     -38.189  14.943  -3.668  1.00 20.00     0.010 C 
HETATM   11  C10 UNL     1     -36.763  15.657  -5.608  1.00 20.00     0.010 C 
ENDBRANCH   8   9
TORSDOF 1
ENDMDL
MODEL 6
REMARK VINA RESULT:      -4.4      1.232      3.612
REMARK  1 active torsions:
REMARK  status: ('A' for Active; 'I' for Inactive)
REMARK    1  A    between atoms: C8_8  and  C11_11 
ROOT
HETATM    1  C1  UNL     1     -35.820  16.502  -3.259  1.00 20.00    -0.084 C 
HETATM    2  C2  UNL     1     -37.148  16.498  -3.400  1.00 20.00     0.014 C 
HETATM    3  C3  UNL     1     -35.055  16.049  -2.041  1.00 20.00     0.038 C 
HETATM    4  C4  UNL     1     -33.790  17.636  -3.293  1.00 20.00     0.014 C 
HETATM    5  C5  UNL     1     -33.209  15.337  -3.607  1.00 20.00     0.010 C 
HETATM    6  C6  UNL     1     -34.810  17.023  -4.259  1.00 20.00     0.018 C 
HETATM    7  C7  UNL     1     -33.610  16.338  -2.499  1.00 20.00    -0.010 C 
HETATM    8  C8  UNL     1     -33.990  15.848  -4.841  1.00 20.00    -0.003 C 
ENDROOT
BRANCH   8   9
HETATM    9  C11 UNL     1     -34.801  14.766  -5.537  1.00 20.00    -0.018 C 
HETATM   10  C9  UNL     1     -34.531  14.769  -7.043  1.00 20.00     0.010 C 
HETATM   11  C10 UNL     1     -34.492  13.391  -4.945  1.00 20.00     0.010 C 
ENDBRANCH   8   9
TORSDOF 1
ENDMDL
MODEL 7
REMARK VINA RESULT:      -4.3      1.423      3.634
REMARK  1 active torsions:
REMARK  status: ('A' for Active; 'I' for Inactive)
REMARK    1  A    between atoms: C8_8  and  C11_11 
ROOT
HETATM    1  C1  UNL     1     -34.614  17.139  -1.819  1.00 20.00    -0.084 C 
HETATM    2  C2  UNL     1     -34.683  16.717  -0.553  1.00 20.00     0.014 C 
HETATM    3  C3  UNL     1     -33.630  18.141  -2.368  1.00 20.00     0.038 C 
HETATM    4  C4  UNL     1     -35.618  18.098  -3.684  1.00 20.00     0.014 C 
HETATM    5  C5  UNL     1     -33.750  16.885  -4.553  1.00 20.00     0.010 C 
HETATM    6  C6  UNL     1     -35.547  16.756  -2.947  1.00 20.00     0.018 C 
HETATM    7  C7  UNL     1     -34.099  18.209  -3.837  1.00 20.00    -0.010 C 
HETATM    8  C8  UNL     1     -34.793  15.894  -3.985  1.00 20.00    -0.003 C 
ENDROOT
BRANCH   8   9
HETATM    9  C11 UNL     1     -34.180  14.609  -3.448  1.00 20.00    -0.018 C 
HETATM   10  C9  UNL     1     -34.797  13.386  -4.129  1.00 20.00     0.010 C 
HETATM   11  C10 UNL     1     -32.663  14.613  -3.634  1.00 20.00     0.010 C 
ENDBRANCH   8   9
TORSDOF 1
ENDMDL
MODEL 8
REMARK VINA RESULT:      -4.3      1.458      3.754
REMARK  1 active torsions:
REMARK  status: ('A' for Active; 'I' for Inactive)
REMARK    1  A    between atoms: C8_8  and  C11_11 
ROOT
HETATM    1  C1  UNL     1     -34.518  16.531  -3.728  1.00 20.00    -0.084 C 
HETATM    2  C2  UNL     1     -34.913  17.804  -3.643  1.00 20.00     0.014 C 
HETATM    3  C3  UNL     1     -34.991  15.394  -2.858  1.00 20.00     0.038 C 
HETATM    4  C4  UNL     1     -32.821  14.941  -3.736  1.00 20.00     0.014 C 
HETATM    5  C5  UNL     1     -34.653  13.882  -4.850  1.00 20.00     0.010 C 
HETATM    6  C6  UNL     1     -33.466  15.976  -4.664  1.00 20.00     0.018 C 
HETATM    7  C7  UNL     1     -34.147  14.237  -3.433  1.00 20.00    -0.010 C 
HETATM    8  C8  UNL     1     -34.128  15.053  -5.714  1.00 20.00    -0.003 C 
ENDROOT
BRANCH   8   9
HETATM    9  C11 UNL     1     -35.202  15.704  -6.573  1.00 20.00    -0.018 C 
HETATM   10  C9  UNL     1     -34.596  16.778  -7.478  1.00 20.00     0.010 C 
HETATM   11  C10 UNL     1     -35.936  14.656  -7.409  1.00 20.00     0.010 C 
ENDBRANCH   8   9
TORSDOF 1
ENDMDL
MODEL 9
REMARK VINA RESULT:      -4.3      1.555      3.154
REMARK  1 active torsions:
REMARK  status: ('A' for Active; 'I' for Inactive)
REMARK    1  A    between atoms: C8_8  and  C11_11 
ROOT
HETATM    1  C1  UNL     1     -34.679  14.427  -3.744  1.00 20.00    -0.084 C 
HETATM    2  C2  UNL     1     -35.063  13.271  -4.293  1.00 20.00     0.014 C 
HETATM    3  C3  UNL     1     -33.258  14.847  -3.461  1.00 20.00     0.038 C 
HETATM    4  C4  UNL     1     -34.777  15.965  -2.003  1.00 20.00     0.014 C 
HETATM    5  C5  UNL     1     -34.000  17.222  -3.883  1.00 20.00     0.010 C 
HETATM    6  C6  UNL     1     -35.585  15.523  -3.228  1.00 20.00     0.018 C 
HETATM    7  C7  UNL     1     -33.503  16.225  -2.811  1.00 20.00    -0.010 C 
HETATM    8  C8  UNL     1     -35.461  16.776  -4.125  1.00 20.00    -0.003 C 
ENDROOT
BRANCH   8   9
HETATM    9  C11 UNL     1     -35.796  16.564  -5.595  1.00 20.00    -0.018 C 
HETATM   10  C9  UNL     1     -37.034  17.370  -5.991  1.00 20.00     0.010 C 
HETATM   11  C10 UNL     1     -34.609  16.941  -6.481  1.00 20.00     0.010 C 
ENDBRANCH   8   9
TORSDOF 1
ENDMDL
