MODEL 1
REMARK VINA RESULT:      -5.9      0.000      0.000
REMARK  0 active torsions:
REMARK  status: ('A' for Active; 'I' for Inactive)
ROOT
HETATM    1  C1  UNL     1     -35.109   3.974   5.676  1.00 20.00     0.017 A 
HETATM    2  C2  UNL     1     -35.312   4.160   4.365  1.00 20.00     0.054 A 
HETATM    3  C3  UNL     1     -34.262   6.438   4.529  1.00 20.00     0.060 A 
HETATM    4  C4  UNL     1     -34.053   6.265   5.846  1.00 20.00    -0.044 A 
HETATM    5  C5  UNL     1     -34.460   4.998   6.561  1.00 20.00     0.221 A 
HETATM    6  C6  UNL     1     -34.910   5.411   3.647  1.00 20.00     0.280 A 
HETATM    7  C7  UNL     1     -33.402   7.320   6.691  1.00 20.00     0.046 C 
HETATM    8  F8  UNL     1     -33.368   4.439   7.160  1.00 20.00    -0.240 F 
HETATM    9  F9  UNL     1     -34.061   5.094   2.627  1.00 20.00    -0.197 F 
HETATM   10  F10 UNL     1     -36.005   5.960   3.047  1.00 20.00    -0.197 F 
ENDROOT
TORSDOF 0
ENDMDL
MODEL 2
REMARK VINA RESULT:      -5.7      1.630      1.912
REMARK  0 active torsions:
REMARK  status: ('A' for Active; 'I' for Inactive)
ROOT
HETATM    1  C1  UNL     1     -35.052   4.960   3.910  1.00 20.00     0.017 A 
HETATM    2  C2  UNL     1     -34.173   5.282   2.952  1.00 20.00     0.054 A 
HETATM    3  C3  UNL     1     -32.942   6.749   4.581  1.00 20.00     0.060 A 
HETATM    4  C4  UNL     1     -33.818   6.434   5.551  1.00 20.00    -0.044 A 
HETATM    5  C5  UNL     1     -34.975   5.494   5.310  1.00 20.00     0.221 A 
HETATM    6  C6  UNL     1     -33.020   6.211   3.182  1.00 20.00     0.280 A 
HETATM    7  C7  UNL     1     -33.702   6.998   6.937  1.00 20.00     0.046 C 
HETATM    8  F8  UNL     1     -34.905   4.447   6.182  1.00 20.00    -0.240 F 
HETATM    9  F9  UNL     1     -31.855   5.568   2.881  1.00 20.00    -0.197 F 
HETATM   10  F10 UNL     1     -33.096   7.251   2.303  1.00 20.00    -0.197 F 
ENDROOT
TORSDOF 0
ENDMDL
MODEL 3
REMARK VINA RESULT:      -5.6      1.196      3.407
REMARK  0 active torsions:
REMARK  status: ('A' for Active; 'I' for Inactive)
ROOT
HETATM    1  C1  UNL     1     -35.357   4.401   4.453  1.00 20.00     0.017 A 
HETATM    2  C2  UNL     1     -35.188   4.572   5.771  1.00 20.00     0.054 A 
HETATM    3  C3  UNL     1     -33.418   6.297   5.316  1.00 20.00     0.060 A 
HETATM    4  C4  UNL     1     -33.576   6.135   3.991  1.00 20.00    -0.044 A 
HETATM    5  C5  UNL     1     -34.576   5.158   3.419  1.00 20.00     0.221 A 
HETATM    6  C6  UNL     1     -34.202   5.540   6.348  1.00 20.00     0.280 A 
HETATM    7  C7  UNL     1     -32.768   6.913   2.994  1.00 20.00     0.046 C 
HETATM    8  F8  UNL     1     -35.446   5.819   2.601  1.00 20.00    -0.240 F 
HETATM    9  F9  UNL     1     -34.855   6.424   7.155  1.00 20.00    -0.197 F 
HETATM   10  F10 UNL     1     -33.340   4.872   7.167  1.00 20.00    -0.197 F 
ENDROOT
TORSDOF 0
ENDMDL
MODEL 4
REMARK VINA RESULT:      -5.2      1.597      3.535
REMARK  0 active torsions:
REMARK  status: ('A' for Active; 'I' for Inactive)
ROOT
HETATM    1  C1  UNL     1     -33.553   6.965   5.534  1.00 20.00     0.017 A 
HETATM    2  C2  UNL     1     -33.974   6.075   6.442  1.00 20.00     0.054 A 
HETATM    3  C3  UNL     1     -34.787   4.578   4.593  1.00 20.00     0.060 A 
HETATM    4  C4  UNL     1     -34.370   5.463   3.671  1.00 20.00    -0.044 A 
HETATM    5  C5  UNL     1     -33.701   6.762   4.054  1.00 20.00     0.221 A 
HETATM    6  C6  UNL     1     -34.636   4.783   6.072  1.00 20.00     0.280 A 
HETATM    7  C7  UNL     1     -34.543   5.217   2.201  1.00 20.00     0.046 C 
HETATM    8  F8  UNL     1     -32.469   6.832   3.471  1.00 20.00    -0.240 F 
HETATM    9  F9  UNL     1     -33.927   3.745   6.601  1.00 20.00    -0.197 F 
HETATM   10  F10 UNL     1     -35.863   4.720   6.663  1.00 20.00    -0.197 F 
ENDROOT
TORSDOF 0
ENDMDL
MODEL 5
REMARK VINA RESULT:      -5.1      1.201      2.441
REMARK  0 active torsions:
REMARK  status: ('A' for Active; 'I' for Inactive)
ROOT
HETATM    1  C1  UNL     1     -33.297   6.855   4.721  1.00 20.00     0.017 A 
HETATM    2  C2  UNL     1     -33.728   6.542   3.492  1.00 20.00     0.054 A 
HETATM    3  C3  UNL     1     -35.177   4.734   4.466  1.00 20.00     0.060 A 
HETATM    4  C4  UNL     1     -34.752   5.037   5.705  1.00 20.00    -0.044 A 
HETATM    5  C5  UNL     1     -33.757   6.144   5.960  1.00 20.00     0.221 A 
HETATM    6  C6  UNL     1     -34.717   5.448   3.229  1.00 20.00     0.280 A 
HETATM    7  C7  UNL     1     -35.238   4.294   6.914  1.00 20.00     0.046 C 
HETATM    8  F8  UNL     1     -34.296   7.056   6.821  1.00 20.00    -0.240 F 
HETATM    9  F9  UNL     1     -35.798   5.964   2.577  1.00 20.00    -0.197 F 
HETATM   10  F10 UNL     1     -34.171   4.546   2.364  1.00 20.00    -0.197 F 
ENDROOT
TORSDOF 0
ENDMDL
MODEL 6
REMARK VINA RESULT:      -5.0      1.710      2.647
REMARK  0 active torsions:
REMARK  status: ('A' for Active; 'I' for Inactive)
ROOT
HETATM    1  C1  UNL     1     -33.096   5.844   3.015  1.00 20.00     0.017 A 
HETATM    2  C2  UNL     1     -34.229   5.131   2.963  1.00 20.00     0.054 A 
HETATM    3  C3  UNL     1     -34.751   5.794   5.330  1.00 20.00     0.060 A 
HETATM    4  C4  UNL     1     -33.616   6.513   5.397  1.00 20.00    -0.044 A 
HETATM    5  C5  UNL     1     -32.663   6.612   4.229  1.00 20.00     0.221 A 
HETATM    6  C6  UNL     1     -35.182   5.029   4.113  1.00 20.00     0.280 A 
HETATM    7  C7  UNL     1     -33.223   7.262   6.636  1.00 20.00     0.046 C 
HETATM    8  F8  UNL     1     -32.491   7.922   3.888  1.00 20.00    -0.240 F 
HETATM    9  F9  UNL     1     -36.413   5.465   3.720  1.00 20.00    -0.197 F 
HETATM   10  F10 UNL     1     -35.352   3.717   4.443  1.00 20.00    -0.197 F 
ENDROOT
TORSDOF 0
ENDMDL
MODEL 7
REMARK VINA RESULT:      -4.9     12.644     14.100
REMARK  0 active torsions:
REMARK  status: ('A' for Active; 'I' for Inactive)
ROOT
HETATM    1  C1  UNL     1     -34.759  13.369  -4.809  1.00 20.00     0.017 A 
HETATM    2  C2  UNL     1     -33.993  13.691  -3.759  1.00 20.00     0.054 A 
HETATM    3  C3  UNL     1     -33.428  15.885  -4.849  1.00 20.00     0.060 A 
HETATM    4  C4  UNL     1     -34.194  15.574  -5.909  1.00 20.00    -0.044 A 
HETATM    5  C5  UNL     1     -34.948  14.268  -5.997  1.00 20.00     0.221 A 
HETATM    6  C6  UNL     1     -33.244  14.985  -3.662  1.00 20.00     0.280 A 
HETATM    7  C7  UNL     1     -34.349  16.505  -7.076  1.00 20.00     0.046 C 
HETATM    8  F8  UNL     1     -36.280  14.517  -6.158  1.00 20.00    -0.240 F 
HETATM    9  F9  UNL     1     -33.628  15.645  -2.532  1.00 20.00    -0.197 F 
HETATM   10  F10 UNL     1     -31.916  14.726  -3.495  1.00 20.00    -0.197 F 
ENDROOT
TORSDOF 0
ENDMDL
MODEL 8
REMARK VINA RESULT:      -4.5      8.668     10.332
REMARK  0 active torsions:
REMARK  status: ('A' for Active; 'I' for Inactive)
ROOT
HETATM    1  C1  UNL     1     -40.792   6.333  -0.440  1.00 20.00     0.017 A 
HETATM    2  C2  UNL     1     -41.331   7.336  -1.144  1.00 20.00     0.054 A 
HETATM    3  C3  UNL     1     -42.431   5.668  -2.669  1.00 20.00     0.060 A 
HETATM    4  C4  UNL     1     -41.896   4.651  -1.971  1.00 20.00    -0.044 A 
HETATM    5  C5  UNL     1     -41.011   4.885  -0.769  1.00 20.00     0.221 A 
HETATM    6  C6  UNL     1     -42.212   7.114  -2.335  1.00 20.00     0.280 A 
HETATM    7  C7  UNL     1     -42.141   3.218  -2.342  1.00 20.00     0.046 C 
HETATM    8  F8  UNL     1     -41.542   4.257   0.320  1.00 20.00    -0.240 F 
HETATM    9  F9  UNL     1     -43.417   7.716  -2.124  1.00 20.00    -0.197 F 
HETATM   10  F10 UNL     1     -41.676   7.749  -3.417  1.00 20.00    -0.197 F 
ENDROOT
TORSDOF 0
ENDMDL
MODEL 9
REMARK VINA RESULT:      -4.5     12.323     13.657
REMARK  0 active torsions:
REMARK  status: ('A' for Active; 'I' for Inactive)
ROOT
HETATM    1  C1  UNL     1     -34.368  15.939  -5.622  1.00 20.00     0.017 A 
HETATM    2  C2  UNL     1     -34.469  14.604  -5.628  1.00 20.00     0.054 A 
HETATM    3  C3  UNL     1     -34.257  14.581  -3.123  1.00 20.00     0.060 A 
HETATM    4  C4  UNL     1     -34.153  15.921  -3.103  1.00 20.00    -0.044 A 
HETATM    5  C5  UNL     1     -34.200  16.746  -4.367  1.00 20.00     0.221 A 
HETATM    6  C6  UNL     1     -34.427  13.777  -4.379  1.00 20.00     0.280 A 
HETATM    7  C7  UNL     1     -33.982  16.684  -1.822  1.00 20.00     0.046 C 
HETATM    8  F8  UNL     1     -35.215  17.655  -4.284  1.00 20.00    -0.240 F 
HETATM    9  F9  UNL     1     -35.568  13.036  -4.289  1.00 20.00    -0.197 F 
HETATM   10  F10 UNL     1     -33.414  12.869  -4.474  1.00 20.00    -0.197 F 
ENDROOT
TORSDOF 0
ENDMDL
