MODEL 1
REMARK VINA RESULT:      -5.2      0.000      0.000
REMARK  1 active torsions:
REMARK  status: ('A' for Active; 'I' for Inactive)
REMARK    1  A    between atoms: C2_2  and  C12_12 
ROOT
HETATM    1  C1  UNL     1     -33.991  14.142  -3.473  1.00 20.00    -0.023 C 
HETATM    2  C2  UNL     1     -34.211  15.470  -3.531  1.00 20.00    -0.075 C 
HETATM    3  C3  UNL     1     -34.478  13.227  -4.577  1.00 20.00     0.033 C 
HETATM    4  C4  UNL     1     -34.303  15.296  -6.045  1.00 20.00     0.015 C 
HETATM    5  C5  UNL     1     -34.928  15.960  -4.764  1.00 20.00     0.023 C 
HETATM    6  C6  UNL     1     -35.191  14.066  -5.659  1.00 20.00    -0.002 C 
HETATM    7  C7  UNL     1     -36.244  15.131  -5.117  1.00 20.00    -0.036 C 
HETATM    8  C8  UNL     1     -37.156  14.695  -3.963  1.00 20.00     0.016 C 
HETATM    9  C9  UNL     1     -37.141  15.771  -6.195  1.00 20.00     0.016 C 
ENDROOT
BRANCH   2  10
HETATM   10  C12 UNL     1     -33.794  16.455  -2.493  1.00 20.00     0.006 C 
HETATM   11  C10 UNL     1     -33.803  17.873  -3.063  1.00 20.00     0.014 C 
HETATM   12  C11 UNL     1     -34.691  16.366  -1.258  1.00 20.00     0.014 C 
ENDBRANCH   2  10
TORSDOF 1
ENDMDL
MODEL 2
REMARK VINA RESULT:      -5.0      1.469      3.078
REMARK  1 active torsions:
REMARK  status: ('A' for Active; 'I' for Inactive)
REMARK    1  A    between atoms: C2_2  and  C12_12 
ROOT
HETATM    1  C1  UNL     1     -33.695  17.814  -3.265  1.00 20.00    -0.023 C 
HETATM    2  C2  UNL     1     -34.004  17.050  -2.199  1.00 20.00    -0.075 C 
HETATM    3  C3  UNL     1     -34.053  17.368  -4.668  1.00 20.00     0.033 C 
HETATM    4  C4  UNL     1     -35.907  16.056  -3.522  1.00 20.00     0.015 C 
HETATM    5  C5  UNL     1     -34.742  15.771  -2.504  1.00 20.00     0.023 C 
HETATM    6  C6  UNL     1     -34.774  16.005  -4.602  1.00 20.00    -0.002 C 
HETATM    7  C7  UNL     1     -34.086  14.909  -3.674  1.00 20.00    -0.036 C 
HETATM    8  C8  UNL     1     -32.556  14.805  -3.724  1.00 20.00     0.016 C 
HETATM    9  C9  UNL     1     -34.649  13.482  -3.819  1.00 20.00     0.016 C 
ENDROOT
BRANCH   2  10
HETATM   10  C12 UNL     1     -33.680  17.383  -0.782  1.00 20.00     0.006 C 
HETATM   11  C10 UNL     1     -33.079  18.784  -0.684  1.00 20.00     0.014 C 
HETATM   12  C11 UNL     1     -34.919  17.265   0.107  1.00 20.00     0.014 C 
ENDBRANCH   2  10
TORSDOF 1
ENDMDL
MODEL 3
REMARK VINA RESULT:      -4.9      0.895      1.856
REMARK  1 active torsions:
REMARK  status: ('A' for Active; 'I' for Inactive)
REMARK    1  A    between atoms: C2_2  and  C12_12 
ROOT
HETATM    1  C1  UNL     1     -35.944  15.283  -2.998  1.00 20.00    -0.023 C 
HETATM    2  C2  UNL     1     -34.676  15.698  -3.187  1.00 20.00    -0.075 C 
HETATM    3  C3  UNL     1     -36.640  14.420  -4.029  1.00 20.00     0.033 C 
HETATM    4  C4  UNL     1     -34.286  13.682  -4.650  1.00 20.00     0.015 C 
HETATM    5  C5  UNL     1     -34.014  15.219  -4.454  1.00 20.00     0.023 C 
HETATM    6  C6  UNL     1     -35.674  14.150  -5.203  1.00 20.00    -0.002 C 
HETATM    7  C7  UNL     1     -34.902  15.424  -5.764  1.00 20.00    -0.036 C 
HETATM    8  C8  UNL     1     -35.699  16.728  -5.898  1.00 20.00     0.016 C 
HETATM    9  C9  UNL     1     -34.153  15.204  -7.093  1.00 20.00     0.016 C 
ENDROOT
BRANCH   2  10
HETATM   10  C12 UNL     1     -33.907  16.564  -2.248  1.00 20.00     0.006 C 
HETATM   11  C10 UNL     1     -33.750  17.972  -2.823  1.00 20.00     0.014 C 
HETATM   12  C11 UNL     1     -34.575  16.616  -0.874  1.00 20.00     0.014 C 
ENDBRANCH   2  10
TORSDOF 1
ENDMDL
MODEL 4
REMARK VINA RESULT:      -4.8      1.206      2.899
REMARK  1 active torsions:
REMARK  status: ('A' for Active; 'I' for Inactive)
REMARK    1  A    between atoms: C2_2  and  C12_12 
ROOT
HETATM    1  C1  UNL     1     -33.637  17.668  -4.141  1.00 20.00    -0.023 C 
HETATM    2  C2  UNL     1     -34.347  17.141  -3.124  1.00 20.00    -0.075 C 
HETATM    3  C3  UNL     1     -33.531  16.946  -5.468  1.00 20.00     0.033 C 
HETATM    4  C4  UNL     1     -35.759  15.909  -4.812  1.00 20.00     0.015 C 
HETATM    5  C5  UNL     1     -35.035  15.832  -3.417  1.00 20.00     0.023 C 
HETATM    6  C6  UNL     1     -34.335  15.630  -5.399  1.00 20.00    -0.002 C 
HETATM    7  C7  UNL     1     -34.089  14.744  -4.099  1.00 20.00    -0.036 C 
HETATM    8  C8  UNL     1     -32.646  14.622  -3.593  1.00 20.00     0.016 C 
HETATM    9  C9  UNL     1     -34.678  13.321  -4.156  1.00 20.00     0.016 C 
ENDROOT
BRANCH   2  10
HETATM   10  C12 UNL     1     -34.499  17.756  -1.774  1.00 20.00     0.006 C 
HETATM   11  C10 UNL     1     -34.622  16.674  -0.702  1.00 20.00     0.014 C 
HETATM   12  C11 UNL     1     -33.332  18.692  -1.462  1.00 20.00     0.014 C 
ENDBRANCH   2  10
TORSDOF 1
ENDMDL
MODEL 5
REMARK VINA RESULT:      -4.7      1.659      4.217
REMARK  1 active torsions:
REMARK  status: ('A' for Active; 'I' for Inactive)
REMARK    1  A    between atoms: C2_2  and  C12_12 
ROOT
HETATM    1  C1  UNL     1     -36.097  15.817  -3.128  1.00 20.00    -0.023 C 
HETATM    2  C2  UNL     1     -34.801  15.452  -3.084  1.00 20.00    -0.075 C 
HETATM    3  C3  UNL     1     -36.507  17.254  -2.885  1.00 20.00     0.033 C 
HETATM    4  C4  UNL     1     -34.166  17.811  -3.709  1.00 20.00     0.015 C 
HETATM    5  C5  UNL     1     -33.818  16.564  -2.816  1.00 20.00     0.023 C 
HETATM    6  C6  UNL     1     -35.248  18.105  -2.616  1.00 20.00    -0.002 C 
HETATM    7  C7  UNL     1     -34.212  17.488  -1.576  1.00 20.00    -0.036 C 
HETATM    8  C8  UNL     1     -34.788  16.811  -0.325  1.00 20.00     0.016 C 
HETATM    9  C9  UNL     1     -33.102  18.449  -1.109  1.00 20.00     0.016 C 
ENDROOT
BRANCH   2  10
HETATM   10  C12 UNL     1     -34.291  14.065  -3.288  1.00 20.00     0.006 C 
HETATM   11  C10 UNL     1     -35.067  13.367  -4.404  1.00 20.00     0.014 C 
HETATM   12  C11 UNL     1     -32.794  14.069  -3.595  1.00 20.00     0.014 C 
ENDBRANCH   2  10
TORSDOF 1
ENDMDL
MODEL 6
REMARK VINA RESULT:      -4.7      1.395      3.580
REMARK  1 active torsions:
REMARK  status: ('A' for Active; 'I' for Inactive)
REMARK    1  A    between atoms: C2_2  and  C12_12 
ROOT
HETATM    1  C1  UNL     1     -34.608  14.307  -6.169  1.00 20.00    -0.023 C 
HETATM    2  C2  UNL     1     -34.730  15.635  -5.981  1.00 20.00    -0.075 C 
HETATM    3  C3  UNL     1     -34.874  13.336  -5.037  1.00 20.00     0.033 C 
HETATM    4  C4  UNL     1     -36.381  15.175  -4.133  1.00 20.00     0.015 C 
HETATM    5  C5  UNL     1     -35.172  16.063  -4.605  1.00 20.00     0.023 C 
HETATM    6  C6  UNL     1     -35.277  14.125  -3.773  1.00 20.00    -0.002 C 
HETATM    7  C7  UNL     1     -34.354  15.374  -3.421  1.00 20.00    -0.036 C 
HETATM    8  C8  UNL     1     -32.840  15.202  -3.594  1.00 20.00     0.016 C 
HETATM    9  C9  UNL     1     -34.591  15.991  -2.028  1.00 20.00     0.016 C 
ENDROOT
BRANCH   2  10
HETATM   10  C12 UNL     1     -34.472  16.676  -7.018  1.00 20.00     0.006 C 
HETATM   11  C10 UNL     1     -35.699  16.860  -7.910  1.00 20.00     0.014 C 
HETATM   12  C11 UNL     1     -34.069  18.004  -6.376  1.00 20.00     0.014 C 
ENDBRANCH   2  10
TORSDOF 1
ENDMDL
MODEL 7
REMARK VINA RESULT:      -4.6      1.433      2.457
REMARK  1 active torsions:
REMARK  status: ('A' for Active; 'I' for Inactive)
REMARK    1  A    between atoms: C2_2  and  C12_12 
ROOT
HETATM    1  C1  UNL     1     -32.877  15.415  -4.265  1.00 20.00    -0.023 C 
HETATM    2  C2  UNL     1     -33.754  16.119  -5.006  1.00 20.00    -0.075 C 
HETATM    3  C3  UNL     1     -33.275  14.093  -3.642  1.00 20.00     0.033 C 
HETATM    4  C4  UNL     1     -34.948  13.967  -5.554  1.00 20.00     0.015 C 
HETATM    5  C5  UNL     1     -35.111  15.488  -5.188  1.00 20.00     0.023 C 
HETATM    6  C6  UNL     1     -34.739  13.773  -4.015  1.00 20.00    -0.002 C 
HETATM    7  C7  UNL     1     -35.771  14.971  -3.831  1.00 20.00    -0.036 C 
HETATM    8  C8  UNL     1     -35.621  15.843  -2.577  1.00 20.00     0.016 C 
HETATM    9  C9  UNL     1     -37.257  14.578  -3.943  1.00 20.00     0.016 C 
ENDROOT
BRANCH   2  10
HETATM   10  C12 UNL     1     -33.474  17.437  -5.645  1.00 20.00     0.006 C 
HETATM   11  C10 UNL     1     -34.386  17.653  -6.853  1.00 20.00     0.014 C 
HETATM   12  C11 UNL     1     -33.632  18.580  -4.641  1.00 20.00     0.014 C 
ENDBRANCH   2  10
TORSDOF 1
ENDMDL
MODEL 8
REMARK VINA RESULT:      -4.6      1.027      3.592
REMARK  1 active torsions:
REMARK  status: ('A' for Active; 'I' for Inactive)
REMARK    1  A    between atoms: C2_2  and  C12_12 
ROOT
HETATM    1  C1  UNL     1     -35.302  13.606  -4.172  1.00 20.00    -0.023 C 
HETATM    2  C2  UNL     1     -36.112  14.682  -4.177  1.00 20.00    -0.075 C 
HETATM    3  C3  UNL     1     -33.836  13.741  -3.815  1.00 20.00     0.033 C 
HETATM    4  C4  UNL     1     -34.591  15.776  -2.490  1.00 20.00     0.015 C 
HETATM    5  C5  UNL     1     -35.469  15.987  -3.778  1.00 20.00     0.023 C 
HETATM    6  C6  UNL     1     -33.524  15.217  -3.490  1.00 20.00    -0.002 C 
HETATM    7  C7  UNL     1     -34.092  16.283  -4.527  1.00 20.00    -0.036 C 
HETATM    8  C8  UNL     1     -33.992  15.938  -6.018  1.00 20.00     0.016 C 
HETATM    9  C9  UNL     1     -33.557  17.718  -4.350  1.00 20.00     0.016 C 
ENDROOT
BRANCH   2  10
HETATM   10  C12 UNL     1     -37.561  14.665  -4.531  1.00 20.00     0.006 C 
HETATM   11  C10 UNL     1     -38.392  15.310  -3.423  1.00 20.00     0.014 C 
HETATM   12  C11 UNL     1     -37.809  15.368  -5.867  1.00 20.00     0.014 C 
ENDBRANCH   2  10
TORSDOF 1
ENDMDL
MODEL 9
REMARK VINA RESULT:      -4.6      1.607      2.280
REMARK  1 active torsions:
REMARK  status: ('A' for Active; 'I' for Inactive)
REMARK    1  A    between atoms: C2_2  and  C12_12 
ROOT
HETATM    1  C1  UNL     1     -34.862  15.500  -2.347  1.00 20.00    -0.023 C 
HETATM    2  C2  UNL     1     -34.117  16.621  -2.295  1.00 20.00    -0.075 C 
HETATM    3  C3  UNL     1     -35.222  14.871  -3.676  1.00 20.00     0.033 C 
HETATM    4  C4  UNL     1     -33.097  15.990  -4.513  1.00 20.00     0.015 C 
HETATM    5  C5  UNL     1     -33.655  17.162  -3.624  1.00 20.00     0.023 C 
HETATM    6  C6  UNL     1     -34.605  15.704  -4.820  1.00 20.00    -0.002 C 
HETATM    7  C7  UNL     1     -34.816  17.278  -4.712  1.00 20.00    -0.036 C 
HETATM    8  C8  UNL     1     -36.192  17.775  -4.250  1.00 20.00     0.016 C 
HETATM    9  C9  UNL     1     -34.440  18.077  -5.975  1.00 20.00     0.016 C 
ENDROOT
BRANCH   2  10
HETATM   10  C12 UNL     1     -33.723  17.333  -1.045  1.00 20.00     0.006 C 
HETATM   11  C10 UNL     1     -33.390  18.795  -1.341  1.00 20.00     0.014 C 
HETATM   12  C11 UNL     1     -34.823  17.237   0.013  1.00 20.00     0.014 C 
ENDBRANCH   2  10
TORSDOF 1
ENDMDL
