MODEL 1
REMARK VINA RESULT:      -5.6      0.000      0.000
REMARK  1 active torsions:
REMARK  status: ('A' for Active; 'I' for Inactive)
REMARK    1  A    between atoms: C9_9  and  C10_10 
ROOT
HETATM    1  C1  UNL     1     -35.214  17.744  -0.246  1.00 20.00     0.001 A 
HETATM    2  C2  UNL     1     -36.309  18.365  -1.001  1.00 20.00     0.001 A 
HETATM    3  C3  UNL     1     -34.500  16.710  -0.737  1.00 20.00     0.012 A 
HETATM    4  C4  UNL     1     -36.667  17.938  -2.231  1.00 20.00     0.012 A 
HETATM    5  C5  UNL     1     -34.312  15.214  -2.766  1.00 20.00     0.009 A 
HETATM    6  C6  UNL     1     -36.073  16.211  -3.980  1.00 20.00     0.009 A 
HETATM    7  C7  UNL     1     -34.842  16.215  -2.050  1.00 20.00    -0.028 A 
HETATM    8  C8  UNL     1     -35.932  16.833  -2.801  1.00 20.00    -0.028 A 
HETATM    9  C10 UNL     1     -35.037  15.117  -4.088  1.00 20.00     0.082 A 
HETATM   10  C11 UNL     1     -34.116  15.282  -5.286  1.00 20.00     0.035 C 
ENDROOT
BRANCH   9  11
HETATM   11  C9  UNL     1     -35.755  13.786  -4.139  1.00 20.00     0.189 C 
HETATM   12  O12 UNL     1     -35.016  12.782  -4.335  1.00 20.00    -0.647 OA
HETATM   13  O13 UNL     1     -37.006  13.853  -3.980  1.00 20.00    -0.647 OA
ENDBRANCH   9  11
TORSDOF 1
ENDMDL
MODEL 2
REMARK VINA RESULT:      -5.5      1.731      2.372
REMARK  1 active torsions:
REMARK  status: ('A' for Active; 'I' for Inactive)
REMARK    1  A    between atoms: C9_9  and  C10_10 
ROOT
HETATM    1  C1  UNL     1     -33.553  19.098  -0.660  1.00 20.00     0.001 A 
HETATM    2  C2  UNL     1     -34.334  18.252   0.250  1.00 20.00     0.001 A 
HETATM    3  C3  UNL     1     -33.286  18.730  -1.930  1.00 20.00     0.012 A 
HETATM    4  C4  UNL     1     -34.831  17.056  -0.129  1.00 20.00     0.012 A 
HETATM    5  C5  UNL     1     -33.680  16.851  -3.576  1.00 20.00     0.009 A 
HETATM    6  C6  UNL     1     -34.934  15.491  -2.113  1.00 20.00     0.009 A 
HETATM    7  C7  UNL     1     -33.796  17.458  -2.387  1.00 20.00    -0.028 A 
HETATM    8  C8  UNL     1     -34.573  16.617  -1.481  1.00 20.00    -0.028 A 
HETATM    9  C10 UNL     1     -34.413  15.532  -3.530  1.00 20.00     0.082 A 
HETATM   10  C11 UNL     1     -35.510  15.422  -4.574  1.00 20.00     0.035 C 
ENDROOT
BRANCH   9  11
HETATM   11  C9  UNL     1     -33.399  14.420  -3.695  1.00 20.00     0.189 C 
HETATM   12  O12 UNL     1     -32.191  14.780  -3.651  1.00 20.00    -0.647 OA
HETATM   13  O13 UNL     1     -33.896  13.270  -3.856  1.00 20.00    -0.647 OA
ENDBRANCH   9  11
TORSDOF 1
ENDMDL
MODEL 3
REMARK VINA RESULT:      -5.2      2.602      4.525
REMARK  1 active torsions:
REMARK  status: ('A' for Active; 'I' for Inactive)
REMARK    1  A    between atoms: C9_9  and  C10_10 
ROOT
HETATM    1  C1  UNL     1     -34.053  13.376  -4.522  1.00 20.00     0.001 A 
HETATM    2  C2  UNL     1     -35.515  13.470  -4.604  1.00 20.00     0.001 A 
HETATM    3  C3  UNL     1     -33.318  14.241  -3.791  1.00 20.00     0.012 A 
HETATM    4  C4  UNL     1     -36.211  14.425  -3.954  1.00 20.00     0.012 A 
HETATM    5  C5  UNL     1     -33.547  16.262  -2.290  1.00 20.00     0.009 A 
HETATM    6  C6  UNL     1     -35.897  16.413  -2.423  1.00 20.00     0.009 A 
HETATM    7  C7  UNL     1     -34.016  15.283  -3.075  1.00 20.00    -0.028 A 
HETATM    8  C8  UNL     1     -35.471  15.375  -3.157  1.00 20.00    -0.028 A 
HETATM    9  C10 UNL     1     -34.707  17.081  -1.776  1.00 20.00     0.082 A 
HETATM   10  C11 UNL     1     -34.790  17.111  -0.259  1.00 20.00     0.035 C 
ENDROOT
BRANCH   9  11
HETATM   11  C9  UNL     1     -34.585  18.481  -2.337  1.00 20.00     0.189 C 
HETATM   12  O12 UNL     1     -35.652  18.973  -2.796  1.00 20.00    -0.647 OA
HETATM   13  O13 UNL     1     -33.425  18.978  -2.275  1.00 20.00    -0.647 OA
ENDBRANCH   9  11
TORSDOF 1
ENDMDL
MODEL 4
REMARK VINA RESULT:      -5.2      1.592      1.876
REMARK  1 active torsions:
REMARK  status: ('A' for Active; 'I' for Inactive)
REMARK    1  A    between atoms: C9_9  and  C10_10 
ROOT
HETATM    1  C1  UNL     1     -33.868  17.913  -0.937  1.00 20.00     0.001 A 
HETATM    2  C2  UNL     1     -33.542  18.689  -2.139  1.00 20.00     0.001 A 
HETATM    3  C3  UNL     1     -34.388  16.669  -1.004  1.00 20.00     0.012 A 
HETATM    4  C4  UNL     1     -33.743  18.205  -3.383  1.00 20.00     0.012 A 
HETATM    5  C5  UNL     1     -35.123  14.913  -2.669  1.00 20.00     0.009 A 
HETATM    6  C6  UNL     1     -34.600  16.161  -4.601  1.00 20.00     0.009 A 
HETATM    7  C7  UNL     1     -34.621  16.104  -2.313  1.00 20.00    -0.028 A 
HETATM    8  C8  UNL     1     -34.296  16.877  -3.509  1.00 20.00    -0.028 A 
HETATM    9  C10 UNL     1     -35.146  14.819  -4.175  1.00 20.00     0.082 A 
HETATM   10  C11 UNL     1     -34.341  13.648  -4.713  1.00 20.00     0.035 C 
ENDROOT
BRANCH   9  11
HETATM   11  C9  UNL     1     -36.590  14.731  -4.623  1.00 20.00     0.189 C 
HETATM   12  O12 UNL     1     -37.366  14.138  -3.825  1.00 20.00    -0.647 OA
HETATM   13  O13 UNL     1     -36.830  15.263  -5.743  1.00 20.00    -0.647 OA
ENDBRANCH   9  11
TORSDOF 1
ENDMDL
MODEL 5
REMARK VINA RESULT:      -5.1      2.780      4.532
REMARK  1 active torsions:
REMARK  status: ('A' for Active; 'I' for Inactive)
REMARK    1  A    between atoms: C9_9  and  C10_10 
ROOT
HETATM    1  C1  UNL     1     -38.642  15.539  -6.704  1.00 20.00     0.001 A 
HETATM    2  C2  UNL     1     -37.894  15.193  -7.918  1.00 20.00     0.001 A 
HETATM    3  C3  UNL     1     -38.061  15.563  -5.486  1.00 20.00     0.012 A 
HETATM    4  C4  UNL     1     -36.582  14.878  -7.889  1.00 20.00     0.012 A 
HETATM    5  C5  UNL     1     -35.842  15.176  -4.337  1.00 20.00     0.009 A 
HETATM    6  C6  UNL     1     -34.640  14.619  -6.289  1.00 20.00     0.009 A 
HETATM    7  C7  UNL     1     -36.658  15.235  -5.400  1.00 20.00    -0.028 A 
HETATM    8  C8  UNL     1     -35.914  14.891  -6.608  1.00 20.00    -0.028 A 
HETATM    9  C10 UNL     1     -34.458  14.791  -4.800  1.00 20.00     0.082 A 
HETATM   10  C11 UNL     1     -33.401  15.822  -4.442  1.00 20.00     0.035 C 
ENDROOT
BRANCH   9  11
HETATM   11  C9  UNL     1     -34.117  13.441  -4.205  1.00 20.00     0.189 C 
HETATM   12  O12 UNL     1     -35.018  12.564  -4.307  1.00 20.00    -0.647 OA
HETATM   13  O13 UNL     1     -32.970  13.369  -3.680  1.00 20.00    -0.647 OA
ENDBRANCH   9  11
TORSDOF 1
ENDMDL
MODEL 6
REMARK VINA RESULT:      -5.0      2.060      4.312
REMARK  1 active torsions:
REMARK  status: ('A' for Active; 'I' for Inactive)
REMARK    1  A    between atoms: C9_9  and  C10_10 
ROOT
HETATM    1  C1  UNL     1     -36.951  16.845  -7.540  1.00 20.00     0.001 A 
HETATM    2  C2  UNL     1     -35.588  17.235  -7.918  1.00 20.00     0.001 A 
HETATM    3  C3  UNL     1     -37.210  16.131  -6.424  1.00 20.00     0.012 A 
HETATM    4  C4  UNL     1     -34.513  16.903  -7.173  1.00 20.00     0.012 A 
HETATM    5  C5  UNL     1     -36.060  15.050  -4.449  1.00 20.00     0.009 A 
HETATM    6  C6  UNL     1     -33.868  15.676  -5.057  1.00 20.00     0.009 A 
HETATM    7  C7  UNL     1     -36.093  15.751  -5.591  1.00 20.00    -0.028 A 
HETATM    8  C8  UNL     1     -34.737  16.140  -5.967  1.00 20.00    -0.028 A 
HETATM    9  C10 UNL     1     -34.629  14.943  -3.979  1.00 20.00     0.082 A 
HETATM   10  C11 UNL     1     -34.412  15.526  -2.592  1.00 20.00     0.035 C 
ENDROOT
BRANCH   9  11
HETATM   11  C9  UNL     1     -34.224  13.485  -4.019  1.00 20.00     0.189 C 
HETATM   12  O12 UNL     1     -35.136  12.681  -4.356  1.00 20.00    -0.647 OA
HETATM   13  O13 UNL     1     -33.020  13.261  -3.708  1.00 20.00    -0.647 OA
ENDBRANCH   9  11
TORSDOF 1
ENDMDL
MODEL 7
REMARK VINA RESULT:      -5.0      1.741      2.190
REMARK  1 active torsions:
REMARK  status: ('A' for Active; 'I' for Inactive)
REMARK    1  A    between atoms: C9_9  and  C10_10 
ROOT
HETATM    1  C1  UNL     1     -34.335  18.262   0.396  1.00 20.00     0.001 A 
HETATM    2  C2  UNL     1     -33.590  19.171  -0.482  1.00 20.00     0.001 A 
HETATM    3  C3  UNL     1     -34.793  17.066  -0.031  1.00 20.00     0.012 A 
HETATM    4  C4  UNL     1     -33.317  18.865  -1.768  1.00 20.00     0.012 A 
HETATM    5  C5  UNL     1     -34.862  15.584  -2.079  1.00 20.00     0.009 A 
HETATM    6  C6  UNL     1     -33.663  17.046  -3.490  1.00 20.00     0.009 A 
HETATM    7  C7  UNL     1     -34.527  16.691  -1.400  1.00 20.00    -0.028 A 
HETATM    8  C8  UNL     1     -33.784  17.595  -2.274  1.00 20.00    -0.028 A 
HETATM    9  C10 UNL     1     -34.328  15.690  -3.487  1.00 20.00     0.082 A 
HETATM   10  C11 UNL     1     -33.380  14.559  -3.853  1.00 20.00     0.035 C 
ENDROOT
BRANCH   9  11
HETATM   11  C9  UNL     1     -35.504  15.735  -4.439  1.00 20.00     0.189 C 
HETATM   12  O12 UNL     1     -35.449  16.635  -5.322  1.00 20.00    -0.647 OA
HETATM   13  O13 UNL     1     -36.393  14.864  -4.224  1.00 20.00    -0.647 OA
ENDBRANCH   9  11
TORSDOF 1
ENDMDL
MODEL 8
REMARK VINA RESULT:      -5.0      1.415      1.666
REMARK  1 active torsions:
REMARK  status: ('A' for Active; 'I' for Inactive)
REMARK    1  A    between atoms: C9_9  and  C10_10 
ROOT
HETATM    1  C1  UNL     1     -34.746  18.433  -2.064  1.00 20.00     0.001 A 
HETATM    2  C2  UNL     1     -36.171  18.090  -2.130  1.00 20.00     0.001 A 
HETATM    3  C3  UNL     1     -33.807  17.733  -2.734  1.00 20.00     0.012 A 
HETATM    4  C4  UNL     1     -36.627  17.054  -2.865  1.00 20.00     0.012 A 
HETATM    5  C5  UNL     1     -33.539  15.758  -4.290  1.00 20.00     0.009 A 
HETATM    6  C6  UNL     1     -35.830  15.206  -4.396  1.00 20.00     0.009 A 
HETATM    7  C7  UNL     1     -34.243  16.614  -3.537  1.00 20.00    -0.028 A 
HETATM    8  C8  UNL     1     -35.662  16.273  -3.603  1.00 20.00    -0.028 A 
HETATM    9  C10 UNL     1     -34.487  14.774  -4.933  1.00 20.00     0.082 A 
HETATM   10  C11 UNL     1     -34.418  14.785  -6.451  1.00 20.00     0.035 C 
ENDROOT
BRANCH   9  11
HETATM   11  C9  UNL     1     -34.179  13.395  -4.390  1.00 20.00     0.189 C 
HETATM   12  O12 UNL     1     -33.081  13.289  -3.777  1.00 20.00    -0.647 OA
HETATM   13  O13 UNL     1     -35.064  12.524  -4.623  1.00 20.00    -0.647 OA
ENDBRANCH   9  11
TORSDOF 1
ENDMDL
MODEL 9
REMARK VINA RESULT:      -5.0      1.480      2.510
REMARK  1 active torsions:
REMARK  status: ('A' for Active; 'I' for Inactive)
REMARK    1  A    between atoms: C9_9  and  C10_10 
ROOT
HETATM    1  C1  UNL     1     -36.469  18.217  -1.018  1.00 20.00     0.001 A 
HETATM    2  C2  UNL     1     -35.344  17.692  -0.234  1.00 20.00     0.001 A 
HETATM    3  C3  UNL     1     -36.742  17.777  -2.264  1.00 20.00     0.012 A 
HETATM    4  C4  UNL     1     -34.517  16.740  -0.713  1.00 20.00     0.012 A 
HETATM    5  C5  UNL     1     -35.924  16.150  -4.018  1.00 20.00     0.009 A 
HETATM    6  C6  UNL     1     -34.116  15.308  -2.759  1.00 20.00     0.009 A 
HETATM    7  C7  UNL     1     -35.887  16.756  -2.823  1.00 20.00    -0.028 A 
HETATM    8  C8  UNL     1     -34.769  16.234  -2.043  1.00 20.00    -0.028 A 
HETATM    9  C10 UNL     1     -34.800  15.145  -4.095  1.00 20.00     0.082 A 
HETATM   10  C11 UNL     1     -35.284  13.728  -4.350  1.00 20.00     0.035 C 
ENDROOT
BRANCH   9  11
HETATM   11  C9  UNL     1     -33.839  15.589  -5.177  1.00 20.00     0.189 C 
HETATM   12  O12 UNL     1     -32.834  16.236  -4.774  1.00 20.00    -0.647 OA
HETATM   13  O13 UNL     1     -34.171  15.255  -6.349  1.00 20.00    -0.647 OA
ENDBRANCH   9  11
TORSDOF 1
ENDMDL
