MODEL 1
REMARK VINA RESULT:      -5.0      0.000      0.000
REMARK  1 active torsions:
REMARK  status: ('A' for Active; 'I' for Inactive)
REMARK    1  A    between atoms: C6_6  and  C11_11 
ROOT
HETATM    1  C1  UNL     1     -35.739  15.962  -3.097  1.00 20.00     0.003 C 
HETATM    2  C2  UNL     1     -35.676  15.372  -4.300  1.00 20.00    -0.016 C 
HETATM    3  C3  UNL     1     -33.334  16.003  -2.830  1.00 20.00    -0.019 C 
HETATM    4  C4  UNL     1     -34.553  16.168  -2.288  1.00 20.00    -0.066 C 
HETATM    5  C5  UNL     1     -33.141  15.601  -4.267  1.00 20.00     0.041 C 
HETATM    6  C6  UNL     1     -34.370  14.887  -4.905  1.00 20.00    -0.020 C 
HETATM    7  C7  UNL     1     -34.763  16.596  -0.869  1.00 20.00     0.048 C 
HETATM    8  C8  UNL     1     -34.274  13.367  -4.670  1.00 20.00     0.020 C 
ENDROOT
BRANCH   6   9
HETATM    9  C11 UNL     1     -34.370  15.153  -6.420  1.00 20.00    -0.011 C 
HETATM   10  C9  UNL     1     -35.515  14.401  -7.083  1.00 20.00     0.010 C 
HETATM   11  C10 UNL     1     -34.466  16.647  -6.688  1.00 20.00     0.010 C 
ENDBRANCH   6   9
TORSDOF 1
ENDMDL
MODEL 2
REMARK VINA RESULT:      -4.8      1.092      4.129
REMARK  1 active torsions:
REMARK  status: ('A' for Active; 'I' for Inactive)
REMARK    1  A    between atoms: C6_6  and  C11_11 
ROOT
HETATM    1  C1  UNL     1     -34.026  15.970  -6.173  1.00 20.00     0.003 C 
HETATM    2  C2  UNL     1     -33.406  16.296  -5.030  1.00 20.00    -0.016 C 
HETATM    3  C3  UNL     1     -35.431  14.314  -5.108  1.00 20.00    -0.019 C 
HETATM    4  C4  UNL     1     -34.968  14.870  -6.240  1.00 20.00    -0.066 C 
HETATM    5  C5  UNL     1     -35.004  14.789  -3.746  1.00 20.00     0.041 C 
HETATM    6  C6  UNL     1     -33.646  15.552  -3.728  1.00 20.00    -0.020 C 
HETATM    7  C7  UNL     1     -35.404  14.429  -7.602  1.00 20.00     0.048 C 
HETATM    8  C8  UNL     1     -32.487  14.556  -3.529  1.00 20.00     0.020 C 
ENDROOT
BRANCH   6   9
HETATM    9  C11 UNL     1     -33.648  16.547  -2.555  1.00 20.00    -0.011 C 
HETATM   10  C9  UNL     1     -33.805  17.969  -3.075  1.00 20.00     0.010 C 
HETATM   11  C10 UNL     1     -34.757  16.196  -1.574  1.00 20.00     0.010 C 
ENDBRANCH   6   9
TORSDOF 1
ENDMDL
MODEL 3
REMARK VINA RESULT:      -4.6      1.211      2.077
REMARK  1 active torsions:
REMARK  status: ('A' for Active; 'I' for Inactive)
REMARK    1  A    between atoms: C6_6  and  C11_11 
ROOT
HETATM    1  C1  UNL     1     -34.751  16.231  -1.505  1.00 20.00     0.003 C 
HETATM    2  C2  UNL     1     -34.718  15.315  -2.485  1.00 20.00    -0.016 C 
HETATM    3  C3  UNL     1     -33.628  17.909  -2.837  1.00 20.00    -0.019 C 
HETATM    4  C4  UNL     1     -34.082  17.510  -1.637  1.00 20.00    -0.066 C 
HETATM    5  C5  UNL     1     -33.782  17.068  -4.075  1.00 20.00     0.041 C 
HETATM    6  C6  UNL     1     -33.992  15.549  -3.798  1.00 20.00    -0.020 C 
HETATM    7  C7  UNL     1     -33.963  18.347  -0.401  1.00 20.00     0.048 C 
HETATM    8  C8  UNL     1     -32.628  14.837  -3.720  1.00 20.00     0.020 C 
ENDROOT
BRANCH   6   9
HETATM    9  C11 UNL     1     -34.802  14.939  -4.955  1.00 20.00    -0.011 C 
HETATM   10  C9  UNL     1     -34.268  15.440  -6.289  1.00 20.00     0.010 C 
HETATM   11  C10 UNL     1     -34.756  13.420  -4.881  1.00 20.00     0.010 C 
ENDBRANCH   6   9
TORSDOF 1
ENDMDL
MODEL 4
REMARK VINA RESULT:      -4.5      1.886      3.370
REMARK  1 active torsions:
REMARK  status: ('A' for Active; 'I' for Inactive)
REMARK    1  A    between atoms: C6_6  and  C11_11 
ROOT
HETATM    1  C1  UNL     1     -33.428  18.581  -1.489  1.00 20.00     0.003 C 
HETATM    2  C2  UNL     1     -33.685  18.187  -2.745  1.00 20.00    -0.016 C 
HETATM    3  C3  UNL     1     -34.653  16.741  -0.507  1.00 20.00    -0.019 C 
HETATM    4  C4  UNL     1     -34.027  17.919  -0.347  1.00 20.00    -0.066 C 
HETATM    5  C5  UNL     1     -34.765  16.066  -1.847  1.00 20.00     0.041 C 
HETATM    6  C6  UNL     1     -34.607  17.024  -3.065  1.00 20.00    -0.020 C 
HETATM    7  C7  UNL     1     -33.881  18.591   0.983  1.00 20.00     0.048 C 
HETATM    8  C8  UNL     1     -35.981  17.603  -3.459  1.00 20.00     0.020 C 
ENDROOT
BRANCH   6   9
HETATM    9  C11 UNL     1     -34.047  16.229  -4.256  1.00 20.00    -0.011 C 
HETATM   10  C9  UNL     1     -33.447  17.179  -5.283  1.00 20.00     0.010 C 
HETATM   11  C10 UNL     1     -33.014  15.221  -3.772  1.00 20.00     0.010 C 
ENDBRANCH   6   9
TORSDOF 1
ENDMDL
MODEL 5
REMARK VINA RESULT:      -4.5      1.142      2.299
REMARK  1 active torsions:
REMARK  status: ('A' for Active; 'I' for Inactive)
REMARK    1  A    between atoms: C6_6  and  C11_11 
ROOT
HETATM    1  C1  UNL     1     -33.633  17.212  -3.649  1.00 20.00     0.003 C 
HETATM    2  C2  UNL     1     -34.234  16.646  -4.705  1.00 20.00    -0.016 C 
HETATM    3  C3  UNL     1     -34.854  15.868  -2.050  1.00 20.00    -0.019 C 
HETATM    4  C4  UNL     1     -34.039  16.909  -2.290  1.00 20.00    -0.066 C 
HETATM    5  C5  UNL     1     -35.379  14.988  -3.152  1.00 20.00     0.041 C 
HETATM    6  C6  UNL     1     -35.370  15.649  -4.562  1.00 20.00    -0.020 C 
HETATM    7  C7  UNL     1     -33.484  17.777  -1.204  1.00 20.00     0.048 C 
HETATM    8  C8  UNL     1     -36.695  16.401  -4.797  1.00 20.00     0.020 C 
ENDROOT
BRANCH   6   9
HETATM    9  C11 UNL     1     -35.231  14.548  -5.628  1.00 20.00    -0.011 C 
HETATM   10  C9  UNL     1     -34.369  15.043  -6.781  1.00 20.00     0.010 C 
HETATM   11  C10 UNL     1     -34.646  13.289  -5.006  1.00 20.00     0.010 C 
ENDBRANCH   6   9
TORSDOF 1
ENDMDL
MODEL 6
REMARK VINA RESULT:      -4.5     11.827     13.391
REMARK  1 active torsions:
REMARK  status: ('A' for Active; 'I' for Inactive)
REMARK    1  A    between atoms: C6_6  and  C11_11 
ROOT
HETATM    1  C1  UNL     1     -41.960   7.534  -1.773  1.00 20.00     0.003 C 
HETATM    2  C2  UNL     1     -41.704   6.655  -0.792  1.00 20.00    -0.016 C 
HETATM    3  C3  UNL     1     -43.075   5.888  -3.153  1.00 20.00    -0.019 C 
HETATM    4  C4  UNL     1     -42.545   7.117  -3.033  1.00 20.00    -0.066 C 
HETATM    5  C5  UNL     1     -43.086   4.903  -2.015  1.00 20.00     0.041 C 
HETATM    6  C6  UNL     1     -42.012   5.174  -0.920  1.00 20.00    -0.020 C 
HETATM    7  C7  UNL     1     -42.552   8.120  -4.145  1.00 20.00     0.048 C 
HETATM    8  C8  UNL     1     -40.701   4.447  -1.280  1.00 20.00     0.020 C 
ENDROOT
BRANCH   6   9
HETATM    9  C11 UNL     1     -42.523   4.631   0.425  1.00 20.00    -0.011 C 
HETATM   10  C9  UNL     1     -43.262   5.725   1.183  1.00 20.00     0.010 C 
HETATM   11  C10 UNL     1     -43.417   3.422   0.195  1.00 20.00     0.010 C 
ENDBRANCH   6   9
TORSDOF 1
ENDMDL
MODEL 7
REMARK VINA RESULT:      -4.4     12.166     13.842
REMARK  1 active torsions:
REMARK  status: ('A' for Active; 'I' for Inactive)
REMARK    1  A    between atoms: C6_6  and  C11_11 
ROOT
HETATM    1  C1  UNL     1     -40.793   3.844  -1.919  1.00 20.00     0.003 C 
HETATM    2  C2  UNL     1     -41.010   4.797  -1.000  1.00 20.00    -0.016 C 
HETATM    3  C3  UNL     1     -43.100   3.821  -2.649  1.00 20.00    -0.019 C 
HETATM    4  C4  UNL     1     -41.882   3.253  -2.672  1.00 20.00    -0.066 C 
HETATM    5  C5  UNL     1     -43.391   5.066  -1.856  1.00 20.00     0.041 C 
HETATM    6  C6  UNL     1     -42.397   5.330  -0.687  1.00 20.00    -0.020 C 
HETATM    7  C7  UNL     1     -41.568   2.031  -3.478  1.00 20.00     0.048 C 
HETATM    8  C8  UNL     1     -42.895   4.633   0.594  1.00 20.00     0.020 C 
ENDROOT
BRANCH   6   9
HETATM    9  C11 UNL     1     -42.323   6.845  -0.427  1.00 20.00    -0.011 C 
HETATM   10  C9  UNL     1     -40.946   7.374  -0.803  1.00 20.00     0.010 C 
HETATM   11  C10 UNL     1     -43.417   7.562  -1.204  1.00 20.00     0.010 C 
ENDBRANCH   6   9
TORSDOF 1
ENDMDL
MODEL 8
REMARK VINA RESULT:      -4.4      1.999      3.049
REMARK  1 active torsions:
REMARK  status: ('A' for Active; 'I' for Inactive)
REMARK    1  A    between atoms: C6_6  and  C11_11 
ROOT
HETATM    1  C1  UNL     1     -34.382  16.973  -0.513  1.00 20.00     0.003 C 
HETATM    2  C2  UNL     1     -34.817  16.202  -1.521  1.00 20.00    -0.016 C 
HETATM    3  C3  UNL     1     -33.416  18.621  -1.997  1.00 20.00    -0.019 C 
HETATM    4  C4  UNL     1     -33.556  18.141  -0.750  1.00 20.00    -0.066 C 
HETATM    5  C5  UNL     1     -34.090  17.986  -3.183  1.00 20.00     0.041 C 
HETATM    6  C6  UNL     1     -34.488  16.495  -2.974  1.00 20.00    -0.020 C 
HETATM    7  C7  UNL     1     -32.917  18.777   0.445  1.00 20.00     0.048 C 
HETATM    8  C8  UNL     1     -33.322  15.577  -3.390  1.00 20.00     0.020 C 
ENDROOT
BRANCH   6   9
HETATM    9  C11 UNL     1     -35.707  16.176  -3.856  1.00 20.00    -0.011 C 
HETATM   10  C9  UNL     1     -36.049  14.696  -3.759  1.00 20.00     0.010 C 
HETATM   11  C10 UNL     1     -36.889  17.041  -3.447  1.00 20.00     0.010 C 
ENDBRANCH   6   9
TORSDOF 1
ENDMDL
MODEL 9
REMARK VINA RESULT:      -4.3      1.875      4.332
REMARK  1 active torsions:
REMARK  status: ('A' for Active; 'I' for Inactive)
REMARK    1  A    between atoms: C6_6  and  C11_11 
ROOT
HETATM    1  C1  UNL     1     -33.683  15.255  -3.410  1.00 20.00     0.003 C 
HETATM    2  C2  UNL     1     -33.509  16.373  -2.690  1.00 20.00    -0.016 C 
HETATM    3  C3  UNL     1     -36.096  15.377  -3.286  1.00 20.00    -0.019 C 
HETATM    4  C4  UNL     1     -34.997  14.674  -3.606  1.00 20.00    -0.066 C 
HETATM    5  C5  UNL     1     -36.022  16.768  -2.717  1.00 20.00     0.041 C 
HETATM    6  C6  UNL     1     -34.663  17.115  -2.040  1.00 20.00    -0.020 C 
HETATM    7  C7  UNL     1     -35.052  13.300  -4.199  1.00 20.00     0.048 C 
HETATM    8  C8  UNL     1     -34.703  16.718  -0.551  1.00 20.00     0.020 C 
ENDROOT
BRANCH   6   9
HETATM    9  C11 UNL     1     -34.428  18.631  -2.140  1.00 20.00    -0.011 C 
HETATM   10  C9  UNL     1     -33.170  19.018  -1.375  1.00 20.00     0.010 C 
HETATM   11  C10 UNL     1     -34.333  19.050  -3.600  1.00 20.00     0.010 C 
ENDBRANCH   6   9
TORSDOF 1
ENDMDL
