MODEL 1
REMARK VINA RESULT:      -5.0      0.000      0.000
REMARK  0 active torsions:
REMARK  status: ('A' for Active; 'I' for Inactive)
ROOT
HETATM    1  C1  UNL     1     -34.060  17.769  -0.677  1.00 20.00     0.003 A 
HETATM    2  C2  UNL     1     -33.621  18.441  -1.751  1.00 20.00     0.034 A 
HETATM    3  C3  UNL     1     -34.546  16.450  -1.007  1.00 20.00     0.018 A 
HETATM    4  C4  UNL     1     -34.554  14.505  -6.057  1.00 20.00     0.014 A 
HETATM    5  C5  UNL     1     -34.091  15.739  -5.811  1.00 20.00     0.118 A 
HETATM    6  C6  UNL     1     -34.423  16.256  -2.312  1.00 20.00     0.042 A 
HETATM    7  C7  UNL     1     -33.835  17.499  -2.844  1.00 20.00     0.091 A 
HETATM    8  C8  UNL     1     -34.578  15.421  -3.497  1.00 20.00     0.158 A 
HETATM    9  C9  UNL     1     -35.082  13.638  -4.932  1.00 20.00     0.180 A 
HETATM   10  N10 UNL     1     -33.641  17.487  -4.128  1.00 20.00    -0.166 NA
HETATM   11  N11 UNL     1     -35.053  14.229  -3.565  1.00 20.00    -0.267 NA
HETATM   12  N12 UNL     1     -34.092  16.221  -4.533  1.00 20.00    -0.226 N 
ENDROOT
TORSDOF 0
ENDMDL
MODEL 2
REMARK VINA RESULT:      -4.8      2.769      3.936
REMARK  0 active torsions:
REMARK  status: ('A' for Active; 'I' for Inactive)
ROOT
HETATM    1  C1  UNL     1     -33.566  13.694  -3.988  1.00 20.00     0.003 A 
HETATM    2  C2  UNL     1     -33.428  14.972  -3.607  1.00 20.00     0.034 A 
HETATM    3  C3  UNL     1     -34.949  13.300  -4.119  1.00 20.00     0.018 A 
HETATM    4  C4  UNL     1     -39.066  16.681  -3.166  1.00 20.00     0.014 A 
HETATM    5  C5  UNL     1     -37.802  17.102  -3.026  1.00 20.00     0.118 A 
HETATM    6  C6  UNL     1     -35.725  14.333  -3.822  1.00 20.00     0.042 A 
HETATM    7  C7  UNL     1     -34.806  15.435  -3.486  1.00 20.00     0.091 A 
HETATM    8  C8  UNL     1     -37.044  14.930  -3.661  1.00 20.00     0.158 A 
HETATM    9  C9  UNL     1     -39.364  15.257  -3.590  1.00 20.00     0.180 A 
HETATM   10  N10 UNL     1     -35.402  16.543  -3.165  1.00 20.00    -0.166 NA
HETATM   11  N11 UNL     1     -38.189  14.375  -3.838  1.00 20.00    -0.267 NA
HETATM   12  N12 UNL     1     -36.769  16.243  -3.270  1.00 20.00    -0.226 N 
ENDROOT
TORSDOF 0
ENDMDL
MODEL 3
REMARK VINA RESULT:      -4.8     12.623     14.823
REMARK  0 active torsions:
REMARK  status: ('A' for Active; 'I' for Inactive)
ROOT
HETATM    1  C1  UNL     1     -42.524   1.593  -4.233  1.00 20.00     0.003 A 
HETATM    2  C2  UNL     1     -43.416   2.557  -4.501  1.00 20.00     0.034 A 
HETATM    3  C3  UNL     1     -41.560   1.991  -3.234  1.00 20.00     0.018 A 
HETATM    4  C4  UNL     1     -41.620   6.860  -0.873  1.00 20.00     0.014 A 
HETATM    5  C5  UNL     1     -42.540   6.547  -1.796  1.00 20.00     0.118 A 
HETATM    6  C6  UNL     1     -41.825   3.228  -2.843  1.00 20.00     0.042 A 
HETATM    7  C7  UNL     1     -43.006   3.645  -3.621  1.00 20.00     0.091 A 
HETATM    8  C8  UNL     1     -41.533   4.395  -2.020  1.00 20.00     0.158 A 
HETATM    9  C9  UNL     1     -40.551   5.862  -0.477  1.00 20.00     0.180 A 
HETATM   10  N10 UNL     1     -43.413   4.851  -3.362  1.00 20.00    -0.166 NA
HETATM   11  N11 UNL     1     -40.588   4.539  -1.162  1.00 20.00    -0.267 NA
HETATM   12  N12 UNL     1     -42.518   5.315  -2.386  1.00 20.00    -0.226 N 
ENDROOT
TORSDOF 0
ENDMDL
MODEL 4
REMARK VINA RESULT:      -4.7      2.357      3.816
REMARK  0 active torsions:
REMARK  status: ('A' for Active; 'I' for Inactive)
ROOT
HETATM    1  C1  UNL     1     -34.425  18.527  -7.750  1.00 20.00     0.003 A 
HETATM    2  C2  UNL     1     -33.709  18.851  -6.664  1.00 20.00     0.034 A 
HETATM    3  C3  UNL     1     -34.855  17.149  -7.742  1.00 20.00     0.018 A 
HETATM    4  C4  UNL     1     -33.665  13.731  -3.718  1.00 20.00     0.014 A 
HETATM    5  C5  UNL     1     -33.238  15.000  -3.673  1.00 20.00     0.118 A 
HETATM    6  C6  UNL     1     -34.416  16.564  -6.637  1.00 20.00     0.042 A 
HETATM    7  C7  UNL     1     -33.673  17.607  -5.905  1.00 20.00     0.091 A 
HETATM    8  C8  UNL     1     -34.299  15.396  -5.773  1.00 20.00     0.158 A 
HETATM    9  C9  UNL     1     -34.484  13.232  -4.891  1.00 20.00     0.180 A 
HETATM   10  N10 UNL     1     -33.166  17.205  -4.779  1.00 20.00    -0.166 NA
HETATM   11  N11 UNL     1     -34.779  14.221  -5.967  1.00 20.00    -0.267 NA
HETATM   12  N12 UNL     1     -33.543  15.856  -4.692  1.00 20.00    -0.226 N 
ENDROOT
TORSDOF 0
ENDMDL
MODEL 5
REMARK VINA RESULT:      -4.7      1.072      4.052
REMARK  0 active torsions:
REMARK  status: ('A' for Active; 'I' for Inactive)
ROOT
HETATM    1  C1  UNL     1     -34.791  13.488  -5.208  1.00 20.00     0.003 A 
HETATM    2  C2  UNL     1     -34.443  14.571  -5.919  1.00 20.00     0.034 A 
HETATM    3  C3  UNL     1     -34.855  13.752  -3.790  1.00 20.00     0.018 A 
HETATM    4  C4  UNL     1     -33.801  18.613  -1.659  1.00 20.00     0.014 A 
HETATM    5  C5  UNL     1     -33.723  18.427  -2.984  1.00 20.00     0.118 A 
HETATM    6  C6  UNL     1     -34.548  15.022  -3.570  1.00 20.00     0.042 A 
HETATM    7  C7  UNL     1     -34.273  15.599  -4.898  1.00 20.00     0.091 A 
HETATM    8  C8  UNL     1     -34.343  16.145  -2.664  1.00 20.00     0.158 A 
HETATM    9  C9  UNL     1     -34.182  17.471  -0.738  1.00 20.00     0.180 A 
HETATM   10  N10 UNL     1     -33.951  16.856  -4.874  1.00 20.00    -0.166 NA
HETATM   11  N11 UNL     1     -34.460  16.158  -1.385  1.00 20.00    -0.267 NA
HETATM   12  N12 UNL     1     -33.992  17.197  -3.513  1.00 20.00    -0.226 N 
ENDROOT
TORSDOF 0
ENDMDL
MODEL 6
REMARK VINA RESULT:      -4.7     12.311     13.869
REMARK  0 active torsions:
REMARK  status: ('A' for Active; 'I' for Inactive)
ROOT
HETATM    1  C1  UNL     1     -42.099   7.768  -1.139  1.00 20.00     0.003 A 
HETATM    2  C2  UNL     1     -41.101   6.993  -0.690  1.00 20.00     0.034 A 
HETATM    3  C3  UNL     1     -42.934   7.095  -2.106  1.00 20.00     0.018 A 
HETATM    4  C4  UNL     1     -42.064   1.992  -3.683  1.00 20.00     0.014 A 
HETATM    5  C5  UNL     1     -41.254   2.566  -2.783  1.00 20.00     0.118 A 
HETATM    6  C6  UNL     1     -42.478   5.865  -2.290  1.00 20.00     0.042 A 
HETATM    7  C7  UNL     1     -41.303   5.740  -1.409  1.00 20.00     0.091 A 
HETATM    8  C8  UNL     1     -42.557   4.559  -2.934  1.00 20.00     0.158 A 
HETATM    9  C9  UNL     1     -43.230   2.758  -4.274  1.00 20.00     0.180 A 
HETATM   10  N10 UNL     1     -40.721   4.581  -1.461  1.00 20.00    -0.166 NA
HETATM   11  N11 UNL     1     -43.417   4.158  -3.799  1.00 20.00    -0.267 NA
HETATM   12  N12 UNL     1     -41.481   3.854  -2.390  1.00 20.00    -0.226 N 
ENDROOT
TORSDOF 0
ENDMDL
MODEL 7
REMARK VINA RESULT:      -4.7      0.937      4.563
REMARK  0 active torsions:
REMARK  status: ('A' for Active; 'I' for Inactive)
ROOT
HETATM    1  C1  UNL     1     -34.492  14.925  -6.862  1.00 20.00     0.003 A 
HETATM    2  C2  UNL     1     -34.916  14.097  -5.897  1.00 20.00     0.034 A 
HETATM    3  C3  UNL     1     -34.060  16.203  -6.347  1.00 20.00     0.018 A 
HETATM    4  C4  UNL     1     -34.165  17.430  -1.077  1.00 20.00     0.014 A 
HETATM    5  C5  UNL     1     -34.580  16.228  -1.498  1.00 20.00     0.118 A 
HETATM    6  C6  UNL     1     -34.201  16.211  -5.030  1.00 20.00     0.042 A 
HETATM    7  C7  UNL     1     -34.746  14.886  -4.682  1.00 20.00     0.091 A 
HETATM    8  C8  UNL     1     -34.086  16.879  -3.739  1.00 20.00     0.158 A 
HETATM    9  C9  UNL     1     -33.662  18.464  -2.065  1.00 20.00     0.180 A 
HETATM   10  N10 UNL     1     -34.951  14.713  -3.411  1.00 20.00    -0.166 NA
HETATM   11  N11 UNL     1     -33.657  18.066  -3.501  1.00 20.00    -0.267 NA
HETATM   12  N12 UNL     1     -34.549  15.926  -2.829  1.00 20.00    -0.226 N 
ENDROOT
TORSDOF 0
ENDMDL
MODEL 8
REMARK VINA RESULT:      -4.7      0.920      2.145
REMARK  0 active torsions:
REMARK  status: ('A' for Active; 'I' for Inactive)
ROOT
HETATM    1  C1  UNL     1     -34.011  17.742  -1.016  1.00 20.00     0.003 A 
HETATM    2  C2  UNL     1     -34.591  16.541  -0.880  1.00 20.00     0.034 A 
HETATM    3  C3  UNL     1     -33.679  18.046  -2.388  1.00 20.00     0.018 A 
HETATM    4  C4  UNL     1     -34.709  14.652  -6.476  1.00 20.00     0.014 A 
HETATM    5  C5  UNL     1     -35.038  14.315  -5.221  1.00 20.00     0.118 A 
HETATM    6  C6  UNL     1     -34.048  17.032  -3.159  1.00 20.00     0.042 A 
HETATM    7  C7  UNL     1     -34.639  16.036  -2.247  1.00 20.00     0.091 A 
HETATM    8  C8  UNL     1     -34.164  16.404  -4.469  1.00 20.00     0.158 A 
HETATM    9  C9  UNL     1     -34.045  15.982  -6.771  1.00 20.00     0.180 A 
HETATM   10  N10 UNL     1     -35.062  14.961  -2.839  1.00 20.00    -0.166 NA
HETATM   11  N11 UNL     1     -33.789  16.872  -5.604  1.00 20.00    -0.267 NA
HETATM   12  N12 UNL     1     -34.775  15.178  -4.196  1.00 20.00    -0.226 N 
ENDROOT
TORSDOF 0
ENDMDL
MODEL 9
REMARK VINA RESULT:      -4.6      2.564      3.994
REMARK  0 active torsions:
REMARK  status: ('A' for Active; 'I' for Inactive)
ROOT
HETATM    1  C1  UNL     1     -32.834  14.654  -3.486  1.00 20.00     0.003 A 
HETATM    2  C2  UNL     1     -33.571  13.629  -3.936  1.00 20.00     0.034 A 
HETATM    3  C3  UNL     1     -33.638  15.795  -3.116  1.00 20.00     0.018 A 
HETATM    4  C4  UNL     1     -39.034  15.838  -3.526  1.00 20.00     0.014 A 
HETATM    5  C5  UNL     1     -38.340  14.750  -3.886  1.00 20.00     0.118 A 
HETATM    6  C6  UNL     1     -34.916  15.512  -3.325  1.00 20.00     0.042 A 
HETATM    7  C7  UNL     1     -34.936  14.135  -3.851  1.00 20.00     0.091 A 
HETATM    8  C8  UNL     1     -36.325  15.884  -3.294  1.00 20.00     0.158 A 
HETATM    9  C9  UNL     1     -38.325  17.070  -3.001  1.00 20.00     0.180 A 
HETATM   10  N10 UNL     1     -36.125  13.686  -4.116  1.00 20.00    -0.166 NA
HETATM   11  N11 UNL     1     -36.839  16.996  -2.911  1.00 20.00    -0.267 NA
HETATM   12  N12 UNL     1     -36.978  14.748  -3.778  1.00 20.00    -0.226 N 
ENDROOT
TORSDOF 0
ENDMDL
