MODEL 1
REMARK VINA RESULT:      -4.7      0.000      0.000
REMARK  1 active torsions:
REMARK  status: ('A' for Active; 'I' for Inactive)
REMARK    1  A    between atoms: C8_8  and  C11_11 
ROOT
HETATM    1  C1  UNL     1     -33.696  14.513  -3.812  1.00 20.00    -0.081 C 
HETATM    2  C2  UNL     1     -32.786  13.613  -3.443  1.00 20.00     0.015 C 
HETATM    3  C3  UNL     1     -35.354  14.829  -5.395  1.00 20.00     0.010 C 
HETATM    4  C4  UNL     1     -34.226  15.858  -5.610  1.00 20.00     0.010 C 
HETATM    5  C5  UNL     1     -35.597  15.559  -3.006  1.00 20.00     0.014 C 
HETATM    6  C6  UNL     1     -35.183  14.402  -3.930  1.00 20.00     0.014 C 
HETATM    7  C7  UNL     1     -33.542  15.941  -4.235  1.00 20.00     0.018 C 
HETATM    8  C8  UNL     1     -34.499  16.631  -3.239  1.00 20.00    -0.002 C 
ENDROOT
BRANCH   8   9
HETATM    9  C11 UNL     1     -33.808  17.030  -1.938  1.00 20.00    -0.018 C 
HETATM   10  C9  UNL     1     -33.524  18.530  -1.918  1.00 20.00     0.010 C 
HETATM   11  C10 UNL     1     -34.658  16.630  -0.734  1.00 20.00     0.010 C 
ENDBRANCH   8   9
TORSDOF 1
ENDMDL
MODEL 2
REMARK VINA RESULT:      -4.7      1.034      2.261
REMARK  1 active torsions:
REMARK  status: ('A' for Active; 'I' for Inactive)
REMARK    1  A    between atoms: C8_8  and  C11_11 
ROOT
HETATM    1  C1  UNL     1     -35.673  15.648  -4.117  1.00 20.00    -0.081 C 
HETATM    2  C2  UNL     1     -36.890  16.184  -4.042  1.00 20.00     0.015 C 
HETATM    3  C3  UNL     1     -34.472  14.117  -5.370  1.00 20.00     0.010 C 
HETATM    4  C4  UNL     1     -34.628  13.600  -3.925  1.00 20.00     0.010 C 
HETATM    5  C5  UNL     1     -33.477  16.259  -4.520  1.00 20.00     0.014 C 
HETATM    6  C6  UNL     1     -34.683  15.632  -5.239  1.00 20.00     0.014 C 
HETATM    7  C7  UNL     1     -34.882  14.876  -3.107  1.00 20.00     0.018 C 
HETATM    8  C8  UNL     1     -33.585  15.715  -3.070  1.00 20.00    -0.002 C 
ENDROOT
BRANCH   8   9
HETATM    9  C11 UNL     1     -33.641  16.842  -2.042  1.00 20.00    -0.018 C 
HETATM   10  C9  UNL     1     -33.915  18.180  -2.726  1.00 20.00     0.010 C 
HETATM   11  C10 UNL     1     -34.704  16.553  -0.985  1.00 20.00     0.010 C 
ENDBRANCH   8   9
TORSDOF 1
ENDMDL
MODEL 3
REMARK VINA RESULT:      -4.6      1.275      3.748
REMARK  1 active torsions:
REMARK  status: ('A' for Active; 'I' for Inactive)
REMARK    1  A    between atoms: C8_8  and  C11_11 
ROOT
HETATM    1  C1  UNL     1     -33.926  14.574  -3.719  1.00 20.00    -0.081 C 
HETATM    2  C2  UNL     1     -33.260  13.421  -3.748  1.00 20.00     0.015 C 
HETATM    3  C3  UNL     1     -34.879  16.049  -2.212  1.00 20.00     0.010 C 
HETATM    4  C4  UNL     1     -35.979  15.418  -3.089  1.00 20.00     0.010 C 
HETATM    5  C5  UNL     1     -33.645  16.807  -4.262  1.00 20.00     0.014 C 
HETATM    6  C6  UNL     1     -33.601  15.869  -3.044  1.00 20.00     0.014 C 
HETATM    7  C7  UNL     1     -35.224  14.969  -4.351  1.00 20.00     0.018 C 
HETATM    8  C8  UNL     1     -34.780  16.219  -5.142  1.00 20.00    -0.002 C 
ENDROOT
BRANCH   8   9
HETATM    9  C11 UNL     1     -34.293  15.885  -6.549  1.00 20.00    -0.018 C 
HETATM   10  C9  UNL     1     -35.012  14.650  -7.088  1.00 20.00     0.010 C 
HETATM   11  C10 UNL     1     -34.497  17.074  -7.485  1.00 20.00     0.010 C 
ENDBRANCH   8   9
TORSDOF 1
ENDMDL
MODEL 4
REMARK VINA RESULT:      -4.5      1.015      2.405
REMARK  1 active torsions:
REMARK  status: ('A' for Active; 'I' for Inactive)
REMARK    1  A    between atoms: C8_8  and  C11_11 
ROOT
HETATM    1  C1  UNL     1     -36.063  14.968  -3.971  1.00 20.00    -0.081 C 
HETATM    2  C2  UNL     1     -37.367  14.883  -3.710  1.00 20.00     0.015 C 
HETATM    3  C3  UNL     1     -34.460  14.057  -5.369  1.00 20.00     0.010 C 
HETATM    4  C4  UNL     1     -34.158  13.668  -3.908  1.00 20.00     0.010 C 
HETATM    5  C5  UNL     1     -34.495  16.487  -4.741  1.00 20.00     0.014 C 
HETATM    6  C6  UNL     1     -35.344  15.306  -5.239  1.00 20.00     0.014 C 
HETATM    7  C7  UNL     1     -34.874  14.753  -3.087  1.00 20.00     0.018 C 
HETATM    8  C8  UNL     1     -34.138  16.098  -3.281  1.00 20.00    -0.002 C 
ENDROOT
BRANCH   8   9
HETATM    9  C11 UNL     1     -34.583  17.163  -2.283  1.00 20.00    -0.018 C 
HETATM   10  C9  UNL     1     -34.612  16.594  -0.866  1.00 20.00     0.010 C 
HETATM   11  C10 UNL     1     -33.664  18.381  -2.352  1.00 20.00     0.010 C 
ENDBRANCH   8   9
TORSDOF 1
ENDMDL
MODEL 5
REMARK VINA RESULT:      -4.5      1.554      2.825
REMARK  1 active torsions:
REMARK  status: ('A' for Active; 'I' for Inactive)
REMARK    1  A    between atoms: C8_8  and  C11_11 
ROOT
HETATM    1  C1  UNL     1     -34.468  15.824  -2.565  1.00 20.00    -0.081 C 
HETATM    2  C2  UNL     1     -34.677  16.349  -1.359  1.00 20.00     0.015 C 
HETATM    3  C3  UNL     1     -34.182  13.770  -3.592  1.00 20.00     0.010 C 
HETATM    4  C4  UNL     1     -32.885  14.597  -3.710  1.00 20.00     0.010 C 
HETATM    5  C5  UNL     1     -35.495  15.640  -4.631  1.00 20.00     0.014 C 
HETATM    6  C6  UNL     1     -35.266  14.828  -3.345  1.00 20.00     0.014 C 
HETATM    7  C7  UNL     1     -33.363  16.049  -3.550  1.00 20.00     0.018 C 
HETATM    8  C8  UNL     1     -34.181  16.448  -4.798  1.00 20.00    -0.002 C 
ENDROOT
BRANCH   8   9
HETATM    9  C11 UNL     1     -34.442  17.950  -4.876  1.00 20.00    -0.018 C 
HETATM   10  C9  UNL     1     -33.646  18.576  -6.018  1.00 20.00     0.010 C 
HETATM   11  C10 UNL     1     -35.934  18.227  -5.048  1.00 20.00     0.010 C 
ENDBRANCH   8   9
TORSDOF 1
ENDMDL
MODEL 6
REMARK VINA RESULT:      -4.5      1.934      4.013
REMARK  1 active torsions:
REMARK  status: ('A' for Active; 'I' for Inactive)
REMARK    1  A    between atoms: C8_8  and  C11_11 
ROOT
HETATM    1  C1  UNL     1     -35.235  14.973  -3.843  1.00 20.00    -0.081 C 
HETATM    2  C2  UNL     1     -36.285  15.414  -3.151  1.00 20.00     0.015 C 
HETATM    3  C3  UNL     1     -33.307  13.725  -3.560  1.00 20.00     0.010 C 
HETATM    4  C4  UNL     1     -32.939  15.184  -3.899  1.00 20.00     0.010 C 
HETATM    5  C5  UNL     1     -34.730  13.582  -5.623  1.00 20.00     0.014 C 
HETATM    6  C6  UNL     1     -34.743  13.582  -4.085  1.00 20.00     0.014 C 
HETATM    7  C7  UNL     1     -34.190  15.720  -4.612  1.00 20.00     0.018 C 
HETATM    8  C8  UNL     1     -34.315  15.032  -5.990  1.00 20.00    -0.002 C 
ENDROOT
BRANCH   8   9
HETATM    9  C11 UNL     1     -35.343  15.706  -6.895  1.00 20.00    -0.018 C 
HETATM   10  C9  UNL     1     -34.710  16.872  -7.652  1.00 20.00     0.010 C 
HETATM   11  C10 UNL     1     -35.945  14.697  -7.870  1.00 20.00     0.010 C 
ENDBRANCH   8   9
TORSDOF 1
ENDMDL
MODEL 7
REMARK VINA RESULT:      -4.5     12.241     14.128
REMARK  1 active torsions:
REMARK  status: ('A' for Active; 'I' for Inactive)
REMARK    1  A    between atoms: C8_8  and  C11_11 
ROOT
HETATM    1  C1  UNL     1     -42.428   5.062  -0.208  1.00 20.00    -0.081 C 
HETATM    2  C2  UNL     1     -43.367   4.695   0.661  1.00 20.00     0.015 C 
HETATM    3  C3  UNL     1     -40.775   6.659  -0.482  1.00 20.00     0.010 C 
HETATM    4  C4  UNL     1     -41.865   6.849  -1.555  1.00 20.00     0.010 C 
HETATM    5  C5  UNL     1     -40.480   4.264  -1.172  1.00 20.00     0.014 C 
HETATM    6  C6  UNL     1     -40.947   5.197  -0.043  1.00 20.00     0.014 C 
HETATM    7  C7  UNL     1     -42.532   5.467  -1.646  1.00 20.00     0.018 C 
HETATM    8  C8  UNL     1     -41.539   4.472  -2.288  1.00 20.00    -0.002 C 
ENDROOT
BRANCH   8   9
HETATM    9  C11 UNL     1     -42.201   3.159  -2.696  1.00 20.00    -0.018 C 
HETATM   10  C9  UNL     1     -43.417   3.423  -3.582  1.00 20.00     0.010 C 
HETATM   11  C10 UNL     1     -41.203   2.254  -3.414  1.00 20.00     0.010 C 
ENDBRANCH   8   9
TORSDOF 1
ENDMDL
MODEL 8
REMARK VINA RESULT:      -4.5      1.592      3.246
REMARK  1 active torsions:
REMARK  status: ('A' for Active; 'I' for Inactive)
REMARK    1  A    between atoms: C8_8  and  C11_11 
ROOT
HETATM    1  C1  UNL     1     -34.161  15.496  -4.955  1.00 20.00    -0.081 C 
HETATM    2  C2  UNL     1     -33.847  16.371  -5.909  1.00 20.00     0.015 C 
HETATM    3  C3  UNL     1     -33.200  13.815  -3.688  1.00 20.00     0.010 C 
HETATM    4  C4  UNL     1     -34.278  13.217  -4.614  1.00 20.00     0.010 C 
HETATM    5  C5  UNL     1     -34.870  15.439  -2.752  1.00 20.00     0.014 C 
HETATM    6  C6  UNL     1     -33.587  15.297  -3.588  1.00 20.00     0.014 C 
HETATM    7  C7  UNL     1     -35.194  14.412  -4.926  1.00 20.00     0.018 C 
HETATM    8  C8  UNL     1     -35.967  14.800  -3.645  1.00 20.00    -0.002 C 
ENDROOT
BRANCH   8   9
HETATM    9  C11 UNL     1     -37.113  15.769  -3.919  1.00 20.00    -0.018 C 
HETATM   10  C9  UNL     1     -38.460  15.084  -3.701  1.00 20.00     0.010 C 
HETATM   11  C10 UNL     1     -36.992  17.008  -3.035  1.00 20.00     0.010 C 
ENDBRANCH   8   9
TORSDOF 1
ENDMDL
MODEL 9
REMARK VINA RESULT:      -4.4      1.095      2.096
REMARK  1 active torsions:
REMARK  status: ('A' for Active; 'I' for Inactive)
REMARK    1  A    between atoms: C8_8  and  C11_11 
ROOT
HETATM    1  C1  UNL     1     -34.473  15.297  -5.150  1.00 20.00    -0.081 C 
HETATM    2  C2  UNL     1     -34.131  15.890  -6.293  1.00 20.00     0.015 C 
HETATM    3  C3  UNL     1     -35.225  13.259  -4.351  1.00 20.00     0.010 C 
HETATM    4  C4  UNL     1     -36.309  14.334  -4.137  1.00 20.00     0.010 C 
HETATM    5  C5  UNL     1     -33.551  14.669  -3.122  1.00 20.00     0.014 C 
HETATM    6  C6  UNL     1     -33.929  14.071  -4.487  1.00 20.00     0.014 C 
HETATM    7  C7  UNL     1     -35.520  15.654  -4.140  1.00 20.00     0.018 C 
HETATM    8  C8  UNL     1     -34.658  15.725  -2.860  1.00 20.00    -0.002 C 
ENDROOT
BRANCH   8   9
HETATM    9  C11 UNL     1     -34.073  17.114  -2.620  1.00 20.00    -0.018 C 
HETATM   10  C9  UNL     1     -35.044  18.195  -3.090  1.00 20.00     0.010 C 
HETATM   11  C10 UNL     1     -33.730  17.306  -1.145  1.00 20.00     0.010 C 
ENDBRANCH   8   9
TORSDOF 1
ENDMDL
