MODEL 1
REMARK VINA RESULT:      -4.6      0.000      0.000
REMARK  1 active torsions:
REMARK  status: ('A' for Active; 'I' for Inactive)
REMARK    1  A    between atoms: C7_7  and  C11_11 
ROOT
HETATM    1  C1  UNL     1     -35.456  15.489  -4.909  1.00 20.00    -0.084 C 
HETATM    2  C2  UNL     1     -36.497  14.982  -5.578  1.00 20.00     0.014 C 
HETATM    3  C3  UNL     1     -35.363  15.582  -3.402  1.00 20.00     0.044 C 
HETATM    4  C4  UNL     1     -32.835  14.937  -3.493  1.00 20.00     0.016 A 
HETATM    5  C5  UNL     1     -34.149  15.958  -5.526  1.00 20.00     0.014 C 
HETATM    6  C6  UNL     1     -33.181  16.113  -4.369  1.00 20.00     0.003 A 
HETATM    7  C7  UNL     1     -33.918  15.907  -3.078  1.00 20.00    -0.029 A 
HETATM    8  C8  UNL     1     -34.324  17.280  -6.270  1.00 20.00     0.015 C 
ENDROOT
BRANCH   7   9
HETATM    9  C11 UNL     1     -33.668  16.818  -1.918  1.00 20.00    -0.014 C 
HETATM   10  C9  UNL     1     -33.680  18.296  -2.343  1.00 20.00     0.010 C 
HETATM   11  C10 UNL     1     -34.695  16.601  -0.794  1.00 20.00     0.010 C 
ENDBRANCH   7   9
TORSDOF 1
ENDMDL
MODEL 2
REMARK VINA RESULT:      -4.5      1.485      2.106
REMARK  1 active torsions:
REMARK  status: ('A' for Active; 'I' for Inactive)
REMARK    1  A    between atoms: C7_7  and  C11_11 
ROOT
HETATM    1  C1  UNL     1     -36.583  15.105  -5.963  1.00 20.00    -0.084 C 
HETATM    2  C2  UNL     1     -37.734  15.342  -6.599  1.00 20.00     0.014 C 
HETATM    3  C3  UNL     1     -36.299  15.481  -4.525  1.00 20.00     0.044 C 
HETATM    4  C4  UNL     1     -35.013  13.238  -4.166  1.00 20.00     0.016 A 
HETATM    5  C5  UNL     1     -35.403  14.327  -6.525  1.00 20.00     0.014 C 
HETATM    6  C6  UNL     1     -34.504  14.034  -5.339  1.00 20.00     0.003 A 
HETATM    7  C7  UNL     1     -35.031  14.750  -4.130  1.00 20.00    -0.029 A 
HETATM    8  C8  UNL     1     -34.658  15.131  -7.588  1.00 20.00     0.015 C 
ENDROOT
BRANCH   7   9
HETATM    9  C11 UNL     1     -34.091  15.463  -3.211  1.00 20.00    -0.014 C 
HETATM   10  C9  UNL     1     -33.348  16.602  -3.931  1.00 20.00     0.010 C 
HETATM   11  C10 UNL     1     -34.819  16.028  -1.979  1.00 20.00     0.010 C 
ENDBRANCH   7   9
TORSDOF 1
ENDMDL
MODEL 3
REMARK VINA RESULT:      -4.4      1.212      3.862
REMARK  1 active torsions:
REMARK  status: ('A' for Active; 'I' for Inactive)
REMARK    1  A    between atoms: C7_7  and  C11_11 
ROOT
HETATM    1  C1  UNL     1     -33.834  17.534  -3.455  1.00 20.00    -0.084 C 
HETATM    2  C2  UNL     1     -33.672  18.860  -3.420  1.00 20.00     0.014 C 
HETATM    3  C3  UNL     1     -33.993  16.718  -4.719  1.00 20.00     0.044 C 
HETATM    4  C4  UNL     1     -32.511  14.821  -3.711  1.00 20.00     0.016 A 
HETATM    5  C5  UNL     1     -33.780  16.602  -2.255  1.00 20.00     0.014 C 
HETATM    6  C6  UNL     1     -33.671  15.202  -2.828  1.00 20.00     0.003 A 
HETATM    7  C7  UNL     1     -33.821  15.266  -4.320  1.00 20.00    -0.029 A 
HETATM    8  C8  UNL     1     -35.027  16.739  -1.384  1.00 20.00     0.015 C 
ENDROOT
BRANCH   7   9
HETATM    9  C11 UNL     1     -34.668  14.259  -5.033  1.00 20.00    -0.014 C 
HETATM   10  C9  UNL     1     -36.031  14.073  -4.344  1.00 20.00     0.010 C 
HETATM   11  C10 UNL     1     -34.889  14.643  -6.506  1.00 20.00     0.010 C 
ENDBRANCH   7   9
TORSDOF 1
ENDMDL
MODEL 4
REMARK VINA RESULT:      -4.4      1.495      3.902
REMARK  1 active torsions:
REMARK  status: ('A' for Active; 'I' for Inactive)
REMARK    1  A    between atoms: C7_7  and  C11_11 
ROOT
HETATM    1  C1  UNL     1     -35.024  16.409  -1.987  1.00 20.00    -0.084 C 
HETATM    2  C2  UNL     1     -34.560  16.713  -0.771  1.00 20.00     0.014 C 
HETATM    3  C3  UNL     1     -34.754  15.109  -2.713  1.00 20.00     0.044 C 
HETATM    4  C4  UNL     1     -37.205  15.073  -3.612  1.00 20.00     0.016 A 
HETATM    5  C5  UNL     1     -35.984  17.256  -2.807  1.00 20.00     0.014 C 
HETATM    6  C6  UNL     1     -36.476  16.355  -3.923  1.00 20.00     0.003 A 
HETATM    7  C7  UNL     1     -35.717  15.060  -3.883  1.00 20.00    -0.029 A 
HETATM    8  C8  UNL     1     -35.294  18.496  -3.371  1.00 20.00     0.015 C 
ENDROOT
BRANCH   7   9
HETATM    9  C11 UNL     1     -35.218  14.444  -5.152  1.00 20.00    -0.014 C 
HETATM   10  C9  UNL     1     -34.353  15.427  -5.959  1.00 20.00     0.010 C 
HETATM   11  C10 UNL     1     -34.414  13.160  -4.881  1.00 20.00     0.010 C 
ENDBRANCH   7   9
TORSDOF 1
ENDMDL
MODEL 5
REMARK VINA RESULT:      -4.4      1.752      2.529
REMARK  1 active torsions:
REMARK  status: ('A' for Active; 'I' for Inactive)
REMARK    1  A    between atoms: C7_7  and  C11_11 
ROOT
HETATM    1  C1  UNL     1     -34.821  14.723  -3.533  1.00 20.00    -0.084 C 
HETATM    2  C2  UNL     1     -34.857  13.480  -4.024  1.00 20.00     0.014 C 
HETATM    3  C3  UNL     1     -36.025  15.482  -3.019  1.00 20.00     0.044 C 
HETATM    4  C4  UNL     1     -34.598  16.475  -1.071  1.00 20.00     0.016 A 
HETATM    5  C5  UNL     1     -33.566  15.549  -3.303  1.00 20.00     0.014 C 
HETATM    6  C6  UNL     1     -33.995  16.714  -2.431  1.00 20.00     0.003 A 
HETATM    7  C7  UNL     1     -35.488  16.690  -2.275  1.00 20.00    -0.029 A 
HETATM    8  C8  UNL     1     -32.973  16.044  -4.620  1.00 20.00     0.015 C 
ENDROOT
BRANCH   7   9
HETATM    9  C11 UNL     1     -36.274  17.958  -2.377  1.00 20.00    -0.014 C 
HETATM   10  C9  UNL     1     -35.748  18.863  -3.505  1.00 20.00     0.010 C 
HETATM   11  C10 UNL     1     -37.771  17.682  -2.601  1.00 20.00     0.010 C 
ENDBRANCH   7   9
TORSDOF 1
ENDMDL
MODEL 6
REMARK VINA RESULT:      -4.3     12.025     13.620
REMARK  1 active torsions:
REMARK  status: ('A' for Active; 'I' for Inactive)
REMARK    1  A    between atoms: C7_7  and  C11_11 
ROOT
HETATM    1  C1  UNL     1     -42.729   4.149  -0.395  1.00 20.00    -0.084 C 
HETATM    2  C2  UNL     1     -43.417   3.106   0.079  1.00 20.00     0.014 C 
HETATM    3  C3  UNL     1     -43.100   5.599  -0.174  1.00 20.00     0.044 C 
HETATM    4  C4  UNL     1     -40.582   6.222   0.124  1.00 20.00     0.016 A 
HETATM    5  C5  UNL     1     -41.407   4.073  -1.142  1.00 20.00     0.014 C 
HETATM    6  C6  UNL     1     -40.865   5.489  -1.161  1.00 20.00     0.003 A 
HETATM    7  C7  UNL     1     -41.897   6.421  -0.595  1.00 20.00    -0.029 A 
HETATM    8  C8  UNL     1     -41.595   3.542  -2.561  1.00 20.00     0.015 C 
ENDROOT
BRANCH   7   9
HETATM    9  C11 UNL     1     -42.168   7.733  -1.259  1.00 20.00    -0.014 C 
HETATM   10  C9  UNL     1     -42.336   7.577  -2.781  1.00 20.00     0.010 C 
HETATM   11  C10 UNL     1     -43.416   8.418  -0.676  1.00 20.00     0.010 C 
ENDBRANCH   7   9
TORSDOF 1
ENDMDL
MODEL 7
REMARK VINA RESULT:      -4.3      1.498      4.155
REMARK  1 active torsions:
REMARK  status: ('A' for Active; 'I' for Inactive)
REMARK    1  A    between atoms: C7_7  and  C11_11 
ROOT
HETATM    1  C1  UNL     1     -34.746  15.683  -3.122  1.00 20.00    -0.084 C 
HETATM    2  C2  UNL     1     -34.449  16.254  -1.950  1.00 20.00     0.014 C 
HETATM    3  C3  UNL     1     -33.860  15.721  -4.348  1.00 20.00     0.044 C 
HETATM    4  C4  UNL     1     -34.476  13.244  -4.898  1.00 20.00     0.016 A 
HETATM    5  C5  UNL     1     -35.960  14.812  -3.401  1.00 20.00     0.014 C 
HETATM    6  C6  UNL     1     -35.681  14.132  -4.728  1.00 20.00     0.003 A 
HETATM    7  C7  UNL     1     -34.420  14.696  -5.316  1.00 20.00    -0.029 A 
HETATM    8  C8  UNL     1     -37.240  15.642  -3.472  1.00 20.00     0.015 C 
ENDROOT
BRANCH   7   9
HETATM    9  C11 UNL     1     -34.355  15.029  -6.773  1.00 20.00    -0.014 C 
HETATM   10  C9  UNL     1     -35.556  14.452  -7.541  1.00 20.00     0.010 C 
HETATM   11  C10 UNL     1     -34.282  16.548  -7.006  1.00 20.00     0.010 C 
ENDBRANCH   7   9
TORSDOF 1
ENDMDL
MODEL 8
REMARK VINA RESULT:      -4.3      1.248      3.893
REMARK  1 active torsions:
REMARK  status: ('A' for Active; 'I' for Inactive)
REMARK    1  A    between atoms: C7_7  and  C11_11 
ROOT
HETATM    1  C1  UNL     1     -34.457  16.093  -3.002  1.00 20.00    -0.084 C 
HETATM    2  C2  UNL     1     -34.673  16.144  -1.684  1.00 20.00     0.014 C 
HETATM    3  C3  UNL     1     -35.465  16.489  -4.057  1.00 20.00     0.044 C 
HETATM    4  C4  UNL     1     -33.575  17.580  -5.490  1.00 20.00     0.016 A 
HETATM    5  C5  UNL     1     -33.139  15.735  -3.670  1.00 20.00     0.014 C 
HETATM    6  C6  UNL     1     -33.291  16.147  -5.122  1.00 20.00     0.003 A 
HETATM    7  C7  UNL     1     -34.706  16.584  -5.366  1.00 20.00    -0.029 A 
HETATM    8  C8  UNL     1     -32.840  14.242  -3.555  1.00 20.00     0.015 C 
ENDROOT
BRANCH   7   9
HETATM    9  C11 UNL     1     -35.424  16.146  -6.604  1.00 20.00    -0.014 C 
HETATM   10  C9  UNL     1     -35.000  14.732  -7.036  1.00 20.00     0.010 C 
HETATM   11  C10 UNL     1     -36.950  16.187  -6.419  1.00 20.00     0.010 C 
ENDBRANCH   7   9
TORSDOF 1
ENDMDL
MODEL 9
REMARK VINA RESULT:      -4.3      1.188      3.501
REMARK  1 active torsions:
REMARK  status: ('A' for Active; 'I' for Inactive)
REMARK    1  A    between atoms: C7_7  and  C11_11 
ROOT
HETATM    1  C1  UNL     1     -34.591  16.421  -2.016  1.00 20.00    -0.084 C 
HETATM    2  C2  UNL     1     -34.850  16.658  -0.726  1.00 20.00     0.014 C 
HETATM    3  C3  UNL     1     -33.707  17.281  -2.890  1.00 20.00     0.044 C 
HETATM    4  C4  UNL     1     -32.729  15.151  -4.040  1.00 20.00     0.016 A 
HETATM    5  C5  UNL     1     -35.045  15.200  -2.800  1.00 20.00     0.014 C 
HETATM    6  C6  UNL     1     -34.234  15.211  -4.082  1.00 20.00     0.003 A 
HETATM    7  C7  UNL     1     -33.438  16.482  -4.151  1.00 20.00    -0.029 A 
HETATM    8  C8  UNL     1     -36.541  15.252  -3.102  1.00 20.00     0.015 C 
ENDROOT
BRANCH   7   9
HETATM    9  C11 UNL     1     -33.350  17.244  -5.435  1.00 20.00    -0.014 C 
HETATM   10  C9  UNL     1     -34.392  16.756  -6.457  1.00 20.00     0.010 C 
HETATM   11  C10 UNL     1     -33.524  18.756  -5.211  1.00 20.00     0.010 C 
ENDBRANCH   7   9
TORSDOF 1
ENDMDL
