MODEL 1
REMARK VINA RESULT:      -5.8      0.000      0.000
REMARK  0 active torsions:
REMARK  status: ('A' for Active; 'I' for Inactive)
ROOT
HETATM    1  C1  UNL     1     -35.437   4.782   4.041  1.00 20.00     0.019 A 
HETATM    2  C2  UNL     1     -35.334   4.677   5.373  1.00 20.00     0.054 A 
HETATM    3  C3  UNL     1     -33.408   6.292   5.353  1.00 20.00     0.096 A 
HETATM    4  C4  UNL     1     -33.511   6.396   4.021  1.00 20.00     0.133 A 
HETATM    5  C5  UNL     1     -34.536   5.656   3.215  1.00 20.00     0.254 A 
HETATM    6  C6  UNL     1     -34.308   5.420   6.178  1.00 20.00     0.282 A 
HETATM    7  F7  UNL     1     -32.650   7.211   3.370  1.00 20.00    -0.207 F 
HETATM    8  F8  UNL     1     -33.908   4.897   2.273  1.00 20.00    -0.238 F 
HETATM    9  F9  UNL     1     -34.938   6.182   7.118  1.00 20.00    -0.197 F 
HETATM   10  F10 UNL     1     -33.553   4.529   6.881  1.00 20.00    -0.197 F 
ENDROOT
TORSDOF 0
ENDMDL
MODEL 2
REMARK VINA RESULT:      -5.6      1.156      3.315
REMARK  0 active torsions:
REMARK  status: ('A' for Active; 'I' for Inactive)
ROOT
HETATM    1  C1  UNL     1     -35.071   4.235   5.688  1.00 20.00     0.019 A 
HETATM    2  C2  UNL     1     -35.323   4.280   4.373  1.00 20.00     0.054 A 
HETATM    3  C3  UNL     1     -34.013   6.418   4.192  1.00 20.00     0.096 A 
HETATM    4  C4  UNL     1     -33.762   6.372   5.508  1.00 20.00     0.133 A 
HETATM    5  C5  UNL     1     -34.259   5.277   6.403  1.00 20.00     0.254 A 
HETATM    6  C6  UNL     1     -34.823   5.376   3.477  1.00 20.00     0.282 A 
HETATM    7  F7  UNL     1     -33.021   7.362   6.056  1.00 20.00    -0.207 F 
HETATM    8  F8  UNL     1     -35.004   5.819   7.409  1.00 20.00    -0.238 F 
HETATM    9  F9  UNL     1     -34.075   4.833   2.474  1.00 20.00    -0.197 F 
HETATM   10  F10 UNL     1     -35.881   5.973   2.858  1.00 20.00    -0.197 F 
ENDROOT
TORSDOF 0
ENDMDL
MODEL 3
REMARK VINA RESULT:      -5.5      1.362      1.949
REMARK  0 active torsions:
REMARK  status: ('A' for Active; 'I' for Inactive)
ROOT
HETATM    1  C1  UNL     1     -34.825   5.584   3.713  1.00 20.00     0.019 A 
HETATM    2  C2  UNL     1     -35.166   4.469   4.375  1.00 20.00     0.054 A 
HETATM    3  C3  UNL     1     -34.015   5.337   6.434  1.00 20.00     0.096 A 
HETATM    4  C4  UNL     1     -33.674   6.451   5.772  1.00 20.00     0.133 A 
HETATM    5  C5  UNL     1     -34.042   6.701   4.340  1.00 20.00     0.254 A 
HETATM    6  C6  UNL     1     -34.799   4.221   5.809  1.00 20.00     0.282 A 
HETATM    7  F7  UNL     1     -32.966   7.399   6.427  1.00 20.00    -0.207 F 
HETATM    8  F8  UNL     1     -32.908   6.921   3.614  1.00 20.00    -0.238 F 
HETATM    9  F9  UNL     1     -35.934   4.005   6.534  1.00 20.00    -0.197 F 
HETATM   10  F10 UNL     1     -34.086   3.062   5.900  1.00 20.00    -0.197 F 
ENDROOT
TORSDOF 0
ENDMDL
MODEL 4
REMARK VINA RESULT:      -5.5      1.255      3.158
REMARK  0 active torsions:
REMARK  status: ('A' for Active; 'I' for Inactive)
ROOT
HETATM    1  C1  UNL     1     -34.722   5.224   6.211  1.00 20.00     0.019 A 
HETATM    2  C2  UNL     1     -35.306   4.806   5.079  1.00 20.00     0.054 A 
HETATM    3  C3  UNL     1     -33.776   6.284   3.741  1.00 20.00     0.096 A 
HETATM    4  C4  UNL     1     -33.192   6.702   4.873  1.00 20.00     0.133 A 
HETATM    5  C5  UNL     1     -33.597   6.219   6.233  1.00 20.00     0.254 A 
HETATM    6  C6  UNL     1     -34.899   5.289   3.718  1.00 20.00     0.282 A 
HETATM    7  F7  UNL     1     -32.187   7.602   4.785  1.00 20.00    -0.207 F 
HETATM    8  F8  UNL     1     -33.952   7.286   7.004  1.00 20.00    -0.238 F 
HETATM    9  F9  UNL     1     -34.540   4.221   2.949  1.00 20.00    -0.197 F 
HETATM   10  F10 UNL     1     -35.977   5.840   3.092  1.00 20.00    -0.197 F 
ENDROOT
TORSDOF 0
ENDMDL
MODEL 5
REMARK VINA RESULT:      -5.4      1.243      3.572
REMARK  0 active torsions:
REMARK  status: ('A' for Active; 'I' for Inactive)
ROOT
HETATM    1  C1  UNL     1     -33.806   6.525   6.247  1.00 20.00     0.019 A 
HETATM    2  C2  UNL     1     -33.077   7.041   5.247  1.00 20.00     0.054 A 
HETATM    3  C3  UNL     1     -34.100   5.392   3.649  1.00 20.00     0.096 A 
HETATM    4  C4  UNL     1     -34.828   4.876   4.650  1.00 20.00     0.133 A 
HETATM    5  C5  UNL     1     -34.765   5.384   6.059  1.00 20.00     0.254 A 
HETATM    6  C6  UNL     1     -33.143   6.532   3.837  1.00 20.00     0.282 A 
HETATM    7  F7  UNL     1     -35.662   3.848   4.376  1.00 20.00    -0.207 F 
HETATM    8  F8  UNL     1     -34.420   4.361   6.893  1.00 20.00    -0.238 F 
HETATM    9  F9  UNL     1     -33.491   7.555   3.004  1.00 20.00    -0.197 F 
HETATM   10  F10 UNL     1     -31.898   6.147   3.436  1.00 20.00    -0.197 F 
ENDROOT
TORSDOF 0
ENDMDL
MODEL 6
REMARK VINA RESULT:      -5.2      1.203      3.805
REMARK  0 active torsions:
REMARK  status: ('A' for Active; 'I' for Inactive)
ROOT
HETATM    1  C1  UNL     1     -33.806   6.684   5.366  1.00 20.00     0.019 A 
HETATM    2  C2  UNL     1     -34.023   6.549   4.051  1.00 20.00     0.054 A 
HETATM    3  C3  UNL     1     -35.344   4.454   4.481  1.00 20.00     0.096 A 
HETATM    4  C4  UNL     1     -35.125   4.589   5.797  1.00 20.00     0.133 A 
HETATM    5  C5  UNL     1     -34.335   5.718   6.387  1.00 20.00     0.254 A 
HETATM    6  C6  UNL     1     -34.816   5.420   3.461  1.00 20.00     0.282 A 
HETATM    7  F7  UNL     1     -35.645   3.663   6.634  1.00 20.00    -0.207 F 
HETATM    8  F8  UNL     1     -33.296   5.211   7.112  1.00 20.00    -0.238 F 
HETATM    9  F9  UNL     1     -35.857   5.927   2.740  1.00 20.00    -0.197 F 
HETATM   10  F10 UNL     1     -34.045   4.747   2.560  1.00 20.00    -0.197 F 
ENDROOT
TORSDOF 0
ENDMDL
MODEL 7
REMARK VINA RESULT:      -5.1      1.082      2.411
REMARK  0 active torsions:
REMARK  status: ('A' for Active; 'I' for Inactive)
ROOT
HETATM    1  C1  UNL     1     -33.564   6.817   5.463  1.00 20.00     0.019 A 
HETATM    2  C2  UNL     1     -33.968   5.917   6.370  1.00 20.00     0.054 A 
HETATM    3  C3  UNL     1     -34.860   4.458   4.529  1.00 20.00     0.096 A 
HETATM    4  C4  UNL     1     -34.457   5.359   3.622  1.00 20.00     0.133 A 
HETATM    5  C5  UNL     1     -33.762   6.637   3.985  1.00 20.00     0.254 A 
HETATM    6  C6  UNL     1     -34.661   4.637   6.005  1.00 20.00     0.282 A 
HETATM    7  F7  UNL     1     -34.684   5.102   2.314  1.00 20.00    -0.207 F 
HETATM    8  F8  UNL     1     -34.472   7.692   3.492  1.00 20.00    -0.238 F 
HETATM    9  F9  UNL     1     -33.949   3.582   6.495  1.00 20.00    -0.197 F 
HETATM   10  F10 UNL     1     -35.869   4.582   6.634  1.00 20.00    -0.197 F 
ENDROOT
TORSDOF 0
ENDMDL
MODEL 8
REMARK VINA RESULT:      -5.1      1.394      3.330
REMARK  0 active torsions:
REMARK  status: ('A' for Active; 'I' for Inactive)
ROOT
HETATM    1  C1  UNL     1     -34.393   4.981   2.901  1.00 20.00     0.019 A 
HETATM    2  C2  UNL     1     -33.361   5.750   2.525  1.00 20.00     0.054 A 
HETATM    3  C3  UNL     1     -33.229   6.709   4.845  1.00 20.00     0.096 A 
HETATM    4  C4  UNL     1     -34.260   5.940   5.220  1.00 20.00     0.133 A 
HETATM    5  C5  UNL     1     -34.957   4.990   4.293  1.00 20.00     0.254 A 
HETATM    6  C6  UNL     1     -32.664   6.700   3.455  1.00 20.00     0.282 A 
HETATM    7  F7  UNL     1     -34.694   6.024   6.498  1.00 20.00    -0.207 F 
HETATM    8  F8  UNL     1     -36.284   5.300   4.242  1.00 20.00    -0.238 F 
HETATM    9  F9  UNL     1     -31.338   6.387   3.509  1.00 20.00    -0.197 F 
HETATM   10  F10 UNL     1     -32.717   7.960   2.938  1.00 20.00    -0.197 F 
ENDROOT
TORSDOF 0
ENDMDL
MODEL 9
REMARK VINA RESULT:      -4.8     12.336     13.753
REMARK  0 active torsions:
REMARK  status: ('A' for Active; 'I' for Inactive)
ROOT
HETATM    1  C1  UNL     1     -34.609  13.860  -5.343  1.00 20.00     0.019 A 
HETATM    2  C2  UNL     1     -33.962  13.867  -4.170  1.00 20.00     0.054 A 
HETATM    3  C3  UNL     1     -33.186  16.217  -4.611  1.00 20.00     0.096 A 
HETATM    4  C4  UNL     1     -33.833  16.209  -5.785  1.00 20.00     0.133 A 
HETATM    5  C5  UNL     1     -34.618  15.032  -6.282  1.00 20.00     0.254 A 
HETATM    6  C6  UNL     1     -33.178  15.047  -3.672  1.00 20.00     0.282 A 
HETATM    7  F7  UNL     1     -33.778  17.316  -6.558  1.00 20.00    -0.207 F 
HETATM    8  F8  UNL     1     -34.130  14.644  -7.495  1.00 20.00    -0.238 F 
HETATM    9  F9  UNL     1     -33.669  15.437  -2.461  1.00 20.00    -0.197 F 
HETATM   10  F10 UNL     1     -31.890  14.667  -3.435  1.00 20.00    -0.197 F 
ENDROOT
TORSDOF 0
ENDMDL
