MODEL 1
REMARK VINA RESULT:      -5.1      0.000      0.000
REMARK  0 active torsions:
REMARK  status: ('A' for Active; 'I' for Inactive)
ROOT
HETATM    1  C1  UNL     1     -34.321  15.445  -6.339  1.00 20.00     0.001 C 
HETATM    2  C2  UNL     1     -33.620  16.755  -2.171  1.00 20.00     0.001 C 
HETATM    3  C3  UNL     1     -35.169  16.507  -5.657  1.00 20.00     0.005 C 
HETATM    4  C4  UNL     1     -33.688  17.181  -3.638  1.00 20.00     0.005 C 
HETATM    5  C5  UNL     1     -34.828  14.032  -6.107  1.00 20.00     0.005 C 
HETATM    6  C6  UNL     1     -34.935  16.034  -1.876  1.00 20.00     0.005 C 
HETATM    7  C7  UNL     1     -33.421  13.801  -3.891  1.00 20.00     0.010 A 
HETATM    8  C8  UNL     1     -35.033  16.654  -4.149  1.00 20.00    -0.010 C 
HETATM    9  C9  UNL     1     -34.592  13.428  -4.767  1.00 20.00    -0.010 A 
HETATM   10  C10 UNL     1     -35.398  15.483  -3.238  1.00 20.00    -0.006 C 
HETATM   11  C11 UNL     1     -34.830  14.111  -3.443  1.00 20.00    -0.006 A 
ENDROOT
TORSDOF 0
ENDMDL
MODEL 2
REMARK VINA RESULT:      -5.1      1.365      3.345
REMARK  0 active torsions:
REMARK  status: ('A' for Active; 'I' for Inactive)
ROOT
HETATM    1  C1  UNL     1     -33.429  16.100  -3.831  1.00 20.00     0.001 C 
HETATM    2  C2  UNL     1     -36.721  15.703  -6.760  1.00 20.00     0.001 C 
HETATM    3  C3  UNL     1     -33.301  16.553  -5.276  1.00 20.00     0.005 C 
HETATM    4  C4  UNL     1     -35.778  16.666  -6.038  1.00 20.00     0.005 C 
HETATM    5  C5  UNL     1     -33.061  14.641  -3.622  1.00 20.00     0.005 C 
HETATM    6  C6  UNL     1     -35.831  14.635  -7.397  1.00 20.00     0.005 C 
HETATM    7  C7  UNL     1     -35.525  13.860  -4.134  1.00 20.00     0.010 A 
HETATM    8  C8  UNL     1     -34.373  16.093  -6.254  1.00 20.00    -0.010 C 
HETATM    9  C9  UNL     1     -34.037  13.614  -4.080  1.00 20.00    -0.010 A 
HETATM   10  C10 UNL     1     -34.565  14.601  -6.521  1.00 20.00    -0.006 C 
HETATM   11  C11 UNL     1     -34.751  13.613  -5.408  1.00 20.00    -0.006 A 
ENDROOT
TORSDOF 0
ENDMDL
MODEL 3
REMARK VINA RESULT:      -5.1      0.935      2.640
REMARK  0 active torsions:
REMARK  status: ('A' for Active; 'I' for Inactive)
ROOT
HETATM    1  C1  UNL     1     -35.328  14.213  -6.303  1.00 20.00     0.001 C 
HETATM    2  C2  UNL     1     -35.078  16.142  -2.329  1.00 20.00     0.001 C 
HETATM    3  C3  UNL     1     -34.718  13.525  -5.093  1.00 20.00     0.005 C 
HETATM    4  C4  UNL     1     -35.623  14.959  -3.130  1.00 20.00     0.005 C 
HETATM    5  C5  UNL     1     -34.330  15.051  -7.085  1.00 20.00     0.005 C 
HETATM    6  C6  UNL     1     -33.576  16.186  -2.605  1.00 20.00     0.005 C 
HETATM    7  C7  UNL     1     -34.804  17.165  -5.585  1.00 20.00     0.010 A 
HETATM    8  C8  UNL     1     -34.413  14.385  -3.875  1.00 20.00    -0.010 C 
HETATM    9  C9  UNL     1     -33.915  16.353  -6.494  1.00 20.00    -0.010 A 
HETATM   10  C10 UNL     1     -33.409  15.530  -3.989  1.00 20.00    -0.006 C 
HETATM   11  C11 UNL     1     -33.516  16.577  -5.057  1.00 20.00    -0.006 A 
ENDROOT
TORSDOF 0
ENDMDL
MODEL 4
REMARK VINA RESULT:      -4.9      1.134      2.789
REMARK  0 active torsions:
REMARK  status: ('A' for Active; 'I' for Inactive)
ROOT
HETATM    1  C1  UNL     1     -34.353  13.603  -3.703  1.00 20.00     0.001 C 
HETATM    2  C2  UNL     1     -34.149  18.018  -3.907  1.00 20.00     0.001 C 
HETATM    3  C3  UNL     1     -33.042  14.370  -3.623  1.00 20.00     0.005 C 
HETATM    4  C4  UNL     1     -33.844  16.774  -3.072  1.00 20.00     0.005 C 
HETATM    5  C5  UNL     1     -34.772  13.275  -5.126  1.00 20.00     0.005 C 
HETATM    6  C6  UNL     1     -33.507  17.781  -5.273  1.00 20.00     0.005 C 
HETATM    7  C7  UNL     1     -36.045  15.570  -5.368  1.00 20.00     0.010 A 
HETATM    8  C8  UNL     1     -33.065  15.842  -4.007  1.00 20.00    -0.010 C 
HETATM    9  C9  UNL     1     -35.316  14.386  -5.955  1.00 20.00    -0.010 A 
HETATM   10  C10 UNL     1     -33.457  16.249  -5.427  1.00 20.00    -0.006 C 
HETATM   11  C11 UNL     1     -34.722  15.767  -6.070  1.00 20.00    -0.006 A 
ENDROOT
TORSDOF 0
ENDMDL
MODEL 5
REMARK VINA RESULT:      -4.9      1.191      2.589
REMARK  0 active torsions:
REMARK  status: ('A' for Active; 'I' for Inactive)
ROOT
HETATM    1  C1  UNL     1     -36.706  16.407  -4.724  1.00 20.00     0.001 C 
HETATM    2  C2  UNL     1     -32.724  14.888  -3.534  1.00 20.00     0.001 C 
HETATM    3  C3  UNL     1     -36.468  15.658  -3.422  1.00 20.00     0.005 C 
HETATM    4  C4  UNL     1     -33.891  15.806  -3.167  1.00 20.00     0.005 C 
HETATM    5  C5  UNL     1     -37.017  15.492  -5.896  1.00 20.00     0.005 C 
HETATM    6  C6  UNL     1     -33.333  13.511  -3.793  1.00 20.00     0.005 C 
HETATM    7  C7  UNL     1     -34.459  15.219  -6.467  1.00 20.00     0.010 A 
HETATM    8  C8  UNL     1     -35.142  14.927  -3.265  1.00 20.00    -0.010 C 
HETATM    9  C9  UNL     1     -35.885  14.727  -6.489  1.00 20.00    -0.010 A 
HETATM   10  C10 UNL     1     -34.783  13.793  -4.225  1.00 20.00    -0.006 C 
HETATM   11  C11 UNL     1     -34.839  13.966  -5.713  1.00 20.00    -0.006 A 
ENDROOT
TORSDOF 0
ENDMDL
MODEL 6
REMARK VINA RESULT:      -4.9      0.912      3.689
REMARK  0 active torsions:
REMARK  status: ('A' for Active; 'I' for Inactive)
ROOT
HETATM    1  C1  UNL     1     -33.685  16.761  -2.161  1.00 20.00     0.001 C 
HETATM    2  C2  UNL     1     -34.567  13.476  -4.990  1.00 20.00     0.001 C 
HETATM    3  C3  UNL     1     -34.922  15.886  -2.044  1.00 20.00     0.005 C 
HETATM    4  C4  UNL     1     -34.303  13.855  -3.532  1.00 20.00     0.005 C 
HETATM    5  C5  UNL     1     -33.884  17.968  -3.061  1.00 20.00     0.005 C 
HETATM    6  C6  UNL     1     -35.699  14.385  -5.467  1.00 20.00     0.005 C 
HETATM    7  C7  UNL     1     -33.174  16.597  -5.196  1.00 20.00     0.010 A 
HETATM    8  C8  UNL     1     -35.273  15.002  -3.232  1.00 20.00    -0.010 C 
HETATM    9  C9  UNL     1     -33.914  17.731  -4.531  1.00 20.00    -0.010 A 
HETATM   10  C10 UNL     1     -35.598  15.641  -4.582  1.00 20.00    -0.006 C 
HETATM   11  C11 UNL     1     -34.685  16.638  -5.228  1.00 20.00    -0.006 A 
ENDROOT
TORSDOF 0
ENDMDL
MODEL 7
REMARK VINA RESULT:      -4.8      1.009      3.302
REMARK  0 active torsions:
REMARK  status: ('A' for Active; 'I' for Inactive)
ROOT
HETATM    1  C1  UNL     1     -34.890  17.839  -4.851  1.00 20.00     0.001 C 
HETATM    2  C2  UNL     1     -34.985  13.454  -4.263  1.00 20.00     0.001 C 
HETATM    3  C3  UNL     1     -34.120  16.874  -5.738  1.00 20.00     0.005 C 
HETATM    4  C4  UNL     1     -35.275  14.610  -5.222  1.00 20.00     0.005 C 
HETATM    5  C5  UNL     1     -34.115  18.270  -3.618  1.00 20.00     0.005 C 
HETATM    6  C6  UNL     1     -33.535  13.628  -3.815  1.00 20.00     0.005 C 
HETATM    7  C7  UNL     1     -35.007  16.213  -2.235  1.00 20.00     0.010 A 
HETATM    8  C8  UNL     1     -33.985  15.435  -5.261  1.00 20.00    -0.010 C 
HETATM    9  C9  UNL     1     -33.981  17.284  -2.510  1.00 20.00    -0.010 A 
HETATM   10  C10 UNL     1     -33.257  15.137  -3.951  1.00 20.00    -0.006 C 
HETATM   11  C11 UNL     1     -33.611  15.831  -2.670  1.00 20.00    -0.006 A 
ENDROOT
TORSDOF 0
ENDMDL
MODEL 8
REMARK VINA RESULT:      -4.8      0.963      1.053
REMARK  0 active torsions:
REMARK  status: ('A' for Active; 'I' for Inactive)
ROOT
HETATM    1  C1  UNL     1     -34.436  16.569  -5.804  1.00 20.00     0.001 C 
HETATM    2  C2  UNL     1     -33.736  17.489  -1.533  1.00 20.00     0.001 C 
HETATM    3  C3  UNL     1     -35.476  17.251  -4.929  1.00 20.00     0.005 C 
HETATM    4  C4  UNL     1     -34.056  18.060  -2.915  1.00 20.00     0.005 C 
HETATM    5  C5  UNL     1     -34.510  15.053  -5.756  1.00 20.00     0.005 C 
HETATM    6  C6  UNL     1     -34.769  16.392  -1.277  1.00 20.00     0.005 C 
HETATM    7  C7  UNL     1     -32.893  14.956  -3.677  1.00 20.00     0.010 A 
HETATM    8  C8  UNL     1     -35.245  17.239  -3.425  1.00 20.00    -0.010 C 
HETATM    9  C9  UNL     1     -33.993  14.378  -4.534  1.00 20.00    -0.010 A 
HETATM   10  C10 UNL     1     -35.187  15.908  -2.678  1.00 20.00    -0.006 C 
HETATM   11  C11 UNL     1     -34.285  14.792  -3.113  1.00 20.00    -0.006 A 
ENDROOT
TORSDOF 0
ENDMDL
MODEL 9
REMARK VINA RESULT:      -4.7      1.528      2.652
REMARK  0 active torsions:
REMARK  status: ('A' for Active; 'I' for Inactive)
ROOT
HETATM    1  C1  UNL     1     -37.346  15.850  -6.042  1.00 20.00     0.001 C 
HETATM    2  C2  UNL     1     -34.187  15.165  -3.019  1.00 20.00     0.001 C 
HETATM    3  C3  UNL     1     -37.574  15.021  -4.788  1.00 20.00     0.005 C 
HETATM    4  C4  UNL     1     -35.582  15.732  -3.287  1.00 20.00     0.005 C 
HETATM    5  C5  UNL     1     -36.800  15.042  -7.206  1.00 20.00     0.005 C 
HETATM    6  C6  UNL     1     -34.208  13.727  -3.536  1.00 20.00     0.005 C 
HETATM    7  C7  UNL     1     -34.315  15.446  -6.429  1.00 20.00     0.010 A 
HETATM    8  C8  UNL     1     -36.348  14.605  -3.987  1.00 20.00    -0.010 C 
HETATM    9  C9  UNL     1     -35.367  14.642  -7.153  1.00 20.00    -0.010 A 
HETATM   10  C10 UNL     1     -35.287  13.715  -4.634  1.00 20.00    -0.006 C 
HETATM   11  C11 UNL     1     -34.664  14.055  -5.954  1.00 20.00    -0.006 A 
ENDROOT
TORSDOF 0
ENDMDL
