MODEL 1
REMARK VINA RESULT:      -5.0      0.000      0.000
REMARK  0 active torsions:
REMARK  status: ('A' for Active; 'I' for Inactive)
ROOT
HETATM    1  C1  UNL     1     -33.578  18.067  -4.672  1.00 20.00     0.001 C 
HETATM    2  C2  UNL     1     -34.674  13.277  -5.241  1.00 20.00     0.001 C 
HETATM    3  C3  UNL     1     -34.205  17.007  -5.587  1.00 20.00     0.005 C 
HETATM    4  C4  UNL     1     -34.592  14.541  -6.083  1.00 20.00     0.005 C 
HETATM    5  C5  UNL     1     -34.226  18.171  -3.290  1.00 20.00     0.005 C 
HETATM    6  C6  UNL     1     -35.138  13.754  -3.867  1.00 20.00     0.005 C 
HETATM    7  C7  UNL     1     -34.709  16.383  -1.453  1.00 20.00     0.010 A 
HETATM    8  C8  UNL     1     -34.046  15.568  -5.093  1.00 20.00    -0.010 C 
HETATM    9  C9  UNL     1     -33.742  17.106  -2.353  1.00 20.00    -0.010 A 
HETATM   10  C10 UNL     1     -34.838  15.261  -3.810  1.00 20.00    -0.006 C 
HETATM   11  C11 UNL     1     -34.055  15.651  -2.593  1.00 20.00    -0.006 A 
ENDROOT
TORSDOF 0
ENDMDL
MODEL 2
REMARK VINA RESULT:      -4.9      0.820      4.138
REMARK  0 active torsions:
REMARK  status: ('A' for Active; 'I' for Inactive)
ROOT
HETATM    1  C1  UNL     1     -34.792  13.491  -5.163  1.00 20.00     0.001 C 
HETATM    2  C2  UNL     1     -33.772  17.264  -2.131  1.00 20.00     0.001 C 
HETATM    3  C3  UNL     1     -35.059  14.127  -3.793  1.00 20.00     0.005 C 
HETATM    4  C4  UNL     1     -34.417  15.888  -2.070  1.00 20.00     0.005 C 
HETATM    5  C5  UNL     1     -35.136  14.387  -6.354  1.00 20.00     0.005 C 
HETATM    6  C6  UNL     1     -34.118  17.795  -3.520  1.00 20.00     0.005 C 
HETATM    7  C7  UNL     1     -34.417  16.819  -6.967  1.00 20.00     0.010 A 
HETATM    8  C8  UNL     1     -34.193  15.350  -3.482  1.00 20.00    -0.010 C 
HETATM    9  C9  UNL     1     -34.061  15.394  -6.637  1.00 20.00    -0.010 A 
HETATM   10  C10 UNL     1     -34.502  16.571  -4.367  1.00 20.00    -0.006 C 
HETATM   11  C11 UNL     1     -33.747  16.499  -5.658  1.00 20.00    -0.006 A 
ENDROOT
TORSDOF 0
ENDMDL
MODEL 3
REMARK VINA RESULT:      -4.8      1.146      3.217
REMARK  0 active torsions:
REMARK  status: ('A' for Active; 'I' for Inactive)
ROOT
HETATM    1  C1  UNL     1     -35.112  13.526  -4.631  1.00 20.00     0.001 C 
HETATM    2  C2  UNL     1     -34.432  17.769  -7.082  1.00 20.00     0.001 C 
HETATM    3  C3  UNL     1     -34.690  14.174  -5.956  1.00 20.00     0.005 C 
HETATM    4  C4  UNL     1     -34.543  16.281  -7.377  1.00 20.00     0.005 C 
HETATM    5  C5  UNL     1     -34.275  13.953  -3.424  1.00 20.00     0.005 C 
HETATM    6  C6  UNL     1     -33.752  17.846  -5.717  1.00 20.00     0.005 C 
HETATM    7  C7  UNL     1     -33.667  16.304  -2.470  1.00 20.00     0.010 A 
HETATM    8  C8  UNL     1     -34.877  15.692  -6.008  1.00 20.00    -0.010 C 
HETATM    9  C9  UNL     1     -34.698  15.286  -2.882  1.00 20.00    -0.010 A 
HETATM   10  C10 UNL     1     -33.939  16.466  -5.065  1.00 20.00    -0.006 C 
HETATM   11  C11 UNL     1     -34.519  16.550  -3.686  1.00 20.00    -0.006 A 
ENDROOT
TORSDOF 0
ENDMDL
MODEL 4
REMARK VINA RESULT:      -4.7      1.654      3.543
REMARK  0 active torsions:
REMARK  status: ('A' for Active; 'I' for Inactive)
ROOT
HETATM    1  C1  UNL     1     -34.246  17.683  -6.398  1.00 20.00     0.001 C 
HETATM    2  C2  UNL     1     -34.020  13.710  -3.460  1.00 20.00     0.001 C 
HETATM    3  C3  UNL     1     -33.399  16.895  -5.390  1.00 20.00     0.005 C 
HETATM    4  C4  UNL     1     -33.281  15.022  -3.670  1.00 20.00     0.005 C 
HETATM    5  C5  UNL     1     -34.653  16.887  -7.639  1.00 20.00     0.005 C 
HETATM    6  C6  UNL     1     -34.484  13.296  -4.854  1.00 20.00     0.005 C 
HETATM    7  C7  UNL     1     -35.854  14.587  -7.917  1.00 20.00     0.010 A 
HETATM    8  C8  UNL     1     -34.123  15.713  -4.740  1.00 20.00    -0.010 C 
HETATM    9  C9  UNL     1     -35.830  15.995  -7.381  1.00 20.00    -0.010 A 
HETATM   10  C10 UNL     1     -34.442  14.568  -5.717  1.00 20.00    -0.006 C 
HETATM   11  C11 UNL     1     -35.732  14.824  -6.436  1.00 20.00    -0.006 A 
ENDROOT
TORSDOF 0
ENDMDL
MODEL 5
REMARK VINA RESULT:      -4.7      0.883      3.494
REMARK  0 active torsions:
REMARK  status: ('A' for Active; 'I' for Inactive)
ROOT
HETATM    1  C1  UNL     1     -34.340  16.293  -6.574  1.00 20.00     0.001 C 
HETATM    2  C2  UNL     1     -34.380  17.522  -1.783  1.00 20.00     0.001 C 
HETATM    3  C3  UNL     1     -33.678  17.131  -5.472  1.00 20.00     0.005 C 
HETATM    4  C4  UNL     1     -33.766  18.011  -3.086  1.00 20.00     0.005 C 
HETATM    5  C5  UNL     1     -34.341  14.787  -6.308  1.00 20.00     0.005 C 
HETATM    6  C6  UNL     1     -34.441  16.004  -1.928  1.00 20.00     0.005 C 
HETATM    7  C7  UNL     1     -35.168  13.378  -4.274  1.00 20.00     0.010 A 
HETATM    8  C8  UNL     1     -34.397  17.085  -4.122  1.00 20.00    -0.010 C 
HETATM    9  C9  UNL     1     -35.436  14.376  -5.369  1.00 20.00    -0.010 A 
HETATM   10  C10 UNL     1     -34.338  15.710  -3.434  1.00 20.00    -0.006 C 
HETATM   11  C11 UNL     1     -35.436  14.818  -3.927  1.00 20.00    -0.006 A 
ENDROOT
TORSDOF 0
ENDMDL
MODEL 6
REMARK VINA RESULT:      -4.6      1.085      4.246
REMARK  0 active torsions:
REMARK  status: ('A' for Active; 'I' for Inactive)
ROOT
HETATM    1  C1  UNL     1     -34.246  13.939  -3.463  1.00 20.00     0.001 C 
HETATM    2  C2  UNL     1     -33.521  18.514  -5.199  1.00 20.00     0.001 C 
HETATM    3  C3  UNL     1     -34.231  15.437  -3.130  1.00 20.00     0.005 C 
HETATM    4  C4  UNL     1     -33.645  17.804  -3.860  1.00 20.00     0.005 C 
HETATM    5  C5  UNL     1     -35.226  13.548  -4.571  1.00 20.00     0.005 C 
HETATM    6  C6  UNL     1     -34.454  17.748  -6.134  1.00 20.00     0.005 C 
HETATM    7  C7  UNL     1     -35.551  14.437  -7.002  1.00 20.00     0.010 A 
HETATM    8  C8  UNL     1     -33.741  16.335  -4.268  1.00 20.00    -0.010 C 
HETATM    9  C9  UNL     1     -34.677  13.825  -5.939  1.00 20.00    -0.010 A 
HETATM   10  C10 UNL     1     -34.691  16.378  -5.478  1.00 20.00    -0.006 C 
HETATM   11  C11 UNL     1     -34.422  15.235  -6.408  1.00 20.00    -0.006 A 
ENDROOT
TORSDOF 0
ENDMDL
MODEL 7
REMARK VINA RESULT:      -4.6      1.445      3.691
REMARK  0 active torsions:
REMARK  status: ('A' for Active; 'I' for Inactive)
ROOT
HETATM    1  C1  UNL     1     -36.112  15.131  -5.867  1.00 20.00     0.001 C 
HETATM    2  C2  UNL     1     -35.419  17.298  -1.474  1.00 20.00     0.001 C 
HETATM    3  C3  UNL     1     -36.093  16.455  -5.092  1.00 20.00     0.005 C 
HETATM    4  C4  UNL     1     -35.997  17.636  -2.839  1.00 20.00     0.005 C 
HETATM    5  C5  UNL     1     -34.794  14.355  -5.822  1.00 20.00     0.005 C 
HETATM    6  C6  UNL     1     -34.267  16.340  -1.765  1.00 20.00     0.005 C 
HETATM    7  C7  UNL     1     -33.308  13.559  -3.831  1.00 20.00     0.010 A 
HETATM    8  C8  UNL     1     -35.907  16.304  -3.581  1.00 20.00    -0.010 C 
HETATM    9  C9  UNL     1     -34.632  13.582  -4.547  1.00 20.00    -0.010 A 
HETATM   10  C10 UNL     1     -34.517  15.781  -3.176  1.00 20.00    -0.006 C 
HETATM   11  C11 UNL     1     -34.477  14.284  -3.222  1.00 20.00    -0.006 A 
ENDROOT
TORSDOF 0
ENDMDL
MODEL 8
REMARK VINA RESULT:      -4.6      1.414      2.986
REMARK  0 active torsions:
REMARK  status: ('A' for Active; 'I' for Inactive)
ROOT
HETATM    1  C1  UNL     1     -35.263  15.946  -7.757  1.00 20.00     0.001 C 
HETATM    2  C2  UNL     1     -33.628  13.527  -3.764  1.00 20.00     0.001 C 
HETATM    3  C3  UNL     1     -35.511  14.784  -6.786  1.00 20.00     0.005 C 
HETATM    4  C4  UNL     1     -34.627  13.329  -4.893  1.00 20.00     0.005 C 
HETATM    5  C5  UNL     1     -35.202  17.322  -7.092  1.00 20.00     0.005 C 
HETATM    6  C6  UNL     1     -33.645  15.029  -3.488  1.00 20.00     0.005 C 
HETATM    7  C7  UNL     1     -33.778  18.236  -5.106  1.00 20.00     0.010 A 
HETATM    8  C8  UNL     1     -34.388  14.556  -5.771  1.00 20.00    -0.010 C 
HETATM    9  C9  UNL     1     -33.867  17.592  -6.465  1.00 20.00    -0.010 A 
HETATM   10  C10 UNL     1     -34.243  15.690  -4.741  1.00 20.00    -0.006 C 
HETATM   11  C11 UNL     1     -33.385  16.794  -5.279  1.00 20.00    -0.006 A 
ENDROOT
TORSDOF 0
ENDMDL
MODEL 9
REMARK VINA RESULT:      -4.6      1.214      3.014
REMARK  0 active torsions:
REMARK  status: ('A' for Active; 'I' for Inactive)
ROOT
HETATM    1  C1  UNL     1     -33.628  16.502  -3.082  1.00 20.00     0.001 C 
HETATM    2  C2  UNL     1     -34.674  16.518  -7.916  1.00 20.00     0.001 C 
HETATM    3  C3  UNL     1     -34.143  17.329  -4.267  1.00 20.00     0.005 C 
HETATM    4  C4  UNL     1     -34.480  17.514  -6.784  1.00 20.00     0.005 C 
HETATM    5  C5  UNL     1     -34.443  15.241  -2.790  1.00 20.00     0.005 C 
HETATM    6  C6  UNL     1     -35.303  15.294  -7.256  1.00 20.00     0.005 C 
HETATM    7  C7  UNL     1     -35.162  13.243  -4.306  1.00 20.00     0.010 A 
HETATM    8  C8  UNL     1     -34.055  16.620  -5.621  1.00 20.00    -0.010 C 
HETATM    9  C9  UNL     1     -34.086  14.109  -3.706  1.00 20.00    -0.010 A 
HETATM   10  C10 UNL     1     -35.003  15.415  -5.752  1.00 20.00    -0.006 C 
HETATM   11  C11 UNL     1     -34.376  14.178  -5.185  1.00 20.00    -0.006 A 
ENDROOT
TORSDOF 0
ENDMDL
