MODEL 1
REMARK VINA RESULT:      -4.9      0.000      0.000
REMARK  1 active torsions:
REMARK  status: ('A' for Active; 'I' for Inactive)
REMARK    1  A    between atoms: C2_2  and  C6_6 
ROOT
HETATM    1  C3  UNL     1     -34.510  13.609  -3.841  1.00 20.00     0.006 C 
HETATM    2  C4  UNL     1     -33.289  14.545  -3.838  1.00 20.00     0.006 C 
HETATM    3  C5  UNL     1     -35.950  15.463  -3.046  1.00 20.00     0.014 C 
HETATM    4  C6  UNL     1     -34.755  16.448  -3.055  1.00 20.00     0.012 C 
HETATM    5  C7  UNL     1     -35.660  14.551  -4.267  1.00 20.00    -0.006 C 
HETATM    6  C8  UNL     1     -33.901  15.910  -4.242  1.00 20.00     0.001 C 
HETATM    7  C9  UNL     1     -34.982  15.504  -5.282  1.00 20.00    -0.040 C 
HETATM    8  C10 UNL     1     -35.881  16.653  -5.779  1.00 20.00     0.015 C 
HETATM    9  C11 UNL     1     -34.432  14.815  -6.547  1.00 20.00     0.015 C 
ENDROOT
BRANCH   4  10
HETATM   10  C2  UNL     1     -34.050  16.562  -1.743  1.00 20.00    -0.032 C 
HETATM   11  C1  UNL     1     -34.667  16.783  -0.578  1.00 20.00     0.007 C 
ENDBRANCH   4  10
TORSDOF 1
ENDMDL
MODEL 2
REMARK VINA RESULT:      -4.9      1.222      3.637
REMARK  1 active torsions:
REMARK  status: ('A' for Active; 'I' for Inactive)
REMARK    1  A    between atoms: C2_2  and  C6_6 
ROOT
HETATM    1  C3  UNL     1     -34.797  17.162  -4.663  1.00 20.00     0.006 C 
HETATM    2  C4  UNL     1     -33.385  16.571  -4.507  1.00 20.00     0.006 C 
HETATM    3  C5  UNL     1     -35.733  15.326  -3.288  1.00 20.00     0.014 C 
HETATM    4  C6  UNL     1     -34.327  14.710  -3.080  1.00 20.00     0.012 C 
HETATM    5  C7  UNL     1     -35.449  16.850  -3.296  1.00 20.00    -0.006 C 
HETATM    6  C8  UNL     1     -33.418  15.976  -3.077  1.00 20.00     0.001 C 
HETATM    7  C9  UNL     1     -34.277  17.010  -2.297  1.00 20.00    -0.040 C 
HETATM    8  C10 UNL     1     -34.616  16.621  -0.845  1.00 20.00     0.015 C 
HETATM    9  C11 UNL     1     -33.674  18.427  -2.230  1.00 20.00     0.015 C 
ENDROOT
BRANCH   4  10
HETATM   10  C2  UNL     1     -33.971  13.655  -4.076  1.00 20.00    -0.032 C 
HETATM   11  C1  UNL     1     -34.807  13.199  -5.015  1.00 20.00     0.007 C 
ENDBRANCH   4  10
TORSDOF 1
ENDMDL
MODEL 3
REMARK VINA RESULT:      -4.9      1.027      2.327
REMARK  1 active torsions:
REMARK  status: ('A' for Active; 'I' for Inactive)
REMARK    1  A    between atoms: C2_2  and  C6_6 
ROOT
HETATM    1  C3  UNL     1     -33.605  17.058  -5.063  1.00 20.00     0.006 C 
HETATM    2  C4  UNL     1     -35.116  17.084  -4.774  1.00 20.00     0.006 C 
HETATM    3  C5  UNL     1     -33.254  15.508  -3.162  1.00 20.00     0.014 C 
HETATM    4  C6  UNL     1     -34.771  15.482  -2.851  1.00 20.00     0.012 C 
HETATM    5  C7  UNL     1     -33.216  15.604  -4.709  1.00 20.00    -0.006 C 
HETATM    6  C8  UNL     1     -35.394  15.646  -4.270  1.00 20.00     0.001 C 
HETATM    7  C9  UNL     1     -34.452  14.785  -5.157  1.00 20.00    -0.040 C 
HETATM    8  C10 UNL     1     -34.393  13.289  -4.796  1.00 20.00     0.015 C 
HETATM    9  C11 UNL     1     -34.755  14.848  -6.667  1.00 20.00     0.015 C 
ENDROOT
BRANCH   4  10
HETATM   10  C2  UNL     1     -35.202  16.483  -1.830  1.00 20.00    -0.032 C 
HETATM   11  C1  UNL     1     -34.464  16.840  -0.774  1.00 20.00     0.007 C 
ENDBRANCH   4  10
TORSDOF 1
ENDMDL
MODEL 4
REMARK VINA RESULT:      -4.8      1.092      2.527
REMARK  1 active torsions:
REMARK  status: ('A' for Active; 'I' for Inactive)
REMARK    1  A    between atoms: C2_2  and  C6_6 
ROOT
HETATM    1  C3  UNL     1     -35.816  16.183  -4.576  1.00 20.00     0.006 C 
HETATM    2  C4  UNL     1     -36.266  15.719  -3.179  1.00 20.00     0.006 C 
HETATM    3  C5  UNL     1     -33.575  16.746  -3.683  1.00 20.00     0.014 C 
HETATM    4  C6  UNL     1     -33.973  16.264  -2.266  1.00 20.00     0.012 C 
HETATM    5  C7  UNL     1     -34.329  15.760  -4.613  1.00 20.00    -0.006 C 
HETATM    6  C8  UNL     1     -34.970  15.110  -2.587  1.00 20.00     0.001 C 
HETATM    7  C9  UNL     1     -34.317  14.429  -3.822  1.00 20.00    -0.040 C 
HETATM    8  C10 UNL     1     -32.914  13.840  -3.582  1.00 20.00     0.015 C 
HETATM    9  C11 UNL     1     -35.154  13.297  -4.450  1.00 20.00     0.015 C 
ENDROOT
BRANCH   4  10
HETATM   10  C2  UNL     1     -34.494  17.347  -1.379  1.00 20.00    -0.032 C 
HETATM   11  C1  UNL     1     -34.765  17.184  -0.079  1.00 20.00     0.007 C 
ENDBRANCH   4  10
TORSDOF 1
ENDMDL
MODEL 5
REMARK VINA RESULT:      -4.7      0.912      3.772
REMARK  1 active torsions:
REMARK  status: ('A' for Active; 'I' for Inactive)
REMARK    1  A    between atoms: C2_2  and  C6_6 
ROOT
HETATM    1  C3  UNL     1     -32.820  14.805  -3.646  1.00 20.00     0.006 C 
HETATM    2  C4  UNL     1     -34.120  13.984  -3.611  1.00 20.00     0.006 C 
HETATM    3  C5  UNL     1     -33.742  16.216  -5.462  1.00 20.00     0.014 C 
HETATM    4  C6  UNL     1     -35.080  15.435  -5.444  1.00 20.00     0.012 C 
HETATM    5  C7  UNL     1     -33.326  16.230  -3.968  1.00 20.00    -0.006 C 
HETATM    6  C8  UNL     1     -35.203  15.042  -3.941  1.00 20.00     0.001 C 
HETATM    7  C9  UNL     1     -34.676  16.309  -3.212  1.00 20.00    -0.040 C 
HETATM    8  C10 UNL     1     -35.479  17.598  -3.470  1.00 20.00     0.015 C 
HETATM    9  C11 UNL     1     -34.566  16.172  -1.681  1.00 20.00     0.015 C 
ENDROOT
BRANCH   4  10
HETATM   10  C2  UNL     1     -35.140  14.306  -6.420  1.00 20.00    -0.032 C 
HETATM   11  C1  UNL     1     -35.435  14.453  -7.716  1.00 20.00     0.007 C 
ENDBRANCH   4  10
TORSDOF 1
ENDMDL
MODEL 6
REMARK VINA RESULT:      -4.6     11.559     13.102
REMARK  1 active torsions:
REMARK  status: ('A' for Active; 'I' for Inactive)
REMARK    1  A    between atoms: C2_2  and  C6_6 
ROOT
HETATM    1  C3  UNL     1     -40.802   4.262  -1.279  1.00 20.00     0.006 C 
HETATM    2  C4  UNL     1     -41.998   4.437  -2.230  1.00 20.00     0.006 C 
HETATM    3  C5  UNL     1     -41.028   6.616  -0.539  1.00 20.00     0.014 C 
HETATM    4  C6  UNL     1     -42.253   6.830  -1.461  1.00 20.00     0.012 C 
HETATM    5  C7  UNL     1     -41.194   5.146  -0.073  1.00 20.00    -0.006 C 
HETATM    6  C8  UNL     1     -42.913   5.418  -1.455  1.00 20.00     0.001 C 
HETATM    7  C9  UNL     1     -42.729   4.963   0.019  1.00 20.00    -0.040 C 
HETATM    8  C10 UNL     1     -43.417   5.852   1.073  1.00 20.00     0.015 C 
HETATM    9  C11 UNL     1     -43.191   3.521   0.310  1.00 20.00     0.015 C 
ENDROOT
BRANCH   4  10
HETATM   10  C2  UNL     1     -41.915   7.386  -2.806  1.00 20.00    -0.032 C 
HETATM   11  C1  UNL     1     -42.823   7.711  -3.731  1.00 20.00     0.007 C 
ENDBRANCH   4  10
TORSDOF 1
ENDMDL
MODEL 7
REMARK VINA RESULT:      -4.4      1.337      3.238
REMARK  1 active torsions:
REMARK  status: ('A' for Active; 'I' for Inactive)
REMARK    1  A    between atoms: C2_2  and  C6_6 
ROOT
HETATM    1  C3  UNL     1     -34.479  14.706  -5.831  1.00 20.00     0.006 C 
HETATM    2  C4  UNL     1     -34.970  13.601  -4.879  1.00 20.00     0.006 C 
HETATM    3  C5  UNL     1     -35.825  16.383  -4.600  1.00 20.00     0.014 C 
HETATM    4  C6  UNL     1     -36.323  15.310  -3.601  1.00 20.00     0.012 C 
HETATM    5  C7  UNL     1     -34.371  15.934  -4.899  1.00 20.00    -0.006 C 
HETATM    6  C8  UNL     1     -35.101  14.346  -3.527  1.00 20.00     0.001 C 
HETATM    7  C9  UNL     1     -33.893  15.323  -3.558  1.00 20.00    -0.040 C 
HETATM    8  C10 UNL     1     -33.827  16.323  -2.387  1.00 20.00     0.015 C 
HETATM    9  C11 UNL     1     -32.513  14.640  -3.615  1.00 20.00     0.015 C 
ENDROOT
BRANCH   4  10
HETATM   10  C2  UNL     1     -37.625  14.684  -3.979  1.00 20.00    -0.032 C 
HETATM   11  C1  UNL     1     -38.410  15.126  -4.967  1.00 20.00     0.007 C 
ENDBRANCH   4  10
TORSDOF 1
ENDMDL
MODEL 8
REMARK VINA RESULT:      -4.4      1.052      2.024
REMARK  1 active torsions:
REMARK  status: ('A' for Active; 'I' for Inactive)
REMARK    1  A    between atoms: C2_2  and  C6_6 
ROOT
HETATM    1  C3  UNL     1     -33.638  16.334  -5.143  1.00 20.00     0.006 C 
HETATM    2  C4  UNL     1     -34.385  17.463  -4.411  1.00 20.00     0.006 C 
HETATM    3  C5  UNL     1     -34.159  14.771  -3.292  1.00 20.00     0.014 C 
HETATM    4  C6  UNL     1     -34.945  15.868  -2.532  1.00 20.00     0.012 C 
HETATM    5  C7  UNL     1     -34.471  15.083  -4.778  1.00 20.00    -0.006 C 
HETATM    6  C8  UNL     1     -35.539  16.709  -3.703  1.00 20.00     0.001 C 
HETATM    7  C9  UNL     1     -35.924  15.620  -4.743  1.00 20.00    -0.040 C 
HETATM    8  C10 UNL     1     -36.972  14.597  -4.266  1.00 20.00     0.015 C 
HETATM    9  C11 UNL     1     -36.442  16.169  -6.086  1.00 20.00     0.015 C 
ENDROOT
BRANCH   4  10
HETATM   10  C2  UNL     1     -34.127  16.624  -1.536  1.00 20.00    -0.032 C 
HETATM   11  C1  UNL     1     -34.592  17.056  -0.359  1.00 20.00     0.007 C 
ENDBRANCH   4  10
TORSDOF 1
ENDMDL
MODEL 9
REMARK VINA RESULT:      -4.3     12.047     13.700
REMARK  1 active torsions:
REMARK  status: ('A' for Active; 'I' for Inactive)
REMARK    1  A    between atoms: C2_2  and  C6_6 
ROOT
HETATM    1  C3  UNL     1     -42.151   4.633   0.542  1.00 20.00     0.006 C 
HETATM    2  C4  UNL     1     -43.417   4.303  -0.268  1.00 20.00     0.006 C 
HETATM    3  C5  UNL     1     -40.793   4.566  -1.529  1.00 20.00     0.014 C 
HETATM    4  C6  UNL     1     -42.044   4.261  -2.389  1.00 20.00     0.012 C 
HETATM    5  C7  UNL     1     -41.344   5.518  -0.436  1.00 20.00    -0.006 C 
HETATM    6  C8  UNL     1     -43.161   5.024  -1.615  1.00 20.00     0.001 C 
HETATM    7  C9  UNL     1     -42.440   6.327  -1.173  1.00 20.00    -0.040 C 
HETATM    8  C10 UNL     1     -41.918   7.212  -2.321  1.00 20.00     0.015 C 
HETATM    9  C11 UNL     1     -43.278   7.252  -0.268  1.00 20.00     0.015 C 
ENDROOT
BRANCH   4  10
HETATM   10  C2  UNL     1     -42.286   2.804  -2.615  1.00 20.00    -0.032 C 
HETATM   11  C1  UNL     1     -41.543   2.038  -3.420  1.00 20.00     0.007 C 
ENDBRANCH   4  10
TORSDOF 1
ENDMDL
