MODEL 1
REMARK VINA RESULT:      -6.0      0.000      0.000
REMARK  0 active torsions:
REMARK  status: ('A' for Active; 'I' for Inactive)
ROOT
HETATM    1  C1  UNL     1     -34.998   4.853   3.732  1.00 20.00     0.019 A 
HETATM    2  C2  UNL     1     -34.013   5.374   2.987  1.00 20.00     0.054 A 
HETATM    3  C3  UNL     1     -33.193   6.675   4.975  1.00 20.00     0.096 A 
HETATM    4  C4  UNL     1     -34.178   6.154   5.720  1.00 20.00     0.133 A 
HETATM    5  C5  UNL     1     -35.190   5.186   5.183  1.00 20.00     0.254 A 
HETATM    6  C6  UNL     1     -33.001   6.343   3.524  1.00 20.00     0.282 A 
HETATM    7  F7  UNL     1     -34.264   6.517   7.019  1.00 20.00    -0.207 F 
HETATM    8  F8  UNL     1     -35.153   4.038   5.920  1.00 20.00    -0.238 F 
HETATM    9  F9  UNL     1     -31.749   5.838   3.339  1.00 20.00    -0.197 F 
HETATM   10  F10 UNL     1     -33.041   7.491   2.789  1.00 20.00    -0.197 F 
ENDROOT
TORSDOF 0
ENDMDL
MODEL 2
REMARK VINA RESULT:      -5.8      1.740      2.040
REMARK  0 active torsions:
REMARK  status: ('A' for Active; 'I' for Inactive)
ROOT
HETATM    1  C1  UNL     1     -35.092   3.952   5.696  1.00 20.00     0.019 A 
HETATM    2  C2  UNL     1     -35.294   4.167   4.388  1.00 20.00     0.054 A 
HETATM    3  C3  UNL     1     -34.237   6.438   4.596  1.00 20.00     0.096 A 
HETATM    4  C4  UNL     1     -34.036   6.223   5.904  1.00 20.00     0.133 A 
HETATM    5  C5  UNL     1     -34.441   4.957   6.599  1.00 20.00     0.254 A 
HETATM    6  C6  UNL     1     -34.889   5.433   3.692  1.00 20.00     0.282 A 
HETATM    7  F7  UNL     1     -33.439   7.193   6.631  1.00 20.00    -0.207 F 
HETATM    8  F8  UNL     1     -33.346   4.395   7.188  1.00 20.00    -0.238 F 
HETATM    9  F9  UNL     1     -34.044   5.135   2.665  1.00 20.00    -0.197 F 
HETATM   10  F10 UNL     1     -35.985   5.997   3.107  1.00 20.00    -0.197 F 
ENDROOT
TORSDOF 0
ENDMDL
MODEL 3
REMARK VINA RESULT:      -5.8      1.323      3.824
REMARK  0 active torsions:
REMARK  status: ('A' for Active; 'I' for Inactive)
ROOT
HETATM    1  C1  UNL     1     -33.590   6.874   5.422  1.00 20.00     0.019 A 
HETATM    2  C2  UNL     1     -33.968   5.979   6.344  1.00 20.00     0.054 A 
HETATM    3  C3  UNL     1     -34.909   4.509   4.536  1.00 20.00     0.096 A 
HETATM    4  C4  UNL     1     -34.531   5.405   3.613  1.00 20.00     0.133 A 
HETATM    5  C5  UNL     1     -33.830   6.687   3.952  1.00 20.00     0.254 A 
HETATM    6  C6  UNL     1     -34.670   4.696   6.005  1.00 20.00     0.282 A 
HETATM    7  F7  UNL     1     -34.794   5.141   2.314  1.00 20.00    -0.207 F 
HETATM    8  F8  UNL     1     -32.640   6.740   3.288  1.00 20.00    -0.238 F 
HETATM    9  F9  UNL     1     -33.946   3.645   6.482  1.00 20.00    -0.197 F 
HETATM   10  F10 UNL     1     -35.862   4.646   6.667  1.00 20.00    -0.197 F 
ENDROOT
TORSDOF 0
ENDMDL
MODEL 4
REMARK VINA RESULT:      -5.8      1.519      2.689
REMARK  0 active torsions:
REMARK  status: ('A' for Active; 'I' for Inactive)
ROOT
HETATM    1  C1  UNL     1     -33.550   6.701   5.126  1.00 20.00     0.019 A 
HETATM    2  C2  UNL     1     -33.907   6.514   3.847  1.00 20.00     0.054 A 
HETATM    3  C3  UNL     1     -35.307   4.540   4.525  1.00 20.00     0.096 A 
HETATM    4  C4  UNL     1     -34.951   4.728   5.803  1.00 20.00     0.133 A 
HETATM    5  C5  UNL     1     -34.033   5.828   6.246  1.00 20.00     0.254 A 
HETATM    6  C6  UNL     1     -34.825   5.413   3.403  1.00 20.00     0.282 A 
HETATM    7  F7  UNL     1     -35.442   3.885   6.739  1.00 20.00    -0.207 F 
HETATM    8  F8  UNL     1     -34.665   6.596   7.180  1.00 20.00    -0.238 F 
HETATM    9  F9  UNL     1     -35.897   5.952   2.757  1.00 20.00    -0.197 F 
HETATM   10  F10 UNL     1     -34.190   4.644   2.473  1.00 20.00    -0.197 F 
ENDROOT
TORSDOF 0
ENDMDL
MODEL 5
REMARK VINA RESULT:      -5.4      1.399      3.309
REMARK  0 active torsions:
REMARK  status: ('A' for Active; 'I' for Inactive)
ROOT
HETATM    1  C1  UNL     1     -35.389   4.301   4.480  1.00 20.00     0.019 A 
HETATM    2  C2  UNL     1     -35.164   4.418   5.796  1.00 20.00     0.054 A 
HETATM    3  C3  UNL     1     -33.648   6.376   5.366  1.00 20.00     0.096 A 
HETATM    4  C4  UNL     1     -33.874   6.260   4.050  1.00 20.00     0.133 A 
HETATM    5  C5  UNL     1     -34.769   5.210   3.460  1.00 20.00     0.254 A 
HETATM    6  C6  UNL     1     -34.268   5.467   6.387  1.00 20.00     0.282 A 
HETATM    7  F7  UNL     1     -33.267   7.130   3.213  1.00 20.00    -0.207 F 
HETATM    8  F8  UNL     1     -35.752   5.812   2.731  1.00 20.00    -0.238 F 
HETATM    9  F9  UNL     1     -34.974   6.211   7.284  1.00 20.00    -0.197 F 
HETATM   10  F10 UNL     1     -33.283   4.864   7.112  1.00 20.00    -0.197 F 
ENDROOT
TORSDOF 0
ENDMDL
MODEL 6
REMARK VINA RESULT:      -5.3      1.253      3.164
REMARK  0 active torsions:
REMARK  status: ('A' for Active; 'I' for Inactive)
ROOT
HETATM    1  C1  UNL     1     -33.156   5.801   2.820  1.00 20.00     0.019 A 
HETATM    2  C2  UNL     1     -34.303   5.114   2.913  1.00 20.00     0.054 A 
HETATM    3  C3  UNL     1     -34.526   5.809   5.318  1.00 20.00     0.096 A 
HETATM    4  C4  UNL     1     -33.379   6.496   5.224  1.00 20.00     0.133 A 
HETATM    5  C5  UNL     1     -32.566   6.569   3.966  1.00 20.00     0.254 A 
HETATM    6  C6  UNL     1     -35.116   5.041   4.172  1.00 20.00     0.282 A 
HETATM    7  F7  UNL     1     -32.933   7.156   6.316  1.00 20.00    -0.207 F 
HETATM    8  F8  UNL     1     -32.409   7.875   3.604  1.00 20.00    -0.238 F 
HETATM    9  F9  UNL     1     -36.377   5.497   3.924  1.00 20.00    -0.197 F 
HETATM   10  F10 UNL     1     -35.270   3.734   4.535  1.00 20.00    -0.197 F 
ENDROOT
TORSDOF 0
ENDMDL
MODEL 7
REMARK VINA RESULT:      -4.9     12.016     13.386
REMARK  0 active torsions:
REMARK  status: ('A' for Active; 'I' for Inactive)
ROOT
HETATM    1  C1  UNL     1     -33.763  16.280  -5.788  1.00 20.00     0.019 A 
HETATM    2  C2  UNL     1     -33.122  16.309  -4.611  1.00 20.00     0.054 A 
HETATM    3  C3  UNL     1     -33.889  13.964  -4.133  1.00 20.00     0.096 A 
HETATM    4  C4  UNL     1     -34.530  13.935  -5.310  1.00 20.00     0.133 A 
HETATM    5  C5  UNL     1     -34.539  15.089  -6.268  1.00 20.00     0.254 A 
HETATM    6  C6  UNL     1     -33.114  15.155  -3.652  1.00 20.00     0.282 A 
HETATM    7  F7  UNL     1     -35.201  12.813  -5.651  1.00 20.00    -0.207 F 
HETATM    8  F8  UNL     1     -34.043  14.681  -7.472  1.00 20.00    -0.238 F 
HETATM    9  F9  UNL     1     -31.826  14.784  -3.402  1.00 20.00    -0.197 F 
HETATM   10  F10 UNL     1     -33.613  15.563  -2.450  1.00 20.00    -0.197 F 
ENDROOT
TORSDOF 0
ENDMDL
MODEL 8
REMARK VINA RESULT:      -4.8     11.789     13.368
REMARK  0 active torsions:
REMARK  status: ('A' for Active; 'I' for Inactive)
ROOT
HETATM    1  C1  UNL     1     -34.736  13.384  -4.897  1.00 20.00     0.019 A 
HETATM    2  C2  UNL     1     -34.001  13.686  -3.818  1.00 20.00     0.054 A 
HETATM    3  C3  UNL     1     -33.375  15.887  -4.857  1.00 20.00     0.096 A 
HETATM    4  C4  UNL     1     -34.110  15.585  -5.936  1.00 20.00     0.133 A 
HETATM    5  C5  UNL     1     -34.872  14.301  -6.077  1.00 20.00     0.254 A 
HETATM    6  C6  UNL     1     -33.238  14.970  -3.677  1.00 20.00     0.282 A 
HETATM    7  F7  UNL     1     -34.169  16.481  -6.947  1.00 20.00    -0.207 F 
HETATM    8  F8  UNL     1     -36.192  14.579  -6.286  1.00 20.00    -0.238 F 
HETATM    9  F9  UNL     1     -33.649  15.619  -2.551  1.00 20.00    -0.197 F 
HETATM   10  F10 UNL     1     -31.918  14.691  -3.472  1.00 20.00    -0.197 F 
ENDROOT
TORSDOF 0
ENDMDL
MODEL 9
REMARK VINA RESULT:      -4.7      9.052     10.084
REMARK  0 active torsions:
REMARK  status: ('A' for Active; 'I' for Inactive)
ROOT
HETATM    1  C1  UNL     1     -42.181   6.540  -2.537  1.00 20.00     0.019 A 
HETATM    2  C2  UNL     1     -42.382   5.229  -2.728  1.00 20.00     0.054 A 
HETATM    3  C3  UNL     1     -41.035   4.721  -0.668  1.00 20.00     0.096 A 
HETATM    4  C4  UNL     1     -40.834   6.033  -0.477  1.00 20.00     0.133 A 
HETATM    5  C5  UNL     1     -41.384   7.088  -1.390  1.00 20.00     0.254 A 
HETATM    6  C6  UNL     1     -41.831   4.173  -1.815  1.00 20.00     0.282 A 
HETATM    7  F7  UNL     1     -40.101   6.424   0.589  1.00 20.00    -0.207 F 
HETATM    8  F8  UNL     1     -42.159   7.949  -0.669  1.00 20.00    -0.238 F 
HETATM    9  F9  UNL     1     -42.855   3.414  -1.332  1.00 20.00    -0.197 F 
HETATM   10  F10 UNL     1     -41.053   3.314  -2.536  1.00 20.00    -0.197 F 
ENDROOT
TORSDOF 0
ENDMDL
