MODEL 1
REMARK VINA RESULT:      -6.1      0.000      0.000
REMARK  0 active torsions:
REMARK  status: ('A' for Active; 'I' for Inactive)
ROOT
HETATM    1  C1  UNL     1     -35.434   4.920   3.982  1.00 20.00     0.017 A 
HETATM    2  C2  UNL     1     -35.360   4.834   5.316  1.00 20.00     0.054 A 
HETATM    3  C3  UNL     1     -33.274   6.236   5.287  1.00 20.00     0.060 A 
HETATM    4  C4  UNL     1     -33.336   6.329   3.946  1.00 20.00    -0.044 A 
HETATM    5  C5  UNL     1     -34.436   5.670   3.148  1.00 20.00     0.221 A 
HETATM    6  C6  UNL     1     -34.272   5.482   6.116  1.00 20.00     0.280 A 
HETATM    7  C7  UNL     1     -32.317   7.096   3.157  1.00 20.00     0.046 C 
HETATM    8  F8  UNL     1     -33.891   4.819   2.232  1.00 20.00    -0.240 F 
HETATM    9  F9  UNL     1     -34.826   6.327   7.032  1.00 20.00    -0.197 F 
HETATM   10  F10 UNL     1     -33.622   4.531   6.848  1.00 20.00    -0.197 F 
ENDROOT
TORSDOF 0
ENDMDL
MODEL 2
REMARK VINA RESULT:      -5.6      1.206      3.413
REMARK  0 active torsions:
REMARK  status: ('A' for Active; 'I' for Inactive)
ROOT
HETATM    1  C1  UNL     1     -35.048   3.999   5.554  1.00 20.00     0.017 A 
HETATM    2  C2  UNL     1     -35.193   4.157   4.232  1.00 20.00     0.054 A 
HETATM    3  C3  UNL     1     -34.148   6.438   4.395  1.00 20.00     0.060 A 
HETATM    4  C4  UNL     1     -33.998   6.292   5.724  1.00 20.00    -0.044 A 
HETATM    5  C5  UNL     1     -34.440   5.041   6.446  1.00 20.00     0.221 A 
HETATM    6  C6  UNL     1     -34.760   5.394   3.507  1.00 20.00     0.280 A 
HETATM    7  C7  UNL     1     -33.378   7.361   6.573  1.00 20.00     0.046 C 
HETATM    8  F8  UNL     1     -35.335   5.369   7.423  1.00 20.00    -0.240 F 
HETATM    9  F9  UNL     1     -33.870   5.057   2.529  1.00 20.00    -0.197 F 
HETATM   10  F10 UNL     1     -35.829   5.932   2.851  1.00 20.00    -0.197 F 
ENDROOT
TORSDOF 0
ENDMDL
MODEL 3
REMARK VINA RESULT:      -5.4      1.513      2.964
REMARK  0 active torsions:
REMARK  status: ('A' for Active; 'I' for Inactive)
ROOT
HETATM    1  C1  UNL     1     -34.367   5.573   6.588  1.00 20.00     0.017 A 
HETATM    2  C2  UNL     1     -35.242   4.869   5.857  1.00 20.00     0.054 A 
HETATM    3  C3  UNL     1     -34.138   5.689   3.753  1.00 20.00     0.060 A 
HETATM    4  C4  UNL     1     -33.255   6.401   4.475  1.00 20.00    -0.044 A 
HETATM    5  C5  UNL     1     -33.282   6.416   5.985  1.00 20.00     0.221 A 
HETATM    6  C6  UNL     1     -35.224   4.850   4.360  1.00 20.00     0.280 A 
HETATM    7  C7  UNL     1     -32.182   7.225   3.825  1.00 20.00     0.046 C 
HETATM    8  F8  UNL     1     -33.416   7.699   6.428  1.00 20.00    -0.240 F 
HETATM    9  F9  UNL     1     -35.095   3.563   3.926  1.00 20.00    -0.197 F 
HETATM   10  F10 UNL     1     -36.434   5.270   3.888  1.00 20.00    -0.197 F 
ENDROOT
TORSDOF 0
ENDMDL
MODEL 4
REMARK VINA RESULT:      -5.2      1.994      3.385
REMARK  0 active torsions:
REMARK  status: ('A' for Active; 'I' for Inactive)
ROOT
HETATM    1  C1  UNL     1     -34.389   5.069   2.740  1.00 20.00     0.017 A 
HETATM    2  C2  UNL     1     -33.359   5.853   2.397  1.00 20.00     0.054 A 
HETATM    3  C3  UNL     1     -33.134   6.596   4.788  1.00 20.00     0.060 A 
HETATM    4  C4  UNL     1     -34.168   5.814   5.145  1.00 20.00    -0.044 A 
HETATM    5  C5  UNL     1     -34.910   4.961   4.143  1.00 20.00     0.221 A 
HETATM    6  C6  UNL     1     -32.618   6.704   3.383  1.00 20.00     0.280 A 
HETATM    7  C7  UNL     1     -34.650   5.736   6.564  1.00 20.00     0.046 C 
HETATM    8  F8  UNL     1     -36.235   5.290   4.153  1.00 20.00    -0.240 F 
HETATM    9  F9  UNL     1     -31.295   6.371   3.362  1.00 20.00    -0.197 F 
HETATM   10  F10 UNL     1     -32.669   8.007   2.983  1.00 20.00    -0.197 F 
ENDROOT
TORSDOF 0
ENDMDL
MODEL 5
REMARK VINA RESULT:      -5.1      1.937      2.699
REMARK  0 active torsions:
REMARK  status: ('A' for Active; 'I' for Inactive)
ROOT
HETATM    1  C1  UNL     1     -33.504   6.158   2.985  1.00 20.00     0.017 A 
HETATM    2  C2  UNL     1     -34.454   5.216   3.062  1.00 20.00     0.054 A 
HETATM    3  C3  UNL     1     -34.650   5.623   5.535  1.00 20.00     0.060 A 
HETATM    4  C4  UNL     1     -33.697   6.570   5.471  1.00 20.00    -0.044 A 
HETATM    5  C5  UNL     1     -33.018   6.936   4.172  1.00 20.00     0.221 A 
HETATM    6  C6  UNL     1     -35.131   4.844   4.345  1.00 20.00     0.280 A 
HETATM    7  C7  UNL     1     -33.248   7.325   6.687  1.00 20.00     0.046 C 
HETATM    8  F8  UNL     1     -31.670   6.766   4.295  1.00 20.00    -0.240 F 
HETATM    9  F9  UNL     1     -36.478   5.013   4.211  1.00 20.00    -0.197 F 
HETATM   10  F10 UNL     1     -34.955   3.511   4.579  1.00 20.00    -0.197 F 
ENDROOT
TORSDOF 0
ENDMDL
MODEL 6
REMARK VINA RESULT:      -4.9     12.026     13.340
REMARK  0 active torsions:
REMARK  status: ('A' for Active; 'I' for Inactive)
ROOT
HETATM    1  C1  UNL     1     -35.155  13.683  -4.387  1.00 20.00     0.017 A 
HETATM    2  C2  UNL     1     -34.218  13.936  -3.464  1.00 20.00     0.054 A 
HETATM    3  C3  UNL     1     -33.392  15.873  -4.836  1.00 20.00     0.060 A 
HETATM    4  C4  UNL     1     -34.328  15.630  -5.772  1.00 20.00    -0.044 A 
HETATM    5  C5  UNL     1     -35.315  14.494  -5.640  1.00 20.00     0.221 A 
HETATM    6  C6  UNL     1     -33.233  15.058  -3.587  1.00 20.00     0.280 A 
HETATM    7  C7  UNL     1     -34.452  16.473  -7.006  1.00 20.00     0.046 C 
HETATM    8  F8  UNL     1     -35.212  13.669  -6.721  1.00 20.00    -0.240 F 
HETATM    9  F9  UNL     1     -33.341  15.874  -2.499  1.00 20.00    -0.197 F 
HETATM   10  F10 UNL     1     -31.966  14.554  -3.536  1.00 20.00    -0.197 F 
ENDROOT
TORSDOF 0
ENDMDL
MODEL 7
REMARK VINA RESULT:      -4.8     12.135     13.837
REMARK  0 active torsions:
REMARK  status: ('A' for Active; 'I' for Inactive)
ROOT
HETATM    1  C1  UNL     1     -33.215  16.448  -5.017  1.00 20.00     0.017 A 
HETATM    2  C2  UNL     1     -33.120  15.601  -3.984  1.00 20.00     0.054 A 
HETATM    3  C3  UNL     1     -34.503  13.920  -5.240  1.00 20.00     0.060 A 
HETATM    4  C4  UNL     1     -34.608  14.762  -6.284  1.00 20.00    -0.044 A 
HETATM    5  C5  UNL     1     -33.966  16.129  -6.277  1.00 20.00     0.221 A 
HETATM    6  C6  UNL     1     -33.754  14.244  -3.981  1.00 20.00     0.280 A 
HETATM    7  C7  UNL     1     -35.366  14.395  -7.525  1.00 20.00     0.046 C 
HETATM    8  F8  UNL     1     -34.919  17.084  -6.481  1.00 20.00    -0.240 F 
HETATM    9  F9  UNL     1     -32.795  13.297  -3.771  1.00 20.00    -0.197 F 
HETATM   10  F10 UNL     1     -34.600  14.144  -2.915  1.00 20.00    -0.197 F 
ENDROOT
TORSDOF 0
ENDMDL
MODEL 8
REMARK VINA RESULT:      -4.7     12.103     12.887
REMARK  0 active torsions:
REMARK  status: ('A' for Active; 'I' for Inactive)
ROOT
HETATM    1  C1  UNL     1     -33.432  13.699  -3.893  1.00 20.00     0.017 A 
HETATM    2  C2  UNL     1     -32.892  14.845  -3.458  1.00 20.00     0.054 A 
HETATM    3  C3  UNL     1     -35.183  15.872  -3.335  1.00 20.00     0.060 A 
HETATM    4  C4  UNL     1     -35.737  14.727  -3.772  1.00 20.00    -0.044 A 
HETATM    5  C5  UNL     1     -34.906  13.510  -4.100  1.00 20.00     0.221 A 
HETATM    6  C6  UNL     1     -33.708  16.058  -3.132  1.00 20.00     0.280 A 
HETATM    7  C7  UNL     1     -37.219  14.586  -3.959  1.00 20.00     0.046 C 
HETATM    8  F8  UNL     1     -35.130  13.137  -5.394  1.00 20.00    -0.240 F 
HETATM    9  F9  UNL     1     -33.474  16.426  -1.839  1.00 20.00    -0.197 F 
HETATM   10  F10 UNL     1     -33.278  17.108  -3.890  1.00 20.00    -0.197 F 
ENDROOT
TORSDOF 0
ENDMDL
MODEL 9
REMARK VINA RESULT:      -4.7      9.079     10.407
REMARK  0 active torsions:
REMARK  status: ('A' for Active; 'I' for Inactive)
ROOT
HETATM    1  C1  UNL     1     -40.801   6.254  -0.354  1.00 20.00     0.017 A 
HETATM    2  C2  UNL     1     -40.964   4.931  -0.485  1.00 20.00     0.054 A 
HETATM    3  C3  UNL     1     -42.268   5.306  -2.602  1.00 20.00     0.060 A 
HETATM    4  C4  UNL     1     -42.112   6.637  -2.481  1.00 20.00    -0.044 A 
HETATM    5  C5  UNL     1     -41.353   7.253  -1.329  1.00 20.00     0.221 A 
HETATM    6  C6  UNL     1     -41.716   4.311  -1.622  1.00 20.00     0.280 A 
HETATM    7  C7  UNL     1     -42.679   7.595  -3.486  1.00 20.00     0.046 C 
HETATM    8  F8  UNL     1     -42.162   8.126  -0.663  1.00 20.00    -0.240 F 
HETATM    9  F9  UNL     1     -40.901   3.437  -2.280  1.00 20.00    -0.197 F 
HETATM   10  F10 UNL     1     -42.737   3.553  -1.128  1.00 20.00    -0.197 F 
ENDROOT
TORSDOF 0
ENDMDL
