MODEL 1
REMARK VINA RESULT:      -5.0      0.000      0.000
REMARK  1 active torsions:
REMARK  status: ('A' for Active; 'I' for Inactive)
REMARK    1  A    between atoms: C6_6  and  C10_10 
ROOT
HETATM    1  C1  UNL     1     -35.307  13.688  -4.283  1.00 20.00     0.142 A 
HETATM    2  C2  UNL     1     -36.083  16.716  -3.515  1.00 20.00     0.006 C 
HETATM    3  C3  UNL     1     -36.440  15.948  -4.793  1.00 20.00     0.019 C 
HETATM    4  C4  UNL     1     -34.663  14.785  -3.597  1.00 20.00     0.076 A 
HETATM    5  C5  UNL     1     -35.387  15.677  -2.617  1.00 20.00    -0.006 C 
HETATM    6  C6  UNL     1     -35.293  14.973  -4.966  1.00 20.00     0.034 A 
HETATM    7  C7  UNL     1     -34.459  16.324  -1.601  1.00 20.00     0.011 C 
HETATM    8  O11 UNL     1     -34.931  12.579  -4.597  1.00 20.00    -0.297 OA
ENDROOT
BRANCH   6   9
HETATM    9  C10 UNL     1     -34.399  15.218  -6.145  1.00 20.00    -0.006 C 
HETATM   10  C8  UNL     1     -34.984  14.612  -7.430  1.00 20.00     0.011 C 
HETATM   11  C9  UNL     1     -34.142  16.718  -6.355  1.00 20.00     0.011 C 
ENDBRANCH   6   9
TORSDOF 1
ENDMDL
MODEL 2
REMARK VINA RESULT:      -4.9      0.976      3.609
REMARK  1 active torsions:
REMARK  status: ('A' for Active; 'I' for Inactive)
REMARK    1  A    between atoms: C6_6  and  C10_10 
ROOT
HETATM    1  C1  UNL     1     -33.955  13.888  -4.272  1.00 20.00     0.142 A 
HETATM    2  C2  UNL     1     -34.112  16.225  -6.481  1.00 20.00     0.006 C 
HETATM    3  C3  UNL     1     -33.540  16.309  -5.060  1.00 20.00     0.019 C 
HETATM    4  C4  UNL     1     -34.897  14.297  -5.290  1.00 20.00     0.076 A 
HETATM    5  C5  UNL     1     -34.471  14.739  -6.669  1.00 20.00    -0.006 C 
HETATM    6  C6  UNL     1     -34.348  15.289  -4.281  1.00 20.00     0.034 A 
HETATM    7  C7  UNL     1     -35.551  14.538  -7.720  1.00 20.00     0.011 C 
HETATM    8  O11 UNL     1     -33.986  13.025  -3.420  1.00 20.00    -0.297 OA
ENDROOT
BRANCH   6   9
HETATM    9  C10 UNL     1     -35.271  15.846  -3.239  1.00 20.00    -0.006 C 
HETATM   10  C8  UNL     1     -34.538  16.090  -1.910  1.00 20.00     0.011 C 
HETATM   11  C9  UNL     1     -35.929  17.152  -3.709  1.00 20.00     0.011 C 
ENDBRANCH   6   9
TORSDOF 1
ENDMDL
MODEL 3
REMARK VINA RESULT:      -4.7      1.867      2.560
REMARK  1 active torsions:
REMARK  status: ('A' for Active; 'I' for Inactive)
REMARK    1  A    between atoms: C6_6  and  C10_10 
ROOT
HETATM    1  C1  UNL     1     -36.365  15.368  -3.326  1.00 20.00     0.142 A 
HETATM    2  C2  UNL     1     -33.675  17.061  -2.815  1.00 20.00     0.006 C 
HETATM    3  C3  UNL     1     -34.086  16.307  -4.085  1.00 20.00     0.019 C 
HETATM    4  C4  UNL     1     -35.471  15.591  -2.212  1.00 20.00     0.076 A 
HETATM    5  C5  UNL     1     -34.896  16.947  -1.882  1.00 20.00    -0.006 C 
HETATM    6  C6  UNL     1     -34.945  15.168  -3.572  1.00 20.00     0.034 A 
HETATM    7  C7  UNL     1     -34.515  17.093  -0.417  1.00 20.00     0.011 C 
HETATM    8  O11 UNL     1     -37.339  14.660  -3.473  1.00 20.00    -0.297 OA
ENDROOT
BRANCH   6   9
HETATM    9  C10 UNL     1     -34.367  13.793  -3.728  1.00 20.00    -0.006 C 
HETATM   10  C8  UNL     1     -34.713  13.189  -5.098  1.00 20.00     0.011 C 
HETATM   11  C9  UNL     1     -32.843  13.796  -3.538  1.00 20.00     0.011 C 
ENDBRANCH   6   9
TORSDOF 1
ENDMDL
MODEL 4
REMARK VINA RESULT:      -4.6      1.378      2.815
REMARK  1 active torsions:
REMARK  status: ('A' for Active; 'I' for Inactive)
REMARK    1  A    between atoms: C6_6  and  C10_10 
ROOT
HETATM    1  C1  UNL     1     -35.297  13.633  -4.854  1.00 20.00     0.142 A 
HETATM    2  C2  UNL     1     -36.820  16.456  -4.581  1.00 20.00     0.006 C 
HETATM    3  C3  UNL     1     -35.345  16.212  -4.920  1.00 20.00     0.019 C 
HETATM    4  C4  UNL     1     -36.334  14.179  -4.007  1.00 20.00     0.076 A 
HETATM    5  C5  UNL     1     -37.448  15.050  -4.535  1.00 20.00    -0.006 C 
HETATM    6  C6  UNL     1     -35.019  14.910  -4.213  1.00 20.00     0.034 A 
HETATM    7  C7  UNL     1     -38.698  15.007  -3.671  1.00 20.00     0.011 C 
HETATM    8  O11 UNL     1     -34.716  12.568  -4.863  1.00 20.00    -0.297 OA
ENDROOT
BRANCH   6   9
HETATM    9  C10 UNL     1     -34.061  15.014  -3.064  1.00 20.00    -0.006 C 
HETATM   10  C8  UNL     1     -32.601  14.933  -3.539  1.00 20.00     0.011 C 
HETATM   11  C9  UNL     1     -34.272  16.311  -2.269  1.00 20.00     0.011 C 
ENDBRANCH   6   9
TORSDOF 1
ENDMDL
MODEL 5
REMARK VINA RESULT:      -4.4      1.710      2.294
REMARK  1 active torsions:
REMARK  status: ('A' for Active; 'I' for Inactive)
REMARK    1  A    between atoms: C6_6  and  C10_10 
ROOT
HETATM    1  C1  UNL     1     -36.597  14.653  -3.927  1.00 20.00     0.142 A 
HETATM    2  C2  UNL     1     -33.653  15.837  -4.466  1.00 20.00     0.006 C 
HETATM    3  C3  UNL     1     -34.995  16.390  -4.961  1.00 20.00     0.019 C 
HETATM    4  C4  UNL     1     -35.282  14.103  -4.168  1.00 20.00     0.076 A 
HETATM    5  C5  UNL     1     -34.031  14.667  -3.539  1.00 20.00    -0.006 C 
HETATM    6  C6  UNL     1     -35.873  15.160  -5.083  1.00 20.00     0.034 A 
HETATM    7  C7  UNL     1     -32.912  13.645  -3.418  1.00 20.00     0.011 C 
HETATM    8  O11 UNL     1     -37.691  14.145  -3.793  1.00 20.00    -0.297 OA
ENDROOT
BRANCH   6   9
HETATM    9  C10 UNL     1     -36.263  14.773  -6.479  1.00 20.00    -0.006 C 
HETATM   10  C8  UNL     1     -37.464  15.593  -6.976  1.00 20.00     0.011 C 
HETATM   11  C9  UNL     1     -35.090  14.935  -7.457  1.00 20.00     0.011 C 
ENDBRANCH   6   9
TORSDOF 1
ENDMDL
MODEL 6
REMARK VINA RESULT:      -4.4      1.495      1.948
REMARK  1 active torsions:
REMARK  status: ('A' for Active; 'I' for Inactive)
REMARK    1  A    between atoms: C6_6  and  C10_10 
ROOT
HETATM    1  C1  UNL     1     -37.159  15.027  -3.826  1.00 20.00     0.142 A 
HETATM    2  C2  UNL     1     -34.753  17.166  -3.777  1.00 20.00     0.006 C 
HETATM    3  C3  UNL     1     -35.537  16.658  -4.993  1.00 20.00     0.019 C 
HETATM    4  C4  UNL     1     -35.929  15.194  -3.084  1.00 20.00     0.076 A 
HETATM    5  C5  UNL     1     -35.461  16.532  -2.565  1.00 20.00    -0.006 C 
HETATM    6  C6  UNL     1     -35.948  15.252  -4.602  1.00 20.00     0.034 A 
HETATM    7  C7  UNL     1     -34.542  16.415  -1.359  1.00 20.00     0.011 C 
HETATM    8  O11 UNL     1     -38.000  14.154  -3.840  1.00 20.00    -0.297 OA
ENDROOT
BRANCH   6   9
HETATM    9  C10 UNL     1     -35.301  14.143  -5.376  1.00 20.00    -0.006 C 
HETATM   10  C8  UNL     1     -34.729  14.648  -6.710  1.00 20.00     0.011 C 
HETATM   11  C9  UNL     1     -34.188  13.463  -4.564  1.00 20.00     0.011 C 
ENDBRANCH   6   9
TORSDOF 1
ENDMDL
MODEL 7
REMARK VINA RESULT:      -4.3      1.749      3.804
REMARK  1 active torsions:
REMARK  status: ('A' for Active; 'I' for Inactive)
REMARK    1  A    between atoms: C6_6  and  C10_10 
ROOT
HETATM    1  C1  UNL     1     -36.880  14.890  -3.717  1.00 20.00     0.142 A 
HETATM    2  C2  UNL     1     -34.125  13.766  -4.945  1.00 20.00     0.006 C 
HETATM    3  C3  UNL     1     -34.475  13.991  -3.469  1.00 20.00     0.019 C 
HETATM    4  C4  UNL     1     -36.076  15.158  -4.889  1.00 20.00     0.076 A 
HETATM    5  C5  UNL     1     -35.429  14.066  -5.706  1.00 20.00    -0.006 C 
HETATM    6  C6  UNL     1     -35.463  15.141  -3.500  1.00 20.00     0.034 A 
HETATM    7  C7  UNL     1     -35.173  14.472  -7.148  1.00 20.00     0.011 C 
HETATM    8  O11 UNL     1     -37.888  15.400  -3.276  1.00 20.00    -0.297 OA
ENDROOT
BRANCH   6   9
HETATM    9  C10 UNL     1     -34.981  16.431  -2.906  1.00 20.00    -0.006 C 
HETATM   10  C8  UNL     1     -34.745  16.300  -1.393  1.00 20.00     0.011 C 
HETATM   11  C9  UNL     1     -33.694  16.920  -3.586  1.00 20.00     0.011 C 
ENDBRANCH   6   9
TORSDOF 1
ENDMDL
MODEL 8
REMARK VINA RESULT:      -4.3      1.921      2.711
REMARK  1 active torsions:
REMARK  status: ('A' for Active; 'I' for Inactive)
REMARK    1  A    between atoms: C6_6  and  C10_10 
ROOT
HETATM    1  C1  UNL     1     -35.598  16.998  -4.897  1.00 20.00     0.142 A 
HETATM    2  C2  UNL     1     -33.185  15.817  -3.124  1.00 20.00     0.006 C 
HETATM    3  C3  UNL     1     -33.357  15.745  -4.646  1.00 20.00     0.019 C 
HETATM    4  C4  UNL     1     -35.468  16.371  -3.601  1.00 20.00     0.076 A 
HETATM    5  C5  UNL     1     -34.351  16.698  -2.641  1.00 20.00    -0.006 C 
HETATM    6  C6  UNL     1     -34.861  15.744  -4.843  1.00 20.00     0.034 A 
HETATM    7  C7  UNL     1     -34.713  16.427  -1.189  1.00 20.00     0.011 C 
HETATM    8  O11 UNL     1     -36.557  17.367  -5.541  1.00 20.00    -0.297 OA
ENDROOT
BRANCH   6   9
HETATM    9  C10 UNL     1     -35.449  14.471  -5.372  1.00 20.00    -0.006 C 
HETATM   10  C8  UNL     1     -35.377  14.412  -6.907  1.00 20.00     0.011 C 
HETATM   11  C9  UNL     1     -34.752  13.237  -4.778  1.00 20.00     0.011 C 
ENDBRANCH   6   9
TORSDOF 1
ENDMDL
MODEL 9
REMARK VINA RESULT:      -4.2      2.159      3.993
REMARK  1 active torsions:
REMARK  status: ('A' for Active; 'I' for Inactive)
REMARK    1  A    between atoms: C6_6  and  C10_10 
ROOT
HETATM    1  C1  UNL     1     -34.126  16.990  -4.714  1.00 20.00     0.142 A 
HETATM    2  C2  UNL     1     -36.311  14.989  -3.455  1.00 20.00     0.006 C 
HETATM    3  C3  UNL     1     -36.140  16.489  -3.182  1.00 20.00     0.019 C 
HETATM    4  C4  UNL     1     -34.146  15.612  -4.277  1.00 20.00     0.076 A 
HETATM    5  C5  UNL     1     -35.295  14.677  -4.569  1.00 20.00    -0.006 C 
HETATM    6  C6  UNL     1     -34.657  16.729  -3.384  1.00 20.00     0.034 A 
HETATM    7  C7  UNL     1     -34.885  13.213  -4.578  1.00 20.00     0.011 C 
HETATM    8  O11 UNL     1     -33.241  17.710  -5.125  1.00 20.00    -0.297 OA
ENDROOT
BRANCH   6   9
HETATM    9  C10 UNL     1     -33.879  17.082  -2.151  1.00 20.00    -0.006 C 
HETATM   10  C8  UNL     1     -33.628  18.596  -2.059  1.00 20.00     0.011 C 
HETATM   11  C9  UNL     1     -34.591  16.601  -0.878  1.00 20.00     0.011 C 
ENDBRANCH   6   9
TORSDOF 1
ENDMDL
