MODEL 1
REMARK VINA RESULT:      -5.3      0.000      0.000
REMARK  0 active torsions:
REMARK  status: ('A' for Active; 'I' for Inactive)
ROOT
HETATM    1  C1  UNL     1     -32.210   6.095   3.337  1.00 20.00    -0.025 C 
HETATM    2  C2  UNL     1     -32.979   5.217   2.666  1.00 20.00    -0.025 C 
HETATM    3  C3  UNL     1     -34.391   5.940   6.524  1.00 20.00    -0.022 C 
HETATM    4  C4  UNL     1     -35.158   4.827   6.572  1.00 20.00     0.007 C 
HETATM    5  C5  UNL     1     -34.224   7.101   3.106  1.00 20.00     0.018 C 
HETATM    6  C6  UNL     1     -33.141   6.963   4.186  1.00 20.00     0.017 C 
HETATM    7  C7  UNL     1     -34.422   5.562   2.948  1.00 20.00     0.016 C 
HETATM    8  C8  UNL     1     -33.690   5.941   5.212  1.00 20.00     0.023 C 
HETATM    9  C9  UNL     1     -35.209   4.117   5.219  1.00 20.00     0.198 C 
HETATM   10  C10 UNL     1     -34.860   5.326   4.393  1.00 20.00     0.039 C 
HETATM   11  F11 UNL     1     -34.262   3.157   5.121  1.00 20.00    -0.245 F 
ENDROOT
TORSDOF 0
ENDMDL
MODEL 2
REMARK VINA RESULT:      -5.0     12.092     13.107
REMARK  0 active torsions:
REMARK  status: ('A' for Active; 'I' for Inactive)
ROOT
HETATM    1  C1  UNL     1     -33.957  17.590  -3.241  1.00 20.00    -0.025 C 
HETATM    2  C2  UNL     1     -35.300  17.651  -3.309  1.00 20.00    -0.025 C 
HETATM    3  C3  UNL     1     -33.863  13.762  -3.761  1.00 20.00    -0.022 C 
HETATM    4  C4  UNL     1     -34.999  13.288  -4.322  1.00 20.00     0.007 C 
HETATM    5  C5  UNL     1     -34.713  16.415  -1.460  1.00 20.00     0.018 C 
HETATM    6  C6  UNL     1     -33.595  16.298  -2.507  1.00 20.00     0.017 C 
HETATM    7  C7  UNL     1     -35.854  16.488  -2.521  1.00 20.00     0.016 C 
HETATM    8  C8  UNL     1     -34.063  15.214  -3.510  1.00 20.00     0.023 C 
HETATM    9  C9  UNL     1     -36.123  14.323  -4.284  1.00 20.00     0.198 C 
HETATM   10  C10 UNL     1     -35.568  15.115  -3.130  1.00 20.00     0.039 C 
HETATM   11  F11 UNL     1     -36.166  15.059  -5.418  1.00 20.00    -0.245 F 
ENDROOT
TORSDOF 0
ENDMDL
MODEL 3
REMARK VINA RESULT:      -4.9     12.299     14.221
REMARK  0 active torsions:
REMARK  status: ('A' for Active; 'I' for Inactive)
ROOT
HETATM    1  C1  UNL     1     -33.783  13.642  -3.818  1.00 20.00    -0.025 C 
HETATM    2  C2  UNL     1     -34.017  14.827  -3.225  1.00 20.00    -0.025 C 
HETATM    3  C3  UNL     1     -34.649  14.962  -7.346  1.00 20.00    -0.022 C 
HETATM    4  C4  UNL     1     -34.579  16.310  -7.425  1.00 20.00     0.007 C 
HETATM    5  C5  UNL     1     -35.989  14.048  -4.117  1.00 20.00     0.018 C 
HETATM    6  C6  UNL     1     -34.820  13.474  -4.930  1.00 20.00     0.017 C 
HETATM    7  C7  UNL     1     -35.274  15.405  -3.832  1.00 20.00     0.016 C 
HETATM    8  C8  UNL     1     -34.408  14.586  -5.926  1.00 20.00     0.023 C 
HETATM    9  C9  UNL     1     -34.512  16.956  -6.041  1.00 20.00     0.198 C 
HETATM   10  C10 UNL     1     -35.142  15.806  -5.301  1.00 20.00     0.039 C 
HETATM   11  F11 UNL     1     -33.235  17.162  -5.645  1.00 20.00    -0.245 F 
ENDROOT
TORSDOF 0
ENDMDL
MODEL 4
REMARK VINA RESULT:      -4.8     12.378     13.458
REMARK  0 active torsions:
REMARK  status: ('A' for Active; 'I' for Inactive)
ROOT
HETATM    1  C1  UNL     1     -35.249  14.622  -4.590  1.00 20.00    -0.025 C 
HETATM    2  C2  UNL     1     -34.493  15.503  -5.270  1.00 20.00    -0.025 C 
HETATM    3  C3  UNL     1     -34.648  16.357  -1.190  1.00 20.00    -0.022 C 
HETATM    4  C4  UNL     1     -34.238  17.639  -1.329  1.00 20.00     0.007 C 
HETATM    5  C5  UNL     1     -33.145  14.359  -3.798  1.00 20.00     0.018 C 
HETATM    6  C6  UNL     1     -34.574  14.388  -3.237  1.00 20.00     0.017 C 
HETATM    7  C7  UNL     1     -33.252  15.771  -4.452  1.00 20.00     0.016 C 
HETATM    8  C8  UNL     1     -34.735  15.768  -2.553  1.00 20.00     0.023 C 
HETATM    9  C9  UNL     1     -33.803  17.941  -2.762  1.00 20.00     0.198 C 
HETATM   10  C10 UNL     1     -33.505  16.515  -3.140  1.00 20.00     0.039 C 
HETATM   11  F11 UNL     1     -34.818  18.449  -3.498  1.00 20.00    -0.245 F 
ENDROOT
TORSDOF 0
ENDMDL
MODEL 5
REMARK VINA RESULT:      -4.8     12.258     13.802
REMARK  0 active torsions:
REMARK  status: ('A' for Active; 'I' for Inactive)
ROOT
HETATM    1  C1  UNL     1     -33.823  16.015  -2.894  1.00 20.00    -0.025 C 
HETATM    2  C2  UNL     1     -34.905  15.238  -2.699  1.00 20.00    -0.025 C 
HETATM    3  C3  UNL     1     -34.012  15.735  -6.743  1.00 20.00    -0.022 C 
HETATM    4  C4  UNL     1     -35.237  15.359  -7.175  1.00 20.00     0.007 C 
HETATM    5  C5  UNL     1     -33.257  13.970  -3.682  1.00 20.00     0.018 C 
HETATM    6  C6  UNL     1     -33.055  15.439  -4.084  1.00 20.00     0.017 C 
HETATM    7  C7  UNL     1     -34.813  14.074  -3.656  1.00 20.00     0.016 C 
HETATM    8  C8  UNL     1     -34.033  15.698  -5.256  1.00 20.00     0.023 C 
HETATM    9  C9  UNL     1     -36.100  14.825  -6.032  1.00 20.00     0.198 C 
HETATM   10  C10 UNL     1     -34.954  14.451  -5.131  1.00 20.00     0.039 C 
HETATM   11  F11 UNL     1     -36.866  15.797  -5.486  1.00 20.00    -0.245 F 
ENDROOT
TORSDOF 0
ENDMDL
MODEL 6
REMARK VINA RESULT:      -4.7     12.241     13.212
REMARK  0 active torsions:
REMARK  status: ('A' for Active; 'I' for Inactive)
ROOT
HETATM    1  C1  UNL     1     -36.193  14.831  -5.587  1.00 20.00    -0.025 C 
HETATM    2  C2  UNL     1     -34.917  14.660  -5.982  1.00 20.00    -0.025 C 
HETATM    3  C3  UNL     1     -35.192  16.102  -2.078  1.00 20.00    -0.022 C 
HETATM    4  C4  UNL     1     -33.916  16.549  -2.034  1.00 20.00     0.007 C 
HETATM    5  C5  UNL     1     -35.348  13.215  -4.245  1.00 20.00     0.018 C 
HETATM    6  C6  UNL     1     -36.271  14.436  -4.111  1.00 20.00     0.017 C 
HETATM    7  C7  UNL     1     -34.160  14.036  -4.834  1.00 20.00     0.016 C 
HETATM    8  C8  UNL     1     -35.420  15.540  -3.436  1.00 20.00     0.023 C 
HETATM    9  C9  UNL     1     -33.124  16.121  -3.269  1.00 20.00     0.198 C 
HETATM   10  C10 UNL     1     -33.996  14.943  -3.614  1.00 20.00     0.039 C 
HETATM   11  F11 UNL     1     -33.158  17.065  -4.238  1.00 20.00    -0.245 F 
ENDROOT
TORSDOF 0
ENDMDL
MODEL 7
REMARK VINA RESULT:      -4.7     12.312     13.665
REMARK  0 active torsions:
REMARK  status: ('A' for Active; 'I' for Inactive)
ROOT
HETATM    1  C1  UNL     1     -33.669  17.353  -1.313  1.00 20.00    -0.025 C 
HETATM    2  C2  UNL     1     -33.733  18.201  -2.357  1.00 20.00    -0.025 C 
HETATM    3  C3  UNL     1     -34.429  14.244  -3.479  1.00 20.00    -0.022 C 
HETATM    4  C4  UNL     1     -34.183  14.456  -4.792  1.00 20.00     0.007 C 
HETATM    5  C5  UNL     1     -35.809  17.260  -2.045  1.00 20.00     0.018 C 
HETATM    6  C6  UNL     1     -34.742  16.284  -1.526  1.00 20.00     0.017 C 
HETATM    7  C7  UNL     1     -34.915  17.797  -3.206  1.00 20.00     0.016 C 
HETATM    8  C8  UNL     1     -34.209  15.534  -2.772  1.00 20.00     0.023 C 
HETATM    9  C9  UNL     1     -34.003  15.942  -5.102  1.00 20.00     0.198 C 
HETATM   10  C10 UNL     1     -34.763  16.445  -3.903  1.00 20.00     0.039 C 
HETATM   11  F11 UNL     1     -32.702  16.310  -5.055  1.00 20.00    -0.245 F 
ENDROOT
TORSDOF 0
ENDMDL
MODEL 8
REMARK VINA RESULT:      -4.7      9.324     10.482
REMARK  0 active torsions:
REMARK  status: ('A' for Active; 'I' for Inactive)
ROOT
HETATM    1  C1  UNL     1     -40.792   7.036  -0.793  1.00 20.00    -0.025 C 
HETATM    2  C2  UNL     1     -42.072   7.404  -0.991  1.00 20.00    -0.025 C 
HETATM    3  C3  UNL     1     -41.318   3.513  -2.293  1.00 20.00    -0.022 C 
HETATM    4  C4  UNL     1     -42.415   3.446  -3.082  1.00 20.00     0.007 C 
HETATM    5  C5  UNL     1     -42.031   5.668   0.519  1.00 20.00     0.018 C 
HETATM    6  C6  UNL     1     -40.798   5.560  -0.391  1.00 20.00     0.017 C 
HETATM    7  C7  UNL     1     -42.951   6.237  -0.605  1.00 20.00     0.016 C 
HETATM    8  C8  UNL     1     -41.287   4.873  -1.690  1.00 20.00     0.023 C 
HETATM    9  C9  UNL     1     -43.321   4.662  -2.896  1.00 20.00     0.198 C 
HETATM   10  C10 UNL     1     -42.825   5.019  -1.520  1.00 20.00     0.039 C 
HETATM   11  F11 UNL     1     -43.043   5.636  -3.793  1.00 20.00    -0.245 F 
ENDROOT
TORSDOF 0
ENDMDL
MODEL 9
REMARK VINA RESULT:      -4.6     12.280     13.483
REMARK  0 active torsions:
REMARK  status: ('A' for Active; 'I' for Inactive)
ROOT
HETATM    1  C1  UNL     1     -35.628  16.776  -2.587  1.00 20.00    -0.025 C 
HETATM    2  C2  UNL     1     -34.710  15.930  -2.083  1.00 20.00    -0.025 C 
HETATM    3  C3  UNL     1     -35.486  15.209  -6.117  1.00 20.00    -0.022 C 
HETATM    4  C4  UNL     1     -34.973  13.958  -6.107  1.00 20.00     0.007 C 
HETATM    5  C5  UNL     1     -33.708  17.223  -3.701  1.00 20.00     0.018 C 
HETATM    6  C6  UNL     1     -35.206  17.106  -4.020  1.00 20.00     0.017 C 
HETATM    7  C7  UNL     1     -33.608  15.785  -3.105  1.00 20.00     0.016 C 
HETATM    8  C8  UNL     1     -35.384  15.743  -4.732  1.00 20.00     0.023 C 
HETATM    9  C9  UNL     1     -34.284  13.639  -4.781  1.00 20.00     0.198 C 
HETATM   10  C10 UNL     1     -34.025  15.070  -4.391  1.00 20.00     0.039 C 
HETATM   11  F11 UNL     1     -35.125  13.032  -3.913  1.00 20.00    -0.245 F 
ENDROOT
TORSDOF 0
ENDMDL
