MODEL 1
REMARK VINA RESULT:      -5.1      0.000      0.000
REMARK  1 active torsions:
REMARK  status: ('A' for Active; 'I' for Inactive)
REMARK    1  A    between atoms: C4_4  and  C6_6 
ROOT
HETATM    1  C1  UNL     1     -31.977   8.400   1.811  1.00 20.00     0.012 C 
HETATM    2  C2  UNL     1     -32.328   7.424   2.416  1.00 20.00    -0.109 C 
HETATM    3  C3  UNL     1     -32.930   6.574   4.615  1.00 20.00    -0.003 C 
HETATM    4  C4  UNL     1     -33.981   6.177   5.356  1.00 20.00    -0.061 C 
HETATM    5  C7  UNL     1     -35.078   5.309   4.794  1.00 20.00     0.038 C 
HETATM    6  C8  UNL     1     -34.706   4.650   3.463  1.00 20.00     0.006 C 
HETATM    7  C9  UNL     1     -34.035   5.650   2.527  1.00 20.00     0.021 C 
HETATM    8  C10 UNL     1     -32.759   6.228   3.159  1.00 20.00     0.087 C 
ENDROOT
BRANCH   4   9
HETATM    9  C6  UNL     1     -34.106   6.551   6.743  1.00 20.00    -0.004 C 
HETATM   10  C5  UNL     1     -33.444   7.625   7.201  1.00 20.00     0.012 C 
ENDBRANCH   4   9
TORSDOF 1
ENDMDL
MODEL 2
REMARK VINA RESULT:      -4.8      9.462     11.176
REMARK  1 active torsions:
REMARK  status: ('A' for Active; 'I' for Inactive)
REMARK    1  A    between atoms: C4_4  and  C6_6 
ROOT
HETATM    1  C1  UNL     1     -42.499   8.365  -4.335  1.00 20.00     0.012 C 
HETATM    2  C2  UNL     1     -42.473   7.629  -3.386  1.00 20.00    -0.109 C 
HETATM    3  C3  UNL     1     -42.680   5.311  -2.679  1.00 20.00    -0.003 C 
HETATM    4  C4  UNL     1     -41.964   4.259  -2.244  1.00 20.00    -0.061 C 
HETATM    5  C7  UNL     1     -40.864   4.402  -1.222  1.00 20.00     0.038 C 
HETATM    6  C8  UNL     1     -40.893   5.746  -0.489  1.00 20.00     0.006 C 
HETATM    7  C9  UNL     1     -41.116   6.896  -1.465  1.00 20.00     0.021 C 
HETATM    8  C10 UNL     1     -42.442   6.727  -2.223  1.00 20.00     0.087 C 
ENDROOT
BRANCH   4   9
HETATM    9  C6  UNL     1     -42.222   2.924  -2.726  1.00 20.00    -0.004 C 
HETATM   10  C5  UNL     1     -41.298   2.299  -3.472  1.00 20.00     0.012 C 
ENDBRANCH   4   9
TORSDOF 1
ENDMDL
MODEL 3
REMARK VINA RESULT:      -4.6     11.221     12.895
REMARK  1 active torsions:
REMARK  status: ('A' for Active; 'I' for Inactive)
REMARK    1  A    between atoms: C4_4  and  C6_6 
ROOT
HETATM    1  C1  UNL     1     -34.964  17.336  -7.804  1.00 20.00     0.012 C 
HETATM    2  C2  UNL     1     -34.478  16.558  -7.029  1.00 20.00    -0.109 C 
HETATM    3  C3  UNL     1     -33.655  16.289  -4.755  1.00 20.00    -0.003 C 
HETATM    4  C4  UNL     1     -33.957  15.732  -3.569  1.00 20.00    -0.061 C 
HETATM    5  C7  UNL     1     -34.527  14.341  -3.456  1.00 20.00     0.038 C 
HETATM    6  C8  UNL     1     -34.386  13.524  -4.743  1.00 20.00     0.006 C 
HETATM    7  C9  UNL     1     -34.768  14.356  -5.962  1.00 20.00     0.021 C 
HETATM    8  C10 UNL     1     -33.881  15.605  -6.078  1.00 20.00     0.087 C 
ENDROOT
BRANCH   4   9
HETATM    9  C6  UNL     1     -33.737  16.438  -2.330  1.00 20.00    -0.004 C 
HETATM   10  C5  UNL     1     -34.662  16.375  -1.359  1.00 20.00     0.012 C 
ENDBRANCH   4   9
TORSDOF 1
ENDMDL
MODEL 4
REMARK VINA RESULT:      -4.6     11.213     12.624
REMARK  1 active torsions:
REMARK  status: ('A' for Active; 'I' for Inactive)
REMARK    1  A    between atoms: C4_4  and  C6_6 
ROOT
HETATM    1  C1  UNL     1     -35.160  17.391   0.551  1.00 20.00     0.012 C 
HETATM    2  C2  UNL     1     -34.620  17.095  -0.480  1.00 20.00    -0.109 C 
HETATM    3  C3  UNL     1     -34.584  15.477  -2.297  1.00 20.00    -0.003 C 
HETATM    4  C4  UNL     1     -34.912  15.318  -3.591  1.00 20.00    -0.061 C 
HETATM    5  C7  UNL     1     -34.647  16.384  -4.625  1.00 20.00     0.038 C 
HETATM    6  C8  UNL     1     -33.676  17.465  -4.142  1.00 20.00     0.006 C 
HETATM    7  C9  UNL     1     -34.018  17.912  -2.724  1.00 20.00     0.021 C 
HETATM    8  C10 UNL     1     -33.958  16.731  -1.744  1.00 20.00     0.087 C 
ENDROOT
BRANCH   4   9
HETATM    9  C6  UNL     1     -35.526  14.103  -4.067  1.00 20.00    -0.004 C 
HETATM   10  C5  UNL     1     -34.783  13.201  -4.729  1.00 20.00     0.012 C 
ENDBRANCH   4   9
TORSDOF 1
ENDMDL
MODEL 5
REMARK VINA RESULT:      -4.5     11.177     12.775
REMARK  1 active torsions:
REMARK  status: ('A' for Active; 'I' for Inactive)
REMARK    1  A    between atoms: C4_4  and  C6_6 
ROOT
HETATM    1  C1  UNL     1     -34.107  18.352  -6.748  1.00 20.00     0.012 C 
HETATM    2  C2  UNL     1     -33.792  17.451  -6.020  1.00 20.00    -0.109 C 
HETATM    3  C3  UNL     1     -33.704  16.726  -3.699  1.00 20.00    -0.003 C 
HETATM    4  C4  UNL     1     -34.290  15.898  -2.816  1.00 20.00    -0.061 C 
HETATM    5  C7  UNL     1     -34.675  14.484  -3.173  1.00 20.00     0.038 C 
HETATM    6  C8  UNL     1     -34.025  13.990  -4.468  1.00 20.00     0.006 C 
HETATM    7  C9  UNL     1     -34.109  15.051  -5.560  1.00 20.00     0.021 C 
HETATM    8  C10 UNL     1     -33.405  16.346  -5.126  1.00 20.00     0.087 C 
ENDROOT
BRANCH   4   9
HETATM    9  C6  UNL     1     -34.569  16.317  -1.465  1.00 20.00    -0.004 C 
HETATM   10  C5  UNL     1     -33.870  17.330  -0.927  1.00 20.00     0.012 C 
ENDBRANCH   4   9
TORSDOF 1
ENDMDL
MODEL 6
REMARK VINA RESULT:      -4.5     11.035     11.991
REMARK  1 active torsions:
REMARK  status: ('A' for Active; 'I' for Inactive)
REMARK    1  A    between atoms: C4_4  and  C6_6 
ROOT
HETATM    1  C1  UNL     1     -38.984  14.746  -3.828  1.00 20.00     0.012 C 
HETATM    2  C2  UNL     1     -37.815  14.867  -4.076  1.00 20.00    -0.109 C 
HETATM    3  C3  UNL     1     -35.741  15.915  -3.355  1.00 20.00    -0.003 C 
HETATM    4  C4  UNL     1     -34.559  15.652  -2.770  1.00 20.00    -0.061 C 
HETATM    5  C7  UNL     1     -33.743  14.433  -3.119  1.00 20.00     0.038 C 
HETATM    6  C8  UNL     1     -34.198  13.751  -4.413  1.00 20.00     0.006 C 
HETATM    7  C9  UNL     1     -35.718  13.633  -4.462  1.00 20.00     0.021 C 
HETATM    8  C10 UNL     1     -36.382  15.016  -4.380  1.00 20.00     0.087 C 
ENDROOT
BRANCH   4   9
HETATM    9  C6  UNL     1     -33.997  16.537  -1.781  1.00 20.00    -0.004 C 
HETATM   10  C5  UNL     1     -34.664  16.761  -0.637  1.00 20.00     0.012 C 
ENDBRANCH   4   9
TORSDOF 1
ENDMDL
MODEL 7
REMARK VINA RESULT:      -4.5     11.028     13.175
REMARK  1 active torsions:
REMARK  status: ('A' for Active; 'I' for Inactive)
REMARK    1  A    between atoms: C4_4  and  C6_6 
ROOT
HETATM    1  C1  UNL     1     -34.426  16.620  -1.211  1.00 20.00     0.012 C 
HETATM    2  C2  UNL     1     -34.846  15.940  -2.108  1.00 20.00    -0.109 C 
HETATM    3  C3  UNL     1     -35.646  15.977  -4.405  1.00 20.00    -0.003 C 
HETATM    4  C4  UNL     1     -35.299  15.648  -5.662  1.00 20.00    -0.061 C 
HETATM    5  C7  UNL     1     -34.614  14.345  -5.992  1.00 20.00     0.038 C 
HETATM    6  C8  UNL     1     -34.684  13.321  -4.856  1.00 20.00     0.006 C 
HETATM    7  C9  UNL     1     -34.372  13.973  -3.514  1.00 20.00     0.021 C 
HETATM    8  C10 UNL     1     -35.362  15.108  -3.207  1.00 20.00     0.087 C 
ENDROOT
BRANCH   4   9
HETATM    9  C6  UNL     1     -35.580  16.524  -6.773  1.00 20.00    -0.004 C 
HETATM   10  C5  UNL     1     -34.575  17.193  -7.359  1.00 20.00     0.012 C 
ENDBRANCH   4   9
TORSDOF 1
ENDMDL
MODEL 8
REMARK VINA RESULT:      -4.4     11.157     12.911
REMARK  1 active torsions:
REMARK  status: ('A' for Active; 'I' for Inactive)
REMARK    1  A    between atoms: C4_4  and  C6_6 
ROOT
HETATM    1  C1  UNL     1     -34.069  16.815  -1.483  1.00 20.00     0.012 C 
HETATM    2  C2  UNL     1     -34.538  15.966  -2.190  1.00 20.00    -0.109 C 
HETATM    3  C3  UNL     1     -35.963  15.569  -4.121  1.00 20.00    -0.003 C 
HETATM    4  C4  UNL     1     -35.930  15.211  -5.417  1.00 20.00    -0.061 C 
HETATM    5  C7  UNL     1     -35.051  14.094  -5.921  1.00 20.00     0.038 C 
HETATM    6  C8  UNL     1     -34.503  13.205  -4.801  1.00 20.00     0.006 C 
HETATM    7  C9  UNL     1     -33.993  14.047  -3.636  1.00 20.00     0.021 C 
HETATM    8  C10 UNL     1     -35.114  14.924  -3.057  1.00 20.00     0.087 C 
ENDROOT
BRANCH   4   9
HETATM    9  C6  UNL     1     -36.752  15.873  -6.400  1.00 20.00    -0.004 C 
HETATM   10  C5  UNL     1     -37.246  15.169  -7.432  1.00 20.00     0.012 C 
ENDBRANCH   4   9
TORSDOF 1
ENDMDL
MODEL 9
REMARK VINA RESULT:      -4.4     11.582     12.604
REMARK  1 active torsions:
REMARK  status: ('A' for Active; 'I' for Inactive)
REMARK    1  A    between atoms: C4_4  and  C6_6 
ROOT
HETATM    1  C1  UNL     1     -30.879  18.935   3.207  1.00 20.00     0.012 C 
HETATM    2  C2  UNL     1     -31.932  19.011   2.634  1.00 20.00    -0.109 C 
HETATM    3  C3  UNL     1     -33.066  18.593   0.523  1.00 20.00    -0.003 C 
HETATM    4  C4  UNL     1     -33.947  17.768  -0.071  1.00 20.00    -0.061 C 
HETATM    5  C7  UNL     1     -35.205  17.304   0.619  1.00 20.00     0.038 C 
HETATM    6  C8  UNL     1     -35.546  18.123   1.867  1.00 20.00     0.006 C 
HETATM    7  C9  UNL     1     -34.306  18.357   2.722  1.00 20.00     0.021 C 
HETATM    8  C10 UNL     1     -33.222  19.105   1.931  1.00 20.00     0.087 C 
ENDROOT
BRANCH   4   9
HETATM    9  C6  UNL     1     -33.742  17.293  -1.417  1.00 20.00    -0.004 C 
HETATM   10  C5  UNL     1     -34.458  16.251  -1.868  1.00 20.00     0.012 C 
ENDBRANCH   4   9
TORSDOF 1
ENDMDL
