MODEL 1
REMARK VINA RESULT:      -4.8      0.000      0.000
REMARK  1 active torsions:
REMARK  status: ('A' for Active; 'I' for Inactive)
REMARK    1  A    between atoms: C1_1  and  C5_5 
ROOT
HETATM    1  C2  UNL     1     -35.103  13.319  -4.503  1.00 20.00     0.006 C 
HETATM    2  C3  UNL     1     -33.812  13.763  -3.802  1.00 20.00     0.006 C 
HETATM    3  C4  UNL     1     -34.097  15.083  -5.727  1.00 20.00     0.011 C 
HETATM    4  C5  UNL     1     -36.017  15.718  -4.498  1.00 20.00     0.084 C 
HETATM    5  C6  UNL     1     -35.483  14.547  -5.355  1.00 20.00    -0.001 C 
HETATM    6  C7  UNL     1     -33.659  15.223  -4.261  1.00 20.00    -0.006 C 
HETATM    7  C8  UNL     1     -34.776  16.140  -3.653  1.00 20.00    -0.032 C 
HETATM    8  C9  UNL     1     -34.439  17.624  -3.911  1.00 20.00     0.016 C 
HETATM    9  C10 UNL     1     -34.931  15.969  -2.133  1.00 20.00     0.016 C 
ENDROOT
BRANCH   4  10
HETATM   10  C1  UNL     1     -37.262  15.365  -3.743  1.00 20.00     0.224 C 
HETATM   11  O11 UNL     1     -37.625  14.201  -3.604  1.00 20.00    -0.279 OA
HETATM   12 CL12 UNL     1     -38.074  16.771  -3.126  1.00 20.00    -0.043 Cl
ENDBRANCH   4  10
TORSDOF 1
ENDMDL
MODEL 2
REMARK VINA RESULT:      -4.7      2.520      3.569
REMARK  1 active torsions:
REMARK  status: ('A' for Active; 'I' for Inactive)
REMARK    1  A    between atoms: C1_1  and  C5_5 
ROOT
HETATM    1  C2  UNL     1     -34.036  14.278  -3.438  1.00 20.00     0.006 C 
HETATM    2  C3  UNL     1     -34.841  13.306  -4.311  1.00 20.00     0.006 C 
HETATM    3  C4  UNL     1     -36.319  14.915  -3.441  1.00 20.00     0.011 C 
HETATM    4  C5  UNL     1     -34.917  16.301  -4.750  1.00 20.00     0.084 C 
HETATM    5  C6  UNL     1     -34.921  15.540  -3.404  1.00 20.00    -0.001 C 
HETATM    6  C7  UNL     1     -36.044  14.159  -4.750  1.00 20.00    -0.006 C 
HETATM    7  C8  UNL     1     -35.613  15.306  -5.728  1.00 20.00    -0.032 C 
HETATM    8  C9  UNL     1     -36.862  15.963  -6.353  1.00 20.00     0.016 C 
HETATM    9  C10 UNL     1     -34.736  14.807  -6.887  1.00 20.00     0.016 C 
ENDROOT
BRANCH   4  10
HETATM   10  C1  UNL     1     -33.554  16.790  -5.137  1.00 20.00     0.224 C 
HETATM   11  O11 UNL     1     -32.534  16.213  -4.773  1.00 20.00    -0.279 OA
HETATM   12 CL12 UNL     1     -33.627  18.218  -6.124  1.00 20.00    -0.043 Cl
ENDBRANCH   4  10
TORSDOF 1
ENDMDL
MODEL 3
REMARK VINA RESULT:      -4.7      2.319      3.401
REMARK  1 active torsions:
REMARK  status: ('A' for Active; 'I' for Inactive)
REMARK    1  A    between atoms: C1_1  and  C5_5 
ROOT
HETATM    1  C2  UNL     1     -37.164  14.672  -4.163  1.00 20.00     0.006 C 
HETATM    2  C3  UNL     1     -37.205  15.551  -5.419  1.00 20.00     0.006 C 
HETATM    3  C4  UNL     1     -36.295  16.819  -3.659  1.00 20.00     0.011 C 
HETATM    4  C5  UNL     1     -34.657  15.120  -3.840  1.00 20.00     0.084 C 
HETATM    5  C6  UNL     1     -36.085  15.346  -3.292  1.00 20.00    -0.001 C 
HETATM    6  C7  UNL     1     -36.079  16.568  -5.159  1.00 20.00    -0.006 C 
HETATM    7  C8  UNL     1     -34.667  15.889  -5.197  1.00 20.00    -0.032 C 
HETATM    8  C9  UNL     1     -33.563  16.967  -5.204  1.00 20.00     0.016 C 
HETATM    9  C10 UNL     1     -34.455  15.016  -6.445  1.00 20.00     0.016 C 
ENDROOT
BRANCH   4  10
HETATM   10  C1  UNL     1     -34.274  13.672  -3.884  1.00 20.00     0.224 C 
HETATM   11  O11 UNL     1     -35.078  12.801  -4.203  1.00 20.00    -0.279 OA
HETATM   12 CL12 UNL     1     -32.613  13.421  -3.442  1.00 20.00    -0.043 Cl
ENDBRANCH   4  10
TORSDOF 1
ENDMDL
MODEL 4
REMARK VINA RESULT:      -4.7      2.328      3.241
REMARK  1 active torsions:
REMARK  status: ('A' for Active; 'I' for Inactive)
REMARK    1  A    between atoms: C1_1  and  C5_5 
ROOT
HETATM    1  C2  UNL     1     -36.503  15.036  -5.453  1.00 20.00     0.006 C 
HETATM    2  C3  UNL     1     -36.034  16.494  -5.545  1.00 20.00     0.006 C 
HETATM    3  C4  UNL     1     -36.890  16.129  -3.385  1.00 20.00     0.011 C 
HETATM    4  C5  UNL     1     -35.061  14.627  -3.369  1.00 20.00     0.084 C 
HETATM    5  C6  UNL     1     -36.493  14.756  -3.936  1.00 20.00    -0.001 C 
HETATM    6  C7  UNL     1     -35.721  16.845  -4.080  1.00 20.00    -0.006 C 
HETATM    7  C8  UNL     1     -34.472  16.059  -3.552  1.00 20.00    -0.032 C 
HETATM    8  C9  UNL     1     -34.028  16.628  -2.188  1.00 20.00     0.016 C 
HETATM    9  C10 UNL     1     -33.262  16.152  -4.497  1.00 20.00     0.016 C 
ENDROOT
BRANCH   4  10
HETATM   10  C1  UNL     1     -34.294  13.495  -3.980  1.00 20.00     0.224 C 
HETATM   11  O11 UNL     1     -34.816  12.712  -4.768  1.00 20.00    -0.279 OA
HETATM   12 CL12 UNL     1     -32.643  13.456  -3.440  1.00 20.00    -0.043 Cl
ENDBRANCH   4  10
TORSDOF 1
ENDMDL
MODEL 5
REMARK VINA RESULT:      -4.6      2.539      3.803
REMARK  1 active torsions:
REMARK  status: ('A' for Active; 'I' for Inactive)
REMARK    1  A    between atoms: C1_1  and  C5_5 
ROOT
HETATM    1  C2  UNL     1     -33.807  17.496  -2.821  1.00 20.00     0.006 C 
HETATM    2  C3  UNL     1     -34.238  16.458  -1.778  1.00 20.00     0.006 C 
HETATM    3  C4  UNL     1     -36.168  17.286  -2.837  1.00 20.00     0.011 C 
HETATM    4  C5  UNL     1     -35.084  16.270  -4.679  1.00 20.00     0.084 C 
HETATM    5  C6  UNL     1     -35.001  17.536  -3.796  1.00 20.00    -0.001 C 
HETATM    6  C7  UNL     1     -35.584  15.958  -2.331  1.00 20.00    -0.006 C 
HETATM    7  C8  UNL     1     -35.396  15.137  -3.653  1.00 20.00    -0.032 C 
HETATM    8  C9  UNL     1     -36.716  14.430  -4.028  1.00 20.00     0.016 C 
HETATM    9  C10 UNL     1     -34.318  14.048  -3.534  1.00 20.00     0.016 C 
ENDROOT
BRANCH   4  10
HETATM   10  C1  UNL     1     -33.877  16.085  -5.547  1.00 20.00     0.224 C 
HETATM   11  O11 UNL     1     -32.781  16.541  -5.234  1.00 20.00    -0.279 OA
HETATM   12 CL12 UNL     1     -34.237  15.177  -6.984  1.00 20.00    -0.043 Cl
ENDBRANCH   4  10
TORSDOF 1
ENDMDL
MODEL 6
REMARK VINA RESULT:      -4.6      2.172      3.176
REMARK  1 active torsions:
REMARK  status: ('A' for Active; 'I' for Inactive)
REMARK    1  A    between atoms: C1_1  and  C5_5 
ROOT
HETATM    1  C2  UNL     1     -32.918  15.925  -4.770  1.00 20.00     0.006 C 
HETATM    2  C3  UNL     1     -34.021  15.949  -5.836  1.00 20.00     0.006 C 
HETATM    3  C4  UNL     1     -34.217  13.947  -4.618  1.00 20.00     0.011 C 
HETATM    4  C5  UNL     1     -34.632  15.523  -2.901  1.00 20.00     0.084 C 
HETATM    5  C6  UNL     1     -33.461  14.933  -3.721  1.00 20.00    -0.001 C 
HETATM    6  C7  UNL     1     -35.105  15.043  -5.227  1.00 20.00    -0.006 C 
HETATM    7  C8  UNL     1     -35.761  15.698  -3.963  1.00 20.00    -0.032 C 
HETATM    8  C9  UNL     1     -37.012  14.897  -3.543  1.00 20.00     0.016 C 
HETATM    9  C10 UNL     1     -36.212  17.147  -4.204  1.00 20.00     0.016 C 
ENDROOT
BRANCH   4  10
HETATM   10  C1  UNL     1     -34.240  16.740  -2.121  1.00 20.00     0.224 C 
HETATM   11  O11 UNL     1     -33.617  17.664  -2.636  1.00 20.00    -0.279 OA
HETATM   12 CL12 UNL     1     -34.769  16.657  -0.469  1.00 20.00    -0.043 Cl
ENDBRANCH   4  10
TORSDOF 1
ENDMDL
MODEL 7
REMARK VINA RESULT:      -4.6      1.390      2.421
REMARK  1 active torsions:
REMARK  status: ('A' for Active; 'I' for Inactive)
REMARK    1  A    between atoms: C1_1  and  C5_5 
ROOT
HETATM    1  C2  UNL     1     -34.720  15.603  -2.326  1.00 20.00     0.006 C 
HETATM    2  C3  UNL     1     -33.858  16.719  -2.930  1.00 20.00     0.006 C 
HETATM    3  C4  UNL     1     -33.147  14.668  -3.833  1.00 20.00     0.011 C 
HETATM    4  C5  UNL     1     -35.364  14.740  -4.656  1.00 20.00     0.084 C 
HETATM    5  C6  UNL     1     -34.586  14.458  -3.351  1.00 20.00    -0.001 C 
HETATM    6  C7  UNL     1     -33.410  16.116  -4.272  1.00 20.00    -0.006 C 
HETATM    7  C8  UNL     1     -34.612  15.963  -5.266  1.00 20.00    -0.032 C 
HETATM    8  C9  UNL     1     -34.090  15.615  -6.676  1.00 20.00     0.016 C 
HETATM    9  C10 UNL     1     -35.449  17.246  -5.398  1.00 20.00     0.016 C 
ENDROOT
BRANCH   4  10
HETATM   10  C1  UNL     1     -36.838  14.893  -4.433  1.00 20.00     0.224 C 
HETATM   11  O11 UNL     1     -37.331  14.826  -3.311  1.00 20.00    -0.279 OA
HETATM   12 CL12 UNL     1     -37.700  15.166  -5.916  1.00 20.00    -0.043 Cl
ENDBRANCH   4  10
TORSDOF 1
ENDMDL
MODEL 8
REMARK VINA RESULT:      -4.5      1.789      2.827
REMARK  1 active torsions:
REMARK  status: ('A' for Active; 'I' for Inactive)
REMARK    1  A    between atoms: C1_1  and  C5_5 
ROOT
HETATM    1  C2  UNL     1     -34.549  15.247  -2.926  1.00 20.00     0.006 C 
HETATM    2  C3  UNL     1     -33.411  14.681  -3.785  1.00 20.00     0.006 C 
HETATM    3  C4  UNL     1     -35.341  13.395  -4.176  1.00 20.00     0.011 C 
HETATM    4  C5  UNL     1     -36.071  15.499  -4.977  1.00 20.00     0.084 C 
HETATM    5  C6  UNL     1     -35.818  14.752  -3.648  1.00 20.00    -0.001 C 
HETATM    6  C7  UNL     1     -34.163  14.009  -4.948  1.00 20.00    -0.006 C 
HETATM    7  C8  UNL     1     -34.865  15.067  -5.868  1.00 20.00    -0.032 C 
HETATM    8  C9  UNL     1     -35.375  14.388  -7.157  1.00 20.00     0.016 C 
HETATM    9  C10 UNL     1     -33.927  16.206  -6.296  1.00 20.00     0.016 C 
ENDROOT
BRANCH   4  10
HETATM   10  C1  UNL     1     -36.279  16.970  -4.787  1.00 20.00     0.224 C 
HETATM   11  O11 UNL     1     -35.891  17.552  -3.778  1.00 20.00    -0.279 OA
HETATM   12 CL12 UNL     1     -37.106  17.694  -6.133  1.00 20.00    -0.043 Cl
ENDBRANCH   4  10
TORSDOF 1
ENDMDL
MODEL 9
REMARK VINA RESULT:      -4.5      2.269      3.365
REMARK  1 active torsions:
REMARK  status: ('A' for Active; 'I' for Inactive)
REMARK    1  A    between atoms: C1_1  and  C5_5 
ROOT
HETATM    1  C2  UNL     1     -33.742  16.157  -2.850  1.00 20.00     0.006 C 
HETATM    2  C3  UNL     1     -35.108  16.853  -2.773  1.00 20.00     0.006 C 
HETATM    3  C4  UNL     1     -34.183  17.276  -4.894  1.00 20.00     0.011 C 
HETATM    4  C5  UNL     1     -34.410  14.923  -4.999  1.00 20.00     0.084 C 
HETATM    5  C6  UNL     1     -33.507  16.006  -4.367  1.00 20.00    -0.001 C 
HETATM    6  C7  UNL     1     -35.534  16.931  -4.250  1.00 20.00    -0.006 C 
HETATM    7  C8  UNL     1     -35.845  15.512  -4.837  1.00 20.00    -0.032 C 
HETATM    8  C9  UNL     1     -36.521  15.648  -6.217  1.00 20.00     0.016 C 
HETATM    9  C10 UNL     1     -36.792  14.689  -3.948  1.00 20.00     0.016 C 
ENDROOT
BRANCH   4  10
HETATM   10  C1  UNL     1     -34.169  13.559  -4.429  1.00 20.00     0.224 C 
HETATM   11  O11 UNL     1     -34.938  12.625  -4.639  1.00 20.00    -0.279 OA
HETATM   12 CL12 UNL     1     -32.717  13.495  -3.476  1.00 20.00    -0.043 Cl
ENDBRANCH   4  10
TORSDOF 1
ENDMDL
