MODEL 1
REMARK VINA RESULT:      -5.7      0.000      0.000
REMARK  0 active torsions:
REMARK  status: ('A' for Active; 'I' for Inactive)
ROOT
HETATM    1  C1  UNL     1     -34.819   4.356   5.913  1.00 20.00    -0.004 C 
HETATM    2  C2  UNL     1     -34.253   5.578   6.426  1.00 20.00    -0.003 C 
HETATM    3  C3  UNL     1     -35.224   4.258   4.638  1.00 20.00    -0.025 C 
HETATM    4  C4  UNL     1     -33.921   6.587   5.608  1.00 20.00    -0.011 C 
HETATM    5  C5  UNL     1     -35.102   5.401   3.667  1.00 20.00     0.047 C 
HETATM    6  C6  UNL     1     -34.143   6.515   4.125  1.00 20.00     0.084 C 
HETATM    7 BR7  UNL     1     -32.375   6.228   3.316  1.00 20.00    -0.087 Br
ENDROOT
TORSDOF 0
ENDMDL
MODEL 2
REMARK VINA RESULT:      -4.1      1.934      3.243
REMARK  0 active torsions:
REMARK  status: ('A' for Active; 'I' for Inactive)
ROOT
HETATM    1  C1  UNL     1     -32.972   6.047   2.960  1.00 20.00    -0.004 C 
HETATM    2  C2  UNL     1     -34.280   5.512   2.674  1.00 20.00    -0.003 C 
HETATM    3  C3  UNL     1     -32.686   6.586   4.154  1.00 20.00    -0.025 C 
HETATM    4  C4  UNL     1     -35.189   5.346   3.644  1.00 20.00    -0.011 C 
HETATM    5  C5  UNL     1     -33.697   6.654   5.267  1.00 20.00     0.047 C 
HETATM    6  C6  UNL     1     -34.912   5.729   5.069  1.00 20.00     0.084 C 
HETATM    7 BR7  UNL     1     -34.618   4.048   6.045  1.00 20.00    -0.087 Br
ENDROOT
TORSDOF 0
ENDMDL
MODEL 3
REMARK VINA RESULT:      -3.9      1.506      2.417
REMARK  0 active torsions:
REMARK  status: ('A' for Active; 'I' for Inactive)
ROOT
HETATM    1  C1  UNL     1     -34.402   5.741   6.668  1.00 20.00    -0.004 C 
HETATM    2  C2  UNL     1     -34.952   4.496   6.193  1.00 20.00    -0.003 C 
HETATM    3  C3  UNL     1     -33.794   6.597   5.833  1.00 20.00    -0.025 C 
HETATM    4  C4  UNL     1     -35.061   4.240   4.883  1.00 20.00    -0.011 C 
HETATM    5  C5  UNL     1     -33.662   6.323   4.359  1.00 20.00     0.047 C 
HETATM    6  C6  UNL     1     -34.596   5.214   3.839  1.00 20.00     0.084 C 
HETATM    7 BR7  UNL     1     -36.218   6.030   3.085  1.00 20.00    -0.087 Br
ENDROOT
TORSDOF 0
ENDMDL
MODEL 4
REMARK VINA RESULT:      -3.8     12.202     13.503
REMARK  0 active torsions:
REMARK  status: ('A' for Active; 'I' for Inactive)
ROOT
HETATM    1  C1  UNL     1     -34.667  14.458  -5.925  1.00 20.00    -0.004 C 
HETATM    2  C2  UNL     1     -34.015  15.744  -5.900  1.00 20.00    -0.003 C 
HETATM    3  C3  UNL     1     -34.455  13.552  -4.959  1.00 20.00    -0.025 C 
HETATM    4  C4  UNL     1     -33.342  16.162  -4.819  1.00 20.00    -0.011 C 
HETATM    5  C5  UNL     1     -33.545  13.822  -3.791  1.00 20.00     0.047 C 
HETATM    6  C6  UNL     1     -33.205  15.311  -3.590  1.00 20.00     0.084 C 
HETATM    7 BR7  UNL     1     -34.416  16.080  -2.247  1.00 20.00    -0.087 Br
ENDROOT
TORSDOF 0
ENDMDL
MODEL 5
REMARK VINA RESULT:      -3.7     12.035     12.784
REMARK  0 active torsions:
REMARK  status: ('A' for Active; 'I' for Inactive)
ROOT
HETATM    1  C1  UNL     1     -34.694  13.398  -3.974  1.00 20.00    -0.004 C 
HETATM    2  C2  UNL     1     -35.837  14.273  -4.063  1.00 20.00    -0.003 C 
HETATM    3  C3  UNL     1     -33.459  13.885  -3.783  1.00 20.00    -0.025 C 
HETATM    4  C4  UNL     1     -35.742  15.574  -3.756  1.00 20.00    -0.011 C 
HETATM    5  C5  UNL     1     -33.191  15.359  -3.635  1.00 20.00     0.047 C 
HETATM    6  C6  UNL     1     -34.445  16.199  -3.331  1.00 20.00     0.084 C 
HETATM    7 BR7  UNL     1     -34.581  16.487  -1.391  1.00 20.00    -0.087 Br
ENDROOT
TORSDOF 0
ENDMDL
MODEL 6
REMARK VINA RESULT:      -3.6      1.641      2.490
REMARK  0 active torsions:
REMARK  status: ('A' for Active; 'I' for Inactive)
ROOT
HETATM    1  C1  UNL     1     -35.398   5.358   3.643  1.00 20.00    -0.004 C 
HETATM    2  C2  UNL     1     -34.188   6.073   3.322  1.00 20.00    -0.003 C 
HETATM    3  C3  UNL     1     -35.525   4.688   4.798  1.00 20.00    -0.025 C 
HETATM    4  C4  UNL     1     -33.231   6.267   4.241  1.00 20.00    -0.011 C 
HETATM    5  C5  UNL     1     -34.429   4.652   5.830  1.00 20.00     0.047 C 
HETATM    6  C6  UNL     1     -33.350   5.733   5.639  1.00 20.00     0.084 C 
HETATM    7 BR7  UNL     1     -33.763   7.275   6.785  1.00 20.00    -0.087 Br
ENDROOT
TORSDOF 0
ENDMDL
MODEL 7
REMARK VINA RESULT:      -3.6      8.822      9.968
REMARK  0 active torsions:
REMARK  status: ('A' for Active; 'I' for Inactive)
ROOT
HETATM    1  C1  UNL     1     -41.925   7.315  -2.028  1.00 20.00    -0.004 C 
HETATM    2  C2  UNL     1     -41.060   7.241  -0.876  1.00 20.00    -0.003 C 
HETATM    3  C3  UNL     1     -42.326   6.207  -2.668  1.00 20.00    -0.025 C 
HETATM    4  C4  UNL     1     -40.794   6.071  -0.281  1.00 20.00    -0.011 C 
HETATM    5  C5  UNL     1     -41.917   4.829  -2.222  1.00 20.00     0.047 C 
HETATM    6  C6  UNL     1     -41.353   4.774  -0.790  1.00 20.00     0.084 C 
HETATM    7 BR7  UNL     1     -42.785   4.263   0.456  1.00 20.00    -0.087 Br
ENDROOT
TORSDOF 0
ENDMDL
MODEL 8
REMARK VINA RESULT:      -3.6     12.485     12.922
REMARK  0 active torsions:
REMARK  status: ('A' for Active; 'I' for Inactive)
ROOT
HETATM    1  C1  UNL     1     -35.086  13.494  -4.172  1.00 20.00    -0.004 C 
HETATM    2  C2  UNL     1     -33.653  13.545  -4.017  1.00 20.00    -0.003 C 
HETATM    3  C3  UNL     1     -35.867  14.497  -3.746  1.00 20.00    -0.025 C 
HETATM    4  C4  UNL     1     -33.035  14.671  -3.634  1.00 20.00    -0.011 C 
HETATM    5  C5  UNL     1     -35.305  15.734  -3.099  1.00 20.00     0.047 C 
HETATM    6  C6  UNL     1     -33.793  15.928  -3.320  1.00 20.00     0.084 C 
HETATM    7 BR7  UNL     1     -33.508  17.139  -4.842  1.00 20.00    -0.087 Br
ENDROOT
TORSDOF 0
ENDMDL
MODEL 9
REMARK VINA RESULT:      -3.5     12.419     13.673
REMARK  0 active torsions:
REMARK  status: ('A' for Active; 'I' for Inactive)
ROOT
HETATM    1  C1  UNL     1     -34.541  13.530  -4.803  1.00 20.00    -0.004 C 
HETATM    2  C2  UNL     1     -34.634  14.443  -5.916  1.00 20.00    -0.003 C 
HETATM    3  C3  UNL     1     -33.720  13.772  -3.771  1.00 20.00    -0.025 C 
HETATM    4  C4  UNL     1     -34.066  15.655  -5.868  1.00 20.00    -0.011 C 
HETATM    5  C5  UNL     1     -32.861  15.007  -3.701  1.00 20.00     0.047 C 
HETATM    6  C6  UNL     1     -33.283  16.122  -4.675  1.00 20.00     0.084 C 
HETATM    7 BR7  UNL     1     -34.429  17.411  -3.733  1.00 20.00    -0.087 Br
ENDROOT
TORSDOF 0
ENDMDL
