MODEL 1
REMARK VINA RESULT:      -4.5      0.000      0.000
REMARK  0 active torsions:
REMARK  status: ('A' for Active; 'I' for Inactive)
ROOT
HETATM    1  C1  UNL     1     -34.747  14.932  -2.893  1.00 20.00     0.009 A 
HETATM    2  C2  UNL     1     -34.741  14.610  -4.253  1.00 20.00     0.019 A 
HETATM    3  C3  UNL     1     -34.110  16.878  -4.808  1.00 20.00     0.032 A 
HETATM    4  C4  UNL     1     -34.104  17.183  -3.449  1.00 20.00    -0.011 A 
HETATM    5  C5  UNL     1     -34.418  16.225  -2.483  1.00 20.00    -0.045 A 
HETATM    6  C6  UNL     1     -34.425  15.580  -5.207  1.00 20.00     0.011 A 
HETATM    7  C7  UNL     1     -33.805  18.541  -2.986  1.00 20.00     0.122 C 
HETATM    8  C8  UNL     1     -34.466  16.649  -1.047  1.00 20.00     0.061 C 
HETATM    9  C9  UNL     1     -33.442  17.752  -0.795  1.00 20.00     0.153 C 
HETATM   10  N10 UNL     1     -33.541  18.855  -1.762  1.00 20.00    -0.300 NA
HETATM   11 BR11 UNL     1     -34.432  15.133  -7.043  1.00 20.00    -0.051 Br
ENDROOT
TORSDOF 0
ENDMDL
MODEL 2
REMARK VINA RESULT:      -4.5      3.100      4.635
REMARK  0 active torsions:
REMARK  status: ('A' for Active; 'I' for Inactive)
ROOT
HETATM    1  C1  UNL     1     -35.260  17.149  -4.488  1.00 20.00     0.009 A 
HETATM    2  C2  UNL     1     -34.766  17.818  -3.365  1.00 20.00     0.019 A 
HETATM    3  C3  UNL     1     -34.090  15.712  -2.383  1.00 20.00     0.032 A 
HETATM    4  C4  UNL     1     -34.572  15.059  -3.515  1.00 20.00    -0.011 A 
HETATM    5  C5  UNL     1     -35.156  15.760  -4.571  1.00 20.00    -0.045 A 
HETATM    6  C6  UNL     1     -34.184  17.101  -2.316  1.00 20.00     0.011 A 
HETATM    7  C7  UNL     1     -34.518  13.597  -3.617  1.00 20.00     0.122 C 
HETATM    8  C8  UNL     1     -35.722  14.980  -5.720  1.00 20.00     0.061 C 
HETATM    9  C9  UNL     1     -34.903  13.711  -5.940  1.00 20.00     0.153 C 
HETATM   10  N10 UNL     1     -34.712  12.933  -4.707  1.00 20.00    -0.300 NA
HETATM   11 BR11 UNL     1     -33.531  18.018  -0.797  1.00 20.00    -0.051 Br
ENDROOT
TORSDOF 0
ENDMDL
MODEL 3
REMARK VINA RESULT:      -4.4      2.931      4.232
REMARK  0 active torsions:
REMARK  status: ('A' for Active; 'I' for Inactive)
ROOT
HETATM    1  C1  UNL     1     -34.400  15.190  -2.773  1.00 20.00     0.009 A 
HETATM    2  C2  UNL     1     -34.146  16.401  -2.125  1.00 20.00     0.019 A 
HETATM    3  C3  UNL     1     -33.721  17.472  -4.253  1.00 20.00     0.032 A 
HETATM    4  C4  UNL     1     -33.991  16.262  -4.888  1.00 20.00    -0.011 A 
HETATM    5  C5  UNL     1     -34.332  15.117  -4.165  1.00 20.00    -0.045 A 
HETATM    6  C6  UNL     1     -33.807  17.538  -2.864  1.00 20.00     0.011 A 
HETATM    7  C7  UNL     1     -33.887  16.139  -6.344  1.00 20.00     0.122 C 
HETATM    8  C8  UNL     1     -34.531  13.834  -4.913  1.00 20.00     0.061 C 
HETATM    9  C9  UNL     1     -35.106  14.123  -6.297  1.00 20.00     0.153 C 
HETATM   10  N10 UNL     1     -34.345  15.145  -7.030  1.00 20.00    -0.300 NA
HETATM   11 BR11 UNL     1     -33.456  19.169  -1.974  1.00 20.00    -0.051 Br
ENDROOT
TORSDOF 0
ENDMDL
MODEL 4
REMARK VINA RESULT:      -4.4      3.213      4.722
REMARK  0 active torsions:
REMARK  status: ('A' for Active; 'I' for Inactive)
ROOT
HETATM    1  C1  UNL     1     -33.621  18.811  -2.137  1.00 20.00     0.009 A 
HETATM    2  C2  UNL     1     -33.942  18.884  -0.780  1.00 20.00     0.019 A 
HETATM    3  C3  UNL     1     -34.677  16.578  -0.810  1.00 20.00     0.032 A 
HETATM    4  C4  UNL     1     -34.339  16.515  -2.160  1.00 20.00    -0.011 A 
HETATM    5  C5  UNL     1     -33.811  17.617  -2.835  1.00 20.00    -0.045 A 
HETATM    6  C6  UNL     1     -34.469  17.770  -0.119  1.00 20.00     0.011 A 
HETATM    7  C7  UNL     1     -34.565  15.290  -2.933  1.00 20.00     0.122 C 
HETATM    8  C8  UNL     1     -33.546  17.495  -4.305  1.00 20.00     0.061 C 
HETATM    9  C9  UNL     1     -33.137  16.063  -4.642  1.00 20.00     0.153 C 
HETATM   10  N10 UNL     1     -34.068  15.061  -4.103  1.00 20.00    -0.300 NA
HETATM   11 BR11 UNL     1     -34.909  17.886   1.716  1.00 20.00    -0.051 Br
ENDROOT
TORSDOF 0
ENDMDL
MODEL 5
REMARK VINA RESULT:      -4.3      3.236      4.729
REMARK  0 active torsions:
REMARK  status: ('A' for Active; 'I' for Inactive)
ROOT
HETATM    1  C1  UNL     1     -33.196  15.682  -4.593  1.00 20.00     0.009 A 
HETATM    2  C2  UNL     1     -33.307  16.027  -3.244  1.00 20.00     0.019 A 
HETATM    3  C3  UNL     1     -35.717  16.101  -3.440  1.00 20.00     0.032 A 
HETATM    4  C4  UNL     1     -35.594  15.742  -4.780  1.00 20.00    -0.011 A 
HETATM    5  C5  UNL     1     -34.346  15.529  -5.368  1.00 20.00    -0.045 A 
HETATM    6  C6  UNL     1     -34.564  16.237  -2.670  1.00 20.00     0.011 A 
HETATM    7  C7  UNL     1     -36.778  15.614  -5.634  1.00 20.00     0.122 C 
HETATM    8  C8  UNL     1     -34.291  15.222  -6.834  1.00 20.00     0.061 C 
HETATM    9  C9  UNL     1     -35.530  14.432  -7.247  1.00 20.00     0.153 C 
HETATM   10  N10 UNL     1     -36.783  15.059  -6.800  1.00 20.00    -0.300 NA
HETATM   11 BR11 UNL     1     -34.698  16.714  -0.845  1.00 20.00    -0.051 Br
ENDROOT
TORSDOF 0
ENDMDL
MODEL 6
REMARK VINA RESULT:      -4.3      3.173      4.314
REMARK  0 active torsions:
REMARK  status: ('A' for Active; 'I' for Inactive)
ROOT
HETATM    1  C1  UNL     1     -33.869  16.707  -2.521  1.00 20.00     0.009 A 
HETATM    2  C2  UNL     1     -34.937  17.525  -2.145  1.00 20.00     0.019 A 
HETATM    3  C3  UNL     1     -36.501  15.984  -3.161  1.00 20.00     0.032 A 
HETATM    4  C4  UNL     1     -35.428  15.169  -3.516  1.00 20.00    -0.011 A 
HETATM    5  C5  UNL     1     -34.112  15.515  -3.204  1.00 20.00    -0.045 A 
HETATM    6  C6  UNL     1     -36.248  17.164  -2.465  1.00 20.00     0.011 A 
HETATM    7  C7  UNL     1     -35.644  13.931  -4.272  1.00 20.00     0.122 C 
HETATM    8  C8  UNL     1     -33.007  14.626  -3.689  1.00 20.00     0.061 C 
HETATM    9  C9  UNL     1     -33.481  13.176  -3.720  1.00 20.00     0.153 C 
HETATM   10  N10 UNL     1     -34.758  13.007  -4.430  1.00 20.00    -0.300 NA
HETATM   11 BR11 UNL     1     -37.683  18.287  -1.960  1.00 20.00    -0.051 Br
ENDROOT
TORSDOF 0
ENDMDL
MODEL 7
REMARK VINA RESULT:      -4.3      1.409      2.364
REMARK  0 active torsions:
REMARK  status: ('A' for Active; 'I' for Inactive)
ROOT
HETATM    1  C1  UNL     1     -33.581  17.503  -4.061  1.00 20.00     0.009 A 
HETATM    2  C2  UNL     1     -33.889  16.262  -4.622  1.00 20.00     0.019 A 
HETATM    3  C3  UNL     1     -34.596  15.437  -2.460  1.00 20.00     0.032 A 
HETATM    4  C4  UNL     1     -34.299  16.684  -1.915  1.00 20.00    -0.011 A 
HETATM    5  C5  UNL     1     -33.795  17.723  -2.699  1.00 20.00    -0.045 A 
HETATM    6  C6  UNL     1     -34.394  15.232  -3.823  1.00 20.00     0.011 A 
HETATM    7  C7  UNL     1     -34.471  16.937  -0.482  1.00 20.00     0.122 C 
HETATM    8  C8  UNL     1     -33.427  19.011  -2.026  1.00 20.00     0.061 C 
HETATM    9  C9  UNL     1     -34.356  19.263  -0.842  1.00 20.00     0.153 C 
HETATM   10  N10 UNL     1     -34.456  18.108   0.062  1.00 20.00    -0.300 NA
HETATM   11 BR11 UNL     1     -34.795  13.553  -4.594  1.00 20.00    -0.051 Br
ENDROOT
TORSDOF 0
ENDMDL
MODEL 8
REMARK VINA RESULT:      -4.2      3.508      4.819
REMARK  0 active torsions:
REMARK  status: ('A' for Active; 'I' for Inactive)
ROOT
HETATM    1  C1  UNL     1     -35.142  17.633   1.128  1.00 20.00     0.009 A 
HETATM    2  C2  UNL     1     -35.115  17.365  -0.243  1.00 20.00     0.019 A 
HETATM    3  C3  UNL     1     -32.892  18.306  -0.403  1.00 20.00     0.032 A 
HETATM    4  C4  UNL     1     -32.925  18.554   0.967  1.00 20.00    -0.011 A 
HETATM    5  C5  UNL     1     -34.038  18.224   1.743  1.00 20.00    -0.045 A 
HETATM    6  C6  UNL     1     -33.993  17.701  -1.005  1.00 20.00     0.011 A 
HETATM    7  C7  UNL     1     -31.800  19.212   1.638  1.00 20.00     0.122 C 
HETATM    8  C8  UNL     1     -34.030  18.594   3.196  1.00 20.00     0.061 C 
HETATM    9  C9  UNL     1     -32.606  18.523   3.742  1.00 20.00     0.153 C 
HETATM   10  N10 UNL     1     -31.640  19.262   2.918  1.00 20.00    -0.300 NA
HETATM   11 BR11 UNL     1     -33.975  17.342  -2.862  1.00 20.00    -0.051 Br
ENDROOT
TORSDOF 0
ENDMDL
MODEL 9
REMARK VINA RESULT:      -4.2      5.464      7.144
REMARK  0 active torsions:
REMARK  status: ('A' for Active; 'I' for Inactive)
ROOT
HETATM    1  C1  UNL     1     -34.614  17.997   2.695  1.00 20.00     0.009 A 
HETATM    2  C2  UNL     1     -34.121  18.232   3.980  1.00 20.00     0.019 A 
HETATM    3  C3  UNL     1     -32.073  19.126   3.052  1.00 20.00     0.032 A 
HETATM    4  C4  UNL     1     -32.583  18.900   1.776  1.00 20.00    -0.011 A 
HETATM    5  C5  UNL     1     -33.846  18.340   1.581  1.00 20.00    -0.045 A 
HETATM    6  C6  UNL     1     -32.854  18.795   4.158  1.00 20.00     0.011 A 
HETATM    7  C7  UNL     1     -31.786  19.209   0.585  1.00 20.00     0.122 C 
HETATM    8  C8  UNL     1     -34.293  18.056   0.179  1.00 20.00     0.061 C 
HETATM    9  C9  UNL     1     -33.708  19.095  -0.774  1.00 20.00     0.153 C 
HETATM   10  N10 UNL     1     -32.256  19.263  -0.616  1.00 20.00    -0.300 NA
HETATM   11 BR11 UNL     1     -32.195  19.098   5.904  1.00 20.00    -0.051 Br
ENDROOT
TORSDOF 0
ENDMDL
