MODEL 1
REMARK VINA RESULT:      -3.9      0.000      0.000
REMARK  0 active torsions:
REMARK  status: ('A' for Active; 'I' for Inactive)
ROOT
HETATM    1  C1  UNL     1     -31.890   6.987   2.898  1.00 20.00     0.013 C 
HETATM    2  C2  UNL     1     -32.770   6.672   3.650  1.00 20.00    -0.106 C 
HETATM    3  C3  UNL     1     -35.208   6.102   3.964  1.00 20.00     0.041 A 
HETATM    4  C4  UNL     1     -34.403   4.897   4.362  1.00 20.00     0.079 A 
HETATM    5  C5  UNL     1     -33.829   6.292   4.554  1.00 20.00     0.033 A 
HETATM    6  C6  UNL     1     -33.732   6.918   5.921  1.00 20.00     0.030 C 
HETATM    7 BR7  UNL     1     -35.002   3.854   5.844  1.00 20.00    -0.089 Br
ENDROOT
TORSDOF 0
ENDMDL
MODEL 2
REMARK VINA RESULT:      -3.8     11.636     12.460
REMARK  0 active torsions:
REMARK  status: ('A' for Active; 'I' for Inactive)
ROOT
HETATM    1  C1  UNL     1     -34.605  16.668  -0.736  1.00 20.00     0.013 C 
HETATM    2  C2  UNL     1     -34.477  16.268  -1.860  1.00 20.00    -0.106 C 
HETATM    3  C3  UNL     1     -32.973  15.220  -3.595  1.00 20.00     0.041 A 
HETATM    4  C4  UNL     1     -34.127  14.285  -3.366  1.00 20.00     0.079 A 
HETATM    5  C5  UNL     1     -34.322  15.785  -3.211  1.00 20.00     0.033 A 
HETATM    6  C6  UNL     1     -35.065  16.589  -4.246  1.00 20.00     0.030 C 
HETATM    7 BR7  UNL     1     -34.838  13.337  -4.862  1.00 20.00    -0.089 Br
ENDROOT
TORSDOF 0
ENDMDL
MODEL 3
REMARK VINA RESULT:      -3.8     12.010     12.638
REMARK  0 active torsions:
REMARK  status: ('A' for Active; 'I' for Inactive)
ROOT
HETATM    1  C1  UNL     1     -34.529  16.374  -1.557  1.00 20.00     0.013 C 
HETATM    2  C2  UNL     1     -34.563  15.635  -2.502  1.00 20.00    -0.106 C 
HETATM    3  C3  UNL     1     -35.959  14.224  -4.059  1.00 20.00     0.041 A 
HETATM    4  C4  UNL     1     -35.292  15.289  -4.883  1.00 20.00     0.079 A 
HETATM    5  C5  UNL     1     -34.605  14.748  -3.639  1.00 20.00     0.033 A 
HETATM    6  C6  UNL     1     -33.430  13.811  -3.738  1.00 20.00     0.030 C 
HETATM    7 BR7  UNL     1     -34.684  14.834  -6.634  1.00 20.00    -0.089 Br
ENDROOT
TORSDOF 0
ENDMDL
MODEL 4
REMARK VINA RESULT:      -3.6     11.885     12.884
REMARK  0 active torsions:
REMARK  status: ('A' for Active; 'I' for Inactive)
ROOT
HETATM    1  C1  UNL     1     -34.405  14.959  -7.153  1.00 20.00     0.013 C 
HETATM    2  C2  UNL     1     -34.546  14.808  -5.971  1.00 20.00    -0.106 C 
HETATM    3  C3  UNL     1     -33.551  14.040  -3.782  1.00 20.00     0.041 A 
HETATM    4  C4  UNL     1     -33.852  15.507  -3.658  1.00 20.00     0.079 A 
HETATM    5  C5  UNL     1     -34.715  14.628  -4.549  1.00 20.00     0.033 A 
HETATM    6  C6  UNL     1     -36.104  14.217  -4.136  1.00 20.00     0.030 C 
HETATM    7 BR7  UNL     1     -34.495  16.163  -1.984  1.00 20.00    -0.089 Br
ENDROOT
TORSDOF 0
ENDMDL
MODEL 5
REMARK VINA RESULT:      -3.6      2.348      3.532
REMARK  0 active torsions:
REMARK  status: ('A' for Active; 'I' for Inactive)
ROOT
HETATM    1  C1  UNL     1     -35.056   4.089   5.972  1.00 20.00     0.013 C 
HETATM    2  C2  UNL     1     -34.687   4.812   5.088  1.00 20.00    -0.106 C 
HETATM    3  C3  UNL     1     -34.505   7.161   4.186  1.00 20.00     0.041 A 
HETATM    4  C4  UNL     1     -33.111   6.634   4.372  1.00 20.00     0.079 A 
HETATM    5  C5  UNL     1     -34.243   5.681   4.025  1.00 20.00     0.033 A 
HETATM    6  C6  UNL     1     -34.377   5.092   2.645  1.00 20.00     0.030 C 
HETATM    7 BR7  UNL     1     -31.782   7.111   3.086  1.00 20.00    -0.089 Br
ENDROOT
TORSDOF 0
ENDMDL
MODEL 6
REMARK VINA RESULT:      -3.4      9.563     10.854
REMARK  0 active torsions:
REMARK  status: ('A' for Active; 'I' for Inactive)
ROOT
HETATM    1  C1  UNL     1     -41.512   2.112  -3.438  1.00 20.00     0.013 C 
HETATM    2  C2  UNL     1     -41.828   3.117  -2.863  1.00 20.00    -0.106 C 
HETATM    3  C3  UNL     1     -42.545   4.205  -0.702  1.00 20.00     0.041 A 
HETATM    4  C4  UNL     1     -41.235   4.818  -1.110  1.00 20.00     0.079 A 
HETATM    5  C5  UNL     1     -42.205   4.325  -2.171  1.00 20.00     0.033 A 
HETATM    6  C6  UNL     1     -43.015   5.287  -3.000  1.00 20.00     0.030 C 
HETATM    7 BR7  UNL     1     -40.967   6.681  -0.793  1.00 20.00    -0.089 Br
ENDROOT
TORSDOF 0
ENDMDL
MODEL 7
REMARK VINA RESULT:      -3.4      1.372      2.264
REMARK  0 active torsions:
REMARK  status: ('A' for Active; 'I' for Inactive)
ROOT
HETATM    1  C1  UNL     1     -32.149   8.619   1.823  1.00 20.00     0.013 C 
HETATM    2  C2  UNL     1     -32.433   7.693   2.532  1.00 20.00    -0.106 C 
HETATM    3  C3  UNL     1     -32.986   6.870   4.852  1.00 20.00     0.041 A 
HETATM    4  C4  UNL     1     -34.175   6.597   3.975  1.00 20.00     0.079 A 
HETATM    5  C5  UNL     1     -32.775   6.579   3.383  1.00 20.00     0.033 A 
HETATM    6  C6  UNL     1     -32.096   5.286   3.016  1.00 20.00     0.030 C 
HETATM    7 BR7  UNL     1     -35.159   4.985   4.255  1.00 20.00    -0.089 Br
ENDROOT
TORSDOF 0
ENDMDL
MODEL 8
REMARK VINA RESULT:      -3.3     11.764     12.626
REMARK  0 active torsions:
REMARK  status: ('A' for Active; 'I' for Inactive)
ROOT
HETATM    1  C1  UNL     1     -33.793  13.621  -3.881  1.00 20.00     0.013 C 
HETATM    2  C2  UNL     1     -34.010  14.740  -3.504  1.00 20.00    -0.106 C 
HETATM    3  C3  UNL     1     -35.640  16.370  -2.477  1.00 20.00     0.041 A 
HETATM    4  C4  UNL     1     -34.462  16.256  -1.550  1.00 20.00     0.079 A 
HETATM    5  C5  UNL     1     -34.269  16.084  -3.048  1.00 20.00     0.033 A 
HETATM    6  C6  UNL     1     -33.621  17.158  -3.883  1.00 20.00     0.030 C 
HETATM    7 BR7  UNL     1     -33.867  17.827  -0.643  1.00 20.00    -0.089 Br
ENDROOT
TORSDOF 0
ENDMDL
MODEL 9
REMARK VINA RESULT:      -3.3     12.005     12.574
REMARK  0 active torsions:
REMARK  status: ('A' for Active; 'I' for Inactive)
ROOT
HETATM    1  C1  UNL     1     -34.641  16.139  -1.670  1.00 20.00     0.013 C 
HETATM    2  C2  UNL     1     -34.556  16.931  -0.772  1.00 20.00    -0.106 C 
HETATM    3  C3  UNL     1     -35.675  18.724   0.607  1.00 20.00     0.041 A 
HETATM    4  C4  UNL     1     -35.311  17.596   1.532  1.00 20.00     0.079 A 
HETATM    5  C5  UNL     1     -34.455  17.882   0.308  1.00 20.00     0.033 A 
HETATM    6  C6  UNL     1     -33.105  18.537   0.433  1.00 20.00     0.030 C 
HETATM    7 BR7  UNL     1     -34.708  18.025   3.292  1.00 20.00    -0.089 Br
ENDROOT
TORSDOF 0
ENDMDL
