MODEL 1
REMARK VINA RESULT:      -4.6      0.000      0.000
REMARK  0 active torsions:
REMARK  status: ('A' for Active; 'I' for Inactive)
ROOT
HETATM    1  C1  UNL     1     -33.700   7.124   6.929  1.00 20.00     0.014 C 
HETATM    2  C2  UNL     1     -34.067   6.372   6.069  1.00 20.00    -0.090 C 
HETATM    3  C3  UNL     1     -33.440   4.987   2.587  1.00 20.00     0.013 A 
HETATM    4  C4  UNL     1     -33.057   6.424   2.945  1.00 20.00     0.013 A 
HETATM    5  C5  UNL     1     -35.511   6.003   4.000  1.00 20.00     0.052 A 
HETATM    6  C6  UNL     1     -34.505   5.473   5.043  1.00 20.00     0.107 A 
HETATM    7  C7  UNL     1     -34.121   5.717   3.654  1.00 20.00    -0.005 A 
HETATM    8 CL8  UNL     1     -34.714   3.806   5.576  1.00 20.00    -0.104 Cl
ENDROOT
TORSDOF 0
ENDMDL
MODEL 2
REMARK VINA RESULT:      -4.5      1.813      2.987
REMARK  0 active torsions:
REMARK  status: ('A' for Active; 'I' for Inactive)
ROOT
HETATM    1  C1  UNL     1     -32.033   6.216   3.072  1.00 20.00     0.014 C 
HETATM    2  C2  UNL     1     -32.913   6.207   3.888  1.00 20.00    -0.090 C 
HETATM    3  C3  UNL     1     -35.190   4.092   6.074  1.00 20.00     0.013 A 
HETATM    4  C4  UNL     1     -34.706   3.583   4.714  1.00 20.00     0.013 A 
HETATM    5  C5  UNL     1     -35.419   6.167   4.354  1.00 20.00     0.052 A 
HETATM    6  C6  UNL     1     -33.963   6.196   4.862  1.00 20.00     0.107 A 
HETATM    7  C7  UNL     1     -34.806   5.011   5.005  1.00 20.00    -0.005 A 
HETATM    8 CL8  UNL     1     -33.638   7.174   6.292  1.00 20.00    -0.104 Cl
ENDROOT
TORSDOF 0
ENDMDL
MODEL 3
REMARK VINA RESULT:      -4.4     12.243     12.810
REMARK  0 active torsions:
REMARK  status: ('A' for Active; 'I' for Inactive)
ROOT
HETATM    1  C1  UNL     1     -34.606  16.446  -1.229  1.00 20.00     0.014 C 
HETATM    2  C2  UNL     1     -34.164  16.141  -2.302  1.00 20.00    -0.090 C 
HETATM    3  C3  UNL     1     -34.553  13.967  -5.393  1.00 20.00     0.013 A 
HETATM    4  C4  UNL     1     -35.017  13.476  -4.020  1.00 20.00     0.013 A 
HETATM    5  C5  UNL     1     -32.602  14.636  -3.642  1.00 20.00     0.052 A 
HETATM    6  C6  UNL     1     -33.636  15.780  -3.584  1.00 20.00     0.107 A 
HETATM    7  C7  UNL     1     -33.960  14.476  -4.158  1.00 20.00    -0.005 A 
HETATM    8 CL8  UNL     1     -33.381  17.140  -4.676  1.00 20.00    -0.104 Cl
ENDROOT
TORSDOF 0
ENDMDL
MODEL 4
REMARK VINA RESULT:      -4.1     11.854     12.411
REMARK  0 active torsions:
REMARK  status: ('A' for Active; 'I' for Inactive)
ROOT
HETATM    1  C1  UNL     1     -34.566  16.548  -1.005  1.00 20.00     0.014 C 
HETATM    2  C2  UNL     1     -34.925  16.077  -2.049  1.00 20.00    -0.090 C 
HETATM    3  C3  UNL     1     -34.531  13.250  -4.557  1.00 20.00     0.013 A 
HETATM    4  C4  UNL     1     -33.346  13.730  -3.716  1.00 20.00     0.013 A 
HETATM    5  C5  UNL     1     -34.622  15.954  -4.577  1.00 20.00     0.052 A 
HETATM    6  C6  UNL     1     -35.356  15.514  -3.293  1.00 20.00     0.107 A 
HETATM    7  C7  UNL     1     -34.471  14.610  -4.025  1.00 20.00    -0.005 A 
HETATM    8 CL8  UNL     1     -37.097  15.267  -3.417  1.00 20.00    -0.104 Cl
ENDROOT
TORSDOF 0
ENDMDL
MODEL 5
REMARK VINA RESULT:      -4.0     12.166     13.333
REMARK  0 active torsions:
REMARK  status: ('A' for Active; 'I' for Inactive)
ROOT
HETATM    1  C1  UNL     1     -34.203  15.776  -6.764  1.00 20.00     0.014 C 
HETATM    2  C2  UNL     1     -34.148  15.329  -5.651  1.00 20.00    -0.090 C 
HETATM    3  C3  UNL     1     -34.497  16.028  -1.933  1.00 20.00     0.013 A 
HETATM    4  C4  UNL     1     -34.009  17.112  -2.897  1.00 20.00     0.013 A 
HETATM    5  C5  UNL     1     -32.726  14.835  -3.594  1.00 20.00     0.052 A 
HETATM    6  C6  UNL     1     -34.085  14.796  -4.323  1.00 20.00     0.107 A 
HETATM    7  C7  UNL     1     -33.840  15.691  -3.194  1.00 20.00    -0.005 A 
HETATM    8 CL8  UNL     1     -35.088  13.369  -4.063  1.00 20.00    -0.104 Cl
ENDROOT
TORSDOF 0
ENDMDL
MODEL 6
REMARK VINA RESULT:      -4.0     12.100     12.806
REMARK  0 active torsions:
REMARK  status: ('A' for Active; 'I' for Inactive)
ROOT
HETATM    1  C1  UNL     1     -34.540  16.328  -1.720  1.00 20.00     0.014 C 
HETATM    2  C2  UNL     1     -34.487  15.539  -2.623  1.00 20.00    -0.090 C 
HETATM    3  C3  UNL     1     -34.520  15.018  -6.386  1.00 20.00     0.013 A 
HETATM    4  C4  UNL     1     -35.299  16.168  -5.742  1.00 20.00     0.013 A 
HETATM    5  C5  UNL     1     -35.746  13.986  -4.206  1.00 20.00     0.052 A 
HETATM    6  C6  UNL     1     -34.422  14.597  -3.700  1.00 20.00     0.107 A 
HETATM    7  C7  UNL     1     -34.985  14.947  -5.003  1.00 20.00    -0.005 A 
HETATM    8 CL8  UNL     1     -33.020  13.530  -3.650  1.00 20.00    -0.104 Cl
ENDROOT
TORSDOF 0
ENDMDL
MODEL 7
REMARK VINA RESULT:      -3.9     11.864     13.141
REMARK  0 active torsions:
REMARK  status: ('A' for Active; 'I' for Inactive)
ROOT
HETATM    1  C1  UNL     1     -34.404  15.330  -6.750  1.00 20.00     0.014 C 
HETATM    2  C2  UNL     1     -34.759  15.033  -5.643  1.00 20.00    -0.090 C 
HETATM    3  C3  UNL     1     -34.751  15.954  -1.957  1.00 20.00     0.013 A 
HETATM    4  C4  UNL     1     -33.573  16.318  -2.863  1.00 20.00     0.013 A 
HETATM    5  C5  UNL     1     -34.258  13.776  -3.482  1.00 20.00     0.052 A 
HETATM    6  C6  UNL     1     -35.185  14.681  -4.322  1.00 20.00     0.107 A 
HETATM    7  C7  UNL     1     -34.450  15.189  -3.165  1.00 20.00    -0.005 A 
HETATM    8 CL8  UNL     1     -36.919  14.409  -4.163  1.00 20.00    -0.104 Cl
ENDROOT
TORSDOF 0
ENDMDL
MODEL 8
REMARK VINA RESULT:      -3.9      1.673      3.213
REMARK  0 active torsions:
REMARK  status: ('A' for Active; 'I' for Inactive)
ROOT
HETATM    1  C1  UNL     1     -32.542   6.523   3.002  1.00 20.00     0.014 C 
HETATM    2  C2  UNL     1     -33.515   5.996   3.466  1.00 20.00    -0.090 C 
HETATM    3  C3  UNL     1     -35.384   5.000   6.621  1.00 20.00     0.013 A 
HETATM    4  C4  UNL     1     -33.854   5.056   6.594  1.00 20.00     0.013 A 
HETATM    5  C5  UNL     1     -34.616   3.851   4.295  1.00 20.00     0.052 A 
HETATM    6  C6  UNL     1     -34.678   5.368   4.019  1.00 20.00     0.107 A 
HETATM    7  C7  UNL     1     -34.634   4.832   5.378  1.00 20.00    -0.005 A 
HETATM    8 CL8  UNL     1     -36.206   6.007   3.417  1.00 20.00    -0.104 Cl
ENDROOT
TORSDOF 0
ENDMDL
MODEL 9
REMARK VINA RESULT:      -3.9      8.561     10.136
REMARK  0 active torsions:
REMARK  status: ('A' for Active; 'I' for Inactive)
ROOT
HETATM    1  C1  UNL     1     -42.286   7.326  -3.137  1.00 20.00     0.014 C 
HETATM    2  C2  UNL     1     -41.952   6.533  -2.300  1.00 20.00    -0.090 C 
HETATM    3  C3  UNL     1     -42.900   4.706   0.893  1.00 20.00     0.013 A 
HETATM    4  C4  UNL     1     -43.417   6.118   0.609  1.00 20.00     0.013 A 
HETATM    5  C5  UNL     1     -40.798   6.113  -0.066  1.00 20.00     0.052 A 
HETATM    6  C6  UNL     1     -41.556   5.585  -1.303  1.00 20.00     0.107 A 
HETATM    7  C7  UNL     1     -42.173   5.626   0.021  1.00 20.00    -0.005 A 
HETATM    8 CL8  UNL     1     -41.044   4.025  -1.943  1.00 20.00    -0.104 Cl
ENDROOT
TORSDOF 0
ENDMDL
