MODEL 1
REMARK VINA RESULT:      -4.6      0.000      0.000
REMARK  0 active torsions:
REMARK  status: ('A' for Active; 'I' for Inactive)
ROOT
HETATM    1  C1  UNL     1     -34.501  16.478  -1.185  1.00 20.00     0.013 C 
HETATM    2  C2  UNL     1     -34.888  15.990  -2.210  1.00 20.00    -0.103 C 
HETATM    3  C3  UNL     1     -34.532  14.416  -6.078  1.00 20.00    -0.004 C 
HETATM    4  C4  UNL     1     -34.685  15.831  -5.847  1.00 20.00     0.004 C 
HETATM    5  C5  UNL     1     -34.511  13.548  -5.061  1.00 20.00    -0.025 C 
HETATM    6  C6  UNL     1     -35.076  16.326  -4.656  1.00 20.00    -0.063 C 
HETATM    7  C7  UNL     1     -34.663  14.002  -3.638  1.00 20.00     0.054 C 
HETATM    8  C8  UNL     1     -35.366  15.388  -3.476  1.00 20.00     0.045 C 
HETATM    9  C9  UNL     1     -35.281  17.810  -4.487  1.00 20.00     0.045 C 
HETATM   10  C10 UNL     1     -36.891  15.178  -3.377  1.00 20.00     0.034 C 
ENDROOT
TORSDOF 0
ENDMDL
MODEL 2
REMARK VINA RESULT:      -4.5      1.203      2.081
REMARK  0 active torsions:
REMARK  status: ('A' for Active; 'I' for Inactive)
ROOT
HETATM    1  C1  UNL     1     -34.685  16.397  -1.299  1.00 20.00     0.013 C 
HETATM    2  C2  UNL     1     -34.653  15.910  -2.395  1.00 20.00    -0.103 C 
HETATM    3  C3  UNL     1     -35.018  15.838  -6.570  1.00 20.00    -0.004 C 
HETATM    4  C4  UNL     1     -36.148  15.604  -5.706  1.00 20.00     0.004 C 
HETATM    5  C5  UNL     1     -33.801  16.075  -6.066  1.00 20.00    -0.025 C 
HETATM    6  C6  UNL     1     -36.007  15.348  -4.391  1.00 20.00    -0.063 C 
HETATM    7  C7  UNL     1     -33.553  16.090  -4.586  1.00 20.00     0.054 C 
HETATM    8  C8  UNL     1     -34.613  15.306  -3.747  1.00 20.00     0.045 C 
HETATM    9  C9  UNL     1     -37.219  15.048  -3.546  1.00 20.00     0.045 C 
HETATM   10  C10 UNL     1     -34.174  13.833  -3.618  1.00 20.00     0.034 C 
ENDROOT
TORSDOF 0
ENDMDL
MODEL 3
REMARK VINA RESULT:      -4.5      1.388      2.414
REMARK  0 active torsions:
REMARK  status: ('A' for Active; 'I' for Inactive)
ROOT
HETATM    1  C1  UNL     1     -33.617  18.537  -4.482  1.00 20.00     0.013 C 
HETATM    2  C2  UNL     1     -33.882  17.476  -3.988  1.00 20.00    -0.103 C 
HETATM    3  C3  UNL     1     -34.771  13.380  -3.956  1.00 20.00    -0.004 C 
HETATM    4  C4  UNL     1     -35.798  14.377  -4.124  1.00 20.00     0.004 C 
HETATM    5  C5  UNL     1     -33.490  13.729  -3.789  1.00 20.00    -0.025 C 
HETATM    6  C6  UNL     1     -35.584  15.682  -3.863  1.00 20.00    -0.063 C 
HETATM    7  C7  UNL     1     -33.067  15.169  -3.753  1.00 20.00     0.054 C 
HETATM    8  C8  UNL     1     -34.210  16.166  -3.378  1.00 20.00     0.045 C 
HETATM    9  C9  UNL     1     -36.712  16.674  -3.995  1.00 20.00     0.045 C 
HETATM   10  C10 UNL     1     -34.259  16.335  -1.846  1.00 20.00     0.034 C 
ENDROOT
TORSDOF 0
ENDMDL
MODEL 4
REMARK VINA RESULT:      -4.5      1.210      2.625
REMARK  0 active torsions:
REMARK  status: ('A' for Active; 'I' for Inactive)
ROOT
HETATM    1  C1  UNL     1     -34.582  16.286  -1.538  1.00 20.00     0.013 C 
HETATM    2  C2  UNL     1     -34.549  16.135  -2.728  1.00 20.00    -0.103 C 
HETATM    3  C3  UNL     1     -35.802  14.639  -6.437  1.00 20.00    -0.004 C 
HETATM    4  C4  UNL     1     -34.900  13.902  -5.588  1.00 20.00     0.004 C 
HETATM    5  C5  UNL     1     -36.264  15.841  -6.075  1.00 20.00    -0.025 C 
HETATM    6  C6  UNL     1     -34.272  14.470  -4.540  1.00 20.00    -0.063 C 
HETATM    7  C7  UNL     1     -35.853  16.483  -4.781  1.00 20.00     0.054 C 
HETATM    8  C8  UNL     1     -34.507  15.949  -4.197  1.00 20.00     0.045 C 
HETATM    9  C9  UNL     1     -33.290  13.670  -3.723  1.00 20.00     0.045 C 
HETATM   10  C10 UNL     1     -33.338  16.778  -4.766  1.00 20.00     0.034 C 
ENDROOT
TORSDOF 0
ENDMDL
MODEL 5
REMARK VINA RESULT:      -4.4     11.600     13.163
REMARK  0 active torsions:
REMARK  status: ('A' for Active; 'I' for Inactive)
ROOT
HETATM    1  C1  UNL     1     -31.629   7.235   3.100  1.00 20.00     0.013 C 
HETATM    2  C2  UNL     1     -32.656   6.908   3.627  1.00 20.00    -0.103 C 
HETATM    3  C3  UNL     1     -35.170   4.485   5.945  1.00 20.00    -0.004 C 
HETATM    4  C4  UNL     1     -34.968   4.240   4.539  1.00 20.00     0.004 C 
HETATM    5  C5  UNL     1     -34.570   5.509   6.561  1.00 20.00    -0.025 C 
HETATM    6  C6  UNL     1     -34.398   5.151   3.725  1.00 20.00    -0.063 C 
HETATM    7  C7  UNL     1     -33.675   6.457   5.818  1.00 20.00     0.054 C 
HETATM    8  C8  UNL     1     -33.925   6.503   4.276  1.00 20.00     0.045 C 
HETATM    9  C9  UNL     1     -34.268   4.869   2.250  1.00 20.00     0.045 C 
HETATM   10  C10 UNL     1     -34.999   7.566   3.965  1.00 20.00     0.034 C 
ENDROOT
TORSDOF 0
ENDMDL
MODEL 6
REMARK VINA RESULT:      -4.4      1.388      2.772
REMARK  0 active torsions:
REMARK  status: ('A' for Active; 'I' for Inactive)
ROOT
HETATM    1  C1  UNL     1     -38.182  14.784  -3.848  1.00 20.00     0.013 C 
HETATM    2  C2  UNL     1     -36.996  14.724  -4.021  1.00 20.00    -0.103 C 
HETATM    3  C3  UNL     1     -33.121  16.230  -4.549  1.00 20.00    -0.004 C 
HETATM    4  C4  UNL     1     -34.024  16.057  -5.659  1.00 20.00     0.004 C 
HETATM    5  C5  UNL     1     -33.485  15.902  -3.304  1.00 20.00    -0.025 C 
HETATM    6  C6  UNL     1     -35.153  15.327  -5.560  1.00 20.00    -0.063 C 
HETATM    7  C7  UNL     1     -34.839  15.324  -3.008  1.00 20.00     0.054 C 
HETATM    8  C8  UNL     1     -35.532  14.650  -4.235  1.00 20.00     0.045 C 
HETATM    9  C9  UNL     1     -36.030  15.126  -6.769  1.00 20.00     0.045 C 
HETATM   10  C10 UNL     1     -35.119  13.166  -4.304  1.00 20.00     0.034 C 
ENDROOT
TORSDOF 0
ENDMDL
MODEL 7
REMARK VINA RESULT:      -4.4      1.906      3.007
REMARK  0 active torsions:
REMARK  status: ('A' for Active; 'I' for Inactive)
ROOT
HETATM    1  C1  UNL     1     -37.032  16.975  -5.919  1.00 20.00     0.013 C 
HETATM    2  C2  UNL     1     -36.088  16.245  -5.796  1.00 20.00    -0.103 C 
HETATM    3  C3  UNL     1     -33.259  13.958  -3.715  1.00 20.00    -0.004 C 
HETATM    4  C4  UNL     1     -33.060  15.363  -3.968  1.00 20.00     0.004 C 
HETATM    5  C5  UNL     1     -34.356  13.327  -4.149  1.00 20.00    -0.025 C 
HETATM    6  C6  UNL     1     -33.805  16.045  -4.860  1.00 20.00    -0.063 C 
HETATM    7  C7  UNL     1     -35.417  14.044  -4.932  1.00 20.00     0.054 C 
HETATM    8  C8  UNL     1     -34.922  15.344  -5.645  1.00 20.00     0.045 C 
HETATM    9  C9  UNL     1     -33.512  17.499  -5.133  1.00 20.00     0.045 C 
HETATM   10  C10 UNL     1     -34.389  14.986  -7.047  1.00 20.00     0.034 C 
ENDROOT
TORSDOF 0
ENDMDL
MODEL 8
REMARK VINA RESULT:      -4.4      0.968      2.762
REMARK  0 active torsions:
REMARK  status: ('A' for Active; 'I' for Inactive)
ROOT
HETATM    1  C1  UNL     1     -36.376  18.195  -4.219  1.00 20.00     0.013 C 
HETATM    2  C2  UNL     1     -35.623  17.282  -4.420  1.00 20.00    -0.103 C 
HETATM    3  C3  UNL     1     -34.469  13.265  -4.735  1.00 20.00    -0.004 C 
HETATM    4  C4  UNL     1     -34.439  13.966  -3.476  1.00 20.00     0.004 C 
HETATM    5  C5  UNL     1     -34.857  13.881  -5.859  1.00 20.00    -0.025 C 
HETATM    6  C6  UNL     1     -34.534  15.307  -3.397  1.00 20.00    -0.063 C 
HETATM    7  C7  UNL     1     -35.259  15.327  -5.863  1.00 20.00     0.054 C 
HETATM    8  C8  UNL     1     -34.693  16.156  -4.667  1.00 20.00     0.045 C 
HETATM    9  C9  UNL     1     -34.433  15.994  -2.059  1.00 20.00     0.045 C 
HETATM   10  C10 UNL     1     -33.314  16.730  -5.051  1.00 20.00     0.034 C 
ENDROOT
TORSDOF 0
ENDMDL
MODEL 9
REMARK VINA RESULT:      -4.3      1.485      3.577
REMARK  0 active torsions:
REMARK  status: ('A' for Active; 'I' for Inactive)
ROOT
HETATM    1  C1  UNL     1     -35.135  14.258  -5.919  1.00 20.00     0.013 C 
HETATM    2  C2  UNL     1     -34.592  14.810  -5.004  1.00 20.00    -0.103 C 
HETATM    3  C3  UNL     1     -34.252  17.507  -1.814  1.00 20.00    -0.004 C 
HETATM    4  C4  UNL     1     -33.961  17.898  -3.170  1.00 20.00     0.004 C 
HETATM    5  C5  UNL     1     -34.631  16.258  -1.520  1.00 20.00    -0.025 C 
HETATM    6  C6  UNL     1     -33.793  16.996  -4.157  1.00 20.00    -0.063 C 
HETATM    7  C7  UNL     1     -34.753  15.205  -2.583  1.00 20.00     0.054 C 
HETATM    8  C8  UNL     1     -33.920  15.492  -3.873  1.00 20.00     0.045 C 
HETATM    9  C9  UNL     1     -33.428  17.456  -5.546  1.00 20.00     0.045 C 
HETATM   10  C10 UNL     1     -32.505  14.901  -3.710  1.00 20.00     0.034 C 
ENDROOT
TORSDOF 0
ENDMDL
