MODEL 1
REMARK VINA RESULT:      -4.8      0.000      0.000
REMARK  2 active torsions:
REMARK  status: ('A' for Active; 'I' for Inactive)
REMARK    1  A    between atoms: C7_7  and  C9_9 
REMARK    2  A    between atoms: C8_8  and  C10_10 
ROOT
HETATM    1  C1  UNL     1     -31.971  18.897   0.183  1.00 20.00     0.012 C 
HETATM    2  C2  UNL     1     -32.925  18.468  -0.406  1.00 20.00    -0.112 C 
HETATM    3  C6  UNL     1     -34.066  17.955  -1.108  1.00 20.00     0.074 A 
HETATM    4  C9  UNL     1     -33.893  16.688  -1.918  1.00 20.00     0.011 A 
HETATM    5  C10 UNL     1     -34.666  16.648  -0.635  1.00 20.00     0.011 A 
ENDROOT
BRANCH   4   6
HETATM    6  C7  UNL     1     -34.888  16.182  -2.960  1.00 20.00    -0.008 C 
HETATM    7  C3  UNL     1     -34.561  16.902  -4.289  1.00 20.00     0.005 C 
HETATM    8  C4  UNL     1     -33.221  16.248  -4.709  1.00 20.00     0.005 C 
HETATM    9  C8  UNL     1     -32.959  15.242  -3.564  1.00 20.00    -0.008 C 
HETATM   10  C5  UNL     1     -34.393  14.765  -3.289  1.00 20.00     0.010 C 
ENDBRANCH   4   6
TORSDOF 2
ENDMDL
MODEL 2
REMARK VINA RESULT:      -4.8      1.490      2.641
REMARK  2 active torsions:
REMARK  status: ('A' for Active; 'I' for Inactive)
REMARK    1  A    between atoms: C7_7  and  C9_9 
REMARK    2  A    between atoms: C8_8  and  C10_10 
ROOT
HETATM    1  C1  UNL     1     -35.153  17.326   0.161  1.00 20.00     0.012 C 
HETATM    2  C2  UNL     1     -34.453  17.037  -0.771  1.00 20.00    -0.112 C 
HETATM    3  C6  UNL     1     -33.617  16.693  -1.886  1.00 20.00     0.074 A 
HETATM    4  C9  UNL     1     -34.238  15.918  -3.028  1.00 20.00     0.011 A 
HETATM    5  C10 UNL     1     -33.891  17.363  -3.215  1.00 20.00     0.011 A 
ENDROOT
BRANCH   4   6
HETATM    6  C7  UNL     1     -33.446  15.207  -4.124  1.00 20.00    -0.008 C 
HETATM    7  C3  UNL     1     -33.520  13.691  -3.828  1.00 20.00     0.005 C 
HETATM    8  C4  UNL     1     -34.995  13.350  -4.157  1.00 20.00     0.005 C 
HETATM    9  C8  UNL     1     -35.569  14.718  -4.597  1.00 20.00    -0.008 C 
HETATM   10  C5  UNL     1     -34.362  15.289  -5.356  1.00 20.00     0.010 C 
ENDBRANCH   4   6
TORSDOF 2
ENDMDL
MODEL 3
REMARK VINA RESULT:      -4.4      2.074      3.565
REMARK  2 active torsions:
REMARK  status: ('A' for Active; 'I' for Inactive)
REMARK    1  A    between atoms: C7_7  and  C9_9 
REMARK    2  A    between atoms: C8_8  and  C10_10 
ROOT
HETATM    1  C1  UNL     1     -34.416  16.690  -1.254  1.00 20.00     0.012 C 
HETATM    2  C2  UNL     1     -34.592  15.878  -2.120  1.00 20.00    -0.112 C 
HETATM    3  C6  UNL     1     -34.801  14.907  -3.156  1.00 20.00     0.074 A 
HETATM    4  C9  UNL     1     -34.518  15.317  -4.585  1.00 20.00     0.011 A 
HETATM    5  C10 UNL     1     -33.588  14.372  -3.887  1.00 20.00     0.011 A 
ENDROOT
BRANCH   4   6
HETATM    6  C7  UNL     1     -34.974  14.538  -5.817  1.00 20.00    -0.008 C 
HETATM    7  C3  UNL     1     -36.401  15.026  -6.161  1.00 20.00     0.005 C 
HETATM    8  C4  UNL     1     -36.151  16.457  -6.700  1.00 20.00     0.005 C 
HETATM    9  C8  UNL     1     -34.615  16.598  -6.591  1.00 20.00    -0.008 C 
HETATM   10  C5  UNL     1     -34.183  15.174  -6.971  1.00 20.00     0.010 C 
ENDBRANCH   4   6
TORSDOF 2
ENDMDL
MODEL 4
REMARK VINA RESULT:      -4.3      2.883      5.170
REMARK  2 active torsions:
REMARK  status: ('A' for Active; 'I' for Inactive)
REMARK    1  A    between atoms: C7_7  and  C9_9 
REMARK    2  A    between atoms: C8_8  and  C10_10 
ROOT
HETATM    1  C1  UNL     1     -34.855  18.032  -7.844  1.00 20.00     0.012 C 
HETATM    2  C2  UNL     1     -34.522  16.947  -7.454  1.00 20.00    -0.112 C 
HETATM    3  C6  UNL     1     -34.124  15.649  -6.987  1.00 20.00     0.074 A 
HETATM    4  C9  UNL     1     -34.796  15.102  -5.746  1.00 20.00     0.011 A 
HETATM    5  C10 UNL     1     -35.125  14.519  -7.087  1.00 20.00     0.011 A 
ENDROOT
BRANCH   4   6
HETATM    6  C7  UNL     1     -34.290  13.907  -4.942  1.00 20.00    -0.008 C 
HETATM    7  C3  UNL     1     -33.414  14.468  -3.797  1.00 20.00     0.005 C 
HETATM    8  C4  UNL     1     -34.458  15.127  -2.861  1.00 20.00     0.005 C 
HETATM    9  C8  UNL     1     -35.792  14.858  -3.596  1.00 20.00    -0.008 C 
HETATM   10  C5  UNL     1     -35.520  13.448  -4.143  1.00 20.00     0.010 C 
ENDBRANCH   4   6
TORSDOF 2
ENDMDL
MODEL 5
REMARK VINA RESULT:      -4.3     12.988     15.309
REMARK  2 active torsions:
REMARK  status: ('A' for Active; 'I' for Inactive)
REMARK    1  A    between atoms: C7_7  and  C9_9 
REMARK    2  A    between atoms: C8_8  and  C10_10 
ROOT
HETATM    1  C1  UNL     1     -41.148   1.744  -3.959  1.00 20.00     0.012 C 
HETATM    2  C2  UNL     1     -41.869   2.399  -3.258  1.00 20.00    -0.112 C 
HETATM    3  C6  UNL     1     -42.731   3.183  -2.421  1.00 20.00     0.074 A 
HETATM    4  C9  UNL     1     -42.251   4.552  -1.987  1.00 20.00     0.011 A 
HETATM    5  C10 UNL     1     -43.344   4.438  -3.006  1.00 20.00     0.011 A 
ENDROOT
BRANCH   4   6
HETATM    6  C7  UNL     1     -42.880   5.376  -0.866  1.00 20.00    -0.008 C 
HETATM    7  C3  UNL     1     -41.964   5.235   0.372  1.00 20.00     0.005 C 
HETATM    8  C4  UNL     1     -40.714   6.055  -0.034  1.00 20.00     0.005 C 
HETATM    9  C8  UNL     1     -41.081   6.556  -1.451  1.00 20.00    -0.008 C 
HETATM   10  C5  UNL     1     -42.581   6.831  -1.262  1.00 20.00     0.010 C 
ENDBRANCH   4   6
TORSDOF 2
ENDMDL
MODEL 6
REMARK VINA RESULT:      -4.1     12.014     13.772
REMARK  2 active torsions:
REMARK  status: ('A' for Active; 'I' for Inactive)
REMARK    1  A    between atoms: C7_7  and  C9_9 
REMARK    2  A    between atoms: C8_8  and  C10_10 
ROOT
HETATM    1  C1  UNL     1     -42.020   8.803  -4.915  1.00 20.00     0.012 C 
HETATM    2  C2  UNL     1     -42.577   8.109  -4.109  1.00 20.00    -0.112 C 
HETATM    3  C6  UNL     1     -43.242   7.280  -3.145  1.00 20.00     0.074 A 
HETATM    4  C9  UNL     1     -42.414   6.681  -2.029  1.00 20.00     0.011 A 
HETATM    5  C10 UNL     1     -43.369   7.796  -1.728  1.00 20.00     0.011 A 
ENDROOT
BRANCH   4   6
HETATM    6  C7  UNL     1     -42.879   5.546  -1.118  1.00 20.00    -0.008 C 
HETATM    7  C3  UNL     1     -42.202   4.251  -1.624  1.00 20.00     0.005 C 
HETATM    8  C4  UNL     1     -40.720   4.463  -1.225  1.00 20.00     0.005 C 
HETATM    9  C8  UNL     1     -40.746   5.852  -0.545  1.00 20.00    -0.008 C 
HETATM   10  C5  UNL     1     -42.096   5.772   0.185  1.00 20.00     0.010 C 
ENDBRANCH   4   6
TORSDOF 2
ENDMDL
MODEL 7
REMARK VINA RESULT:      -4.1      1.321      2.480
REMARK  2 active torsions:
REMARK  status: ('A' for Active; 'I' for Inactive)
REMARK    1  A    between atoms: C7_7  and  C9_9 
REMARK    2  A    between atoms: C8_8  and  C10_10 
ROOT
HETATM    1  C1  UNL     1     -36.383  18.311   1.060  1.00 20.00     0.012 C 
HETATM    2  C2  UNL     1     -35.524  17.723   0.463  1.00 20.00    -0.112 C 
HETATM    3  C6  UNL     1     -34.496  17.021  -0.252  1.00 20.00     0.074 A 
HETATM    4  C9  UNL     1     -34.544  17.036  -1.765  1.00 20.00     0.011 A 
HETATM    5  C10 UNL     1     -33.499  17.836  -1.048  1.00 20.00     0.011 A 
ENDROOT
BRANCH   4   6
HETATM    6  C7  UNL     1     -33.736  16.104  -2.666  1.00 20.00    -0.008 C 
HETATM    7  C3  UNL     1     -34.671  14.941  -3.071  1.00 20.00     0.005 C 
HETATM    8  C4  UNL     1     -35.666  15.625  -4.042  1.00 20.00     0.005 C 
HETATM    9  C8  UNL     1     -35.169  17.090  -4.062  1.00 20.00    -0.008 C 
HETATM   10  C5  UNL     1     -33.651  16.862  -4.001  1.00 20.00     0.010 C 
ENDBRANCH   4   6
TORSDOF 2
ENDMDL
MODEL 8
REMARK VINA RESULT:      -4.1      2.342      4.028
REMARK  2 active torsions:
REMARK  status: ('A' for Active; 'I' for Inactive)
REMARK    1  A    between atoms: C7_7  and  C9_9 
REMARK    2  A    between atoms: C8_8  and  C10_10 
ROOT
HETATM    1  C1  UNL     1     -34.701  16.256  -1.555  1.00 20.00     0.012 C 
HETATM    2  C2  UNL     1     -34.239  15.985  -2.629  1.00 20.00    -0.112 C 
HETATM    3  C6  UNL     1     -33.685  15.662  -3.913  1.00 20.00     0.074 A 
HETATM    4  C9  UNL     1     -34.498  16.001  -5.144  1.00 20.00     0.011 A 
HETATM    5  C10 UNL     1     -33.274  16.802  -4.819  1.00 20.00     0.011 A 
ENDROOT
BRANCH   4   6
HETATM    6  C7  UNL     1     -34.218  15.457  -6.544  1.00 20.00    -0.008 C 
HETATM    7  C3  UNL     1     -35.228  14.315  -6.799  1.00 20.00     0.005 C 
HETATM    8  C4  UNL     1     -36.569  15.074  -6.958  1.00 20.00     0.005 C 
HETATM    9  C8  UNL     1     -36.147  16.551  -6.772  1.00 20.00    -0.008 C 
HETATM   10  C5  UNL     1     -34.784  16.536  -7.481  1.00 20.00     0.010 C 
ENDBRANCH   4   6
TORSDOF 2
ENDMDL
MODEL 9
REMARK VINA RESULT:      -4.0      1.780      4.577
REMARK  2 active torsions:
REMARK  status: ('A' for Active; 'I' for Inactive)
REMARK    1  A    between atoms: C7_7  and  C9_9 
REMARK    2  A    between atoms: C8_8  and  C10_10 
ROOT
HETATM    1  C1  UNL     1     -35.343  14.412  -6.920  1.00 20.00     0.012 C 
HETATM    2  C2  UNL     1     -34.659  14.686  -5.974  1.00 20.00    -0.112 C 
HETATM    3  C6  UNL     1     -33.841  15.014  -4.841  1.00 20.00     0.074 A 
HETATM    4  C9  UNL     1     -34.502  15.681  -3.654  1.00 20.00     0.011 A 
HETATM    5  C10 UNL     1     -34.067  14.250  -3.554  1.00 20.00     0.011 A 
ENDROOT
BRANCH   4   6
HETATM    6  C7  UNL     1     -33.750  16.372  -2.518  1.00 20.00    -0.008 C 
HETATM    7  C3  UNL     1     -33.729  17.884  -2.841  1.00 20.00     0.005 C 
HETATM    8  C4  UNL     1     -35.203  18.302  -2.617  1.00 20.00     0.005 C 
HETATM    9  C8  UNL     1     -35.873  16.972  -2.196  1.00 20.00    -0.008 C 
HETATM   10  C5  UNL     1     -34.748  16.357  -1.350  1.00 20.00     0.010 C 
ENDBRANCH   4   6
TORSDOF 2
ENDMDL
