MODEL 1
REMARK VINA RESULT:      -4.3      0.000      0.000
REMARK  0 active torsions:
REMARK  status: ('A' for Active; 'I' for Inactive)
ROOT
HETATM    1  C1  UNL     1     -34.585   5.140   5.314  1.00 20.00    -0.087 C 
HETATM    2  C2  UNL     1     -35.290   4.392   6.163  1.00 20.00     0.014 C 
HETATM    3  C3  UNL     1     -33.674   6.334   5.497  1.00 20.00     0.049 C 
HETATM    4  C4  UNL     1     -34.392   5.100   3.814  1.00 20.00     0.049 C 
HETATM    5  C5  UNL     1     -33.948   6.575   3.990  1.00 20.00     0.065 C 
HETATM    6 BR6  UNL     1     -32.408   7.112   2.940  1.00 20.00    -0.091 Br
ENDROOT
TORSDOF 0
ENDMDL
MODEL 2
REMARK VINA RESULT:      -4.2      2.271      3.492
REMARK  0 active torsions:
REMARK  status: ('A' for Active; 'I' for Inactive)
ROOT
HETATM    1  C1  UNL     1     -33.026   6.606   3.404  1.00 20.00    -0.087 C 
HETATM    2  C2  UNL     1     -32.256   7.411   2.671  1.00 20.00     0.014 C 
HETATM    3  C3  UNL     1     -33.888   5.409   3.067  1.00 20.00     0.049 C 
HETATM    4  C4  UNL     1     -33.350   6.545   4.881  1.00 20.00     0.049 C 
HETATM    5  C5  UNL     1     -34.582   5.727   4.416  1.00 20.00     0.065 C 
HETATM    6 BR6  UNL     1     -35.019   4.187   5.511  1.00 20.00    -0.091 Br
ENDROOT
TORSDOF 0
ENDMDL
MODEL 3
REMARK VINA RESULT:      -4.1      0.946      1.631
REMARK  0 active torsions:
REMARK  status: ('A' for Active; 'I' for Inactive)
ROOT
HETATM    1  C1  UNL     1     -34.338   5.388   4.423  1.00 20.00    -0.087 C 
HETATM    2  C2  UNL     1     -35.168   4.593   5.101  1.00 20.00     0.014 C 
HETATM    3  C3  UNL     1     -33.983   5.504   2.957  1.00 20.00     0.049 C 
HETATM    4  C4  UNL     1     -33.414   6.513   4.835  1.00 20.00     0.049 C 
HETATM    5  C5  UNL     1     -32.714   6.223   3.483  1.00 20.00     0.065 C 
HETATM    6 BR6  UNL     1     -32.168   7.788   2.476  1.00 20.00    -0.091 Br
ENDROOT
TORSDOF 0
ENDMDL
MODEL 4
REMARK VINA RESULT:      -3.5      2.280      3.352
REMARK  0 active torsions:
REMARK  status: ('A' for Active; 'I' for Inactive)
ROOT
HETATM    1  C1  UNL     1     -32.914   6.833   3.263  1.00 20.00    -0.087 C 
HETATM    2  C2  UNL     1     -32.181   7.650   2.507  1.00 20.00     0.014 C 
HETATM    3  C3  UNL     1     -33.218   6.787   4.744  1.00 20.00     0.049 C 
HETATM    4  C4  UNL     1     -33.758   5.615   2.954  1.00 20.00     0.049 C 
HETATM    5  C5  UNL     1     -33.586   5.307   4.464  1.00 20.00     0.065 C 
HETATM    6 BR6  UNL     1     -35.174   4.658   5.368  1.00 20.00    -0.091 Br
ENDROOT
TORSDOF 0
ENDMDL
MODEL 5
REMARK VINA RESULT:      -3.3     12.353     12.546
REMARK  0 active torsions:
REMARK  status: ('A' for Active; 'I' for Inactive)
ROOT
HETATM    1  C1  UNL     1     -34.568  15.944  -2.213  1.00 20.00    -0.087 C 
HETATM    2  C2  UNL     1     -34.552  16.594  -1.049  1.00 20.00     0.014 C 
HETATM    3  C3  UNL     1     -35.680  15.359  -3.057  1.00 20.00     0.049 C 
HETATM    4  C4  UNL     1     -33.483  15.528  -3.182  1.00 20.00     0.049 C 
HETATM    5  C5  UNL     1     -34.543  14.518  -3.691  1.00 20.00     0.065 C 
HETATM    6 BR6  UNL     1     -34.637  14.309  -5.617  1.00 20.00    -0.091 Br
ENDROOT
TORSDOF 0
ENDMDL
MODEL 6
REMARK VINA RESULT:      -3.3      9.610     10.327
REMARK  0 active torsions:
REMARK  status: ('A' for Active; 'I' for Inactive)
ROOT
HETATM    1  C1  UNL     1     -41.356   5.933  -1.411  1.00 20.00    -0.087 C 
HETATM    2  C2  UNL     1     -41.133   7.128  -0.864  1.00 20.00     0.014 C 
HETATM    3  C3  UNL     1     -42.267   5.457  -2.522  1.00 20.00     0.049 C 
HETATM    4  C4  UNL     1     -40.784   4.555  -1.159  1.00 20.00     0.049 C 
HETATM    5  C5  UNL     1     -42.069   4.063  -1.874  1.00 20.00     0.065 C 
HETATM    6 BR6  UNL     1     -41.820   2.595  -3.117  1.00 20.00    -0.091 Br
ENDROOT
TORSDOF 0
ENDMDL
MODEL 7
REMARK VINA RESULT:      -3.1     12.274     12.537
REMARK  0 active torsions:
REMARK  status: ('A' for Active; 'I' for Inactive)
ROOT
HETATM    1  C1  UNL     1     -34.332  14.303  -3.958  1.00 20.00    -0.087 C 
HETATM    2  C2  UNL     1     -34.469  13.261  -4.779  1.00 20.00     0.014 C 
HETATM    3  C3  UNL     1     -35.310  15.098  -3.121  1.00 20.00     0.049 C 
HETATM    4  C4  UNL     1     -33.138  15.118  -3.511  1.00 20.00     0.049 C 
HETATM    5  C5  UNL     1     -34.203  16.182  -3.140  1.00 20.00     0.065 C 
HETATM    6 BR6  UNL     1     -33.910  17.101  -1.457  1.00 20.00    -0.091 Br
ENDROOT
TORSDOF 0
ENDMDL
MODEL 8
REMARK VINA RESULT:      -3.1     12.447     12.964
REMARK  0 active torsions:
REMARK  status: ('A' for Active; 'I' for Inactive)
ROOT
HETATM    1  C1  UNL     1     -34.471  16.762  -1.354  1.00 20.00    -0.087 C 
HETATM    2  C2  UNL     1     -34.791  17.011  -0.084  1.00 20.00     0.014 C 
HETATM    3  C3  UNL     1     -34.787  15.622  -2.297  1.00 20.00     0.049 C 
HETATM    4  C4  UNL     1     -33.666  17.520  -2.387  1.00 20.00     0.049 C 
HETATM    5  C5  UNL     1     -33.558  16.141  -3.086  1.00 20.00     0.065 C 
HETATM    6 BR6  UNL     1     -33.758  16.167  -5.015  1.00 20.00    -0.091 Br
ENDROOT
TORSDOF 0
ENDMDL
MODEL 9
REMARK VINA RESULT:      -3.1     12.552     13.180
REMARK  0 active torsions:
REMARK  status: ('A' for Active; 'I' for Inactive)
ROOT
HETATM    1  C1  UNL     1     -34.445  16.878  -1.429  1.00 20.00    -0.087 C 
HETATM    2  C2  UNL     1     -34.757  17.007  -0.139  1.00 20.00     0.014 C 
HETATM    3  C3  UNL     1     -33.808  17.808  -2.438  1.00 20.00     0.049 C 
HETATM    4  C4  UNL     1     -34.585  15.743  -2.419  1.00 20.00     0.049 C 
HETATM    5  C5  UNL     1     -34.456  16.863  -3.483  1.00 20.00     0.065 C 
HETATM    6 BR6  UNL     1     -33.349  16.432  -5.015  1.00 20.00    -0.091 Br
ENDROOT
TORSDOF 0
ENDMDL
