MODEL 1
REMARK VINA RESULT:      -4.9      0.000      0.000
REMARK  1 active torsions:
REMARK  status: ('A' for Active; 'I' for Inactive)
REMARK    1  A    between atoms: C4_4  and  C7_7 
ROOT
HETATM    1  C1  UNL     1     -35.060   3.795   5.786  1.00 20.00     0.014 C 
HETATM    2  C2  UNL     1     -34.561   4.829   5.437  1.00 20.00    -0.091 C 
HETATM    3  C3  UNL     1     -34.531   6.761   3.804  1.00 20.00     0.046 A 
HETATM    4  C4  UNL     1     -33.193   6.081   3.715  1.00 20.00     0.024 A 
HETATM    5  C5  UNL     1     -33.964   6.065   5.020  1.00 20.00     0.103 A 
HETATM    6 CL8  UNL     1     -33.439   7.081   6.364  1.00 20.00    -0.105 Cl
ENDROOT
BRANCH   4   7
HETATM    7  C7  UNL     1     -31.958   6.893   3.514  1.00 20.00     0.003 C 
HETATM    8  C6  UNL     1     -32.086   7.890   2.392  1.00 20.00     0.005 C 
ENDBRANCH   4   7
TORSDOF 1
ENDMDL
MODEL 2
REMARK VINA RESULT:      -4.7      1.387      4.163
REMARK  1 active torsions:
REMARK  status: ('A' for Active; 'I' for Inactive)
REMARK    1  A    between atoms: C4_4  and  C7_7 
ROOT
HETATM    1  C1  UNL     1     -32.104   8.841   1.026  1.00 20.00     0.014 C 
HETATM    2  C2  UNL     1     -32.119   8.131   1.994  1.00 20.00    -0.091 C 
HETATM    3  C3  UNL     1     -32.227   5.789   2.942  1.00 20.00     0.046 A 
HETATM    4  C4  UNL     1     -33.418   6.538   3.470  1.00 20.00     0.024 A 
HETATM    5  C5  UNL     1     -32.138   7.282   3.150  1.00 20.00     0.103 A 
HETATM    6 CL8  UNL     1     -31.105   7.858   4.460  1.00 20.00    -0.105 Cl
ENDROOT
BRANCH   4   7
HETATM    7  C7  UNL     1     -33.890   6.299   4.865  1.00 20.00     0.003 C 
HETATM    8  C6  UNL     1     -34.849   5.142   4.971  1.00 20.00     0.005 C 
ENDBRANCH   4   7
TORSDOF 1
ENDMDL
MODEL 3
REMARK VINA RESULT:      -4.2      1.986      2.467
REMARK  1 active torsions:
REMARK  status: ('A' for Active; 'I' for Inactive)
REMARK    1  A    between atoms: C4_4  and  C7_7 
ROOT
HETATM    1  C1  UNL     1     -34.094   6.389   6.158  1.00 20.00     0.014 C 
HETATM    2  C2  UNL     1     -33.739   6.343   5.013  1.00 20.00    -0.091 C 
HETATM    3  C3  UNL     1     -31.884   5.906   3.350  1.00 20.00     0.046 A 
HETATM    4  C4  UNL     1     -32.328   7.329   3.158  1.00 20.00     0.024 A 
HETATM    5  C5  UNL     1     -33.316   6.288   3.643  1.00 20.00     0.103 A 
HETATM    6 CL8  UNL     1     -34.558   5.676   2.548  1.00 20.00    -0.105 Cl
ENDROOT
BRANCH   4   7
HETATM    7  C7  UNL     1     -32.377   7.915   1.787  1.00 20.00     0.003 C 
HETATM    8  C6  UNL     1     -32.463   9.420   1.794  1.00 20.00     0.005 C 
ENDBRANCH   4   7
TORSDOF 1
ENDMDL
MODEL 4
REMARK VINA RESULT:      -4.0     11.974     12.858
REMARK  1 active torsions:
REMARK  status: ('A' for Active; 'I' for Inactive)
REMARK    1  A    between atoms: C4_4  and  C7_7 
ROOT
HETATM    1  C1  UNL     1     -34.445  15.056  -6.908  1.00 20.00     0.014 C 
HETATM    2  C2  UNL     1     -34.376  14.973  -5.713  1.00 20.00    -0.091 C 
HETATM    3  C3  UNL     1     -35.563  15.021  -3.480  1.00 20.00     0.046 A 
HETATM    4  C4  UNL     1     -34.545  16.126  -3.467  1.00 20.00     0.024 A 
HETATM    5  C5  UNL     1     -34.293  14.876  -4.284  1.00 20.00     0.103 A 
HETATM    6 CL8  UNL     1     -33.114  13.685  -3.729  1.00 20.00    -0.105 Cl
ENDROOT
BRANCH   4   7
HETATM    7  C7  UNL     1     -33.801  16.437  -2.211  1.00 20.00     0.003 C 
HETATM    8  C6  UNL     1     -34.699  16.543  -1.006  1.00 20.00     0.005 C 
ENDBRANCH   4   7
TORSDOF 1
ENDMDL
MODEL 5
REMARK VINA RESULT:      -3.9     11.773     12.303
REMARK  1 active torsions:
REMARK  status: ('A' for Active; 'I' for Inactive)
REMARK    1  A    between atoms: C4_4  and  C7_7 
ROOT
HETATM    1  C1  UNL     1     -34.497  17.025  -0.422  1.00 20.00     0.014 C 
HETATM    2  C2  UNL     1     -34.478  16.565  -1.530  1.00 20.00    -0.091 C 
HETATM    3  C3  UNL     1     -35.712  15.362  -3.381  1.00 20.00     0.046 A 
HETATM    4  C4  UNL     1     -34.533  14.509  -3.004  1.00 20.00     0.024 A 
HETATM    5  C5  UNL     1     -34.456  16.015  -2.855  1.00 20.00     0.103 A 
HETATM    6 CL8  UNL     1     -33.497  16.964  -3.993  1.00 20.00    -0.105 Cl
ENDROOT
BRANCH   4   7
HETATM    7  C7  UNL     1     -33.788  13.761  -4.059  1.00 20.00     0.003 C 
HETATM    8  C6  UNL     1     -34.687  13.211  -5.135  1.00 20.00     0.005 C 
ENDBRANCH   4   7
TORSDOF 1
ENDMDL
MODEL 6
REMARK VINA RESULT:      -3.9      1.581      3.985
REMARK  1 active torsions:
REMARK  status: ('A' for Active; 'I' for Inactive)
REMARK    1  A    between atoms: C4_4  and  C7_7 
ROOT
HETATM    1  C1  UNL     1     -32.196   8.463   1.986  1.00 20.00     0.014 C 
HETATM    2  C2  UNL     1     -32.545   7.468   2.560  1.00 20.00    -0.091 C 
HETATM    3  C3  UNL     1     -34.347   5.742   2.973  1.00 20.00     0.046 A 
HETATM    4  C4  UNL     1     -34.052   6.402   4.291  1.00 20.00     0.024 A 
HETATM    5  C5  UNL     1     -32.962   6.279   3.245  1.00 20.00     0.103 A 
HETATM    6 CL8  UNL     1     -31.664   5.102   3.462  1.00 20.00    -0.105 Cl
ENDROOT
BRANCH   4   7
HETATM    7  C7  UNL     1     -34.065   5.596   5.546  1.00 20.00     0.003 C 
HETATM    8  C6  UNL     1     -35.099   4.500   5.530  1.00 20.00     0.005 C 
ENDBRANCH   4   7
TORSDOF 1
ENDMDL
MODEL 7
REMARK VINA RESULT:      -3.9     11.423     12.651
REMARK  1 active torsions:
REMARK  status: ('A' for Active; 'I' for Inactive)
REMARK    1  A    between atoms: C4_4  and  C7_7 
ROOT
HETATM    1  C1  UNL     1     -34.245  16.563  -1.562  1.00 20.00     0.014 C 
HETATM    2  C2  UNL     1     -34.596  15.801  -2.420  1.00 20.00    -0.091 C 
HETATM    3  C3  UNL     1     -34.189  13.647  -3.683  1.00 20.00     0.046 A 
HETATM    4  C4  UNL     1     -34.151  14.766  -4.687  1.00 20.00     0.024 A 
HETATM    5  C5  UNL     1     -35.014  14.891  -3.447  1.00 20.00     0.103 A 
HETATM    6 CL8  UNL     1     -36.767  14.736  -3.577  1.00 20.00    -0.105 Cl
ENDROOT
BRANCH   4   7
HETATM    7  C7  UNL     1     -34.719  14.561  -6.051  1.00 20.00     0.003 C 
HETATM    8  C6  UNL     1     -34.236  15.583  -7.048  1.00 20.00     0.005 C 
ENDBRANCH   4   7
TORSDOF 1
ENDMDL
MODEL 8
REMARK VINA RESULT:      -3.9     12.362     13.124
REMARK  1 active torsions:
REMARK  status: ('A' for Active; 'I' for Inactive)
REMARK    1  A    between atoms: C4_4  and  C7_7 
ROOT
HETATM    1  C1  UNL     1     -35.163  14.169  -6.158  1.00 20.00     0.014 C 
HETATM    2  C2  UNL     1     -34.502  14.852  -5.426  1.00 20.00    -0.091 C 
HETATM    3  C3  UNL     1     -32.696  14.990  -3.660  1.00 20.00     0.046 A 
HETATM    4  C4  UNL     1     -33.951  15.554  -3.058  1.00 20.00     0.024 A 
HETATM    5  C5  UNL     1     -33.712  15.668  -4.550  1.00 20.00     0.103 A 
HETATM    6 CL8  UNL     1     -33.264  17.223  -5.253  1.00 20.00    -0.105 Cl
ENDROOT
BRANCH   4   7
HETATM    7  C7  UNL     1     -33.873  16.723  -2.134  1.00 20.00     0.003 C 
HETATM    8  C6  UNL     1     -34.694  16.540  -0.884  1.00 20.00     0.005 C 
ENDBRANCH   4   7
TORSDOF 1
ENDMDL
MODEL 9
REMARK VINA RESULT:      -3.9     12.159     13.055
REMARK  1 active torsions:
REMARK  status: ('A' for Active; 'I' for Inactive)
REMARK    1  A    between atoms: C4_4  and  C7_7 
ROOT
HETATM    1  C1  UNL     1     -34.427  16.609  -1.321  1.00 20.00     0.014 C 
HETATM    2  C2  UNL     1     -34.035  16.183  -2.372  1.00 20.00    -0.091 C 
HETATM    3  C3  UNL     1     -33.415  16.640  -4.781  1.00 20.00     0.046 A 
HETATM    4  C4  UNL     1     -34.538  15.641  -4.792  1.00 20.00     0.024 A 
HETATM    5  C5  UNL     1     -33.568  15.675  -3.629  1.00 20.00     0.103 A 
HETATM    6 CL8  UNL     1     -32.348  14.409  -3.465  1.00 20.00    -0.105 Cl
ENDROOT
BRANCH   4   7
HETATM    7  C7  UNL     1     -34.551  14.546  -5.806  1.00 20.00     0.003 C 
HETATM    8  C6  UNL     1     -34.413  15.052  -7.218  1.00 20.00     0.005 C 
ENDBRANCH   4   7
TORSDOF 1
ENDMDL
