MODEL 1
REMARK VINA RESULT:      -5.5      0.000      0.000
REMARK  0 active torsions:
REMARK  status: ('A' for Active; 'I' for Inactive)
ROOT
HETATM    1  C1  UNL     1     -31.684   7.683   3.274  1.00 20.00     0.001 C 
HETATM    2  C2  UNL     1     -32.621   6.726   2.521  1.00 20.00     0.005 C 
HETATM    3  C3  UNL     1     -32.090   7.619   4.756  1.00 20.00     0.005 C 
HETATM    4  C4  UNL     1     -34.538   5.162   3.313  1.00 20.00     0.011 C 
HETATM    5  C5  UNL     1     -35.510   4.978   4.486  1.00 20.00     0.079 C 
HETATM    6  C6  UNL     1     -33.922   6.280   6.016  1.00 20.00     0.084 C 
HETATM    7  C7  UNL     1     -33.730   6.435   3.523  1.00 20.00    -0.010 C 
HETATM    8  C8  UNL     1     -32.961   6.376   4.841  1.00 20.00    -0.005 C 
HETATM    9  C9  UNL     1     -34.811   5.050   5.842  1.00 20.00     0.244 C 
HETATM   10  F10 UNL     1     -34.052   3.933   6.003  1.00 20.00    -0.206 F 
HETATM   11  F11 UNL     1     -35.742   5.023   6.831  1.00 20.00    -0.206 F 
ENDROOT
TORSDOF 0
ENDMDL
MODEL 2
REMARK VINA RESULT:      -5.3      2.512      3.931
REMARK  0 active torsions:
REMARK  status: ('A' for Active; 'I' for Inactive)
ROOT
HETATM    1  C1  UNL     1     -35.184   5.025   6.357  1.00 20.00     0.001 C 
HETATM    2  C2  UNL     1     -35.239   4.542   4.899  1.00 20.00     0.005 C 
HETATM    3  C3  UNL     1     -34.106   6.119   6.417  1.00 20.00     0.005 C 
HETATM    4  C4  UNL     1     -33.950   5.263   2.763  1.00 20.00     0.011 C 
HETATM    5  C5  UNL     1     -32.654   5.969   2.341  1.00 20.00     0.079 C 
HETATM    6  C6  UNL     1     -32.546   7.144   4.614  1.00 20.00     0.084 C 
HETATM    7  C7  UNL     1     -33.972   5.112   4.277  1.00 20.00    -0.010 C 
HETATM    8  C8  UNL     1     -33.867   6.475   4.959  1.00 20.00    -0.005 C 
HETATM    9  C9  UNL     1     -32.427   7.277   3.097  1.00 20.00     0.244 C 
HETATM   10  F10 UNL     1     -33.333   8.195   2.664  1.00 20.00    -0.206 F 
HETATM   11  F11 UNL     1     -31.204   7.773   2.782  1.00 20.00    -0.206 F 
ENDROOT
TORSDOF 0
ENDMDL
MODEL 3
REMARK VINA RESULT:      -5.0     12.482     13.703
REMARK  0 active torsions:
REMARK  status: ('A' for Active; 'I' for Inactive)
ROOT
HETATM    1  C1  UNL     1     -35.180  15.742  -7.918  1.00 20.00     0.001 C 
HETATM    2  C2  UNL     1     -35.303  14.389  -7.200  1.00 20.00     0.005 C 
HETATM    3  C3  UNL     1     -34.567  16.723  -6.905  1.00 20.00     0.005 C 
HETATM    4  C4  UNL     1     -34.653  13.605  -4.810  1.00 20.00     0.011 C 
HETATM    5  C5  UNL     1     -34.372  14.172  -3.411  1.00 20.00     0.079 C 
HETATM    6  C6  UNL     1     -33.803  16.448  -4.440  1.00 20.00     0.084 C 
HETATM    7  C7  UNL     1     -35.095  14.733  -5.732  1.00 20.00    -0.010 C 
HETATM    8  C8  UNL     1     -34.025  15.821  -5.807  1.00 20.00    -0.005 C 
HETATM    9  C9  UNL     1     -33.411  15.359  -3.443  1.00 20.00     0.244 C 
HETATM   10  F10 UNL     1     -32.167  14.905  -3.754  1.00 20.00    -0.206 F 
HETATM   11  F11 UNL     1     -33.319  15.897  -2.200  1.00 20.00    -0.206 F 
ENDROOT
TORSDOF 0
ENDMDL
MODEL 4
REMARK VINA RESULT:      -4.9     11.836     12.947
REMARK  0 active torsions:
REMARK  status: ('A' for Active; 'I' for Inactive)
ROOT
HETATM    1  C1  UNL     1     -34.198  17.877  -1.427  1.00 20.00     0.001 C 
HETATM    2  C2  UNL     1     -33.584  18.029  -2.828  1.00 20.00     0.005 C 
HETATM    3  C3  UNL     1     -34.780  16.456  -1.355  1.00 20.00     0.005 C 
HETATM    4  C4  UNL     1     -33.375  16.397  -4.839  1.00 20.00     0.011 C 
HETATM    5  C5  UNL     1     -34.016  15.122  -5.403  1.00 20.00     0.079 C 
HETATM    6  C6  UNL     1     -34.865  14.506  -3.067  1.00 20.00     0.084 C 
HETATM    7  C7  UNL     1     -34.144  16.845  -3.604  1.00 20.00    -0.010 C 
HETATM    8  C8  UNL     1     -34.154  15.745  -2.544  1.00 20.00    -0.005 C 
HETATM    9  C9  UNL     1     -34.179  14.032  -4.346  1.00 20.00     0.244 C 
HETATM   10  F10 UNL     1     -32.950  13.543  -4.030  1.00 20.00    -0.206 F 
HETATM   11  F11 UNL     1     -34.877  12.994  -4.874  1.00 20.00    -0.206 F 
ENDROOT
TORSDOF 0
ENDMDL
MODEL 5
REMARK VINA RESULT:      -4.8      9.131     10.625
REMARK  0 active torsions:
REMARK  status: ('A' for Active; 'I' for Inactive)
ROOT
HETATM    1  C1  UNL     1     -42.805   3.187  -3.623  1.00 20.00     0.001 C 
HETATM    2  C2  UNL     1     -43.417   4.581  -3.413  1.00 20.00     0.005 C 
HETATM    3  C3  UNL     1     -41.636   3.068  -2.632  1.00 20.00     0.005 C 
HETATM    4  C4  UNL     1     -42.851   6.519  -1.778  1.00 20.00     0.011 C 
HETATM    5  C5  UNL     1     -41.695   7.042  -0.914  1.00 20.00     0.079 C 
HETATM    6  C6  UNL     1     -40.663   4.699  -0.862  1.00 20.00     0.084 C 
HETATM    7  C7  UNL     1     -42.375   5.318  -2.584  1.00 20.00    -0.010 C 
HETATM    8  C8  UNL     1     -41.863   4.215  -1.660  1.00 20.00    -0.005 C 
HETATM    9  C9  UNL     1     -41.053   5.944  -0.068  1.00 20.00     0.244 C 
HETATM   10  F10 UNL     1     -41.921   5.585   0.915  1.00 20.00    -0.206 F 
HETATM   11  F11 UNL     1     -39.955   6.442   0.557  1.00 20.00    -0.206 F 
ENDROOT
TORSDOF 0
ENDMDL
MODEL 6
REMARK VINA RESULT:      -4.8     12.625     13.956
REMARK  0 active torsions:
REMARK  status: ('A' for Active; 'I' for Inactive)
ROOT
HETATM    1  C1  UNL     1     -33.946  18.348  -6.338  1.00 20.00     0.001 C 
HETATM    2  C2  UNL     1     -33.464  17.987  -4.924  1.00 20.00     0.005 C 
HETATM    3  C3  UNL     1     -34.447  17.043  -6.977  1.00 20.00     0.005 C 
HETATM    4  C4  UNL     1     -33.425  15.752  -3.600  1.00 20.00     0.011 C 
HETATM    5  C5  UNL     1     -33.458  14.236  -3.833  1.00 20.00     0.079 C 
HETATM    6  C6  UNL     1     -34.577  14.601  -6.108  1.00 20.00     0.084 C 
HETATM    7  C7  UNL     1     -33.377  16.467  -4.944  1.00 20.00    -0.010 C 
HETATM    8  C8  UNL     1     -34.584  16.090  -5.801  1.00 20.00    -0.005 C 
HETATM    9  C9  UNL     1     -34.565  13.815  -4.798  1.00 20.00     0.244 C 
HETATM   10  F10 UNL     1     -35.767  13.972  -4.180  1.00 20.00    -0.206 F 
HETATM   11  F11 UNL     1     -34.447  12.490  -5.068  1.00 20.00    -0.206 F 
ENDROOT
TORSDOF 0
ENDMDL
MODEL 7
REMARK VINA RESULT:      -4.8     12.512     13.723
REMARK  0 active torsions:
REMARK  status: ('A' for Active; 'I' for Inactive)
ROOT
HETATM    1  C1  UNL     1     -34.054  17.605  -1.846  1.00 20.00     0.001 C 
HETATM    2  C2  UNL     1     -34.443  16.121  -1.743  1.00 20.00     0.005 C 
HETATM    3  C3  UNL     1     -33.792  17.887  -3.334  1.00 20.00     0.005 C 
HETATM    4  C4  UNL     1     -34.732  14.255  -3.526  1.00 20.00     0.011 C 
HETATM    5  C5  UNL     1     -34.303  13.905  -4.957  1.00 20.00     0.079 C 
HETATM    6  C6  UNL     1     -33.899  16.386  -5.450  1.00 20.00     0.084 C 
HETATM    7  C7  UNL     1     -34.047  15.544  -3.094  1.00 20.00    -0.010 C 
HETATM    8  C8  UNL     1     -34.398  16.687  -4.045  1.00 20.00    -0.005 C 
HETATM    9  C9  UNL     1     -34.504  15.068  -5.929  1.00 20.00     0.244 C 
HETATM   10  F10 UNL     1     -35.837  15.243  -6.131  1.00 20.00    -0.206 F 
HETATM   11  F11 UNL     1     -33.975  14.742  -7.136  1.00 20.00    -0.206 F 
ENDROOT
TORSDOF 0
ENDMDL
MODEL 8
REMARK VINA RESULT:      -4.8      2.315      4.224
REMARK  0 active torsions:
REMARK  status: ('A' for Active; 'I' for Inactive)
ROOT
HETATM    1  C1  UNL     1     -35.418   4.275   6.047  1.00 20.00     0.001 C 
HETATM    2  C2  UNL     1     -34.514   5.364   6.647  1.00 20.00     0.005 C 
HETATM    3  C3  UNL     1     -35.214   4.324   4.525  1.00 20.00     0.005 C 
HETATM    4  C4  UNL     1     -32.848   7.046   5.577  1.00 20.00     0.011 C 
HETATM    5  C5  UNL     1     -32.540   7.717   4.231  1.00 20.00     0.079 C 
HETATM    6  C6  UNL     1     -33.731   5.813   3.001  1.00 20.00     0.084 C 
HETATM    7  C7  UNL     1     -34.112   6.209   5.445  1.00 20.00    -0.010 C 
HETATM    8  C8  UNL     1     -33.951   5.153   4.353  1.00 20.00    -0.005 C 
HETATM    9  C9  UNL     1     -32.504   6.720   3.074  1.00 20.00     0.244 C 
HETATM   10  F10 UNL     1     -31.392   5.947   3.198  1.00 20.00    -0.206 F 
HETATM   11  F11 UNL     1     -32.371   7.394   1.904  1.00 20.00    -0.206 F 
ENDROOT
TORSDOF 0
ENDMDL
MODEL 9
REMARK VINA RESULT:      -4.7      1.051      2.238
REMARK  0 active torsions:
REMARK  status: ('A' for Active; 'I' for Inactive)
ROOT
HETATM    1  C1  UNL     1     -31.749   7.572   2.778  1.00 20.00     0.001 C 
HETATM    2  C2  UNL     1     -32.214   7.851   4.216  1.00 20.00     0.005 C 
HETATM    3  C3  UNL     1     -32.450   6.279   2.333  1.00 20.00     0.005 C 
HETATM    4  C4  UNL     1     -33.862   6.615   5.798  1.00 20.00     0.011 C 
HETATM    5  C5  UNL     1     -34.503   5.235   6.000  1.00 20.00     0.079 C 
HETATM    6  C6  UNL     1     -34.114   4.685   3.529  1.00 20.00     0.084 C 
HETATM    7  C7  UNL     1     -32.865   6.545   4.650  1.00 20.00    -0.010 C 
HETATM    8  C8  UNL     1     -33.551   6.088   3.365  1.00 20.00    -0.005 C 
HETATM    9  C9  UNL     1     -35.085   4.665   4.708  1.00 20.00     0.244 C 
HETATM   10  F10 UNL     1     -36.194   5.380   4.376  1.00 20.00    -0.206 F 
HETATM   11  F11 UNL     1     -35.504   3.392   4.926  1.00 20.00    -0.206 F 
ENDROOT
TORSDOF 0
ENDMDL
