MODEL 1
REMARK VINA RESULT:      -4.5      0.000      0.000
REMARK  1 active torsions:
REMARK  status: ('A' for Active; 'I' for Inactive)
REMARK    1  A    between atoms: C8_8  and  C9_9 
ROOT
HETATM    1  C1  UNL     1     -38.033  14.786  -3.835  1.00 20.00     0.014 C 
HETATM    2  C2  UNL     1     -34.523  16.334  -1.662  1.00 20.00     0.014 C 
HETATM    3  C3  UNL     1     -36.837  14.787  -3.730  1.00 20.00    -0.094 C 
HETATM    4  C4  UNL     1     -34.926  15.630  -2.547  1.00 20.00    -0.094 C 
HETATM    5  C7  UNL     1     -34.671  13.500  -3.880  1.00 20.00     0.043 A 
HETATM    6  C9  UNL     1     -34.547  14.647  -4.851  1.00 20.00     0.025 A 
HETATM    7  C10 UNL     1     -35.408  14.789  -3.606  1.00 20.00     0.089 A 
ENDROOT
BRANCH   6   8
HETATM    8  C8  UNL     1     -35.095  14.575  -6.271  1.00 20.00    -0.008 A 
HETATM    9  C5  UNL     1     -35.573  15.789  -7.018  1.00 20.00     0.005 A 
HETATM   10  C6  UNL     1     -34.327  15.075  -7.463  1.00 20.00     0.005 A 
ENDBRANCH   6   8
TORSDOF 1
ENDMDL
MODEL 2
REMARK VINA RESULT:      -4.5      1.972      4.514
REMARK  1 active torsions:
REMARK  status: ('A' for Active; 'I' for Inactive)
REMARK    1  A    between atoms: C8_8  and  C9_9 
ROOT
HETATM    1  C1  UNL     1     -33.520  18.079  -5.548  1.00 20.00     0.014 C 
HETATM    2  C2  UNL     1     -35.142  14.003  -5.988  1.00 20.00     0.014 C 
HETATM    3  C3  UNL     1     -33.649  16.992  -5.056  1.00 20.00    -0.094 C 
HETATM    4  C4  UNL     1     -34.532  14.771  -5.297  1.00 20.00    -0.094 C 
HETATM    5  C7  UNL     1     -32.666  15.150  -3.637  1.00 20.00     0.043 A 
HETATM    6  C9  UNL     1     -33.949  15.563  -2.962  1.00 20.00     0.025 A 
HETATM    7  C10 UNL     1     -33.803  15.691  -4.469  1.00 20.00     0.089 A 
ENDROOT
BRANCH   6   8
HETATM    8  C8  UNL     1     -34.021  16.744  -2.001  1.00 20.00    -0.008 A 
HETATM    9  C5  UNL     1     -35.300  17.483  -1.719  1.00 20.00     0.005 A 
HETATM   10  C6  UNL     1     -34.661  16.648  -0.644  1.00 20.00     0.005 A 
ENDBRANCH   6   8
TORSDOF 1
ENDMDL
MODEL 3
REMARK VINA RESULT:      -4.4      1.225      4.480
REMARK  1 active torsions:
REMARK  status: ('A' for Active; 'I' for Inactive)
REMARK    1  A    between atoms: C8_8  and  C9_9 
ROOT
HETATM    1  C1  UNL     1     -33.300  13.447  -3.751  1.00 20.00     0.014 C 
HETATM    2  C2  UNL     1     -35.171  16.385  -6.454  1.00 20.00     0.014 C 
HETATM    3  C3  UNL     1     -34.099  14.335  -3.870  1.00 20.00    -0.094 C 
HETATM    4  C4  UNL     1     -35.118  15.935  -5.343  1.00 20.00    -0.094 C 
HETATM    5  C7  UNL     1     -36.335  15.309  -3.220  1.00 20.00     0.043 A 
HETATM    6  C9  UNL     1     -35.302  16.342  -2.849  1.00 20.00     0.025 A 
HETATM    7  C10 UNL     1     -35.054  15.397  -4.013  1.00 20.00     0.089 A 
ENDROOT
BRANCH   6   8
HETATM    8  C8  UNL     1     -34.543  16.298  -1.529  1.00 20.00    -0.008 A 
HETATM    9  C5  UNL     1     -33.656  17.420  -1.066  1.00 20.00     0.005 A 
HETATM   10  C6  UNL     1     -34.938  17.127  -0.338  1.00 20.00     0.005 A 
ENDBRANCH   6   8
TORSDOF 1
ENDMDL
MODEL 4
REMARK VINA RESULT:      -4.3      1.746      2.039
REMARK  1 active torsions:
REMARK  status: ('A' for Active; 'I' for Inactive)
REMARK    1  A    between atoms: C8_8  and  C9_9 
ROOT
HETATM    1  C1  UNL     1     -36.743  14.667  -3.830  1.00 20.00     0.014 C 
HETATM    2  C2  UNL     1     -34.664  16.730  -0.534  1.00 20.00     0.014 C 
HETATM    3  C3  UNL     1     -35.730  15.188  -3.452  1.00 20.00    -0.094 C 
HETATM    4  C4  UNL     1     -34.598  16.312  -1.657  1.00 20.00    -0.094 C 
HETATM    5  C7  UNL     1     -33.206  15.230  -3.465  1.00 20.00     0.043 A 
HETATM    6  C9  UNL     1     -33.652  16.570  -3.993  1.00 20.00     0.025 A 
HETATM    7  C10 UNL     1     -34.519  15.812  -3.001  1.00 20.00     0.089 A 
ENDROOT
BRANCH   6   8
HETATM    8  C8  UNL     1     -34.013  16.791  -5.457  1.00 20.00    -0.008 A 
HETATM    9  C5  UNL     1     -35.131  17.698  -5.888  1.00 20.00     0.005 A 
HETATM   10  C6  UNL     1     -33.705  18.070  -6.184  1.00 20.00     0.005 A 
ENDBRANCH   6   8
TORSDOF 1
ENDMDL
MODEL 5
REMARK VINA RESULT:      -4.3     11.296     12.878
REMARK  1 active torsions:
REMARK  status: ('A' for Active; 'I' for Inactive)
REMARK    1  A    between atoms: C8_8  and  C9_9 
ROOT
HETATM    1  C1  UNL     1     -33.320   7.539   6.986  1.00 20.00     0.014 C 
HETATM    2  C2  UNL     1     -35.008   3.628   5.850  1.00 20.00     0.014 C 
HETATM    3  C3  UNL     1     -33.687   6.826   6.094  1.00 20.00    -0.094 C 
HETATM    4  C4  UNL     1     -34.607   4.695   5.476  1.00 20.00    -0.094 C 
HETATM    5  C7  UNL     1     -34.810   6.611   3.843  1.00 20.00     0.043 A 
HETATM    6  C9  UNL     1     -33.426   6.036   3.680  1.00 20.00     0.025 A 
HETATM    7  C10 UNL     1     -34.126   5.972   5.027  1.00 20.00     0.089 A 
ENDROOT
BRANCH   6   8
HETATM    8  C8  UNL     1     -32.211   6.907   3.383  1.00 20.00    -0.008 A 
HETATM    9  C5  UNL     1     -31.780   7.248   1.984  1.00 20.00     0.005 A 
HETATM   10  C6  UNL     1     -32.329   8.320   2.884  1.00 20.00     0.005 A 
ENDBRANCH   6   8
TORSDOF 1
ENDMDL
MODEL 6
REMARK VINA RESULT:      -4.3      9.941     11.390
REMARK  1 active torsions:
REMARK  status: ('A' for Active; 'I' for Inactive)
REMARK    1  A    between atoms: C8_8  and  C9_9 
ROOT
HETATM    1  C1  UNL     1     -34.796   5.100   2.269  1.00 20.00     0.014 C 
HETATM    2  C2  UNL     1     -33.917   6.536   6.343  1.00 20.00     0.014 C 
HETATM    3  C3  UNL     1     -34.049   5.719   2.975  1.00 20.00    -0.094 C 
HETATM    4  C4  UNL     1     -33.571   6.501   5.195  1.00 20.00    -0.094 C 
HETATM    5  C7  UNL     1     -31.678   6.385   3.527  1.00 20.00     0.043 A 
HETATM    6  C9  UNL     1     -32.425   7.667   3.260  1.00 20.00     0.025 A 
HETATM    7  C10 UNL     1     -33.157   6.459   3.820  1.00 20.00     0.089 A 
ENDROOT
BRANCH   6   8
HETATM    8  C8  UNL     1     -32.624   8.217   1.853  1.00 20.00    -0.008 A 
HETATM    9  C5  UNL     1     -32.535   9.683   1.535  1.00 20.00     0.005 A 
HETATM   10  C6  UNL     1     -31.488   8.737   1.017  1.00 20.00     0.005 A 
ENDBRANCH   6   8
TORSDOF 1
ENDMDL
MODEL 7
REMARK VINA RESULT:      -4.3      2.189      4.476
REMARK  1 active torsions:
REMARK  status: ('A' for Active; 'I' for Inactive)
REMARK    1  A    between atoms: C8_8  and  C9_9 
ROOT
HETATM    1  C1  UNL     1     -37.129  15.985  -3.455  1.00 20.00     0.014 C 
HETATM    2  C2  UNL     1     -33.584  13.390  -3.813  1.00 20.00     0.014 C 
HETATM    3  C3  UNL     1     -35.934  15.903  -3.382  1.00 20.00    -0.094 C 
HETATM    4  C4  UNL     1     -34.003  14.489  -3.577  1.00 20.00    -0.094 C 
HETATM    5  C7  UNL     1     -33.684  16.989  -3.740  1.00 20.00     0.043 A 
HETATM    6  C9  UNL     1     -33.758  16.648  -2.274  1.00 20.00     0.025 A 
HETATM    7  C10 UNL     1     -34.505  15.804  -3.293  1.00 20.00     0.089 A 
ENDROOT
BRANCH   6   8
HETATM    8  C8  UNL     1     -34.429  17.562  -1.257  1.00 20.00    -0.008 A 
HETATM    9  C5  UNL     1     -34.853  17.088   0.105  1.00 20.00     0.005 A 
HETATM   10  C6  UNL     1     -33.722  18.069  -0.031  1.00 20.00     0.005 A 
ENDBRANCH   6   8
TORSDOF 1
ENDMDL
MODEL 8
REMARK VINA RESULT:      -4.3     10.114     11.786
REMARK  1 active torsions:
REMARK  status: ('A' for Active; 'I' for Inactive)
REMARK    1  A    between atoms: C8_8  and  C9_9 
ROOT
HETATM    1  C1  UNL     1     -41.449   3.628  -2.247  1.00 20.00     0.014 C 
HETATM    2  C2  UNL     1     -43.342   5.264   1.383  1.00 20.00     0.014 C 
HETATM    3  C3  UNL     1     -41.659   4.600  -1.576  1.00 20.00    -0.094 C 
HETATM    4  C4  UNL     1     -42.690   5.491   0.401  1.00 20.00    -0.094 C 
HETATM    5  C7  UNL     1     -40.825   6.808  -0.680  1.00 20.00     0.043 A 
HETATM    6  C9  UNL     1     -42.085   7.114  -1.448  1.00 20.00     0.025 A 
HETATM    7  C10 UNL     1     -41.911   5.763  -0.774  1.00 20.00     0.089 A 
ENDROOT
BRANCH   6   8
HETATM    8  C8  UNL     1     -42.089   7.329  -2.956  1.00 20.00    -0.008 A 
HETATM    9  C5  UNL     1     -43.310   7.106  -3.804  1.00 20.00     0.005 A 
HETATM   10  C6  UNL     1     -42.775   8.497  -3.608  1.00 20.00     0.005 A 
ENDBRANCH   6   8
TORSDOF 1
ENDMDL
MODEL 9
REMARK VINA RESULT:      -4.2      2.045      3.426
REMARK  1 active torsions:
REMARK  status: ('A' for Active; 'I' for Inactive)
REMARK    1  A    between atoms: C8_8  and  C9_9 
ROOT
HETATM    1  C1  UNL     1     -33.550  18.402  -3.835  1.00 20.00     0.014 C 
HETATM    2  C2  UNL     1     -34.819  17.281   0.236  1.00 20.00     0.014 C 
HETATM    3  C3  UNL     1     -34.189  17.647  -3.155  1.00 20.00    -0.094 C 
HETATM    4  C4  UNL     1     -34.879  17.037  -0.937  1.00 20.00    -0.094 C 
HETATM    5  C7  UNL     1     -36.258  16.225  -2.892  1.00 20.00     0.043 A 
HETATM    6  C9  UNL     1     -35.084  15.288  -2.759  1.00 20.00     0.025 A 
HETATM    7  C10 UNL     1     -34.952  16.744  -2.341  1.00 20.00     0.089 A 
ENDROOT
BRANCH   6   8
HETATM    8  C8  UNL     1     -34.390  14.675  -3.969  1.00 20.00    -0.008 A 
HETATM    9  C5  UNL     1     -33.358  13.589  -3.848  1.00 20.00     0.005 A 
HETATM   10  C6  UNL     1     -34.696  13.289  -4.463  1.00 20.00     0.005 A 
ENDBRANCH   6   8
TORSDOF 1
ENDMDL
