MODEL 1
REMARK VINA RESULT:      -4.9      0.000      0.000
REMARK  2 active torsions:
REMARK  status: ('A' for Active; 'I' for Inactive)
REMARK    1  A    between atoms: C4_4  and  C10_10 
REMARK    2  A    between atoms: C5_5  and  C11_11 
ROOT
HETATM    1  C1  UNL     1     -34.425  13.718  -4.934  1.00 20.00     0.004 A 
HETATM    2  C2  UNL     1     -34.292  13.821  -3.604  1.00 20.00    -0.017 A 
HETATM    3  C3  UNL     1     -34.027  15.930  -4.582  1.00 20.00    -0.011 A 
HETATM    4  C4  UNL     1     -34.262  15.018  -5.539  1.00 20.00    -0.058 A 
HETATM    5  C5  UNL     1     -34.020  15.256  -3.233  1.00 20.00     0.034 A 
ENDROOT
BRANCH   4   6
HETATM    6  C10 UNL     1     -34.352  15.230  -7.004  1.00 20.00     0.010 C 
HETATM    7  C6  UNL     1     -35.489  14.400  -7.607  1.00 20.00     0.015 C 
HETATM    8  C7  UNL     1     -34.540  16.712  -7.343  1.00 20.00     0.015 C 
ENDBRANCH   4   6
BRANCH   5   9
HETATM    9  C11 UNL     1     -35.083  15.823  -2.301  1.00 20.00    -0.012 C 
HETATM   10  C8  UNL     1     -34.439  16.584  -1.143  1.00 20.00     0.010 C 
HETATM   11  C9  UNL     1     -36.045  16.731  -3.067  1.00 20.00     0.010 C 
ENDBRANCH   5   9
TORSDOF 2
ENDMDL
MODEL 2
REMARK VINA RESULT:      -4.9      1.996      5.569
REMARK  2 active torsions:
REMARK  status: ('A' for Active; 'I' for Inactive)
REMARK    1  A    between atoms: C4_4  and  C10_10 
REMARK    2  A    between atoms: C5_5  and  C11_11 
ROOT
HETATM    1  C1  UNL     1     -34.590  16.679  -0.689  1.00 20.00     0.004 A 
HETATM    2  C2  UNL     1     -34.846  16.053  -1.846  1.00 20.00    -0.017 A 
HETATM    3  C3  UNL     1     -33.685  18.040  -2.271  1.00 20.00    -0.011 A 
HETATM    4  C4  UNL     1     -33.873  17.905  -0.949  1.00 20.00    -0.058 A 
HETATM    5  C5  UNL     1     -34.293  16.861  -2.991  1.00 20.00     0.034 A 
ENDROOT
BRANCH   4   6
HETATM    6  C10 UNL     1     -33.448  18.823   0.135  1.00 20.00     0.010 C 
HETATM    7  C6  UNL     1     -34.055  18.401   1.476  1.00 20.00     0.015 C 
HETATM    8  C7  UNL     1     -31.921  18.891   0.242  1.00 20.00     0.015 C 
ENDBRANCH   4   6
BRANCH   5   9
HETATM    9  C11 UNL     1     -33.260  16.086  -3.800  1.00 20.00    -0.012 C 
HETATM   10  C8  UNL     1     -33.494  14.581  -3.677  1.00 20.00     0.010 C 
HETATM   11  C9  UNL     1     -33.291  16.514  -5.267  1.00 20.00     0.010 C 
ENDBRANCH   5   9
TORSDOF 2
ENDMDL
MODEL 3
REMARK VINA RESULT:      -4.8      1.373      4.238
REMARK  2 active torsions:
REMARK  status: ('A' for Active; 'I' for Inactive)
REMARK    1  A    between atoms: C4_4  and  C10_10 
REMARK    2  A    between atoms: C5_5  and  C11_11 
ROOT
HETATM    1  C1  UNL     1     -33.094  15.124  -3.401  1.00 20.00     0.004 A 
HETATM    2  C2  UNL     1     -33.681  14.192  -4.165  1.00 20.00    -0.017 A 
HETATM    3  C3  UNL     1     -35.310  15.330  -2.929  1.00 20.00    -0.011 A 
HETATM    4  C4  UNL     1     -34.098  15.828  -2.638  1.00 20.00    -0.058 A 
HETATM    5  C5  UNL     1     -35.172  14.222  -3.944  1.00 20.00     0.034 A 
ENDROOT
BRANCH   4   6
HETATM    6  C10 UNL     1     -33.759  16.919  -1.694  1.00 20.00     0.010 C 
HETATM    7  C6  UNL     1     -33.832  18.283  -2.387  1.00 20.00     0.015 C 
HETATM    8  C7  UNL     1     -34.674  16.899  -0.465  1.00 20.00     0.015 C 
ENDBRANCH   4   6
BRANCH   5   9
HETATM    9  C11 UNL     1     -35.941  14.517  -5.225  1.00 20.00    -0.012 C 
HETATM   10  C8  UNL     1     -36.589  15.899  -5.162  1.00 20.00     0.010 C 
HETATM   11  C9  UNL     1     -35.022  14.412  -6.443  1.00 20.00     0.010 C 
ENDBRANCH   5   9
TORSDOF 2
ENDMDL
MODEL 4
REMARK VINA RESULT:      -4.7      0.979      1.197
REMARK  2 active torsions:
REMARK  status: ('A' for Active; 'I' for Inactive)
REMARK    1  A    between atoms: C4_4  and  C10_10 
REMARK    2  A    between atoms: C5_5  and  C11_11 
ROOT
HETATM    1  C1  UNL     1     -34.832  14.367  -4.675  1.00 20.00     0.004 A 
HETATM    2  C2  UNL     1     -34.408  14.479  -3.409  1.00 20.00    -0.017 A 
HETATM    3  C3  UNL     1     -33.206  15.955  -4.769  1.00 20.00    -0.011 A 
HETATM    4  C4  UNL     1     -34.092  15.277  -5.516  1.00 20.00    -0.058 A 
HETATM    5  C5  UNL     1     -33.314  15.512  -3.331  1.00 20.00     0.034 A 
ENDROOT
BRANCH   4   6
HETATM    6  C10 UNL     1     -34.331  15.384  -6.976  1.00 20.00     0.010 C 
HETATM    7  C6  UNL     1     -35.465  14.452  -7.412  1.00 20.00     0.015 C 
HETATM    8  C7  UNL     1     -34.643  16.827  -7.385  1.00 20.00     0.015 C 
ENDBRANCH   4   6
BRANCH   5   9
HETATM    9  C11 UNL     1     -33.672  16.664  -2.400  1.00 20.00    -0.012 C 
HETATM   10  C8  UNL     1     -34.044  17.911  -3.200  1.00 20.00     0.010 C 
HETATM   11  C9  UNL     1     -34.814  16.268  -1.465  1.00 20.00     0.010 C 
ENDBRANCH   5   9
TORSDOF 2
ENDMDL
MODEL 5
REMARK VINA RESULT:      -4.7     10.217     11.930
REMARK  2 active torsions:
REMARK  status: ('A' for Active; 'I' for Inactive)
REMARK    1  A    between atoms: C4_4  and  C10_10 
REMARK    2  A    between atoms: C5_5  and  C11_11 
ROOT
HETATM    1  C1  UNL     1     -33.312   6.449   2.102  1.00 20.00     0.004 A 
HETATM    2  C2  UNL     1     -33.703   5.555   3.021  1.00 20.00    -0.017 A 
HETATM    3  C3  UNL     1     -32.370   7.187   4.037  1.00 20.00    -0.011 A 
HETATM    4  C4  UNL     1     -32.489   7.457   2.728  1.00 20.00    -0.058 A 
HETATM    5  C5  UNL     1     -33.139   5.931   4.367  1.00 20.00     0.034 A 
ENDROOT
BRANCH   4   6
HETATM    6  C10 UNL     1     -31.900   8.586   1.969  1.00 20.00     0.010 C 
HETATM    7  C6  UNL     1     -31.692   8.206   0.499  1.00 20.00     0.015 C 
HETATM    8  C7  UNL     1     -32.769   9.843   2.073  1.00 20.00     0.015 C 
ENDBRANCH   4   6
BRANCH   5   9
HETATM    9  C11 UNL     1     -34.229   6.179   5.401  1.00 20.00    -0.012 C 
HETATM   10  C8  UNL     1     -34.819   4.858   5.893  1.00 20.00     0.010 C 
HETATM   11  C9  UNL     1     -33.684   6.991   6.577  1.00 20.00     0.010 C 
ENDBRANCH   5   9
TORSDOF 2
ENDMDL
MODEL 6
REMARK VINA RESULT:      -4.6      1.327      4.798
REMARK  2 active torsions:
REMARK  status: ('A' for Active; 'I' for Inactive)
REMARK    1  A    between atoms: C4_4  and  C10_10 
REMARK    2  A    between atoms: C5_5  and  C11_11 
ROOT
HETATM    1  C1  UNL     1     -33.662  17.663  -3.849  1.00 20.00     0.004 A 
HETATM    2  C2  UNL     1     -33.636  16.946  -4.981  1.00 20.00    -0.017 A 
HETATM    3  C3  UNL     1     -33.542  15.505  -3.140  1.00 20.00    -0.011 A 
HETATM    4  C4  UNL     1     -33.605  16.775  -2.712  1.00 20.00    -0.058 A 
HETATM    5  C5  UNL     1     -33.554  15.478  -4.648  1.00 20.00     0.034 A 
ENDROOT
BRANCH   4   6
HETATM    6  C10 UNL     1     -33.614  17.271  -1.314  1.00 20.00     0.010 C 
HETATM    7  C6  UNL     1     -33.524  18.800  -1.278  1.00 20.00     0.015 C 
HETATM    8  C7  UNL     1     -34.861  16.796  -0.562  1.00 20.00     0.015 C 
ENDBRANCH   4   6
BRANCH   5   9
HETATM    9  C11 UNL     1     -34.737  14.693  -5.200  1.00 20.00    -0.012 C 
HETATM   10  C8  UNL     1     -34.741  14.722  -6.728  1.00 20.00     0.010 C 
HETATM   11  C9  UNL     1     -34.714  13.251  -4.692  1.00 20.00     0.010 C 
ENDBRANCH   5   9
TORSDOF 2
ENDMDL
MODEL 7
REMARK VINA RESULT:      -4.6     10.947     13.134
REMARK  2 active torsions:
REMARK  status: ('A' for Active; 'I' for Inactive)
REMARK    1  A    between atoms: C4_4  and  C10_10 
REMARK    2  A    between atoms: C5_5  and  C11_11 
ROOT
HETATM    1  C1  UNL     1     -34.281   4.870   3.278  1.00 20.00     0.004 A 
HETATM    2  C2  UNL     1     -33.762   5.529   2.233  1.00 20.00    -0.017 A 
HETATM    3  C3  UNL     1     -33.936   6.978   4.061  1.00 20.00    -0.011 A 
HETATM    4  C4  UNL     1     -34.389   5.763   4.407  1.00 20.00    -0.058 A 
HETATM    5  C5  UNL     1     -33.484   6.958   2.622  1.00 20.00     0.034 A 
ENDROOT
BRANCH   4   6
HETATM    6  C10 UNL     1     -34.934   5.327   5.716  1.00 20.00     0.010 C 
HETATM    7  C6  UNL     1     -34.722   3.824   5.922  1.00 20.00     0.015 C 
HETATM    8  C7  UNL     1     -34.306   6.114   6.871  1.00 20.00     0.015 C 
ENDBRANCH   4   6
BRANCH   5   9
HETATM    9  C11 UNL     1     -32.012   7.321   2.477  1.00 20.00    -0.012 C 
HETATM   10  C8  UNL     1     -31.835   8.496   1.516  1.00 20.00     0.010 C 
HETATM   11  C9  UNL     1     -31.398   7.647   3.839  1.00 20.00     0.010 C 
ENDBRANCH   5   9
TORSDOF 2
ENDMDL
MODEL 8
REMARK VINA RESULT:      -4.6      1.584      3.327
REMARK  2 active torsions:
REMARK  status: ('A' for Active; 'I' for Inactive)
REMARK    1  A    between atoms: C4_4  and  C10_10 
REMARK    2  A    between atoms: C5_5  and  C11_11 
ROOT
HETATM    1  C1  UNL     1     -33.628  16.598  -3.662  1.00 20.00     0.004 A 
HETATM    2  C2  UNL     1     -33.752  17.669  -2.866  1.00 20.00    -0.017 A 
HETATM    3  C3  UNL     1     -35.018  15.901  -2.002  1.00 20.00    -0.011 A 
HETATM    4  C4  UNL     1     -34.408  15.506  -3.130  1.00 20.00    -0.058 A 
HETATM    5  C5  UNL     1     -34.662  17.338  -1.711  1.00 20.00     0.034 A 
ENDROOT
BRANCH   4   6
HETATM    6  C10 UNL     1     -34.476  14.181  -3.793  1.00 20.00     0.010 C 
HETATM    7  C6  UNL     1     -34.890  14.325  -5.260  1.00 20.00     0.015 C 
HETATM    8  C7  UNL     1     -33.142  13.436  -3.688  1.00 20.00     0.015 C 
ENDBRANCH   4   6
BRANCH   5   9
HETATM    9  C11 UNL     1     -33.968  17.497  -0.365  1.00 20.00    -0.012 C 
HETATM   10  C8  UNL     1     -32.986  18.667  -0.396  1.00 20.00     0.010 C 
HETATM   11  C9  UNL     1     -34.993  17.689   0.753  1.00 20.00     0.010 C 
ENDBRANCH   5   9
TORSDOF 2
ENDMDL
MODEL 9
REMARK VINA RESULT:      -4.6     10.082     12.285
REMARK  2 active torsions:
REMARK  status: ('A' for Active; 'I' for Inactive)
REMARK    1  A    between atoms: C4_4  and  C10_10 
REMARK    2  A    between atoms: C5_5  and  C11_11 
ROOT
HETATM    1  C1  UNL     1     -32.534   7.274   4.799  1.00 20.00     0.004 A 
HETATM    2  C2  UNL     1     -31.753   7.943   3.939  1.00 20.00    -0.017 A 
HETATM    3  C3  UNL     1     -32.935   6.281   2.792  1.00 20.00    -0.011 A 
HETATM    4  C4  UNL     1     -33.264   6.248   4.093  1.00 20.00    -0.058 A 
HETATM    5  C5  UNL     1     -31.925   7.376   2.553  1.00 20.00     0.034 A 
ENDROOT
BRANCH   4   6
HETATM    6  C10 UNL     1     -34.213   5.335   4.775  1.00 20.00     0.010 C 
HETATM    7  C6  UNL     1     -34.430   5.762   6.230  1.00 20.00     0.015 C 
HETATM    8  C7  UNL     1     -35.553   5.269   4.036  1.00 20.00     0.015 C 
ENDBRANCH   4   6
BRANCH   5   9
HETATM    9  C11 UNL     1     -32.428   8.416   1.561  1.00 20.00    -0.012 C 
HETATM   10  C8  UNL     1     -32.616   9.770   2.245  1.00 20.00     0.010 C 
HETATM   11  C9  UNL     1     -31.469   8.544   0.377  1.00 20.00     0.010 C 
ENDBRANCH   5   9
TORSDOF 2
ENDMDL
