MODEL 1
REMARK VINA RESULT:      -4.2      0.000      0.000
REMARK  0 active torsions:
REMARK  status: ('A' for Active; 'I' for Inactive)
ROOT
HETATM    1  C1  UNL     1     -34.699  16.265  -1.539  1.00 20.00     0.029 C 
HETATM    2  C2  UNL     1     -35.712  15.946  -2.610  1.00 20.00     0.042 C 
HETATM    3  C3  UNL     1     -34.505  13.917  -3.626  1.00 20.00     0.070 C 
HETATM    4  C4  UNL     1     -34.654  13.380  -5.048  1.00 20.00     0.275 C 
HETATM    5  C5  UNL     1     -35.421  15.578  -5.126  1.00 20.00     0.309 C 
HETATM    6  C6  UNL     1     -33.542  16.799  -2.355  1.00 20.00     0.169 C 
HETATM    7  C7  UNL     1     -34.833  15.413  -3.730  1.00 20.00     0.089 C 
HETATM    8  C8  UNL     1     -35.247  14.330  -7.201  1.00 20.00     0.310 C 
HETATM    9  N9  UNL     1     -34.671  14.577  -5.889  1.00 20.00     0.087 N 
HETATM   10  O10 UNL     1     -33.598  16.155  -3.637  1.00 20.00    -0.378 OA
ENDROOT
TORSDOF 0
ENDMDL
MODEL 2
REMARK VINA RESULT:      -4.0      1.758      3.990
REMARK  0 active torsions:
REMARK  status: ('A' for Active; 'I' for Inactive)
ROOT
HETATM    1  C1  UNL     1     -35.077  14.159  -5.912  1.00 20.00     0.029 C 
HETATM    2  C2  UNL     1     -35.757  15.200  -5.057  1.00 20.00     0.042 C 
HETATM    3  C3  UNL     1     -33.641  16.197  -3.992  1.00 20.00     0.070 C 
HETATM    4  C4  UNL     1     -33.549  16.937  -2.658  1.00 20.00     0.275 C 
HETATM    5  C5  UNL     1     -35.531  15.716  -2.561  1.00 20.00     0.309 C 
HETATM    6  C6  UNL     1     -34.594  13.170  -4.873  1.00 20.00     0.169 C 
HETATM    7  C7  UNL     1     -34.845  15.257  -3.842  1.00 20.00     0.089 C 
HETATM    8  C8  UNL     1     -34.800  16.913  -0.578  1.00 20.00     0.310 C 
HETATM    9  N9  UNL     1     -34.392  16.156  -1.751  1.00 20.00     0.087 N 
HETATM   10  O10 UNL     1     -34.350  13.912  -3.668  1.00 20.00    -0.378 OA
ENDROOT
TORSDOF 0
ENDMDL
MODEL 3
REMARK VINA RESULT:      -3.9      1.686      4.043
REMARK  0 active torsions:
REMARK  status: ('A' for Active; 'I' for Inactive)
ROOT
HETATM    1  C1  UNL     1     -35.529  14.453  -7.918  1.00 20.00     0.029 C 
HETATM    2  C2  UNL     1     -34.427  15.045  -7.075  1.00 20.00     0.042 C 
HETATM    3  C3  UNL     1     -34.799  13.611  -4.975  1.00 20.00     0.070 C 
HETATM    4  C4  UNL     1     -34.413  13.969  -3.541  1.00 20.00     0.275 C 
HETATM    5  C5  UNL     1     -34.470  15.990  -4.697  1.00 20.00     0.309 C 
HETATM    6  C6  UNL     1     -36.767  14.986  -7.230  1.00 20.00     0.169 C 
HETATM    7  C7  UNL     1     -35.017  14.959  -5.676  1.00 20.00     0.089 C 
HETATM    8  C8  UNL     1     -34.110  16.029  -2.295  1.00 20.00     0.310 C 
HETATM    9  N9  UNL     1     -34.787  15.377  -3.405  1.00 20.00     0.087 N 
HETATM   10  O10 UNL     1     -36.437  15.158  -5.843  1.00 20.00    -0.378 OA
ENDROOT
TORSDOF 0
ENDMDL
MODEL 4
REMARK VINA RESULT:      -3.9      1.363      1.681
REMARK  0 active torsions:
REMARK  status: ('A' for Active; 'I' for Inactive)
ROOT
HETATM    1  C1  UNL     1     -33.602  17.501  -0.913  1.00 20.00     0.029 C 
HETATM    2  C2  UNL     1     -34.625  16.484  -1.354  1.00 20.00     0.042 C 
HETATM    3  C3  UNL     1     -33.288  15.482  -3.307  1.00 20.00     0.070 C 
HETATM    4  C4  UNL     1     -33.854  14.767  -4.533  1.00 20.00     0.275 C 
HETATM    5  C5  UNL     1     -35.621  16.013  -3.664  1.00 20.00     0.309 C 
HETATM    6  C6  UNL     1     -33.651  18.503  -2.046  1.00 20.00     0.169 C 
HETATM    7  C7  UNL     1     -34.401  16.440  -2.857  1.00 20.00     0.089 C 
HETATM    8  C8  UNL     1     -35.941  14.844  -5.768  1.00 20.00     0.310 C 
HETATM    9  N9  UNL     1     -35.011  15.574  -4.922  1.00 20.00     0.087 N 
HETATM   10  O10 UNL     1     -34.022  17.782  -3.230  1.00 20.00    -0.378 OA
ENDROOT
TORSDOF 0
ENDMDL
MODEL 5
REMARK VINA RESULT:      -3.8      1.699      3.858
REMARK  0 active torsions:
REMARK  status: ('A' for Active; 'I' for Inactive)
ROOT
HETATM    1  C1  UNL     1     -34.793  13.213  -4.932  1.00 20.00     0.029 C 
HETATM    2  C2  UNL     1     -34.008  13.819  -3.796  1.00 20.00     0.042 C 
HETATM    3  C3  UNL     1     -35.771  15.532  -3.043  1.00 20.00     0.070 C 
HETATM    4  C4  UNL     1     -35.517  16.837  -2.290  1.00 20.00     0.275 C 
HETATM    5  C5  UNL     1     -33.475  16.263  -3.254  1.00 20.00     0.309 C 
HETATM    6  C6  UNL     1     -34.785  14.334  -5.949  1.00 20.00     0.169 C 
HETATM    7  C7  UNL     1     -34.476  15.266  -3.824  1.00 20.00     0.089 C 
HETATM    8  C8  UNL     1     -33.667  18.397  -2.110  1.00 20.00     0.310 C 
HETATM    9  N9  UNL     1     -34.336  17.407  -2.939  1.00 20.00     0.087 N 
HETATM   10  O10 UNL     1     -34.717  15.566  -5.215  1.00 20.00    -0.378 OA
ENDROOT
TORSDOF 0
ENDMDL
MODEL 6
REMARK VINA RESULT:      -3.8      1.789      2.607
REMARK  0 active torsions:
REMARK  status: ('A' for Active; 'I' for Inactive)
ROOT
HETATM    1  C1  UNL     1     -33.406  13.766  -3.791  1.00 20.00     0.029 C 
HETATM    2  C2  UNL     1     -34.862  13.481  -4.066  1.00 20.00     0.042 C 
HETATM    3  C3  UNL     1     -34.917  14.324  -6.494  1.00 20.00     0.070 C 
HETATM    4  C4  UNL     1     -36.139  14.827  -7.262  1.00 20.00     0.275 C 
HETATM    5  C5  UNL     1     -36.706  14.985  -5.007  1.00 20.00     0.309 C 
HETATM    6  C6  UNL     1     -33.390  15.278  -3.736  1.00 20.00     0.169 C 
HETATM    7  C7  UNL     1     -35.230  14.608  -5.019  1.00 20.00     0.089 C 
HETATM    8  C8  UNL     1     -38.246  15.872  -6.663  1.00 20.00     0.310 C 
HETATM    9  N9  UNL     1     -36.853  15.664  -6.297  1.00 20.00     0.087 N 
HETATM   10  O10 UNL     1     -34.440  15.741  -4.598  1.00 20.00    -0.378 OA
ENDROOT
TORSDOF 0
ENDMDL
MODEL 7
REMARK VINA RESULT:      -3.8      2.112      3.696
REMARK  0 active torsions:
REMARK  status: ('A' for Active; 'I' for Inactive)
ROOT
HETATM    1  C1  UNL     1     -33.401  13.632  -3.737  1.00 20.00     0.029 C 
HETATM    2  C2  UNL     1     -32.985  15.081  -3.703  1.00 20.00     0.042 C 
HETATM    3  C3  UNL     1     -34.782  15.910  -2.062  1.00 20.00     0.070 C 
HETATM    4  C4  UNL     1     -35.318  17.335  -1.934  1.00 20.00     0.275 C 
HETATM    5  C5  UNL     1     -34.351  17.217  -4.051  1.00 20.00     0.309 C 
HETATM    6  C6  UNL     1     -34.705  13.700  -4.503  1.00 20.00     0.169 C 
HETATM    7  C7  UNL     1     -34.319  15.790  -3.521  1.00 20.00     0.089 C 
HETATM    8  C8  UNL     1     -35.553  19.234  -3.428  1.00 20.00     0.310 C 
HETATM    9  N9  UNL     1     -35.485  17.785  -3.317  1.00 20.00     0.087 N 
HETATM   10  O10 UNL     1     -35.282  14.987  -4.236  1.00 20.00    -0.378 OA
ENDROOT
TORSDOF 0
ENDMDL
MODEL 8
REMARK VINA RESULT:      -3.7      2.071      3.575
REMARK  0 active torsions:
REMARK  status: ('A' for Active; 'I' for Inactive)
ROOT
HETATM    1  C1  UNL     1     -34.525  13.367  -4.671  1.00 20.00     0.029 C 
HETATM    2  C2  UNL     1     -35.321  14.633  -4.473  1.00 20.00     0.042 C 
HETATM    3  C3  UNL     1     -33.729  16.231  -5.705  1.00 20.00     0.070 C 
HETATM    4  C4  UNL     1     -33.599  17.738  -5.493  1.00 20.00     0.275 C 
HETATM    5  C5  UNL     1     -34.620  16.920  -3.565  1.00 20.00     0.309 C 
HETATM    6  C6  UNL     1     -33.338  13.600  -3.761  1.00 20.00     0.169 C 
HETATM    7  C7  UNL     1     -34.226  15.682  -4.360  1.00 20.00     0.089 C 
HETATM    8  C8  UNL     1     -33.984  19.263  -3.645  1.00 20.00     0.310 C 
HETATM    9  N9  UNL     1     -33.644  17.905  -4.040  1.00 20.00     0.087 N 
HETATM   10  O10 UNL     1     -33.123  15.019  -3.706  1.00 20.00    -0.378 OA
ENDROOT
TORSDOF 0
ENDMDL
MODEL 9
REMARK VINA RESULT:      -3.7      2.462      2.696
REMARK  0 active torsions:
REMARK  status: ('A' for Active; 'I' for Inactive)
ROOT
HETATM    1  C1  UNL     1     -34.643  16.625  -0.736  1.00 20.00     0.029 C 
HETATM    2  C2  UNL     1     -35.367  16.776  -2.051  1.00 20.00     0.042 C 
HETATM    3  C3  UNL     1     -33.417  16.112  -3.589  1.00 20.00     0.070 C 
HETATM    4  C4  UNL     1     -33.227  16.510  -5.052  1.00 20.00     0.275 C 
HETATM    5  C5  UNL     1     -34.727  18.060  -4.170  1.00 20.00     0.309 C 
HETATM    6  C6  UNL     1     -33.686  17.798  -0.772  1.00 20.00     0.169 C 
HETATM    7  C7  UNL     1     -34.253  17.244  -2.975  1.00 20.00     0.089 C 
HETATM    8  C8  UNL     1     -33.917  18.379  -6.438  1.00 20.00     0.310 C 
HETATM    9  N9  UNL     1     -33.597  17.925  -5.093  1.00 20.00     0.087 N 
HETATM   10  O10 UNL     1     -33.385  18.053  -2.152  1.00 20.00    -0.378 OA
ENDROOT
TORSDOF 0
ENDMDL
