MODEL 1
REMARK VINA RESULT:      -4.6      0.000      0.000
REMARK  2 active torsions:
REMARK  status: ('A' for Active; 'I' for Inactive)
REMARK    1  A    between atoms: C1_1  and  C4_4 
REMARK    2  A    between atoms: C1_1  and  C5_5 
ROOT
HETATM    1  C1  UNL     1     -34.214   5.606   3.676  1.00 20.00     0.159 C 
HETATM    2  O6  UNL     1     -34.441   5.137   2.567  1.00 20.00    -0.295 OA
ENDROOT
BRANCH   1   3
HETATM    3  C4  UNL     1     -35.094   5.298   4.808  1.00 20.00     0.058 A 
HETATM    4  C2  UNL     1     -34.841   4.059   5.624  1.00 20.00     0.013 A 
HETATM    5  C3  UNL     1     -34.556   5.409   6.209  1.00 20.00     0.013 A 
ENDBRANCH   1   3
BRANCH   1   6
HETATM    6  C5  UNL     1     -33.056   6.511   3.972  1.00 20.00     0.300 C 
HETATM    7  F7  UNL     1     -31.913   6.048   3.400  1.00 20.00    -0.248 F 
ENDBRANCH   1   6
TORSDOF 2
ENDMDL
MODEL 2
REMARK VINA RESULT:      -4.4      1.918      2.970
REMARK  2 active torsions:
REMARK  status: ('A' for Active; 'I' for Inactive)
REMARK    1  A    between atoms: C1_1  and  C4_4 
REMARK    2  A    between atoms: C1_1  and  C5_5 
ROOT
HETATM    1  C1  UNL     1     -34.816   4.881   5.116  1.00 20.00     0.159 C 
HETATM    2  O6  UNL     1     -35.136   3.733   4.835  1.00 20.00    -0.295 OA
ENDROOT
BRANCH   1   3
HETATM    3  C4  UNL     1     -34.565   5.864   4.057  1.00 20.00     0.058 A 
HETATM    4  C2  UNL     1     -33.159   6.074   3.562  1.00 20.00     0.013 A 
HETATM    5  C3  UNL     1     -34.164   5.386   2.688  1.00 20.00     0.013 A 
ENDBRANCH   1   3
BRANCH   1   6
HETATM    6  C5  UNL     1     -34.653   5.377   6.522  1.00 20.00     0.300 C 
HETATM    7  F7  UNL     1     -34.298   6.690   6.541  1.00 20.00    -0.248 F 
ENDBRANCH   1   6
TORSDOF 2
ENDMDL
MODEL 3
REMARK VINA RESULT:      -4.3      2.335      3.278
REMARK  2 active torsions:
REMARK  status: ('A' for Active; 'I' for Inactive)
REMARK    1  A    between atoms: C1_1  and  C4_4 
REMARK    2  A    between atoms: C1_1  and  C5_5 
ROOT
HETATM    1  C1  UNL     1     -34.299   5.922   5.492  1.00 20.00     0.159 C 
HETATM    2  O6  UNL     1     -33.859   6.537   6.456  1.00 20.00    -0.295 OA
ENDROOT
BRANCH   1   3
HETATM    3  C4  UNL     1     -34.089   6.424   4.130  1.00 20.00     0.058 A 
HETATM    4  C2  UNL     1     -32.786   6.144   3.433  1.00 20.00     0.013 A 
HETATM    5  C3  UNL     1     -34.036   5.448   2.986  1.00 20.00     0.013 A 
ENDBRANCH   1   3
BRANCH   1   6
HETATM    6  C5  UNL     1     -35.069   4.640   5.607  1.00 20.00     0.300 C 
HETATM    7  F7  UNL     1     -34.239   3.588   5.838  1.00 20.00    -0.248 F 
ENDBRANCH   1   6
TORSDOF 2
ENDMDL
MODEL 4
REMARK VINA RESULT:      -4.2      1.531      1.536
REMARK  2 active torsions:
REMARK  status: ('A' for Active; 'I' for Inactive)
REMARK    1  A    between atoms: C1_1  and  C4_4 
REMARK    2  A    between atoms: C1_1  and  C5_5 
ROOT
HETATM    1  C1  UNL     1     -33.822   6.109   4.674  1.00 20.00     0.159 C 
HETATM    2  O6  UNL     1     -33.350   6.770   5.592  1.00 20.00    -0.295 OA
ENDROOT
BRANCH   1   3
HETATM    3  C4  UNL     1     -34.969   5.225   4.906  1.00 20.00     0.058 A 
HETATM    4  C2  UNL     1     -34.734   3.759   5.150  1.00 20.00     0.013 A 
HETATM    5  C3  UNL     1     -35.183   4.641   6.276  1.00 20.00     0.013 A 
ENDBRANCH   1   3
BRANCH   1   6
HETATM    6  C5  UNL     1     -33.289   6.137   3.273  1.00 20.00     0.300 C 
HETATM    7  F7  UNL     1     -31.964   5.829   3.245  1.00 20.00    -0.248 F 
ENDBRANCH   1   6
TORSDOF 2
ENDMDL
MODEL 5
REMARK VINA RESULT:      -4.0      1.861      3.063
REMARK  2 active torsions:
REMARK  status: ('A' for Active; 'I' for Inactive)
REMARK    1  A    between atoms: C1_1  and  C4_4 
REMARK    2  A    between atoms: C1_1  and  C5_5 
ROOT
HETATM    1  C1  UNL     1     -34.486   5.594   4.356  1.00 20.00     0.159 C 
HETATM    2  O6  UNL     1     -35.281   5.496   3.430  1.00 20.00    -0.295 OA
ENDROOT
BRANCH   1   3
HETATM    3  C4  UNL     1     -33.250   6.367   4.198  1.00 20.00     0.058 A 
HETATM    4  C2  UNL     1     -32.195   5.886   3.238  1.00 20.00     0.013 A 
HETATM    5  C3  UNL     1     -33.003   7.106   2.911  1.00 20.00     0.013 A 
ENDBRANCH   1   3
BRANCH   1   6
HETATM    6  C5  UNL     1     -34.691   4.954   5.697  1.00 20.00     0.300 C 
HETATM    7  F7  UNL     1     -34.650   5.878   6.693  1.00 20.00    -0.248 F 
ENDBRANCH   1   6
TORSDOF 2
ENDMDL
MODEL 6
REMARK VINA RESULT:      -3.9      2.114      2.236
REMARK  2 active torsions:
REMARK  status: ('A' for Active; 'I' for Inactive)
REMARK    1  A    between atoms: C1_1  and  C4_4 
REMARK    2  A    between atoms: C1_1  and  C5_5 
ROOT
HETATM    1  C1  UNL     1     -33.899   6.209   4.990  1.00 20.00     0.159 C 
HETATM    2  O6  UNL     1     -33.435   6.527   3.902  1.00 20.00    -0.295 OA
ENDROOT
BRANCH   1   3
HETATM    3  C4  UNL     1     -35.050   5.304   5.072  1.00 20.00     0.058 A 
HETATM    4  C2  UNL     1     -34.846   3.828   4.859  1.00 20.00     0.013 A 
HETATM    5  C3  UNL     1     -35.154   4.349   6.230  1.00 20.00     0.013 A 
ENDBRANCH   1   3
BRANCH   1   6
HETATM    6  C5  UNL     1     -33.355   6.699   6.299  1.00 20.00     0.300 C 
HETATM    7  F7  UNL     1     -34.292   7.408   6.984  1.00 20.00    -0.248 F 
ENDBRANCH   1   6
TORSDOF 2
ENDMDL
MODEL 7
REMARK VINA RESULT:      -3.9      1.986      2.296
REMARK  2 active torsions:
REMARK  status: ('A' for Active; 'I' for Inactive)
REMARK    1  A    between atoms: C1_1  and  C4_4 
REMARK    2  A    between atoms: C1_1  and  C5_5 
ROOT
HETATM    1  C1  UNL     1     -33.851   5.896   4.040  1.00 20.00     0.159 C 
HETATM    2  O6  UNL     1     -33.139   6.832   3.698  1.00 20.00    -0.295 OA
ENDROOT
BRANCH   1   3
HETATM    3  C4  UNL     1     -33.739   5.329   5.388  1.00 20.00     0.058 A 
HETATM    4  C2  UNL     1     -34.463   5.989   6.530  1.00 20.00     0.013 A 
HETATM    5  C3  UNL     1     -34.937   4.666   6.010  1.00 20.00     0.013 A 
ENDBRANCH   1   3
BRANCH   1   6
HETATM    6  C5  UNL     1     -34.872   5.259   3.144  1.00 20.00     0.300 C 
HETATM    7  F7  UNL     1     -36.097   5.825   3.317  1.00 20.00    -0.248 F 
ENDBRANCH   1   6
TORSDOF 2
ENDMDL
MODEL 8
REMARK VINA RESULT:      -3.8      2.406      3.559
REMARK  2 active torsions:
REMARK  status: ('A' for Active; 'I' for Inactive)
REMARK    1  A    between atoms: C1_1  and  C4_4 
REMARK    2  A    between atoms: C1_1  and  C5_5 
ROOT
HETATM    1  C1  UNL     1     -33.699   6.108   4.213  1.00 20.00     0.159 C 
HETATM    2  O6  UNL     1     -33.710   6.508   5.370  1.00 20.00    -0.295 OA
ENDROOT
BRANCH   1   3
HETATM    3  C4  UNL     1     -32.516   6.306   3.368  1.00 20.00     0.058 A 
HETATM    4  C2  UNL     1     -32.415   7.543   2.517  1.00 20.00     0.013 A 
HETATM    5  C3  UNL     1     -31.533   7.390   3.719  1.00 20.00     0.013 A 
ENDBRANCH   1   3
BRANCH   1   6
HETATM    6  C5  UNL     1     -34.854   5.403   3.568  1.00 20.00     0.300 C 
HETATM    7  F7  UNL     1     -35.549   4.667   4.476  1.00 20.00    -0.248 F 
ENDBRANCH   1   6
TORSDOF 2
ENDMDL
MODEL 9
REMARK VINA RESULT:      -3.7      1.727      2.158
REMARK  2 active torsions:
REMARK  status: ('A' for Active; 'I' for Inactive)
REMARK    1  A    between atoms: C1_1  and  C4_4 
REMARK    2  A    between atoms: C1_1  and  C5_5 
ROOT
HETATM    1  C1  UNL     1     -32.711   6.659   3.249  1.00 20.00     0.159 C 
HETATM    2  O6  UNL     1     -31.968   5.690   3.160  1.00 20.00    -0.295 OA
ENDROOT
BRANCH   1   3
HETATM    3  C4  UNL     1     -33.978   6.561   3.980  1.00 20.00     0.058 A 
HETATM    4  C2  UNL     1     -34.937   5.449   3.650  1.00 20.00     0.013 A 
HETATM    5  C3  UNL     1     -34.185   5.426   4.946  1.00 20.00     0.013 A 
ENDBRANCH   1   3
BRANCH   1   6
HETATM    6  C5  UNL     1     -32.408   7.996   2.640  1.00 20.00     0.300 C 
HETATM    7  F7  UNL     1     -31.584   7.869   1.565  1.00 20.00    -0.248 F 
ENDBRANCH   1   6
TORSDOF 2
ENDMDL
