MODEL 1
REMARK VINA RESULT:      -4.8      0.000      0.000
REMARK  1 active torsions:
REMARK  status: ('A' for Active; 'I' for Inactive)
REMARK    1  A    between atoms: C2_2  and  C4_4 
ROOT
HETATM    1  C1  UNL     1     -32.518   7.165   3.070  1.00 20.00     0.107 C 
HETATM    2  C2  UNL     1     -33.684   6.225   4.994  1.00 20.00     0.118 C 
HETATM    3  C3  UNL     1     -33.413   6.244   3.680  1.00 20.00     0.095 C 
HETATM    4  N5  UNL     1     -31.788   7.914   2.567  1.00 20.00    -0.191 NA
HETATM    5 BR9  UNL     1     -34.212   5.024   2.503  1.00 20.00    -0.039 Br
ENDROOT
BRANCH   2   6
HETATM    6  C4  UNL     1     -34.599   5.313   5.742  1.00 20.00     0.409 C 
HETATM    7  F6  UNL     1     -34.959   5.853   6.935  1.00 20.00    -0.167 F 
HETATM    8  F7  UNL     1     -35.748   5.010   5.090  1.00 20.00    -0.167 F 
HETATM    9  F8  UNL     1     -33.988   4.132   6.020  1.00 20.00    -0.167 F 
ENDBRANCH   2   6
TORSDOF 1
ENDMDL
MODEL 2
REMARK VINA RESULT:      -4.4     12.025     12.541
REMARK  1 active torsions:
REMARK  status: ('A' for Active; 'I' for Inactive)
REMARK    1  A    between atoms: C2_2  and  C4_4 
ROOT
HETATM    1  C1  UNL     1     -34.643  13.789  -4.091  1.00 20.00     0.107 C 
HETATM    2  C2  UNL     1     -34.752  15.372  -2.241  1.00 20.00     0.118 C 
HETATM    3  C3  UNL     1     -34.348  15.035  -3.476  1.00 20.00     0.095 C 
HETATM    4  N5  UNL     1     -34.881  12.772  -4.599  1.00 20.00    -0.191 NA
HETATM    5 BR9  UNL     1     -33.334  16.212  -4.523  1.00 20.00    -0.039 Br
ENDROOT
BRANCH   2   6
HETATM    6  C4  UNL     1     -34.505  16.642  -1.495  1.00 20.00     0.409 C 
HETATM    7  F6  UNL     1     -34.933  16.544  -0.210  1.00 20.00    -0.167 F 
HETATM    8  F7  UNL     1     -33.204  17.020  -1.443  1.00 20.00    -0.167 F 
HETATM    9  F8  UNL     1     -35.188  17.675  -2.053  1.00 20.00    -0.167 F 
ENDBRANCH   2   6
TORSDOF 1
ENDMDL
MODEL 3
REMARK VINA RESULT:      -4.3      1.751      1.947
REMARK  1 active torsions:
REMARK  status: ('A' for Active; 'I' for Inactive)
REMARK    1  A    between atoms: C2_2  and  C4_4 
ROOT
HETATM    1  C1  UNL     1     -32.766   7.038   3.543  1.00 20.00     0.107 C 
HETATM    2  C2  UNL     1     -34.037   5.169   4.454  1.00 20.00     0.118 C 
HETATM    3  C3  UNL     1     -33.418   6.350   4.601  1.00 20.00     0.095 C 
HETATM    4  N5  UNL     1     -32.231   7.605   2.682  1.00 20.00    -0.191 NA
HETATM    5 BR9  UNL     1     -33.360   7.217   6.261  1.00 20.00    -0.039 Br
ENDROOT
BRANCH   2   6
HETATM    6  C4  UNL     1     -34.751   4.357   5.484  1.00 20.00     0.409 C 
HETATM    7  F6  UNL     1     -33.881   3.858   6.400  1.00 20.00    -0.167 F 
HETATM    8  F7  UNL     1     -35.698   5.035   6.177  1.00 20.00    -0.167 F 
HETATM    9  F8  UNL     1     -35.372   3.290   4.918  1.00 20.00    -0.167 F 
ENDBRANCH   2   6
TORSDOF 1
ENDMDL
MODEL 4
REMARK VINA RESULT:      -4.2      9.639     10.177
REMARK  1 active torsions:
REMARK  status: ('A' for Active; 'I' for Inactive)
REMARK    1  A    between atoms: C2_2  and  C4_4 
ROOT
HETATM    1  C1  UNL     1     -41.650   3.170  -2.760  1.00 20.00     0.107 C 
HETATM    2  C2  UNL     1     -41.012   4.879  -1.143  1.00 20.00     0.118 C 
HETATM    3  C3  UNL     1     -41.766   4.458  -2.170  1.00 20.00     0.095 C 
HETATM    4  N5  UNL     1     -41.560   2.119  -3.245  1.00 20.00    -0.191 NA
HETATM    5 BR9  UNL     1     -43.073   5.561  -2.935  1.00 20.00    -0.039 Br
ENDROOT
BRANCH   2   6
HETATM    6  C4  UNL     1     -41.042   6.199  -0.447  1.00 20.00     0.409 C 
HETATM    7  F6  UNL     1     -40.151   6.231   0.578  1.00 20.00    -0.167 F 
HETATM    8  F7  UNL     1     -40.759   7.261  -1.241  1.00 20.00    -0.167 F 
HETATM    9  F8  UNL     1     -42.265   6.436   0.095  1.00 20.00    -0.167 F 
ENDBRANCH   2   6
TORSDOF 1
ENDMDL
MODEL 5
REMARK VINA RESULT:      -4.2      9.819     10.304
REMARK  1 active torsions:
REMARK  status: ('A' for Active; 'I' for Inactive)
REMARK    1  A    between atoms: C2_2  and  C4_4 
ROOT
HETATM    1  C1  UNL     1     -42.901   6.821  -3.488  1.00 20.00     0.107 C 
HETATM    2  C2  UNL     1     -41.581   6.362  -1.490  1.00 20.00     0.118 C 
HETATM    3  C3  UNL     1     -42.339   5.948  -2.517  1.00 20.00     0.095 C 
HETATM    4  N5  UNL     1     -43.363   7.529  -4.283  1.00 20.00    -0.191 NA
HETATM    5 BR9  UNL     1     -42.731   4.133  -2.767  1.00 20.00    -0.039 Br
ENDROOT
BRANCH   2   6
HETATM    6  C4  UNL     1     -40.942   5.545  -0.417  1.00 20.00     0.409 C 
HETATM    7  F6  UNL     1     -41.878   4.941   0.360  1.00 20.00    -0.167 F 
HETATM    8  F7  UNL     1     -40.121   4.565  -0.869  1.00 20.00    -0.167 F 
HETATM    9  F8  UNL     1     -40.197   6.325   0.409  1.00 20.00    -0.167 F 
ENDBRANCH   2   6
TORSDOF 1
ENDMDL
MODEL 6
REMARK VINA RESULT:      -4.2     12.638     13.029
REMARK  1 active torsions:
REMARK  status: ('A' for Active; 'I' for Inactive)
REMARK    1  A    between atoms: C2_2  and  C4_4 
ROOT
HETATM    1  C1  UNL     1     -37.123  14.610  -3.893  1.00 20.00     0.107 C 
HETATM    2  C2  UNL     1     -35.096  15.608  -2.977  1.00 20.00     0.118 C 
HETATM    3  C3  UNL     1     -35.758  14.998  -3.972  1.00 20.00     0.095 C 
HETATM    4  N5  UNL     1     -38.237  14.290  -3.833  1.00 20.00    -0.191 NA
HETATM    5 BR9  UNL     1     -34.916  14.598  -5.598  1.00 20.00    -0.039 Br
ENDROOT
BRANCH   2   6
HETATM    6  C4  UNL     1     -33.673  16.060  -2.945  1.00 20.00     0.409 C 
HETATM    7  F6  UNL     1     -32.826  15.019  -3.158  1.00 20.00    -0.167 F 
HETATM    8  F7  UNL     1     -33.363  17.007  -3.863  1.00 20.00    -0.167 F 
HETATM    9  F8  UNL     1     -33.354  16.577  -1.730  1.00 20.00    -0.167 F 
ENDBRANCH   2   6
TORSDOF 1
ENDMDL
MODEL 7
REMARK VINA RESULT:      -4.2      3.785      4.320
REMARK  1 active torsions:
REMARK  status: ('A' for Active; 'I' for Inactive)
REMARK    1  A    between atoms: C2_2  and  C4_4 
ROOT
HETATM    1  C1  UNL     1     -34.671   4.644   4.982  1.00 20.00     0.107 C 
HETATM    2  C2  UNL     1     -33.289   6.036   3.535  1.00 20.00     0.118 C 
HETATM    3  C3  UNL     1     -33.863   5.784   4.721  1.00 20.00     0.095 C 
HETATM    4  N5  UNL     1     -35.332   3.716   5.201  1.00 20.00    -0.191 NA
HETATM    5 BR9  UNL     1     -33.640   6.944   6.176  1.00 20.00    -0.039 Br
ENDROOT
BRANCH   2   6
HETATM    6  C4  UNL     1     -32.427   7.191   3.145  1.00 20.00     0.409 C 
HETATM    7  F6  UNL     1     -33.167   8.316   2.971  1.00 20.00    -0.167 F 
HETATM    8  F7  UNL     1     -31.459   7.498   4.042  1.00 20.00    -0.167 F 
HETATM    9  F8  UNL     1     -31.800   6.954   1.964  1.00 20.00    -0.167 F 
ENDBRANCH   2   6
TORSDOF 1
ENDMDL
MODEL 8
REMARK VINA RESULT:      -4.1     12.492     13.013
REMARK  1 active torsions:
REMARK  status: ('A' for Active; 'I' for Inactive)
REMARK    1  A    between atoms: C2_2  and  C4_4 
ROOT
HETATM    1  C1  UNL     1     -37.213  14.703  -3.826  1.00 20.00     0.107 C 
HETATM    2  C2  UNL     1     -34.783  14.528  -3.716  1.00 20.00     0.118 C 
HETATM    3  C3  UNL     1     -35.906  15.261  -3.780  1.00 20.00     0.095 C 
HETATM    4  N5  UNL     1     -38.282  14.254  -3.864  1.00 20.00    -0.191 NA
HETATM    5 BR9  UNL     1     -35.845  17.133  -3.814  1.00 20.00    -0.039 Br
ENDROOT
BRANCH   2   6
HETATM    6  C4  UNL     1     -33.367  14.998  -3.664  1.00 20.00     0.409 C 
HETATM    7  F6  UNL     1     -33.048  15.709  -4.777  1.00 20.00    -0.167 F 
HETATM    8  F7  UNL     1     -33.075  15.788  -2.602  1.00 20.00    -0.167 F 
HETATM    9  F8  UNL     1     -32.507  13.948  -3.615  1.00 20.00    -0.167 F 
ENDBRANCH   2   6
TORSDOF 1
ENDMDL
MODEL 9
REMARK VINA RESULT:      -4.1     12.269     13.067
REMARK  1 active torsions:
REMARK  status: ('A' for Active; 'I' for Inactive)
REMARK    1  A    between atoms: C2_2  and  C4_4 
ROOT
HETATM    1  C1  UNL     1     -33.601  17.434  -5.111  1.00 20.00     0.107 C 
HETATM    2  C2  UNL     1     -33.811  15.013  -4.913  1.00 20.00     0.118 C 
HETATM    3  C3  UNL     1     -33.733  16.234  -4.361  1.00 20.00     0.095 C 
HETATM    4  N5  UNL     1     -33.492  18.417  -5.718  1.00 20.00    -0.191 NA
HETATM    5 BR9  UNL     1     -33.796  16.467  -2.503  1.00 20.00    -0.039 Br
ENDROOT
BRANCH   2   6
HETATM    6  C4  UNL     1     -33.951  13.691  -4.233  1.00 20.00     0.409 C 
HETATM    7  F6  UNL     1     -32.802  13.348  -3.594  1.00 20.00    -0.167 F 
HETATM    8  F7  UNL     1     -34.941  13.636  -3.308  1.00 20.00    -0.167 F 
HETATM    9  F8  UNL     1     -34.203  12.705  -5.132  1.00 20.00    -0.167 F 
ENDBRANCH   2   6
TORSDOF 1
ENDMDL
