MODEL 1
REMARK VINA RESULT:      -4.0      0.000      0.000
REMARK  1 active torsions:
REMARK  status: ('A' for Active; 'I' for Inactive)
REMARK    1  A    between atoms: C1_1  and  C4_4 
ROOT
HETATM    1  C2  UNL     1     -34.874   5.354   6.314  1.00 20.00     0.054 A 
HETATM    2  C3  UNL     1     -34.527   4.045   5.669  1.00 20.00     0.054 A 
HETATM    3  C4  UNL     1     -34.766   5.261   4.816  1.00 20.00     0.156 A 
HETATM    4  F6  UNL     1     -35.976   5.279   4.128  1.00 20.00    -0.235 F 
ENDROOT
BRANCH   3   5
HETATM    5  C1  UNL     1     -33.643   5.899   4.125  1.00 20.00     0.274 C 
HETATM    6  O5  UNL     1     -33.481   5.849   2.910  1.00 20.00    -0.303 OA
ENDBRANCH   3   5
TORSDOF 1
ENDMDL
MODEL 2
REMARK VINA RESULT:      -3.8      1.896      2.516
REMARK  1 active torsions:
REMARK  status: ('A' for Active; 'I' for Inactive)
REMARK    1  A    between atoms: C1_1  and  C4_4 
ROOT
HETATM    1  C2  UNL     1     -34.124   5.417   3.834  1.00 20.00     0.054 A 
HETATM    2  C3  UNL     1     -35.615   5.446   3.990  1.00 20.00     0.054 A 
HETATM    3  C4  UNL     1     -34.754   4.922   5.107  1.00 20.00     0.156 A 
HETATM    4  F6  UNL     1     -34.764   3.540   5.271  1.00 20.00    -0.235 F 
ENDROOT
BRANCH   3   5
HETATM    5  C1  UNL     1     -34.610   5.699   6.341  1.00 20.00     0.274 C 
HETATM    6  O5  UNL     1     -33.796   6.605   6.478  1.00 20.00    -0.303 OA
ENDBRANCH   3   5
TORSDOF 1
ENDMDL
MODEL 3
REMARK VINA RESULT:      -3.7      1.729      2.635
REMARK  1 active torsions:
REMARK  status: ('A' for Active; 'I' for Inactive)
REMARK    1  A    between atoms: C1_1  and  C4_4 
ROOT
HETATM    1  C2  UNL     1     -33.893   5.322   2.980  1.00 20.00     0.054 A 
HETATM    2  C3  UNL     1     -33.953   6.560   3.825  1.00 20.00     0.054 A 
HETATM    3  C4  UNL     1     -34.993   5.486   3.992  1.00 20.00     0.156 A 
HETATM    4  F6  UNL     1     -36.248   5.783   3.468  1.00 20.00    -0.235 F 
ENDROOT
BRANCH   3   5
HETATM    5  C1  UNL     1     -34.999   4.660   5.203  1.00 20.00     0.274 C 
HETATM    6  O5  UNL     1     -35.043   3.435   5.184  1.00 20.00    -0.303 OA
ENDBRANCH   3   5
TORSDOF 1
ENDMDL
MODEL 4
REMARK VINA RESULT:      -3.7      2.116      2.401
REMARK  1 active torsions:
REMARK  status: ('A' for Active; 'I' for Inactive)
REMARK    1  A    between atoms: C1_1  and  C4_4 
ROOT
HETATM    1  C2  UNL     1     -35.557   5.267   4.247  1.00 20.00     0.054 A 
HETATM    2  C3  UNL     1     -34.918   4.073   4.893  1.00 20.00     0.054 A 
HETATM    3  C4  UNL     1     -34.285   5.430   5.032  1.00 20.00     0.156 A 
HETATM    4  F6  UNL     1     -33.136   5.634   4.272  1.00 20.00    -0.235 F 
ENDROOT
BRANCH   3   5
HETATM    5  C1  UNL     1     -34.310   6.117   6.326  1.00 20.00     0.274 C 
HETATM    6  O5  UNL     1     -33.518   7.001   6.638  1.00 20.00    -0.303 OA
ENDBRANCH   3   5
TORSDOF 1
ENDMDL
MODEL 5
REMARK VINA RESULT:      -3.6      1.630      1.860
REMARK  1 active torsions:
REMARK  status: ('A' for Active; 'I' for Inactive)
REMARK    1  A    between atoms: C1_1  and  C4_4 
ROOT
HETATM    1  C2  UNL     1     -34.765   4.470   4.879  1.00 20.00     0.054 A 
HETATM    2  C3  UNL     1     -35.550   5.483   4.099  1.00 20.00     0.054 A 
HETATM    3  C4  UNL     1     -34.179   5.829   4.612  1.00 20.00     0.156 A 
HETATM    4  F6  UNL     1     -34.150   6.692   5.704  1.00 20.00    -0.235 F 
ENDROOT
BRANCH   3   5
HETATM    5  C1  UNL     1     -33.064   5.971   3.672  1.00 20.00     0.274 C 
HETATM    6  O5  UNL     1     -32.246   6.883   3.726  1.00 20.00    -0.303 OA
ENDBRANCH   3   5
TORSDOF 1
ENDMDL
MODEL 6
REMARK VINA RESULT:      -3.6      2.054      2.686
REMARK  1 active torsions:
REMARK  status: ('A' for Active; 'I' for Inactive)
REMARK    1  A    between atoms: C1_1  and  C4_4 
ROOT
HETATM    1  C2  UNL     1     -34.769   6.099   3.903  1.00 20.00     0.054 A 
HETATM    2  C3  UNL     1     -33.289   5.989   4.126  1.00 20.00     0.054 A 
HETATM    3  C4  UNL     1     -34.241   5.730   5.262  1.00 20.00     0.156 A 
HETATM    4  F6  UNL     1     -34.312   6.735   6.223  1.00 20.00    -0.235 F 
ENDROOT
BRANCH   3   5
HETATM    5  C1  UNL     1     -34.418   4.366   5.768  1.00 20.00     0.274 C 
HETATM    6  O5  UNL     1     -35.162   3.543   5.245  1.00 20.00    -0.303 OA
ENDBRANCH   3   5
TORSDOF 1
ENDMDL
MODEL 7
REMARK VINA RESULT:      -3.5      1.643      1.850
REMARK  1 active torsions:
REMARK  status: ('A' for Active; 'I' for Inactive)
REMARK    1  A    between atoms: C1_1  and  C4_4 
ROOT
HETATM    1  C2  UNL     1     -35.764   5.698   3.875  1.00 20.00     0.054 A 
HETATM    2  C3  UNL     1     -35.012   4.583   4.539  1.00 20.00     0.054 A 
HETATM    3  C4  UNL     1     -34.311   5.476   3.553  1.00 20.00     0.156 A 
HETATM    4  F6  UNL     1     -34.055   4.907   2.309  1.00 20.00    -0.235 F 
ENDROOT
BRANCH   3   5
HETATM    5  C1  UNL     1     -33.306   6.434   4.023  1.00 20.00     0.274 C 
HETATM    6  O5  UNL     1     -32.207   6.571   3.497  1.00 20.00    -0.303 OA
ENDBRANCH   3   5
TORSDOF 1
ENDMDL
MODEL 8
REMARK VINA RESULT:      -3.4     12.396     12.667
REMARK  1 active torsions:
REMARK  status: ('A' for Active; 'I' for Inactive)
REMARK    1  A    between atoms: C1_1  and  C4_4 
ROOT
HETATM    1  C2  UNL     1     -34.074  15.325  -2.977  1.00 20.00     0.054 A 
HETATM    2  C3  UNL     1     -33.283  15.777  -4.168  1.00 20.00     0.054 A 
HETATM    3  C4  UNL     1     -33.497  14.309  -3.924  1.00 20.00     0.156 A 
HETATM    4  F6  UNL     1     -32.387  13.614  -3.451  1.00 20.00    -0.235 F 
ENDROOT
BRANCH   3   5
HETATM    5  C1  UNL     1     -34.386  13.545  -4.804  1.00 20.00     0.274 C 
HETATM    6  O5  UNL     1     -35.079  12.610  -4.418  1.00 20.00    -0.303 OA
ENDBRANCH   3   5
TORSDOF 1
ENDMDL
MODEL 9
REMARK VINA RESULT:      -3.4      2.324      3.027
REMARK  1 active torsions:
REMARK  status: ('A' for Active; 'I' for Inactive)
REMARK    1  A    between atoms: C1_1  and  C4_4 
ROOT
HETATM    1  C2  UNL     1     -32.903   7.195   2.941  1.00 20.00     0.054 A 
HETATM    2  C3  UNL     1     -32.184   5.914   3.248  1.00 20.00     0.054 A 
HETATM    3  C4  UNL     1     -33.494   6.220   3.922  1.00 20.00     0.156 A 
HETATM    4  F6  UNL     1     -33.404   6.593   5.261  1.00 20.00    -0.235 F 
ENDROOT
BRANCH   3   5
HETATM    5  C1  UNL     1     -34.694   5.461   3.563  1.00 20.00     0.274 C 
HETATM    6  O5  UNL     1     -35.500   5.041   4.386  1.00 20.00    -0.303 OA
ENDBRANCH   3   5
TORSDOF 1
ENDMDL
