MODEL 1
REMARK VINA RESULT:      -4.3      0.000      0.000
REMARK  1 active torsions:
REMARK  status: ('A' for Active; 'I' for Inactive)
REMARK    1  A    between atoms: C3_3  and  C6_6 
ROOT
HETATM    1  C1  UNL     1     -34.689  16.265  -1.602  1.00 20.00     0.013 C 
HETATM    2  C2  UNL     1     -34.447  15.621  -2.586  1.00 20.00    -0.099 C 
HETATM    3  C4  UNL     1     -32.824  14.073  -3.567  1.00 20.00     0.038 C 
HETATM    4  C5  UNL     1     -33.998  15.795  -4.986  1.00 20.00     0.038 C 
HETATM    5  C6  UNL     1     -34.141  14.826  -3.803  1.00 20.00     0.091 C 
ENDROOT
BRANCH   5   6
HETATM    6  C3  UNL     1     -35.292  13.828  -4.063  1.00 20.00     0.238 C 
HETATM    7  O7  UNL     1     -35.084  12.650  -4.350  1.00 20.00    -0.278 OA
HETATM    8 CL8  UNL     1     -36.890  14.522  -3.912  1.00 20.00    -0.042 Cl
ENDBRANCH   5   6
TORSDOF 1
ENDMDL
MODEL 2
REMARK VINA RESULT:      -4.2      1.718      2.239
REMARK  1 active torsions:
REMARK  status: ('A' for Active; 'I' for Inactive)
REMARK    1  A    between atoms: C3_3  and  C6_6 
ROOT
HETATM    1  C1  UNL     1     -34.489  16.274  -1.587  1.00 20.00     0.013 C 
HETATM    2  C2  UNL     1     -34.845  15.714  -2.589  1.00 20.00    -0.099 C 
HETATM    3  C4  UNL     1     -34.981  15.945  -5.022  1.00 20.00     0.038 C 
HETATM    4  C5  UNL     1     -36.800  14.776  -3.725  1.00 20.00     0.038 C 
HETATM    5  C6  UNL     1     -35.289  15.028  -3.829  1.00 20.00     0.091 C 
ENDROOT
BRANCH   5   6
HETATM    6  C3  UNL     1     -34.530  13.689  -3.970  1.00 20.00     0.238 C 
HETATM    7  O7  UNL     1     -35.090  12.653  -4.324  1.00 20.00    -0.278 OA
HETATM    8 CL8  UNL     1     -32.826  13.787  -3.585  1.00 20.00    -0.042 Cl
ENDBRANCH   5   6
TORSDOF 1
ENDMDL
MODEL 3
REMARK VINA RESULT:      -4.0      0.426      2.184
REMARK  1 active torsions:
REMARK  status: ('A' for Active; 'I' for Inactive)
REMARK    1  A    between atoms: C3_3  and  C6_6 
ROOT
HETATM    1  C1  UNL     1     -33.881  16.431  -5.930  1.00 20.00     0.013 C 
HETATM    2  C2  UNL     1     -34.029  15.699  -4.989  1.00 20.00    -0.099 C 
HETATM    3  C4  UNL     1     -34.572  15.658  -2.602  1.00 20.00     0.038 C 
HETATM    4  C5  UNL     1     -32.885  14.058  -3.579  1.00 20.00     0.038 C 
HETATM    5  C6  UNL     1     -34.209  14.798  -3.822  1.00 20.00     0.091 C 
ENDROOT
BRANCH   5   6
HETATM    6  C3  UNL     1     -35.339  13.790  -4.125  1.00 20.00     0.238 C 
HETATM    7  O7  UNL     1     -35.110  12.623  -4.435  1.00 20.00    -0.278 OA
HETATM    8 CL8  UNL     1     -36.950  14.458  -3.986  1.00 20.00    -0.042 Cl
ENDBRANCH   5   6
TORSDOF 1
ENDMDL
MODEL 4
REMARK VINA RESULT:      -4.0      2.126      2.683
REMARK  1 active torsions:
REMARK  status: ('A' for Active; 'I' for Inactive)
REMARK    1  A    between atoms: C3_3  and  C6_6 
ROOT
HETATM    1  C1  UNL     1     -34.506  16.280  -1.678  1.00 20.00     0.013 C 
HETATM    2  C2  UNL     1     -34.386  15.625  -2.678  1.00 20.00    -0.099 C 
HETATM    3  C4  UNL     1     -35.615  14.219  -4.262  1.00 20.00     0.038 C 
HETATM    4  C5  UNL     1     -33.232  13.686  -3.629  1.00 20.00     0.038 C 
HETATM    5  C6  UNL     1     -34.241  14.810  -3.911  1.00 20.00     0.091 C 
ENDROOT
BRANCH   5   6
HETATM    6  C3  UNL     1     -33.734  15.710  -5.060  1.00 20.00     0.238 C 
HETATM    7  O7  UNL     1     -32.985  16.664  -4.863  1.00 20.00    -0.278 OA
HETATM    8 CL8  UNL     1     -34.319  15.247  -6.643  1.00 20.00    -0.042 Cl
ENDBRANCH   5   6
TORSDOF 1
ENDMDL
MODEL 5
REMARK VINA RESULT:      -3.9      2.239      3.329
REMARK  1 active torsions:
REMARK  status: ('A' for Active; 'I' for Inactive)
REMARK    1  A    between atoms: C3_3  and  C6_6 
ROOT
HETATM    1  C1  UNL     1     -34.791  14.790  -7.660  1.00 20.00     0.013 C 
HETATM    2  C2  UNL     1     -34.689  14.903  -6.468  1.00 20.00    -0.099 C 
HETATM    3  C4  UNL     1     -35.902  15.581  -4.452  1.00 20.00     0.038 C 
HETATM    4  C5  UNL     1     -33.436  16.046  -4.703  1.00 20.00     0.038 C 
HETATM    5  C6  UNL     1     -34.567  15.049  -4.995  1.00 20.00     0.091 C 
ENDROOT
BRANCH   5   6
HETATM    6  C3  UNL     1     -34.244  13.673  -4.371  1.00 20.00     0.238 C 
HETATM    7  O7  UNL     1     -34.994  12.706  -4.494  1.00 20.00    -0.278 OA
HETATM    8 CL8  UNL     1     -32.735  13.623  -3.487  1.00 20.00    -0.042 Cl
ENDBRANCH   5   6
TORSDOF 1
ENDMDL
MODEL 6
REMARK VINA RESULT:      -3.8     12.271     12.805
REMARK  1 active torsions:
REMARK  status: ('A' for Active; 'I' for Inactive)
REMARK    1  A    between atoms: C3_3  and  C6_6 
ROOT
HETATM    1  C1  UNL     1     -32.457   6.253   3.347  1.00 20.00     0.013 C 
HETATM    2  C2  UNL     1     -33.431   5.810   3.893  1.00 20.00    -0.099 C 
HETATM    3  C4  UNL     1     -34.592   3.727   4.448  1.00 20.00     0.038 C 
HETATM    4  C5  UNL     1     -35.879   5.812   3.848  1.00 20.00     0.038 C 
HETATM    5  C6  UNL     1     -34.637   5.258   4.562  1.00 20.00     0.091 C 
ENDROOT
BRANCH   5   6
HETATM    6  C3  UNL     1     -34.637   5.686   6.047  1.00 20.00     0.238 C 
HETATM    7  O7  UNL     1     -35.321   5.115   6.893  1.00 20.00    -0.278 OA
HETATM    8 CL8  UNL     1     -33.587   7.041   6.402  1.00 20.00    -0.042 Cl
ENDBRANCH   5   6
TORSDOF 1
ENDMDL
MODEL 7
REMARK VINA RESULT:      -3.8      1.509      1.509
REMARK  1 active torsions:
REMARK  status: ('A' for Active; 'I' for Inactive)
REMARK    1  A    between atoms: C3_3  and  C6_6 
ROOT
HETATM    1  C1  UNL     1     -34.570  16.533  -1.083  1.00 20.00     0.013 C 
HETATM    2  C2  UNL     1     -34.445  16.115  -2.203  1.00 20.00    -0.099 C 
HETATM    3  C4  UNL     1     -32.878  14.996  -3.715  1.00 20.00     0.038 C 
HETATM    4  C5  UNL     1     -34.449  16.780  -4.559  1.00 20.00     0.038 C 
HETATM    5  C6  UNL     1     -34.284  15.602  -3.587  1.00 20.00     0.091 C 
ENDROOT
BRANCH   5   6
HETATM    6  C3  UNL     1     -35.359  14.527  -3.860  1.00 20.00     0.238 C 
HETATM    7  O7  UNL     1     -36.533  14.673  -3.524  1.00 20.00    -0.278 OA
HETATM    8 CL8  UNL     1     -34.757  13.103  -4.680  1.00 20.00    -0.042 Cl
ENDBRANCH   5   6
TORSDOF 1
ENDMDL
MODEL 8
REMARK VINA RESULT:      -3.8     11.768     12.262
REMARK  1 active torsions:
REMARK  status: ('A' for Active; 'I' for Inactive)
REMARK    1  A    between atoms: C3_3  and  C6_6 
ROOT
HETATM    1  C1  UNL     1     -33.876   6.818   6.446  1.00 20.00     0.013 C 
HETATM    2  C2  UNL     1     -34.222   6.164   5.500  1.00 20.00    -0.099 C 
HETATM    3  C4  UNL     1     -36.055   5.834   3.910  1.00 20.00     0.038 C 
HETATM    4  C5  UNL     1     -34.705   3.881   4.761  1.00 20.00     0.038 C 
HETATM    5  C6  UNL     1     -34.658   5.356   4.333  1.00 20.00     0.091 C 
ENDROOT
BRANCH   5   6
HETATM    6  C3  UNL     1     -33.652   5.547   3.176  1.00 20.00     0.238 C 
HETATM    7  O7  UNL     1     -33.816   5.029   2.073  1.00 20.00    -0.278 OA
HETATM    8 CL8  UNL     1     -32.279   6.554   3.580  1.00 20.00    -0.042 Cl
ENDBRANCH   5   6
TORSDOF 1
ENDMDL
MODEL 9
REMARK VINA RESULT:      -3.7      2.507      3.451
REMARK  1 active torsions:
REMARK  status: ('A' for Active; 'I' for Inactive)
REMARK    1  A    between atoms: C3_3  and  C6_6 
ROOT
HETATM    1  C1  UNL     1     -34.638  14.790  -7.076  1.00 20.00     0.013 C 
HETATM    2  C2  UNL     1     -34.528  14.772  -5.880  1.00 20.00    -0.099 C 
HETATM    3  C4  UNL     1     -33.672  13.445  -4.009  1.00 20.00     0.038 C 
HETATM    4  C5  UNL     1     -35.804  14.776  -3.790  1.00 20.00     0.038 C 
HETATM    5  C6  UNL     1     -34.394  14.743  -4.401  1.00 20.00     0.091 C 
ENDROOT
BRANCH   5   6
HETATM    6  C3  UNL     1     -33.580  15.971  -3.939  1.00 20.00     0.238 C 
HETATM    7  O7  UNL     1     -32.853  16.601  -4.704  1.00 20.00    -0.278 OA
HETATM    8 CL8  UNL     1     -33.789  16.374  -2.249  1.00 20.00    -0.042 Cl
ENDBRANCH   5   6
TORSDOF 1
ENDMDL
