MODEL 1
REMARK VINA RESULT:      -4.7      0.000      0.000
REMARK  0 active torsions:
REMARK  status: ('A' for Active; 'I' for Inactive)
ROOT
HETATM    1  C1  UNL     1     -34.870  13.584  -5.739  1.00 20.00     0.083 C 
HETATM    2  C2  UNL     1     -35.209  17.181  -2.790  1.00 20.00    -0.003 A 
HETATM    3  C3  UNL     1     -33.824  16.953  -2.654  1.00 20.00    -0.011 A 
HETATM    4  C4  UNL     1     -34.612  15.912  -2.270  1.00 20.00    -0.006 A 
HETATM    5  C5  UNL     1     -35.172  17.139  -4.162  1.00 20.00    -0.016 C 
HETATM    6  C6  UNL     1     -34.762  15.081  -5.798  1.00 20.00     0.052 C 
HETATM    7  C7  UNL     1     -33.683  17.641  -4.021  1.00 20.00     0.023 C 
HETATM    8  C8  UNL     1     -34.290  13.693  -3.487  1.00 20.00     0.153 C 
HETATM    9  C9  UNL     1     -35.231  14.881  -3.270  1.00 20.00     0.022 C 
HETATM   10  C10 UNL     1     -35.547  15.634  -4.632  1.00 20.00     0.007 C 
HETATM   11  N11 UNL     1     -34.676  12.898  -4.663  1.00 20.00    -0.305 NA
ENDROOT
TORSDOF 0
ENDMDL
MODEL 2
REMARK VINA RESULT:      -4.7      2.157      3.450
REMARK  0 active torsions:
REMARK  status: ('A' for Active; 'I' for Inactive)
ROOT
HETATM    1  C1  UNL     1     -34.418  17.527  -6.803  1.00 20.00     0.083 C 
HETATM    2  C2  UNL     1     -33.756  13.790  -4.091  1.00 20.00    -0.003 A 
HETATM    3  C3  UNL     1     -34.634  14.492  -3.238  1.00 20.00    -0.011 A 
HETATM    4  C4  UNL     1     -33.463  15.134  -3.503  1.00 20.00    -0.006 A 
HETATM    5  C5  UNL     1     -34.546  13.973  -5.200  1.00 20.00    -0.016 C 
HETATM    6  C6  UNL     1     -35.056  16.184  -6.589  1.00 20.00     0.052 C 
HETATM    7  C7  UNL     1     -35.753  14.035  -4.186  1.00 20.00     0.023 C 
HETATM    8  C8  UNL     1     -33.615  17.423  -4.620  1.00 20.00     0.153 C 
HETATM    9  C9  UNL     1     -33.206  15.960  -4.806  1.00 20.00     0.022 C 
HETATM   10  C10 UNL     1     -34.004  15.276  -5.997  1.00 20.00     0.007 C 
HETATM   11  N11 UNL     1     -33.714  18.131  -5.906  1.00 20.00    -0.305 NA
ENDROOT
TORSDOF 0
ENDMDL
MODEL 3
REMARK VINA RESULT:      -4.7      1.922      3.549
REMARK  0 active torsions:
REMARK  status: ('A' for Active; 'I' for Inactive)
ROOT
HETATM    1  C1  UNL     1     -33.779  18.093  -3.646  1.00 20.00     0.083 C 
HETATM    2  C2  UNL     1     -34.258  13.627  -4.904  1.00 20.00    -0.003 A 
HETATM    3  C3  UNL     1     -35.512  13.784  -4.277  1.00 20.00    -0.011 A 
HETATM    4  C4  UNL     1     -34.439  13.963  -3.458  1.00 20.00    -0.006 A 
HETATM    5  C5  UNL     1     -34.376  14.787  -5.630  1.00 20.00    -0.016 C 
HETATM    6  C6  UNL     1     -34.305  17.322  -4.822  1.00 20.00     0.052 C 
HETATM    7  C7  UNL     1     -35.933  14.545  -5.544  1.00 20.00     0.023 C 
HETATM    8  C8  UNL     1     -34.210  16.232  -2.314  1.00 20.00     0.153 C 
HETATM    9  C9  UNL     1     -33.627  15.297  -3.377  1.00 20.00     0.022 C 
HETATM   10  C10 UNL     1     -33.628  15.971  -4.815  1.00 20.00     0.007 C 
HETATM   11  N11 UNL     1     -33.699  17.605  -2.453  1.00 20.00    -0.305 NA
ENDROOT
TORSDOF 0
ENDMDL
MODEL 4
REMARK VINA RESULT:      -4.7      1.835      2.925
REMARK  0 active torsions:
REMARK  status: ('A' for Active; 'I' for Inactive)
ROOT
HETATM    1  C1  UNL     1     -34.754  16.614  -7.331  1.00 20.00     0.083 C 
HETATM    2  C2  UNL     1     -34.613  14.375  -3.242  1.00 20.00    -0.003 A 
HETATM    3  C3  UNL     1     -33.603  13.639  -3.897  1.00 20.00    -0.011 A 
HETATM    4  C4  UNL     1     -34.834  13.556  -4.473  1.00 20.00    -0.006 A 
HETATM    5  C5  UNL     1     -34.099  15.590  -3.624  1.00 20.00    -0.016 C 
HETATM    6  C6  UNL     1     -34.019  16.731  -6.026  1.00 20.00     0.052 C 
HETATM    7  C7  UNL     1     -32.701  14.859  -3.652  1.00 20.00     0.023 C 
HETATM    8  C8  UNL     1     -35.046  14.346  -6.890  1.00 20.00     0.153 C 
HETATM    9  C9  UNL     1     -35.414  14.645  -5.434  1.00 20.00     0.022 C 
HETATM   10  C10 UNL     1     -34.867  16.062  -4.971  1.00 20.00     0.007 C 
HETATM   11  N11 UNL     1     -35.270  15.511  -7.760  1.00 20.00    -0.305 NA
ENDROOT
TORSDOF 0
ENDMDL
MODEL 5
REMARK VINA RESULT:      -4.7      0.974      2.164
REMARK  0 active torsions:
REMARK  status: ('A' for Active; 'I' for Inactive)
ROOT
HETATM    1  C1  UNL     1     -34.455  13.273  -4.881  1.00 20.00     0.083 C 
HETATM    2  C2  UNL     1     -33.932  17.479  -2.934  1.00 20.00    -0.003 A 
HETATM    3  C3  UNL     1     -35.294  17.292  -2.620  1.00 20.00    -0.011 A 
HETATM    4  C4  UNL     1     -35.015  17.317  -3.952  1.00 20.00    -0.006 A 
HETATM    5  C5  UNL     1     -33.567  16.230  -2.495  1.00 20.00    -0.016 C 
HETATM    6  C6  UNL     1     -34.078  13.837  -3.541  1.00 20.00     0.052 C 
HETATM    7  C7  UNL     1     -34.802  16.340  -1.519  1.00 20.00     0.023 C 
HETATM    8  C8  UNL     1     -35.620  15.243  -5.310  1.00 20.00     0.153 C 
HETATM    9  C9  UNL     1     -34.472  16.083  -4.745  1.00 20.00     0.022 C 
HETATM   10  C10 UNL     1     -33.548  15.232  -3.772  1.00 20.00     0.007 C 
HETATM   11  N11 UNL     1     -35.163  13.915  -5.749  1.00 20.00    -0.305 NA
ENDROOT
TORSDOF 0
ENDMDL
MODEL 6
REMARK VINA RESULT:      -4.6      1.909      3.638
REMARK  0 active torsions:
REMARK  status: ('A' for Active; 'I' for Inactive)
ROOT
HETATM    1  C1  UNL     1     -33.660  17.865  -5.528  1.00 20.00     0.083 C 
HETATM    2  C2  UNL     1     -35.379  13.776  -4.088  1.00 20.00    -0.003 A 
HETATM    3  C3  UNL     1     -34.312  13.272  -4.861  1.00 20.00    -0.011 A 
HETATM    4  C4  UNL     1     -35.235  13.987  -5.561  1.00 20.00    -0.006 A 
HETATM    5  C5  UNL     1     -34.594  14.702  -3.445  1.00 20.00    -0.016 C 
HETATM    6  C6  UNL     1     -33.459  16.920  -4.378  1.00 20.00     0.052 C 
HETATM    7  C7  UNL     1     -33.405  13.694  -3.694  1.00 20.00     0.023 C 
HETATM    8  C8  UNL     1     -34.412  16.063  -6.796  1.00 20.00     0.153 C 
HETATM    9  C9  UNL     1     -35.253  15.549  -5.624  1.00 20.00     0.022 C 
HETATM   10  C10 UNL     1     -34.726  16.111  -4.235  1.00 20.00     0.007 C 
HETATM   11  N11 UNL     1     -34.127  17.501  -6.675  1.00 20.00    -0.305 NA
ENDROOT
TORSDOF 0
ENDMDL
MODEL 7
REMARK VINA RESULT:      -4.6     11.668     13.488
REMARK  0 active torsions:
REMARK  status: ('A' for Active; 'I' for Inactive)
ROOT
HETATM    1  C1  UNL     1     -32.251   7.152   3.306  1.00 20.00     0.083 C 
HETATM    2  C2  UNL     1     -35.420   4.983   5.954  1.00 20.00    -0.003 A 
HETATM    3  C3  UNL     1     -34.661   3.848   5.597  1.00 20.00    -0.011 A 
HETATM    4  C4  UNL     1     -35.240   4.498   4.551  1.00 20.00    -0.006 A 
HETATM    5  C5  UNL     1     -34.315   5.725   6.293  1.00 20.00    -0.016 C 
HETATM    6  C6  UNL     1     -32.415   6.764   4.748  1.00 20.00     0.052 C 
HETATM    7  C7  UNL     1     -33.632   4.342   6.626  1.00 20.00     0.023 C 
HETATM    8  C8  UNL     1     -33.690   5.411   2.741  1.00 20.00     0.153 C 
HETATM    9  C9  UNL     1     -34.637   5.779   3.887  1.00 20.00     0.022 C 
HETATM   10  C10 UNL     1     -33.895   6.622   5.010  1.00 20.00     0.007 C 
HETATM   11  N11 UNL     1     -32.853   6.551   2.335  1.00 20.00    -0.305 NA
ENDROOT
TORSDOF 0
ENDMDL
MODEL 8
REMARK VINA RESULT:      -4.5      1.677      2.469
REMARK  0 active torsions:
REMARK  status: ('A' for Active; 'I' for Inactive)
ROOT
HETATM    1  C1  UNL     1     -37.728  15.397  -3.431  1.00 20.00     0.083 C 
HETATM    2  C2  UNL     1     -33.091  15.810  -3.147  1.00 20.00    -0.003 A 
HETATM    3  C3  UNL     1     -33.202  15.868  -4.552  1.00 20.00    -0.011 A 
HETATM    4  C4  UNL     1     -33.638  14.705  -3.994  1.00 20.00    -0.006 A 
HETATM    5  C5  UNL     1     -34.093  16.726  -2.941  1.00 20.00    -0.016 C 
HETATM    6  C6  UNL     1     -36.717  16.503  -3.323  1.00 20.00     0.052 C 
HETATM    7  C7  UNL     1     -33.689  17.311  -4.350  1.00 20.00     0.023 C 
HETATM    8  C8  UNL     1     -36.077  14.065  -4.388  1.00 20.00     0.153 C 
HETATM    9  C9  UNL     1     -35.053  14.533  -3.350  1.00 20.00     0.022 C 
HETATM   10  C10 UNL     1     -35.475  15.916  -2.694  1.00 20.00     0.007 C 
HETATM   11  N11 UNL     1     -37.457  14.229  -3.907  1.00 20.00    -0.305 NA
ENDROOT
TORSDOF 0
ENDMDL
MODEL 9
REMARK VINA RESULT:      -4.5      1.215      2.661
REMARK  0 active torsions:
REMARK  status: ('A' for Active; 'I' for Inactive)
ROOT
HETATM    1  C1  UNL     1     -34.332  13.416  -3.600  1.00 20.00     0.083 C 
HETATM    2  C2  UNL     1     -33.834  17.424  -5.935  1.00 20.00    -0.003 A 
HETATM    3  C3  UNL     1     -35.243  17.368  -5.950  1.00 20.00    -0.011 A 
HETATM    4  C4  UNL     1     -34.625  16.335  -6.587  1.00 20.00    -0.006 A 
HETATM    5  C5  UNL     1     -33.749  17.144  -4.592  1.00 20.00    -0.016 C 
HETATM    6  C6  UNL     1     -34.252  14.882  -3.284  1.00 20.00     0.052 C 
HETATM    7  C7  UNL     1     -35.173  17.814  -4.482  1.00 20.00     0.023 C 
HETATM    8  C8  UNL     1     -35.101  13.981  -5.724  1.00 20.00     0.153 C 
HETATM    9  C9  UNL     1     -34.047  15.085  -5.846  1.00 20.00     0.022 C 
HETATM   10  C10 UNL     1     -33.517  15.549  -4.423  1.00 20.00     0.007 C 
HETATM   11  N11 UNL     1     -34.707  12.955  -4.747  1.00 20.00    -0.305 NA
ENDROOT
TORSDOF 0
ENDMDL
