MODEL 1
REMARK VINA RESULT:      -3.9      0.000      0.000
REMARK  0 active torsions:
REMARK  status: ('A' for Active; 'I' for Inactive)
ROOT
HETATM    1  C1  UNL     1     -34.677  13.641  -4.127  1.00 20.00     0.128 A 
HETATM    2  C2  UNL     1     -35.351  15.032  -4.082  1.00 20.00     0.089 A 
HETATM    3  C3  UNL     1     -33.302  14.220  -3.723  1.00 20.00     0.089 A 
HETATM    4  C4  UNL     1     -33.394  16.692  -4.516  1.00 20.00     0.085 C 
HETATM    5  C5  UNL     1     -33.919  16.330  -2.338  1.00 20.00     0.085 C 
HETATM    6  C6  UNL     1     -33.985  15.579  -3.662  1.00 20.00    -0.011 A 
HETATM    7  O7  UNL     1     -35.075  12.523  -4.380  1.00 20.00    -0.298 OA
HETATM    8  S8  UNL     1     -33.955  17.909  -3.266  1.00 20.00    -0.167 SA
ENDROOT
TORSDOF 0
ENDMDL
MODEL 2
REMARK VINA RESULT:      -3.6      1.530      1.799
REMARK  0 active torsions:
REMARK  status: ('A' for Active; 'I' for Inactive)
ROOT
HETATM    1  C1  UNL     1     -34.822  13.667  -4.628  1.00 20.00     0.128 A 
HETATM    2  C2  UNL     1     -34.623  14.557  -5.876  1.00 20.00     0.089 A 
HETATM    3  C3  UNL     1     -34.638  14.862  -3.665  1.00 20.00     0.089 A 
HETATM    4  C4  UNL     1     -33.188  16.547  -5.009  1.00 20.00     0.085 C 
HETATM    5  C5  UNL     1     -35.429  16.898  -5.073  1.00 20.00     0.085 C 
HETATM    6  C6  UNL     1     -34.467  15.728  -4.905  1.00 20.00    -0.011 A 
HETATM    7  O7  UNL     1     -35.039  12.484  -4.465  1.00 20.00    -0.298 OA
HETATM    8  S8  UNL     1     -34.111  17.817  -5.953  1.00 20.00    -0.167 SA
ENDROOT
TORSDOF 0
ENDMDL
MODEL 3
REMARK VINA RESULT:      -3.6      2.277      2.765
REMARK  0 active torsions:
REMARK  status: ('A' for Active; 'I' for Inactive)
ROOT
HETATM    1  C1  UNL     1     -33.807  13.634  -3.941  1.00 20.00     0.128 A 
HETATM    2  C2  UNL     1     -34.851  13.557  -5.078  1.00 20.00     0.089 A 
HETATM    3  C3  UNL     1     -34.505  14.851  -3.292  1.00 20.00     0.089 A 
HETATM    4  C4  UNL     1     -35.763  15.988  -5.261  1.00 20.00     0.085 C 
HETATM    5  C5  UNL     1     -36.991  14.564  -3.991  1.00 20.00     0.085 C 
HETATM    6  C6  UNL     1     -35.537  14.748  -4.407  1.00 20.00    -0.011 A 
HETATM    7  O7  UNL     1     -32.819  12.987  -3.662  1.00 20.00    -0.298 OA
HETATM    8  S8  UNL     1     -37.506  15.474  -5.496  1.00 20.00    -0.167 SA
ENDROOT
TORSDOF 0
ENDMDL
MODEL 4
REMARK VINA RESULT:      -3.6      2.012      2.746
REMARK  0 active torsions:
REMARK  status: ('A' for Active; 'I' for Inactive)
ROOT
HETATM    1  C1  UNL     1     -33.807  13.623  -3.918  1.00 20.00     0.128 A 
HETATM    2  C2  UNL     1     -34.504  14.838  -3.265  1.00 20.00     0.089 A 
HETATM    3  C3  UNL     1     -34.877  13.522  -5.029  1.00 20.00     0.089 A 
HETATM    4  C4  UNL     1     -36.997  14.588  -3.971  1.00 20.00     0.085 C 
HETATM    5  C5  UNL     1     -35.736  15.963  -5.264  1.00 20.00     0.085 C 
HETATM    6  C6  UNL     1     -35.539  14.733  -4.387  1.00 20.00    -0.011 A 
HETATM    7  O7  UNL     1     -32.804  12.991  -3.660  1.00 20.00    -0.298 OA
HETATM    8  S8  UNL     1     -37.237  16.375  -4.298  1.00 20.00    -0.167 SA
ENDROOT
TORSDOF 0
ENDMDL
MODEL 5
REMARK VINA RESULT:      -3.5     11.639     12.370
REMARK  0 active torsions:
REMARK  status: ('A' for Active; 'I' for Inactive)
ROOT
HETATM    1  C1  UNL     1     -32.671   7.128   2.963  1.00 20.00     0.128 A 
HETATM    2  C2  UNL     1     -32.600   5.750   3.661  1.00 20.00     0.089 A 
HETATM    3  C3  UNL     1     -34.052   7.444   3.581  1.00 20.00     0.089 A 
HETATM    4  C4  UNL     1     -35.093   5.109   4.042  1.00 20.00     0.085 C 
HETATM    5  C5  UNL     1     -34.045   6.090   5.799  1.00 20.00     0.085 C 
HETATM    6  C6  UNL     1     -33.956   6.094   4.278  1.00 20.00    -0.011 A 
HETATM    7  O7  UNL     1     -31.927   7.732   2.218  1.00 20.00    -0.298 OA
HETATM    8  S8  UNL     1     -34.815   4.430   5.721  1.00 20.00    -0.167 SA
ENDROOT
TORSDOF 0
ENDMDL
MODEL 6
REMARK VINA RESULT:      -3.4      2.658      3.199
REMARK  0 active torsions:
REMARK  status: ('A' for Active; 'I' for Inactive)
ROOT
HETATM    1  C1  UNL     1     -34.621  15.830  -2.221  1.00 20.00     0.128 A 
HETATM    2  C2  UNL     1     -35.670  15.351  -3.250  1.00 20.00     0.089 A 
HETATM    3  C3  UNL     1     -33.447  15.546  -3.186  1.00 20.00     0.089 A 
HETATM    4  C4  UNL     1     -34.354  13.693  -4.764  1.00 20.00     0.085 C 
HETATM    5  C5  UNL     1     -34.519  15.820  -5.537  1.00 20.00     0.085 C 
HETATM    6  C6  UNL     1     -34.495  15.098  -4.195  1.00 20.00    -0.011 A 
HETATM    7  O7  UNL     1     -34.691  16.265  -1.090  1.00 20.00    -0.298 OA
HETATM    8  S8  UNL     1     -35.120  14.278  -6.323  1.00 20.00    -0.167 SA
ENDROOT
TORSDOF 0
ENDMDL
MODEL 7
REMARK VINA RESULT:      -3.4      1.912      2.297
REMARK  0 active torsions:
REMARK  status: ('A' for Active; 'I' for Inactive)
ROOT
HETATM    1  C1  UNL     1     -37.073  14.557  -4.023  1.00 20.00     0.128 A 
HETATM    2  C2  UNL     1     -36.478  15.934  -4.395  1.00 20.00     0.089 A 
HETATM    3  C3  UNL     1     -35.709  13.848  -4.188  1.00 20.00     0.089 A 
HETATM    4  C4  UNL     1     -34.410  15.350  -5.863  1.00 20.00     0.085 C 
HETATM    5  C5  UNL     1     -33.988  15.723  -3.665  1.00 20.00     0.085 C 
HETATM    6  C6  UNL     1     -35.134  15.215  -4.531  1.00 20.00    -0.011 A 
HETATM    7  O7  UNL     1     -38.184  14.177  -3.717  1.00 20.00    -0.298 OA
HETATM    8  S8  UNL     1     -33.333  16.630  -5.116  1.00 20.00    -0.167 SA
ENDROOT
TORSDOF 0
ENDMDL
MODEL 8
REMARK VINA RESULT:      -3.4      2.883      3.650
REMARK  0 active torsions:
REMARK  status: ('A' for Active; 'I' for Inactive)
ROOT
HETATM    1  C1  UNL     1     -33.912  17.183  -2.871  1.00 20.00     0.128 A 
HETATM    2  C2  UNL     1     -33.928  16.457  -4.236  1.00 20.00     0.089 A 
HETATM    3  C3  UNL     1     -34.457  15.941  -2.129  1.00 20.00     0.089 A 
HETATM    4  C4  UNL     1     -35.758  14.628  -3.955  1.00 20.00     0.085 C 
HETATM    5  C5  UNL     1     -33.623  13.956  -3.583  1.00 20.00     0.085 C 
HETATM    6  C6  UNL     1     -34.445  15.234  -3.477  1.00 20.00    -0.011 A 
HETATM    7  O7  UNL     1     -33.593  18.299  -2.517  1.00 20.00    -0.298 OA
HETATM    8  S8  UNL     1     -34.807  13.332  -4.834  1.00 20.00    -0.167 SA
ENDROOT
TORSDOF 0
ENDMDL
MODEL 9
REMARK VINA RESULT:      -3.3     11.745     12.423
REMARK  0 active torsions:
REMARK  status: ('A' for Active; 'I' for Inactive)
ROOT
HETATM    1  C1  UNL     1     -34.757   5.155   5.411  1.00 20.00     0.128 A 
HETATM    2  C2  UNL     1     -33.645   6.228   5.434  1.00 20.00     0.089 A 
HETATM    3  C3  UNL     1     -34.788   5.123   3.866  1.00 20.00     0.089 A 
HETATM    4  C4  UNL     1     -33.923   7.469   3.163  1.00 20.00     0.085 C 
HETATM    5  C5  UNL     1     -32.372   5.813   3.201  1.00 20.00     0.085 C 
HETATM    6  C6  UNL     1     -33.677   6.163   3.906  1.00 20.00    -0.011 A 
HETATM    7  O7  UNL     1     -35.371   4.563   6.275  1.00 20.00    -0.298 OA
HETATM    8  S8  UNL     1     -32.123   7.592   2.841  1.00 20.00    -0.167 SA
ENDROOT
TORSDOF 0
ENDMDL
