MODEL 1
REMARK VINA RESULT:      -5.2      0.000      0.000
REMARK  1 active torsions:
REMARK  status: ('A' for Active; 'I' for Inactive)
REMARK    1  A    between atoms: C7_7  and  O10_10 
ROOT
HETATM    1  C1  UNL     1     -31.953   6.716   2.984  1.00 20.00     0.013 C 
HETATM    2  C2  UNL     1     -32.938   6.429   3.606  1.00 20.00    -0.102 C 
HETATM    3  C3  UNL     1     -34.156   6.047   5.840  1.00 20.00    -0.040 C 
HETATM    4  C4  UNL     1     -33.962   7.077   6.674  1.00 20.00     0.019 C 
HETATM    5  C5  UNL     1     -35.349   4.081   5.118  1.00 20.00     0.043 C 
HETATM    6  C6  UNL     1     -35.448   6.228   3.634  1.00 20.00     0.034 A 
HETATM    7  C7  UNL     1     -34.557   4.665   6.302  1.00 20.00     0.148 C 
HETATM    8  C8  UNL     1     -34.897   4.858   3.910  1.00 20.00     0.015 A 
HETATM    9  C9  UNL     1     -34.122   6.087   4.353  1.00 20.00     0.052 A 
ENDROOT
BRANCH   7  10
HETATM   10  O10 UNL     1     -33.376   3.899   6.513  1.00 20.00    -0.391 OA
HETATM   11  H20 UNL     1     -33.532   3.031   6.108  1.00 20.00     0.210 HD
ENDBRANCH   7  10
TORSDOF 1
ENDMDL
MODEL 2
REMARK VINA RESULT:      -5.1     12.057     13.107
REMARK  1 active torsions:
REMARK  status: ('A' for Active; 'I' for Inactive)
REMARK    1  A    between atoms: C7_7  and  O10_10 
ROOT
HETATM    1  C1  UNL     1     -34.602  16.628  -0.821  1.00 20.00     0.013 C 
HETATM    2  C2  UNL     1     -34.584  16.133  -1.914  1.00 20.00    -0.102 C 
HETATM    3  C3  UNL     1     -35.650  15.737  -4.222  1.00 20.00    -0.040 C 
HETATM    4  C4  UNL     1     -36.024  16.895  -4.782  1.00 20.00     0.019 C 
HETATM    5  C5  UNL     1     -35.099  13.394  -4.331  1.00 20.00     0.043 C 
HETATM    6  C6  UNL     1     -33.211  15.105  -3.757  1.00 20.00     0.034 A 
HETATM    7  C7  UNL     1     -36.231  14.398  -4.611  1.00 20.00     0.148 C 
HETATM    8  C8  UNL     1     -34.206  14.067  -3.323  1.00 20.00     0.015 A 
HETATM    9  C9  UNL     1     -34.561  15.540  -3.227  1.00 20.00     0.052 A 
ENDROOT
BRANCH   7  10
HETATM   10  O10 UNL     1     -37.338  14.121  -3.761  1.00 20.00    -0.391 OA
HETATM   11  H20 UNL     1     -37.226  13.210  -3.447  1.00 20.00     0.210 HD
ENDBRANCH   7  10
TORSDOF 1
ENDMDL
MODEL 3
REMARK VINA RESULT:      -4.9     12.146     13.722
REMARK  1 active torsions:
REMARK  status: ('A' for Active; 'I' for Inactive)
REMARK    1  A    between atoms: C7_7  and  O10_10 
ROOT
HETATM    1  C1  UNL     1     -36.641  17.245  -4.258  1.00 20.00     0.013 C 
HETATM    2  C2  UNL     1     -35.718  16.517  -4.500  1.00 20.00    -0.102 C 
HETATM    3  C3  UNL     1     -34.748  14.405  -5.604  1.00 20.00    -0.040 C 
HETATM    4  C4  UNL     1     -35.112  14.326  -6.890  1.00 20.00     0.019 C 
HETATM    5  C5  UNL     1     -33.342  13.799  -3.742  1.00 20.00     0.043 C 
HETATM    6  C6  UNL     1     -33.222  16.239  -4.668  1.00 20.00     0.034 A 
HETATM    7  C7  UNL     1     -34.307  13.212  -4.788  1.00 20.00     0.148 C 
HETATM    8  C8  UNL     1     -33.702  15.257  -3.637  1.00 20.00     0.015 A 
HETATM    9  C9  UNL     1     -34.609  15.645  -4.792  1.00 20.00     0.052 A 
ENDROOT
BRANCH   7  10
HETATM   10  O10 UNL     1     -35.447  12.666  -4.134  1.00 20.00    -0.391 OA
HETATM   11  H20 UNL     1     -35.208  12.561  -3.200  1.00 20.00     0.210 HD
ENDBRANCH   7  10
TORSDOF 1
ENDMDL
MODEL 4
REMARK VINA RESULT:      -4.9     12.283     13.486
REMARK  1 active torsions:
REMARK  status: ('A' for Active; 'I' for Inactive)
REMARK    1  A    between atoms: C7_7  and  O10_10 
ROOT
HETATM    1  C1  UNL     1     -34.625  16.365  -1.429  1.00 20.00     0.013 C 
HETATM    2  C2  UNL     1     -34.308  15.779  -2.427  1.00 20.00    -0.102 C 
HETATM    3  C3  UNL     1     -34.095  15.651  -4.988  1.00 20.00    -0.040 C 
HETATM    4  C4  UNL     1     -33.501  16.748  -5.475  1.00 20.00     0.019 C 
HETATM    5  C5  UNL     1     -34.817  13.358  -5.164  1.00 20.00     0.043 C 
HETATM    6  C6  UNL     1     -32.921  13.954  -3.468  1.00 20.00     0.034 A 
HETATM    7  C7  UNL     1     -34.975  14.743  -5.815  1.00 20.00     0.148 C 
HETATM    8  C8  UNL     1     -34.359  13.627  -3.755  1.00 20.00     0.015 A 
HETATM    9  C9  UNL     1     -33.925  15.077  -3.625  1.00 20.00     0.052 A 
ENDROOT
BRANCH   7  10
HETATM   10  O10 UNL     1     -36.323  15.181  -5.687  1.00 20.00    -0.391 OA
HETATM   11  H20 UNL     1     -36.289  16.132  -5.498  1.00 20.00     0.210 HD
ENDBRANCH   7  10
TORSDOF 1
ENDMDL
MODEL 5
REMARK VINA RESULT:      -4.7     12.252     13.612
REMARK  1 active torsions:
REMARK  status: ('A' for Active; 'I' for Inactive)
REMARK    1  A    between atoms: C7_7  and  O10_10 
ROOT
HETATM    1  C1  UNL     1     -34.549  16.631  -0.804  1.00 20.00     0.013 C 
HETATM    2  C2  UNL     1     -34.791  16.141  -1.873  1.00 20.00    -0.102 C 
HETATM    3  C3  UNL     1     -34.075  14.786  -3.941  1.00 20.00    -0.040 C 
HETATM    4  C4  UNL     1     -33.480  13.642  -3.581  1.00 20.00     0.019 C 
HETATM    5  C5  UNL     1     -35.198  16.198  -5.540  1.00 20.00     0.043 C 
HETATM    6  C6  UNL     1     -36.541  15.312  -3.482  1.00 20.00     0.034 A 
HETATM    7  C7  UNL     1     -33.883  15.437  -5.291  1.00 20.00     0.148 C 
HETATM    8  C8  UNL     1     -35.799  16.418  -4.177  1.00 20.00     0.015 A 
HETATM    9  C9  UNL     1     -35.082  15.552  -3.156  1.00 20.00     0.052 A 
ENDROOT
BRANCH   7  10
HETATM   10  O10 UNL     1     -32.805  16.361  -5.198  1.00 20.00    -0.391 OA
HETATM   11  H20 UNL     1     -32.289  16.268  -6.014  1.00 20.00     0.210 HD
ENDBRANCH   7  10
TORSDOF 1
ENDMDL
MODEL 6
REMARK VINA RESULT:      -4.6     12.234     13.645
REMARK  1 active torsions:
REMARK  status: ('A' for Active; 'I' for Inactive)
REMARK    1  A    between atoms: C7_7  and  O10_10 
ROOT
HETATM    1  C1  UNL     1     -34.777  14.942  -7.910  1.00 20.00     0.013 C 
HETATM    2  C2  UNL     1     -34.757  14.849  -6.714  1.00 20.00    -0.102 C 
HETATM    3  C3  UNL     1     -34.119  15.768  -4.396  1.00 20.00    -0.040 C 
HETATM    4  C4  UNL     1     -34.506  17.043  -4.264  1.00 20.00     0.019 C 
HETATM    5  C5  UNL     1     -33.409  13.648  -3.496  1.00 20.00     0.043 C 
HETATM    6  C6  UNL     1     -35.749  13.806  -4.648  1.00 20.00     0.034 A 
HETATM    7  C7  UNL     1     -33.028  15.137  -3.563  1.00 20.00     0.148 C 
HETATM    8  C8  UNL     1     -34.301  13.408  -4.686  1.00 20.00     0.015 A 
HETATM    9  C9  UNL     1     -34.734  14.737  -5.277  1.00 20.00     0.052 A 
ENDROOT
BRANCH   7  10
HETATM   10  O10 UNL     1     -31.791  15.284  -4.252  1.00 20.00    -0.391 OA
HETATM   11  H20 UNL     1     -31.388  16.104  -3.926  1.00 20.00     0.210 HD
ENDBRANCH   7  10
TORSDOF 1
ENDMDL
MODEL 7
REMARK VINA RESULT:      -4.5      1.602      3.143
REMARK  1 active torsions:
REMARK  status: ('A' for Active; 'I' for Inactive)
REMARK    1  A    between atoms: C7_7  and  O10_10 
ROOT
HETATM    1  C1  UNL     1     -33.904   7.830   7.282  1.00 20.00     0.013 C 
HETATM    2  C2  UNL     1     -33.908   6.864   6.571  1.00 20.00    -0.102 C 
HETATM    3  C3  UNL     1     -33.781   5.788   4.237  1.00 20.00    -0.040 C 
HETATM    4  C4  UNL     1     -32.732   6.256   3.549  1.00 20.00     0.019 C 
HETATM    5  C5  UNL     1     -35.519   4.166   4.637  1.00 20.00     0.043 C 
HETATM    6  C6  UNL     1     -33.572   4.377   6.366  1.00 20.00     0.034 A 
HETATM    7  C7  UNL     1     -34.990   5.157   3.585  1.00 20.00     0.148 C 
HETATM    8  C8  UNL     1     -34.989   4.661   5.957  1.00 20.00     0.015 A 
HETATM    9  C9  UNL     1     -33.911   5.703   5.717  1.00 20.00     0.052 A 
ENDROOT
BRANCH   7  10
HETATM   10  O10 UNL     1     -35.959   6.172   3.353  1.00 20.00    -0.391 OA
HETATM   11  H20 UNL     1     -35.561   7.008   3.642  1.00 20.00     0.210 HD
ENDBRANCH   7  10
TORSDOF 1
ENDMDL
MODEL 8
REMARK VINA RESULT:      -4.4     12.438     13.530
REMARK  1 active torsions:
REMARK  status: ('A' for Active; 'I' for Inactive)
REMARK    1  A    between atoms: C7_7  and  O10_10 
ROOT
HETATM    1  C1  UNL     1     -37.712  14.773  -3.794  1.00 20.00     0.013 C 
HETATM    2  C2  UNL     1     -36.533  14.905  -3.609  1.00 20.00    -0.102 C 
HETATM    3  C3  UNL     1     -34.548  16.164  -2.563  1.00 20.00    -0.040 C 
HETATM    4  C4  UNL     1     -34.749  16.374  -1.255  1.00 20.00     0.019 C 
HETATM    5  C5  UNL     1     -33.133  16.019  -4.509  1.00 20.00     0.043 C 
HETATM    6  C6  UNL     1     -34.252  13.840  -3.602  1.00 20.00     0.034 A 
HETATM    7  C7  UNL     1     -33.594  16.983  -3.401  1.00 20.00     0.148 C 
HETATM    8  C8  UNL     1     -34.205  14.965  -4.596  1.00 20.00     0.015 A 
HETATM    9  C9  UNL     1     -35.118  15.064  -3.387  1.00 20.00     0.052 A 
ENDROOT
BRANCH   7  10
HETATM   10  O10 UNL     1     -34.315  18.066  -3.978  1.00 20.00    -0.391 OA
HETATM   11  H20 UNL     1     -33.730  18.470  -4.638  1.00 20.00     0.210 HD
ENDBRANCH   7  10
TORSDOF 1
ENDMDL
MODEL 9
REMARK VINA RESULT:      -4.4     12.493     13.583
REMARK  1 active torsions:
REMARK  status: ('A' for Active; 'I' for Inactive)
REMARK    1  A    between atoms: C7_7  and  O10_10 
ROOT
HETATM    1  C1  UNL     1     -34.438  14.952  -7.188  1.00 20.00     0.013 C 
HETATM    2  C2  UNL     1     -34.505  14.858  -5.994  1.00 20.00    -0.102 C 
HETATM    3  C3  UNL     1     -35.787  15.157  -3.782  1.00 20.00    -0.040 C 
HETATM    4  C4  UNL     1     -37.017  14.633  -3.867  1.00 20.00     0.019 C 
HETATM    5  C5  UNL     1     -33.897  15.977  -2.531  1.00 20.00     0.043 C 
HETATM    6  C6  UNL     1     -33.638  13.766  -3.897  1.00 20.00     0.034 A 
HETATM    7  C7  UNL     1     -35.399  16.213  -2.774  1.00 20.00     0.148 C 
HETATM    8  C8  UNL     1     -33.404  15.243  -3.749  1.00 20.00     0.015 A 
HETATM    9  C9  UNL     1     -34.587  14.743  -4.559  1.00 20.00     0.052 A 
ENDROOT
BRANCH   7  10
HETATM   10  O10 UNL     1     -35.593  17.494  -3.364  1.00 20.00    -0.391 OA
HETATM   11  H20 UNL     1     -35.627  17.355  -4.324  1.00 20.00     0.210 HD
ENDBRANCH   7  10
TORSDOF 1
ENDMDL
