MODEL 1
REMARK VINA RESULT:      -5.0      0.000      0.000
REMARK  1 active torsions:
REMARK  status: ('A' for Active; 'I' for Inactive)
REMARK    1  A    between atoms: C4_4  and  C9_9 
ROOT
HETATM    1  C1  UNL     1     -34.505   5.470   5.350  1.00 20.00    -0.089 C 
HETATM    2  C2  UNL     1     -34.507   4.799   6.511  1.00 20.00     0.014 C 
HETATM    3  C5  UNL     1     -35.459   5.149   4.230  1.00 20.00     0.033 C 
HETATM    4  C6  UNL     1     -33.536   6.588   5.061  1.00 20.00     0.042 C 
HETATM    5  C7  UNL     1     -34.699   4.892   2.929  1.00 20.00     0.005 C 
HETATM    6  C8  UNL     1     -33.739   6.037   2.593  1.00 20.00     0.009 C 
HETATM    7  C9  UNL     1     -32.772   6.320   3.754  1.00 20.00     0.017 C 
ENDROOT
BRANCH   7   8
HETATM    8  C4  UNL     1     -31.872   7.468   3.414  1.00 20.00    -0.089 C 
HETATM    9  C3  UNL     1     -30.966   7.941   4.282  1.00 20.00     0.014 C 
HETATM   10  C10 UNL     1     -32.040   8.059   2.045  1.00 20.00     0.043 C 
ENDBRANCH   7   8
TORSDOF 1
ENDMDL
MODEL 2
REMARK VINA RESULT:      -4.9      1.022      3.692
REMARK  1 active torsions:
REMARK  status: ('A' for Active; 'I' for Inactive)
REMARK    1  A    between atoms: C4_4  and  C9_9 
ROOT
HETATM    1  C1  UNL     1     -32.479   6.902   2.804  1.00 20.00    -0.089 C 
HETATM    2  C2  UNL     1     -32.017   8.007   2.202  1.00 20.00     0.014 C 
HETATM    3  C5  UNL     1     -32.894   5.676   2.034  1.00 20.00     0.033 C 
HETATM    4  C6  UNL     1     -32.641   6.801   4.300  1.00 20.00     0.042 C 
HETATM    5  C7  UNL     1     -34.317   5.261   2.404  1.00 20.00     0.005 C 
HETATM    6  C8  UNL     1     -34.493   5.110   3.918  1.00 20.00     0.009 C 
HETATM    7  C9  UNL     1     -34.076   6.387   4.664  1.00 20.00     0.017 C 
ENDROOT
BRANCH   7   8
HETATM    8  C4  UNL     1     -34.221   6.198   6.143  1.00 20.00    -0.089 C 
HETATM    9  C3  UNL     1     -33.804   7.122   7.021  1.00 20.00     0.014 C 
HETATM   10  C10 UNL     1     -34.860   4.916   6.587  1.00 20.00     0.043 C 
ENDBRANCH   7   8
TORSDOF 1
ENDMDL
MODEL 3
REMARK VINA RESULT:      -4.7     11.023     12.542
REMARK  1 active torsions:
REMARK  status: ('A' for Active; 'I' for Inactive)
REMARK    1  A    between atoms: C4_4  and  C9_9 
ROOT
HETATM    1  C1  UNL     1     -34.603  15.093  -3.510  1.00 20.00    -0.089 C 
HETATM    2  C2  UNL     1     -34.431  13.775  -3.680  1.00 20.00     0.014 C 
HETATM    3  C5  UNL     1     -34.648  16.057  -4.666  1.00 20.00     0.033 C 
HETATM    4  C6  UNL     1     -34.745  15.723  -2.148  1.00 20.00     0.042 C 
HETATM    5  C7  UNL     1     -33.630  17.181  -4.473  1.00 20.00     0.005 C 
HETATM    6  C8  UNL     1     -33.786  17.865  -3.112  1.00 20.00     0.009 C 
HETATM    7  C9  UNL     1     -33.715  16.849  -1.960  1.00 20.00     0.017 C 
ENDROOT
BRANCH   7   8
HETATM    8  C4  UNL     1     -33.908  17.539  -0.645  1.00 20.00    -0.089 C 
HETATM    9  C3  UNL     1     -34.941  17.253   0.162  1.00 20.00     0.014 C 
HETATM   10  C10 UNL     1     -32.879  18.567  -0.279  1.00 20.00     0.043 C 
ENDBRANCH   7   8
TORSDOF 1
ENDMDL
MODEL 4
REMARK VINA RESULT:      -4.4     11.145     12.085
REMARK  1 active torsions:
REMARK  status: ('A' for Active; 'I' for Inactive)
REMARK    1  A    between atoms: C4_4  and  C9_9 
ROOT
HETATM    1  C1  UNL     1     -36.730  15.024  -3.944  1.00 20.00    -0.089 C 
HETATM    2  C2  UNL     1     -38.028  14.689  -3.932  1.00 20.00     0.014 C 
HETATM    3  C5  UNL     1     -35.701  14.240  -4.714  1.00 20.00     0.033 C 
HETATM    4  C6  UNL     1     -36.190  16.201  -3.172  1.00 20.00     0.042 C 
HETATM    5  C7  UNL     1     -34.551  13.814  -3.801  1.00 20.00     0.005 C 
HETATM    6  C8  UNL     1     -33.957  15.002  -3.040  1.00 20.00     0.009 C 
HETATM    7  C9  UNL     1     -35.037  15.764  -2.254  1.00 20.00     0.017 C 
ENDROOT
BRANCH   7   8
HETATM    8  C4  UNL     1     -34.435  16.943  -1.550  1.00 20.00    -0.089 C 
HETATM    9  C3  UNL     1     -33.655  17.827  -2.188  1.00 20.00     0.014 C 
HETATM   10  C10 UNL     1     -34.758  17.078  -0.092  1.00 20.00     0.043 C 
ENDBRANCH   7   8
TORSDOF 1
ENDMDL
MODEL 5
REMARK VINA RESULT:      -4.4     11.190     12.224
REMARK  1 active torsions:
REMARK  status: ('A' for Active; 'I' for Inactive)
REMARK    1  A    between atoms: C4_4  and  C9_9 
ROOT
HETATM    1  C1  UNL     1     -35.033  17.294  -0.947  1.00 20.00    -0.089 C 
HETATM    2  C2  UNL     1     -34.975  17.365   0.391  1.00 20.00     0.014 C 
HETATM    3  C5  UNL     1     -35.929  18.186  -1.765  1.00 20.00     0.033 C 
HETATM    4  C6  UNL     1     -34.223  16.302  -1.741  1.00 20.00     0.042 C 
HETATM    5  C7  UNL     1     -36.826  17.357  -2.683  1.00 20.00     0.005 C 
HETATM    6  C8  UNL     1     -36.018  16.372  -3.533  1.00 20.00     0.009 C 
HETATM    7  C9  UNL     1     -35.133  15.469  -2.659  1.00 20.00     0.017 C 
ENDROOT
BRANCH   7   8
HETATM    8  C4  UNL     1     -34.326  14.543  -3.517  1.00 20.00    -0.089 C 
HETATM    9  C3  UNL     1     -34.874  13.483  -4.128  1.00 20.00     0.014 C 
HETATM   10  C10 UNL     1     -32.869  14.871  -3.656  1.00 20.00     0.043 C 
ENDBRANCH   7   8
TORSDOF 1
ENDMDL
MODEL 6
REMARK VINA RESULT:      -4.4     11.389     12.908
REMARK  1 active torsions:
REMARK  status: ('A' for Active; 'I' for Inactive)
REMARK    1  A    between atoms: C4_4  and  C9_9 
ROOT
HETATM    1  C1  UNL     1     -34.182  16.659  -1.997  1.00 20.00    -0.089 C 
HETATM    2  C2  UNL     1     -34.716  16.588  -0.769  1.00 20.00     0.014 C 
HETATM    3  C5  UNL     1     -33.685  17.951  -2.588  1.00 20.00     0.033 C 
HETATM    4  C6  UNL     1     -34.055  15.455  -2.895  1.00 20.00     0.042 C 
HETATM    5  C7  UNL     1     -34.336  18.210  -3.946  1.00 20.00     0.005 C 
HETATM    6  C8  UNL     1     -34.180  17.016  -4.891  1.00 20.00     0.009 C 
HETATM    7  C9  UNL     1     -34.716  15.722  -4.258  1.00 20.00     0.017 C 
ENDROOT
BRANCH   7   8
HETATM    8  C4  UNL     1     -34.515  14.564  -5.187  1.00 20.00    -0.089 C 
HETATM    9  C3  UNL     1     -34.380  13.308  -4.737  1.00 20.00     0.014 C 
HETATM   10  C10 UNL     1     -34.476  14.890  -6.651  1.00 20.00     0.043 C 
ENDBRANCH   7   8
TORSDOF 1
ENDMDL
MODEL 7
REMARK VINA RESULT:      -4.4      9.315     11.435
REMARK  1 active torsions:
REMARK  status: ('A' for Active; 'I' for Inactive)
REMARK    1  A    between atoms: C4_4  and  C9_9 
ROOT
HETATM    1  C1  UNL     1     -41.226   5.689  -1.245  1.00 20.00    -0.089 C 
HETATM    2  C2  UNL     1     -40.763   6.060  -0.043  1.00 20.00     0.014 C 
HETATM    3  C5  UNL     1     -41.855   6.665  -2.204  1.00 20.00     0.033 C 
HETATM    4  C6  UNL     1     -41.173   4.262  -1.729  1.00 20.00     0.042 C 
HETATM    5  C7  UNL     1     -43.239   6.182  -2.636  1.00 20.00     0.005 C 
HETATM    6  C8  UNL     1     -43.202   4.749  -3.173  1.00 20.00     0.009 C 
HETATM    7  C9  UNL     1     -42.570   3.783  -2.158  1.00 20.00     0.017 C 
ENDROOT
BRANCH   7   8
HETATM    8  C4  UNL     1     -42.510   2.397  -2.723  1.00 20.00    -0.089 C 
HETATM    9  C3  UNL     1     -43.417   1.461  -2.406  1.00 20.00     0.014 C 
HETATM   10  C10 UNL     1     -41.379   2.115  -3.667  1.00 20.00     0.043 C 
ENDBRANCH   7   8
TORSDOF 1
ENDMDL
MODEL 8
REMARK VINA RESULT:      -4.3     11.638     12.828
REMARK  1 active torsions:
REMARK  status: ('A' for Active; 'I' for Inactive)
REMARK    1  A    between atoms: C4_4  and  C9_9 
ROOT
HETATM    1  C1  UNL     1     -32.904  18.921   0.608  1.00 20.00    -0.089 C 
HETATM    2  C2  UNL     1     -31.717  19.192   1.169  1.00 20.00     0.014 C 
HETATM    3  C5  UNL     1     -34.192  18.952   1.389  1.00 20.00     0.033 C 
HETATM    4  C6  UNL     1     -33.048  18.543  -0.844  1.00 20.00     0.042 C 
HETATM    5  C7  UNL     1     -34.948  17.633   1.239  1.00 20.00     0.005 C 
HETATM    6  C8  UNL     1     -35.143  17.251  -0.231  1.00 20.00     0.009 C 
HETATM    7  C9  UNL     1     -33.805  17.212  -0.986  1.00 20.00     0.017 C 
ENDROOT
BRANCH   7   8
HETATM    8  C4  UNL     1     -34.030  16.875  -2.428  1.00 20.00    -0.089 C 
HETATM    9  C3  UNL     1     -33.808  17.763  -3.408  1.00 20.00     0.014 C 
HETATM   10  C10 UNL     1     -34.516  15.485  -2.715  1.00 20.00     0.043 C 
ENDBRANCH   7   8
TORSDOF 1
ENDMDL
MODEL 9
REMARK VINA RESULT:      -4.2     11.375     12.875
REMARK  1 active torsions:
REMARK  status: ('A' for Active; 'I' for Inactive)
REMARK    1  A    between atoms: C4_4  and  C9_9 
ROOT
HETATM    1  C1  UNL     1     -34.269  15.221  -5.835  1.00 20.00    -0.089 C 
HETATM    2  C2  UNL     1     -34.426  15.600  -7.111  1.00 20.00     0.014 C 
HETATM    3  C5  UNL     1     -34.547  13.816  -5.369  1.00 20.00     0.033 C 
HETATM    4  C6  UNL     1     -33.822  16.175  -4.756  1.00 20.00     0.042 C 
HETATM    5  C7  UNL     1     -35.529  13.818  -4.199  1.00 20.00     0.005 C 
HETATM    6  C8  UNL     1     -35.072  14.747  -3.071  1.00 20.00     0.009 C 
HETATM    7  C9  UNL     1     -34.818  16.174  -3.584  1.00 20.00     0.017 C 
ENDROOT
BRANCH   7   8
HETATM    8  C4  UNL     1     -34.335  17.051  -2.470  1.00 20.00    -0.089 C 
HETATM    9  C3  UNL     1     -33.732  18.226  -2.701  1.00 20.00     0.014 C 
HETATM   10  C10 UNL     1     -34.566  16.540  -1.078  1.00 20.00     0.043 C 
ENDBRANCH   7   8
TORSDOF 1
ENDMDL
