MODEL 1
REMARK VINA RESULT:      -4.0      0.000      0.000
REMARK  0 active torsions:
REMARK  status: ('A' for Active; 'I' for Inactive)
ROOT
HETATM    1  C1  UNL     1     -34.808   6.340   3.901  1.00 20.00     0.062 A 
HETATM    2  C2  UNL     1     -33.407   5.806   3.851  1.00 20.00     0.119 A 
HETATM    3  C3  UNL     1     -34.177   5.762   5.144  1.00 20.00     0.112 A 
HETATM    4 CL4  UNL     1     -32.083   6.912   3.592  1.00 20.00    -0.122 Cl
HETATM    5 CL5  UNL     1     -33.797   6.876   6.455  1.00 20.00    -0.105 Cl
HETATM    6 BR6  UNL     1     -34.800   4.048   5.738  1.00 20.00    -0.066 Br
ENDROOT
TORSDOF 0
ENDMDL
MODEL 2
REMARK VINA RESULT:      -3.6      2.670      3.225
REMARK  0 active torsions:
REMARK  status: ('A' for Active; 'I' for Inactive)
ROOT
HETATM    1  C1  UNL     1     -34.177   6.515   5.702  1.00 20.00     0.062 A 
HETATM    2  C2  UNL     1     -33.888   5.051   5.546  1.00 20.00     0.119 A 
HETATM    3  C3  UNL     1     -34.078   5.908   4.324  1.00 20.00     0.112 A 
HETATM    4 CL4  UNL     1     -35.081   3.888   6.063  1.00 20.00    -0.122 Cl
HETATM    5 CL5  UNL     1     -35.559   5.805   3.374  1.00 20.00    -0.105 Cl
HETATM    6 BR6  UNL     1     -32.518   6.319   3.286  1.00 20.00    -0.066 Br
ENDROOT
TORSDOF 0
ENDMDL
MODEL 3
REMARK VINA RESULT:      -3.2      1.417      2.652
REMARK  0 active torsions:
REMARK  status: ('A' for Active; 'I' for Inactive)
ROOT
HETATM    1  C1  UNL     1     -33.975   4.838   5.974  1.00 20.00     0.062 A 
HETATM    2  C2  UNL     1     -34.353   6.276   6.172  1.00 20.00     0.119 A 
HETATM    3  C3  UNL     1     -34.130   5.749   4.780  1.00 20.00     0.112 A 
HETATM    4 CL4  UNL     1     -33.224   7.352   6.953  1.00 20.00    -0.122 Cl
HETATM    5 CL5  UNL     1     -32.672   6.166   3.882  1.00 20.00    -0.105 Cl
HETATM    6 BR6  UNL     1     -35.678   5.503   3.674  1.00 20.00    -0.066 Br
ENDROOT
TORSDOF 0
ENDMDL
MODEL 4
REMARK VINA RESULT:      -3.1     12.435     13.094
REMARK  0 active torsions:
REMARK  status: ('A' for Active; 'I' for Inactive)
ROOT
HETATM    1  C1  UNL     1     -33.580  13.909  -3.820  1.00 20.00     0.062 A 
HETATM    2  C2  UNL     1     -34.760  14.739  -3.406  1.00 20.00     0.119 A 
HETATM    3  C3  UNL     1     -34.108  14.981  -4.741  1.00 20.00     0.112 A 
HETATM    4 CL4  UNL     1     -34.592  15.851  -2.072  1.00 20.00    -0.122 Cl
HETATM    5 CL5  UNL     1     -33.094  16.398  -5.004  1.00 20.00    -0.105 Cl
HETATM    6 BR6  UNL     1     -35.066  14.413  -6.303  1.00 20.00    -0.066 Br
ENDROOT
TORSDOF 0
ENDMDL
MODEL 5
REMARK VINA RESULT:      -3.0     12.723     13.307
REMARK  0 active torsions:
REMARK  status: ('A' for Active; 'I' for Inactive)
ROOT
HETATM    1  C1  UNL     1     -33.176  16.303  -4.815  1.00 20.00     0.062 A 
HETATM    2  C2  UNL     1     -34.506  15.738  -5.220  1.00 20.00     0.119 A 
HETATM    3  C3  UNL     1     -33.884  15.320  -3.915  1.00 20.00     0.112 A 
HETATM    4 CL4  UNL     1     -34.592  14.669  -6.596  1.00 20.00    -0.122 Cl
HETATM    5 CL5  UNL     1     -33.165  13.723  -3.731  1.00 20.00    -0.105 Cl
HETATM    6 BR6  UNL     1     -34.675  16.004  -2.306  1.00 20.00    -0.066 Br
ENDROOT
TORSDOF 0
ENDMDL
MODEL 6
REMARK VINA RESULT:      -3.0      3.051      3.691
REMARK  0 active torsions:
REMARK  status: ('A' for Active; 'I' for Inactive)
ROOT
HETATM    1  C1  UNL     1     -32.226   5.864   2.972  1.00 20.00     0.062 A 
HETATM    2  C2  UNL     1     -33.388   6.633   3.528  1.00 20.00     0.119 A 
HETATM    3  C3  UNL     1     -32.116   7.355   3.176  1.00 20.00     0.112 A 
HETATM    4 CL4  UNL     1     -33.878   6.358   5.180  1.00 20.00    -0.122 Cl
HETATM    5 CL5  UNL     1     -31.025   7.924   4.438  1.00 20.00    -0.105 Cl
HETATM    6 BR6  UNL     1     -32.139   8.467   1.613  1.00 20.00    -0.066 Br
ENDROOT
TORSDOF 0
ENDMDL
MODEL 7
REMARK VINA RESULT:      -3.0     12.211     12.727
REMARK  0 active torsions:
REMARK  status: ('A' for Active; 'I' for Inactive)
ROOT
HETATM    1  C1  UNL     1     -33.909  13.796  -3.721  1.00 20.00     0.062 A 
HETATM    2  C2  UNL     1     -33.953  14.956  -4.671  1.00 20.00     0.119 A 
HETATM    3  C3  UNL     1     -34.907  14.909  -3.508  1.00 20.00     0.112 A 
HETATM    4 CL4  UNL     1     -34.474  14.691  -6.315  1.00 20.00    -0.122 Cl
HETATM    5 CL5  UNL     1     -36.610  14.531  -3.755  1.00 20.00    -0.105 Cl
HETATM    6 BR6  UNL     1     -34.584  16.120  -2.056  1.00 20.00    -0.066 Br
ENDROOT
TORSDOF 0
ENDMDL
MODEL 8
REMARK VINA RESULT:      -2.9     12.279     12.619
REMARK  0 active torsions:
REMARK  status: ('A' for Active; 'I' for Inactive)
ROOT
HETATM    1  C1  UNL     1     -35.265  15.999  -4.282  1.00 20.00     0.062 A 
HETATM    2  C2  UNL     1     -35.511  14.702  -3.568  1.00 20.00     0.119 A 
HETATM    3  C3  UNL     1     -34.362  15.578  -3.148  1.00 20.00     0.112 A 
HETATM    4 CL4  UNL     1     -35.273  13.201  -4.425  1.00 20.00    -0.122 Cl
HETATM    5 CL5  UNL     1     -32.703  15.142  -3.549  1.00 20.00    -0.105 Cl
HETATM    6 BR6  UNL     1     -34.537  16.517  -1.484  1.00 20.00    -0.066 Br
ENDROOT
TORSDOF 0
ENDMDL
MODEL 9
REMARK VINA RESULT:      -2.9     12.569     12.854
REMARK  0 active torsions:
REMARK  status: ('A' for Active; 'I' for Inactive)
ROOT
HETATM    1  C1  UNL     1     -35.988  14.504  -3.807  1.00 20.00     0.062 A 
HETATM    2  C2  UNL     1     -35.217  15.749  -3.482  1.00 20.00     0.119 A 
HETATM    3  C3  UNL     1     -34.608  14.709  -4.383  1.00 20.00     0.112 A 
HETATM    4 CL4  UNL     1     -34.664  16.006  -1.848  1.00 20.00    -0.122 Cl
HETATM    5 CL5  UNL     1     -33.320  13.657  -3.800  1.00 20.00    -0.105 Cl
HETATM    6 BR6  UNL     1     -34.481  15.128  -6.251  1.00 20.00    -0.066 Br
ENDROOT
TORSDOF 0
ENDMDL
