MODEL 1
REMARK VINA RESULT:      -3.8      0.000      0.000
REMARK  0 active torsions:
REMARK  status: ('A' for Active; 'I' for Inactive)
ROOT
HETATM    1  C1  UNL     1     -33.748  16.343  -2.343  1.00 20.00    -0.028 C 
HETATM    2  C2  UNL     1     -35.078  16.355  -2.183  1.00 20.00    -0.014 C 
HETATM    3  C3  UNL     1     -33.329  15.343  -3.375  1.00 20.00     0.043 C 
HETATM    4  C4  UNL     1     -36.658  15.120  -5.743  1.00 20.00     0.084 C 
HETATM    5  C5  UNL     1     -35.302  14.570  -6.145  1.00 20.00     0.084 C 
HETATM    6  C6  UNL     1     -35.764  15.385  -3.107  1.00 20.00     0.083 C 
HETATM    7  C7  UNL     1     -34.582  14.459  -3.444  1.00 20.00     0.068 C 
HETATM    8  S8  UNL     1     -36.511  16.375  -4.447  1.00 20.00    -0.158 SA
HETATM    9  S9  UNL     1     -34.662  13.404  -4.917  1.00 20.00    -0.162 SA
ENDROOT
TORSDOF 0
ENDMDL
MODEL 2
REMARK VINA RESULT:      -3.8      1.778      2.753
REMARK  0 active torsions:
REMARK  status: ('A' for Active; 'I' for Inactive)
ROOT
HETATM    1  C1  UNL     1     -33.300  13.642  -3.777  1.00 20.00    -0.028 C 
HETATM    2  C2  UNL     1     -32.663  14.806  -3.594  1.00 20.00    -0.014 C 
HETATM    3  C3  UNL     1     -34.785  13.830  -3.822  1.00 20.00     0.043 C 
HETATM    4  C4  UNL     1     -35.109  17.690  -5.140  1.00 20.00     0.084 C 
HETATM    5  C5  UNL     1     -36.267  16.710  -5.115  1.00 20.00     0.084 C 
HETATM    6  C6  UNL     1     -33.621  15.965  -3.520  1.00 20.00     0.083 C 
HETATM    7  C7  UNL     1     -34.919  15.214  -3.173  1.00 20.00     0.068 C 
HETATM    8  S8  UNL     1     -33.514  16.836  -5.122  1.00 20.00    -0.158 SA
HETATM    9  S9  UNL     1     -36.521  16.015  -3.463  1.00 20.00    -0.162 SA
ENDROOT
TORSDOF 0
ENDMDL
MODEL 3
REMARK VINA RESULT:      -3.7      1.912      3.288
REMARK  0 active torsions:
REMARK  status: ('A' for Active; 'I' for Inactive)
ROOT
HETATM    1  C1  UNL     1     -34.903  13.300  -4.276  1.00 20.00    -0.028 C 
HETATM    2  C2  UNL     1     -33.730  13.824  -3.895  1.00 20.00    -0.014 C 
HETATM    3  C3  UNL     1     -36.024  14.275  -4.090  1.00 20.00     0.043 C 
HETATM    4  C4  UNL     1     -34.084  17.865  -4.377  1.00 20.00     0.084 C 
HETATM    5  C5  UNL     1     -35.592  17.717  -4.449  1.00 20.00     0.084 C 
HETATM    6  C6  UNL     1     -33.876  15.245  -3.423  1.00 20.00     0.083 C 
HETATM    7  C7  UNL     1     -35.383  15.268  -3.112  1.00 20.00     0.068 C 
HETATM    8  S8  UNL     1     -33.242  16.311  -4.764  1.00 20.00    -0.158 SA
HETATM    9  S9  UNL     1     -36.250  16.858  -2.998  1.00 20.00    -0.162 SA
ENDROOT
TORSDOF 0
ENDMDL
MODEL 4
REMARK VINA RESULT:      -3.7      1.813      2.891
REMARK  0 active torsions:
REMARK  status: ('A' for Active; 'I' for Inactive)
ROOT
HETATM    1  C1  UNL     1     -33.398  13.624  -3.724  1.00 20.00    -0.028 C 
HETATM    2  C2  UNL     1     -34.603  13.552  -4.303  1.00 20.00    -0.014 C 
HETATM    3  C3  UNL     1     -32.880  15.029  -3.709  1.00 20.00     0.043 C 
HETATM    4  C4  UNL     1     -36.340  17.211  -3.764  1.00 20.00     0.084 C 
HETATM    5  C5  UNL     1     -34.981  17.798  -3.430  1.00 20.00     0.084 C 
HETATM    6  C6  UNL     1     -35.098  14.904  -4.742  1.00 20.00     0.083 C 
HETATM    7  C7  UNL     1     -33.765  15.673  -4.784  1.00 20.00     0.068 C 
HETATM    8  S8  UNL     1     -36.366  15.416  -3.531  1.00 20.00    -0.158 SA
HETATM    9  S9  UNL     1     -33.776  17.487  -4.744  1.00 20.00    -0.162 SA
ENDROOT
TORSDOF 0
ENDMDL
MODEL 5
REMARK VINA RESULT:      -3.6      1.988      2.577
REMARK  0 active torsions:
REMARK  status: ('A' for Active; 'I' for Inactive)
ROOT
HETATM    1  C1  UNL     1     -34.180  13.584  -3.632  1.00 20.00    -0.028 C 
HETATM    2  C2  UNL     1     -34.245  14.864  -3.241  1.00 20.00    -0.014 C 
HETATM    3  C3  UNL     1     -34.802  13.391  -4.980  1.00 20.00     0.043 C 
HETATM    4  C4  UNL     1     -34.343  17.091  -6.664  1.00 20.00     0.084 C 
HETATM    5  C5  UNL     1     -34.714  15.849  -7.452  1.00 20.00     0.084 C 
HETATM    6  C6  UNL     1     -34.893  15.737  -4.280  1.00 20.00     0.083 C 
HETATM    7  C7  UNL     1     -35.645  14.668  -5.093  1.00 20.00     0.068 C 
HETATM    8  S8  UNL     1     -33.550  16.671  -5.092  1.00 20.00    -0.158 SA
HETATM    9  S9  UNL     1     -36.192  15.047  -6.781  1.00 20.00    -0.162 SA
ENDROOT
TORSDOF 0
ENDMDL
MODEL 6
REMARK VINA RESULT:      -3.6      1.722      2.345
REMARK  0 active torsions:
REMARK  status: ('A' for Active; 'I' for Inactive)
ROOT
HETATM    1  C1  UNL     1     -33.818  17.379  -1.485  1.00 20.00    -0.028 C 
HETATM    2  C2  UNL     1     -33.718  17.993  -2.671  1.00 20.00    -0.014 C 
HETATM    3  C3  UNL     1     -34.731  16.195  -1.555  1.00 20.00     0.043 C 
HETATM    4  C4  UNL     1     -34.435  15.127  -5.493  1.00 20.00     0.084 C 
HETATM    5  C5  UNL     1     -35.043  14.238  -4.424  1.00 20.00     0.084 C 
HETATM    6  C6  UNL     1     -34.527  17.298  -3.734  1.00 20.00     0.083 C 
HETATM    7  C7  UNL     1     -35.501  16.502  -2.847  1.00 20.00     0.068 C 
HETATM    8  S8  UNL     1     -33.342  16.378  -4.776  1.00 20.00    -0.158 SA
HETATM    9  S9  UNL     1     -36.382  15.076  -3.539  1.00 20.00    -0.162 SA
ENDROOT
TORSDOF 0
ENDMDL
MODEL 7
REMARK VINA RESULT:      -3.6      1.702      3.889
REMARK  0 active torsions:
REMARK  status: ('A' for Active; 'I' for Inactive)
ROOT
HETATM    1  C1  UNL     1     -34.999  15.308  -7.755  1.00 20.00    -0.028 C 
HETATM    2  C2  UNL     1     -35.835  14.561  -7.022  1.00 20.00    -0.014 C 
HETATM    3  C3  UNL     1     -34.129  16.167  -6.891  1.00 20.00     0.043 C 
HETATM    4  C4  UNL     1     -33.993  14.012  -3.417  1.00 20.00     0.084 C 
HETATM    5  C5  UNL     1     -33.052  15.160  -3.731  1.00 20.00     0.084 C 
HETATM    6  C6  UNL     1     -35.634  14.779  -5.546  1.00 20.00     0.083 C 
HETATM    7  C7  UNL     1     -34.915  16.140  -5.574  1.00 20.00     0.068 C 
HETATM    8  S8  UNL     1     -34.728  13.322  -4.920  1.00 20.00    -0.158 SA
HETATM    9  S9  UNL     1     -33.958  16.677  -4.130  1.00 20.00    -0.162 SA
ENDROOT
TORSDOF 0
ENDMDL
MODEL 8
REMARK VINA RESULT:      -3.6      1.681      1.997
REMARK  0 active torsions:
REMARK  status: ('A' for Active; 'I' for Inactive)
ROOT
HETATM    1  C1  UNL     1     -34.255  17.563  -1.425  1.00 20.00    -0.028 C 
HETATM    2  C2  UNL     1     -34.662  16.289  -1.362  1.00 20.00    -0.014 C 
HETATM    3  C3  UNL     1     -33.796  17.924  -2.803  1.00 20.00     0.043 C 
HETATM    4  C4  UNL     1     -35.940  15.322  -5.121  1.00 20.00     0.084 C 
HETATM    5  C5  UNL     1     -35.207  16.531  -5.672  1.00 20.00     0.084 C 
HETATM    6  C6  UNL     1     -34.571  15.603  -2.699  1.00 20.00     0.083 C 
HETATM    7  C7  UNL     1     -33.568  16.532  -3.405  1.00 20.00     0.068 C 
HETATM    8  S8  UNL     1     -36.274  15.496  -3.350  1.00 20.00    -0.158 SA
HETATM    9  S9  UNL     1     -33.455  16.518  -5.216  1.00 20.00    -0.162 SA
ENDROOT
TORSDOF 0
ENDMDL
MODEL 9
REMARK VINA RESULT:      -3.5      1.872      2.433
REMARK  0 active torsions:
REMARK  status: ('A' for Active; 'I' for Inactive)
ROOT
HETATM    1  C1  UNL     1     -32.887  14.977  -3.645  1.00 20.00    -0.028 C 
HETATM    2  C2  UNL     1     -33.663  13.918  -3.908  1.00 20.00    -0.014 C 
HETATM    3  C3  UNL     1     -33.236  16.143  -4.516  1.00 20.00     0.043 C 
HETATM    4  C4  UNL     1     -37.174  15.421  -5.360  1.00 20.00     0.084 C 
HETATM    5  C5  UNL     1     -36.491  16.752  -5.612  1.00 20.00     0.084 C 
HETATM    6  C6  UNL     1     -34.679  14.218  -4.977  1.00 20.00     0.083 C 
HETATM    7  C7  UNL     1     -34.019  15.442  -5.635  1.00 20.00     0.068 C 
HETATM    8  S8  UNL     1     -36.282  14.437  -4.130  1.00 20.00    -0.158 SA
HETATM    9  S9  UNL     1     -35.020  16.563  -6.651  1.00 20.00    -0.162 SA
ENDROOT
TORSDOF 0
ENDMDL
