MODEL 1
REMARK VINA RESULT:      -4.7      0.000      0.000
REMARK  0 active torsions:
REMARK  status: ('A' for Active; 'I' for Inactive)
ROOT
HETATM    1  C1  UNL     1     -42.327   4.738  -2.669  1.00 20.00     0.001 C 
HETATM    2  C2  UNL     1     -41.159   4.220  -1.808  1.00 20.00     0.005 C 
HETATM    3  C3  UNL     1     -42.158   4.658   0.534  1.00 20.00     0.005 C 
HETATM    4  C4  UNL     1     -43.066   5.871   0.835  1.00 20.00     0.006 C 
HETATM    5  C5  UNL     1     -42.396   6.274  -2.738  1.00 20.00     0.010 C 
HETATM    6  C6  UNL     1     -40.897   6.460  -0.742  1.00 20.00     0.014 C 
HETATM    7  C7  UNL     1     -43.010   7.992  -0.788  1.00 20.00     0.015 A 
HETATM    8  C8  UNL     1     -40.991   4.958  -0.453  1.00 20.00    -0.014 C 
HETATM    9  C9  UNL     1     -43.417   6.584  -0.437  1.00 20.00    -0.005 A 
HETATM   10  C10 UNL     1     -42.230   6.832  -1.348  1.00 20.00    -0.036 A 
ENDROOT
TORSDOF 0
ENDMDL
MODEL 2
REMARK VINA RESULT:      -4.7     11.912     13.172
REMARK  0 active torsions:
REMARK  status: ('A' for Active; 'I' for Inactive)
ROOT
HETATM    1  C1  UNL     1     -33.461  13.831  -3.805  1.00 20.00     0.001 C 
HETATM    2  C2  UNL     1     -34.865  13.381  -4.256  1.00 20.00     0.005 C 
HETATM    3  C3  UNL     1     -34.934  14.530  -6.569  1.00 20.00     0.005 C 
HETATM    4  C4  UNL     1     -34.267  15.897  -6.836  1.00 20.00     0.006 C 
HETATM    5  C5  UNL     1     -33.417  15.294  -3.330  1.00 20.00     0.010 C 
HETATM    6  C6  UNL     1     -35.611  15.753  -4.446  1.00 20.00     0.014 C 
HETATM    7  C7  UNL     1     -33.714  17.515  -4.783  1.00 20.00     0.015 A 
HETATM    8  C8  UNL     1     -35.598  14.401  -5.166  1.00 20.00    -0.014 C 
HETATM    9  C9  UNL     1     -33.446  16.313  -5.653  1.00 20.00    -0.005 A 
HETATM   10  C10 UNL     1     -34.158  16.151  -4.324  1.00 20.00    -0.036 A 
ENDROOT
TORSDOF 0
ENDMDL
MODEL 3
REMARK VINA RESULT:      -4.6      1.221      2.009
REMARK  0 active torsions:
REMARK  status: ('A' for Active; 'I' for Inactive)
ROOT
HETATM    1  C1  UNL     1     -43.139   6.042  -2.848  1.00 20.00     0.001 C 
HETATM    2  C2  UNL     1     -43.118   4.521  -3.091  1.00 20.00     0.005 C 
HETATM    3  C3  UNL     1     -43.302   3.716  -0.643  1.00 20.00     0.005 C 
HETATM    4  C4  UNL     1     -42.648   4.477   0.531  1.00 20.00     0.006 C 
HETATM    5  C5  UNL     1     -41.798   6.592  -2.329  1.00 20.00     0.010 C 
HETATM    6  C6  UNL     1     -41.061   4.283  -1.701  1.00 20.00     0.014 C 
HETATM    7  C7  UNL     1     -40.648   6.180   0.045  1.00 20.00     0.015 A 
HETATM    8  C8  UNL     1     -42.457   3.702  -1.951  1.00 20.00    -0.014 C 
HETATM    9  C9  UNL     1     -42.104   5.792   0.058  1.00 20.00    -0.005 A 
HETATM   10  C10 UNL     1     -41.300   5.697  -1.224  1.00 20.00    -0.036 A 
ENDROOT
TORSDOF 0
ENDMDL
MODEL 4
REMARK VINA RESULT:      -4.6     11.514     12.641
REMARK  0 active torsions:
REMARK  status: ('A' for Active; 'I' for Inactive)
ROOT
HETATM    1  C1  UNL     1     -34.116  15.900  -6.111  1.00 20.00     0.001 C 
HETATM    2  C2  UNL     1     -34.521  14.414  -6.142  1.00 20.00     0.005 C 
HETATM    3  C3  UNL     1     -36.323  14.445  -4.291  1.00 20.00     0.005 C 
HETATM    4  C4  UNL     1     -36.215  15.350  -3.044  1.00 20.00     0.006 C 
HETATM    5  C5  UNL     1     -33.208  16.256  -4.920  1.00 20.00     0.010 C 
HETATM    6  C6  UNL     1     -33.856  14.138  -3.755  1.00 20.00     0.014 C 
HETATM    7  C7  UNL     1     -33.833  16.322  -2.325  1.00 20.00     0.015 A 
HETATM    8  C8  UNL     1     -34.967  13.846  -4.769  1.00 20.00    -0.014 C 
HETATM    9  C9  UNL     1     -35.065  16.301  -3.192  1.00 20.00    -0.005 A 
HETATM   10  C10 UNL     1     -33.784  15.645  -3.669  1.00 20.00    -0.036 A 
ENDROOT
TORSDOF 0
ENDMDL
MODEL 5
REMARK VINA RESULT:      -4.6     11.529     12.865
REMARK  0 active torsions:
REMARK  status: ('A' for Active; 'I' for Inactive)
ROOT
HETATM    1  C1  UNL     1     -36.053  15.653  -3.016  1.00 20.00     0.001 C 
HETATM    2  C2  UNL     1     -34.647  15.691  -2.385  1.00 20.00     0.005 C 
HETATM    3  C3  UNL     1     -33.324  16.628  -4.396  1.00 20.00     0.005 C 
HETATM    4  C4  UNL     1     -33.676  16.272  -5.857  1.00 20.00     0.006 C 
HETATM    5  C5  UNL     1     -36.251  14.473  -3.984  1.00 20.00     0.010 C 
HETATM    6  C6  UNL     1     -33.774  14.139  -4.132  1.00 20.00     0.014 C 
HETATM    7  C7  UNL     1     -35.117  14.082  -6.370  1.00 20.00     0.015 A 
HETATM    8  C8  UNL     1     -33.491  15.450  -3.390  1.00 20.00    -0.014 C 
HETATM    9  C9  UNL     1     -34.966  15.510  -5.910  1.00 20.00    -0.005 A 
HETATM   10  C10 UNL     1     -35.055  14.385  -4.896  1.00 20.00    -0.036 A 
ENDROOT
TORSDOF 0
ENDMDL
MODEL 6
REMARK VINA RESULT:      -4.6     11.740     13.021
REMARK  0 active torsions:
REMARK  status: ('A' for Active; 'I' for Inactive)
ROOT
HETATM    1  C1  UNL     1     -34.346  13.278  -4.920  1.00 20.00     0.001 C 
HETATM    2  C2  UNL     1     -35.319  13.947  -5.910  1.00 20.00     0.005 C 
HETATM    3  C3  UNL     1     -34.089  16.197  -6.227  1.00 20.00     0.005 C 
HETATM    4  C4  UNL     1     -33.310  16.884  -5.084  1.00 20.00     0.006 C 
HETATM    5  C5  UNL     1     -34.481  13.812  -3.482  1.00 20.00     0.010 C 
HETATM    6  C6  UNL     1     -35.722  15.821  -4.314  1.00 20.00     0.014 C 
HETATM    7  C7  UNL     1     -33.842  16.230  -2.549  1.00 20.00     0.015 A 
HETATM    8  C8  UNL     1     -35.402  15.491  -5.776  1.00 20.00    -0.014 C 
HETATM    9  C9  UNL     1     -33.219  15.973  -3.897  1.00 20.00    -0.005 A 
HETATM   10  C10 UNL     1     -34.535  15.317  -3.525  1.00 20.00    -0.036 A 
ENDROOT
TORSDOF 0
ENDMDL
MODEL 7
REMARK VINA RESULT:      -4.5     11.755     12.836
REMARK  0 active torsions:
REMARK  status: ('A' for Active; 'I' for Inactive)
ROOT
HETATM    1  C1  UNL     1     -34.500  13.430  -4.725  1.00 20.00     0.001 C 
HETATM    2  C2  UNL     1     -33.362  13.797  -3.753  1.00 20.00     0.005 C 
HETATM    3  C3  UNL     1     -34.505  15.753  -2.511  1.00 20.00     0.005 C 
HETATM    4  C4  UNL     1     -35.475  16.727  -3.214  1.00 20.00     0.006 C 
HETATM    5  C5  UNL     1     -34.625  14.406  -5.909  1.00 20.00     0.010 C 
HETATM    6  C6  UNL     1     -33.247  16.105  -4.692  1.00 20.00     0.014 C 
HETATM    7  C7  UNL     1     -35.413  16.957  -5.875  1.00 20.00     0.015 A 
HETATM    8  C8  UNL     1     -33.298  15.304  -3.387  1.00 20.00    -0.014 C 
HETATM    9  C9  UNL     1     -35.783  16.244  -4.600  1.00 20.00    -0.005 A 
HETATM   10  C10 UNL     1     -34.558  15.817  -5.386  1.00 20.00    -0.036 A 
ENDROOT
TORSDOF 0
ENDMDL
MODEL 8
REMARK VINA RESULT:      -4.5     11.539     12.764
REMARK  0 active torsions:
REMARK  status: ('A' for Active; 'I' for Inactive)
ROOT
HETATM    1  C1  UNL     1     -33.319  16.694  -4.545  1.00 20.00     0.001 C 
HETATM    2  C2  UNL     1     -33.715  16.237  -3.127  1.00 20.00     0.005 C 
HETATM    3  C3  UNL     1     -34.086  13.724  -3.599  1.00 20.00     0.005 C 
HETATM    4  C4  UNL     1     -34.664  13.209  -4.935  1.00 20.00     0.006 C 
HETATM    5  C5  UNL     1     -34.521  16.819  -5.499  1.00 20.00     0.010 C 
HETATM    6  C6  UNL     1     -35.929  15.440  -3.956  1.00 20.00     0.014 C 
HETATM    7  C7  UNL     1     -36.048  14.872  -6.501  1.00 20.00     0.015 A 
HETATM    8  C8  UNL     1     -34.720  15.055  -3.096  1.00 20.00    -0.014 C 
HETATM    9  C9  UNL     1     -34.765  14.331  -5.924  1.00 20.00    -0.005 A 
HETATM   10  C10 UNL     1     -35.385  15.594  -5.358  1.00 20.00    -0.036 A 
ENDROOT
TORSDOF 0
ENDMDL
MODEL 9
REMARK VINA RESULT:      -4.5     11.827     13.223
REMARK  0 active torsions:
REMARK  status: ('A' for Active; 'I' for Inactive)
ROOT
HETATM    1  C1  UNL     1     -35.293  16.998  -3.330  1.00 20.00     0.001 C 
HETATM    2  C2  UNL     1     -33.899  17.434  -3.822  1.00 20.00     0.005 C 
HETATM    3  C3  UNL     1     -33.867  16.203  -6.094  1.00 20.00     0.005 C 
HETATM    4  C4  UNL     1     -34.535  14.826  -6.299  1.00 20.00     0.006 C 
HETATM    5  C5  UNL     1     -35.325  15.552  -2.803  1.00 20.00     0.010 C 
HETATM    6  C6  UNL     1     -33.150  15.058  -3.940  1.00 20.00     0.014 C 
HETATM    7  C7  UNL     1     -35.048  13.282  -4.180  1.00 20.00     0.015 A 
HETATM    8  C8  UNL     1     -33.179  16.384  -4.709  1.00 20.00    -0.014 C 
HETATM    9  C9  UNL     1     -35.335  14.451  -5.088  1.00 20.00    -0.005 A 
HETATM   10  C10 UNL     1     -34.599  14.662  -3.778  1.00 20.00    -0.036 A 
ENDROOT
TORSDOF 0
ENDMDL
