MODEL 1
REMARK VINA RESULT:      -4.8      0.000      0.000
REMARK  0 active torsions:
REMARK  status: ('A' for Active; 'I' for Inactive)
ROOT
HETATM    1  C1  UNL     1     -35.023  15.221  -7.790  1.00 20.00     0.004 A 
HETATM    2  C2  UNL     1     -35.145  14.025  -7.064  1.00 20.00     0.034 A 
HETATM    3  C3  UNL     1     -34.567  16.401  -7.186  1.00 20.00     0.021 A 
HETATM    4  C4  UNL     1     -34.359  13.596  -3.649  1.00 20.00     0.210 A 
HETATM    5  C5  UNL     1     -34.791  14.032  -5.706  1.00 20.00     0.086 A 
HETATM    6  C6  UNL     1     -34.344  15.219  -5.148  1.00 20.00     0.081 A 
HETATM    7  C7  UNL     1     -34.223  16.425  -5.832  1.00 20.00     0.029 A 
HETATM    8  C8  UNL     1     -33.549  15.882  -2.906  1.00 20.00     0.140 C 
HETATM    9  C9  UNL     1     -34.011  17.308  -3.230  1.00 20.00     0.100 C 
HETATM   10  N10 UNL     1     -34.799  13.031  -4.757  1.00 20.00    -0.242 NA
HETATM   11  N11 UNL     1     -34.072  14.911  -3.845  1.00 20.00    -0.338 N 
HETATM   12  S12 UNL     1     -33.624  17.836  -4.953  1.00 20.00    -0.126 SA
ENDROOT
TORSDOF 0
ENDMDL
MODEL 2
REMARK VINA RESULT:      -4.8      2.585      3.105
REMARK  0 active torsions:
REMARK  status: ('A' for Active; 'I' for Inactive)
ROOT
HETATM    1  C1  UNL     1     -33.756  13.678  -4.073  1.00 20.00     0.004 A 
HETATM    2  C2  UNL     1     -35.108  13.328  -4.227  1.00 20.00     0.034 A 
HETATM    3  C3  UNL     1     -33.375  14.950  -3.622  1.00 20.00     0.021 A 
HETATM    4  C4  UNL     1     -37.869  15.418  -3.541  1.00 20.00     0.210 A 
HETATM    5  C5  UNL     1     -36.083  14.287  -3.911  1.00 20.00     0.086 A 
HETATM    6  C6  UNL     1     -35.664  15.531  -3.468  1.00 20.00     0.081 A 
HETATM    7  C7  UNL     1     -34.335  15.917  -3.315  1.00 20.00     0.029 A 
HETATM    8  C8  UNL     1     -36.824  17.582  -2.729  1.00 20.00     0.140 C 
HETATM    9  C9  UNL     1     -35.583  18.370  -3.167  1.00 20.00     0.100 C 
HETATM   10  N10 UNL     1     -37.460  14.234  -3.955  1.00 20.00    -0.242 NA
HETATM   11  N11 UNL     1     -36.818  16.226  -3.235  1.00 20.00    -0.338 N 
HETATM   12  S12 UNL     1     -33.994  17.548  -2.728  1.00 20.00    -0.126 SA
ENDROOT
TORSDOF 0
ENDMDL
MODEL 3
REMARK VINA RESULT:      -4.6      1.165      3.297
REMARK  0 active torsions:
REMARK  status: ('A' for Active; 'I' for Inactive)
ROOT
HETATM    1  C1  UNL     1     -34.051  17.107  -2.799  1.00 20.00     0.004 A 
HETATM    2  C2  UNL     1     -33.972  15.732  -2.523  1.00 20.00     0.034 A 
HETATM    3  C3  UNL     1     -34.420  17.581  -4.066  1.00 20.00     0.021 A 
HETATM    4  C4  UNL     1     -34.665  13.130  -4.807  1.00 20.00     0.210 A 
HETATM    5  C5  UNL     1     -34.279  14.829  -3.554  1.00 20.00     0.086 A 
HETATM    6  C6  UNL     1     -34.640  15.339  -4.790  1.00 20.00     0.081 A 
HETATM    7  C7  UNL     1     -34.716  16.693  -5.103  1.00 20.00     0.029 A 
HETATM    8  C8  UNL     1     -35.320  14.334  -6.941  1.00 20.00     0.140 C 
HETATM    9  C9  UNL     1     -34.791  15.597  -7.631  1.00 20.00     0.100 C 
HETATM   10  N10 UNL     1     -34.295  13.450  -3.581  1.00 20.00    -0.242 NA
HETATM   11  N11 UNL     1     -34.885  14.239  -5.563  1.00 20.00    -0.338 N 
HETATM   12  S12 UNL     1     -35.205  17.155  -6.737  1.00 20.00    -0.126 SA
ENDROOT
TORSDOF 0
ENDMDL
MODEL 4
REMARK VINA RESULT:      -4.5      2.203      3.979
REMARK  0 active torsions:
REMARK  status: ('A' for Active; 'I' for Inactive)
ROOT
HETATM    1  C1  UNL     1     -33.953  13.797  -3.834  1.00 20.00     0.004 A 
HETATM    2  C2  UNL     1     -33.432  15.061  -3.511  1.00 20.00     0.034 A 
HETATM    3  C3  UNL     1     -34.600  13.560  -5.054  1.00 20.00     0.021 A 
HETATM    4  C4  UNL     1     -33.547  17.923  -5.575  1.00 20.00     0.210 A 
HETATM    5  C5  UNL     1     -33.569  16.095  -4.451  1.00 20.00     0.086 A 
HETATM    6  C6  UNL     1     -34.214  15.819  -5.646  1.00 20.00     0.081 A 
HETATM    7  C7  UNL     1     -34.753  14.583  -5.993  1.00 20.00     0.029 A 
HETATM    8  C8  UNL     1     -34.732  17.131  -7.673  1.00 20.00     0.140 C 
HETATM    9  C9  UNL     1     -35.919  16.187  -7.907  1.00 20.00     0.100 C 
HETATM   10  N10 UNL     1     -33.163  17.413  -4.421  1.00 20.00    -0.242 NA
HETATM   11  N11 UNL     1     -34.180  16.995  -6.341  1.00 20.00    -0.338 N 
HETATM   12  S12 UNL     1     -35.533  14.417  -7.570  1.00 20.00    -0.126 SA
ENDROOT
TORSDOF 0
ENDMDL
MODEL 5
REMARK VINA RESULT:      -4.5      1.580      3.052
REMARK  0 active torsions:
REMARK  status: ('A' for Active; 'I' for Inactive)
ROOT
HETATM    1  C1  UNL     1     -34.322  13.668  -3.626  1.00 20.00     0.004 A 
HETATM    2  C2  UNL     1     -34.680  13.303  -4.935  1.00 20.00     0.034 A 
HETATM    3  C3  UNL     1     -34.078  15.005  -3.279  1.00 20.00     0.021 A 
HETATM    4  C4  UNL     1     -35.091  15.517  -7.653  1.00 20.00     0.210 A 
HETATM    5  C5  UNL     1     -34.796  14.316  -5.899  1.00 20.00     0.086 A 
HETATM    6  C6  UNL     1     -34.547  15.623  -5.515  1.00 20.00     0.081 A 
HETATM    7  C7  UNL     1     -34.178  16.021  -4.233  1.00 20.00     0.029 A 
HETATM    8  C8  UNL     1     -34.614  17.805  -6.669  1.00 20.00     0.140 C 
HETATM    9  C9  UNL     1     -33.584  18.309  -5.650  1.00 20.00     0.100 C 
HETATM   10  N10 UNL     1     -35.129  14.265  -7.237  1.00 20.00    -0.242 NA
HETATM   11  N11 UNL     1     -34.748  16.364  -6.646  1.00 20.00    -0.338 N 
HETATM   12  S12 UNL     1     -33.911  17.741  -3.928  1.00 20.00    -0.126 SA
ENDROOT
TORSDOF 0
ENDMDL
MODEL 6
REMARK VINA RESULT:      -4.4      2.103      4.609
REMARK  0 active torsions:
REMARK  status: ('A' for Active; 'I' for Inactive)
ROOT
HETATM    1  C1  UNL     1     -34.200  17.176  -1.398  1.00 20.00     0.004 A 
HETATM    2  C2  UNL     1     -33.835  18.208  -2.279  1.00 20.00     0.034 A 
HETATM    3  C3  UNL     1     -34.536  15.897  -1.866  1.00 20.00     0.021 A 
HETATM    4  C4  UNL     1     -33.621  17.938  -5.792  1.00 20.00     0.210 A 
HETATM    5  C5  UNL     1     -33.805  17.928  -3.654  1.00 20.00     0.086 A 
HETATM    6  C6  UNL     1     -34.143  16.652  -4.075  1.00 20.00     0.081 A 
HETATM    7  C7  UNL     1     -34.522  15.610  -3.233  1.00 20.00     0.029 A 
HETATM    8  C8  UNL     1     -34.249  15.528  -6.271  1.00 20.00     0.140 C 
HETATM    9  C9  UNL     1     -35.299  14.585  -5.671  1.00 20.00     0.100 C 
HETATM   10  N10 UNL     1     -33.487  18.720  -4.738  1.00 20.00    -0.242 NA
HETATM   11  N11 UNL     1     -34.011  16.686  -5.435  1.00 20.00    -0.338 N 
HETATM   12  S12 UNL     1     -34.909  14.043  -3.953  1.00 20.00    -0.126 SA
ENDROOT
TORSDOF 0
ENDMDL
MODEL 7
REMARK VINA RESULT:      -4.4      1.776      3.000
REMARK  0 active torsions:
REMARK  status: ('A' for Active; 'I' for Inactive)
ROOT
HETATM    1  C1  UNL     1     -34.735  13.316  -4.801  1.00 20.00     0.004 A 
HETATM    2  C2  UNL     1     -34.429  13.875  -3.549  1.00 20.00     0.034 A 
HETATM    3  C3  UNL     1     -34.802  14.103  -5.959  1.00 20.00     0.021 A 
HETATM    4  C4  UNL     1     -33.730  17.279  -2.928  1.00 20.00     0.210 A 
HETATM    5  C5  UNL     1     -34.181  15.255  -3.480  1.00 20.00     0.086 A 
HETATM    6  C6  UNL     1     -34.256  15.996  -4.648  1.00 20.00     0.081 A 
HETATM    7  C7  UNL     1     -34.569  15.480  -5.902  1.00 20.00     0.029 A 
HETATM    8  C8  UNL     1     -33.903  18.375  -5.208  1.00 20.00     0.140 C 
HETATM    9  C9  UNL     1     -34.858  18.176  -6.392  1.00 20.00     0.100 C 
HETATM   10  N10 UNL     1     -33.856  16.069  -2.416  1.00 20.00    -0.242 NA
HETATM   11  N11 UNL     1     -33.960  17.276  -4.268  1.00 20.00    -0.338 N 
HETATM   12  S12 UNL     1     -34.609  16.582  -7.282  1.00 20.00    -0.126 SA
ENDROOT
TORSDOF 0
ENDMDL
MODEL 8
REMARK VINA RESULT:      -4.3      1.852      3.094
REMARK  0 active torsions:
REMARK  status: ('A' for Active; 'I' for Inactive)
ROOT
HETATM    1  C1  UNL     1     -33.736  18.418  -6.180  1.00 20.00     0.004 A 
HETATM    2  C2  UNL     1     -34.424  17.779  -7.225  1.00 20.00     0.034 A 
HETATM    3  C3  UNL     1     -33.375  17.731  -5.011  1.00 20.00     0.021 A 
HETATM    4  C4  UNL     1     -35.406  14.389  -7.276  1.00 20.00     0.210 A 
HETATM    5  C5  UNL     1     -34.742  16.419  -7.078  1.00 20.00     0.086 A 
HETATM    6  C6  UNL     1     -34.367  15.778  -5.908  1.00 20.00     0.081 A 
HETATM    7  C7  UNL     1     -33.697  16.381  -4.848  1.00 20.00     0.029 A 
HETATM    8  C8  UNL     1     -34.576  13.467  -5.063  1.00 20.00     0.140 C 
HETATM    9  C9  UNL     1     -34.529  14.046  -3.644  1.00 20.00     0.100 C 
HETATM   10  N10 UNL     1     -35.393  15.541  -7.918  1.00 20.00    -0.242 NA
HETATM   11  N11 UNL     1     -34.796  14.490  -6.064  1.00 20.00    -0.338 N 
HETATM   12  S12 UNL     1     -33.293  15.397  -3.437  1.00 20.00    -0.126 SA
ENDROOT
TORSDOF 0
ENDMDL
MODEL 9
REMARK VINA RESULT:      -4.3      2.189      3.777
REMARK  0 active torsions:
REMARK  status: ('A' for Active; 'I' for Inactive)
ROOT
HETATM    1  C1  UNL     1     -33.600  15.828  -3.042  1.00 20.00     0.004 A 
HETATM    2  C2  UNL     1     -34.869  15.541  -2.512  1.00 20.00     0.034 A 
HETATM    3  C3  UNL     1     -33.374  15.864  -4.425  1.00 20.00     0.021 A 
HETATM    4  C4  UNL     1     -37.783  14.874  -4.390  1.00 20.00     0.210 A 
HETATM    5  C5  UNL     1     -35.922  15.294  -3.407  1.00 20.00     0.086 A 
HETATM    6  C6  UNL     1     -35.657  15.340  -4.766  1.00 20.00     0.081 A 
HETATM    7  C7  UNL     1     -34.411  15.608  -5.326  1.00 20.00     0.029 A 
HETATM    8  C8  UNL     1     -37.023  15.054  -6.803  1.00 20.00     0.140 C 
HETATM    9  C9  UNL     1     -35.742  14.622  -7.528  1.00 20.00     0.100 C 
HETATM   10  N10 UNL     1     -37.251  14.998  -3.189  1.00 20.00    -0.242 NA
HETATM   11  N11 UNL     1     -36.856  15.075  -5.365  1.00 20.00    -0.338 N 
HETATM   12  S12 UNL     1     -34.266  15.633  -7.087  1.00 20.00    -0.126 SA
ENDROOT
TORSDOF 0
ENDMDL
