MODEL 1
REMARK VINA RESULT:      -4.5      0.000      0.000
REMARK  0 active torsions:
REMARK  status: ('A' for Active; 'I' for Inactive)
ROOT
HETATM    1  C1  UNL     1     -34.454  13.781  -4.936  1.00 20.00     0.141 C 
HETATM    2  C2  UNL     1     -33.418  13.901  -3.837  1.00 20.00     0.079 C 
HETATM    3  C3  UNL     1     -33.335  15.329  -3.313  1.00 20.00     0.008 C 
HETATM    4  C4  UNL     1     -33.199  16.358  -4.441  1.00 20.00     0.017 C 
HETATM    5  C5  UNL     1     -37.047  15.098  -6.649  1.00 20.00     0.085 C 
HETATM    6  C6  UNL     1     -36.969  16.557  -6.238  1.00 20.00     0.084 C 
HETATM    7  C7  UNL     1     -34.323  14.800  -6.062  1.00 20.00     0.130 C 
HETATM    8  C8  UNL     1     -34.296  16.234  -5.517  1.00 20.00     0.068 C 
HETATM    9  O9  UNL     1     -35.269  12.860  -4.931  1.00 20.00    -0.297 OA
HETATM   10  S10 UNL     1     -35.509  14.506  -7.410  1.00 20.00    -0.155 SA
HETATM   11  S11 UNL     1     -35.890  16.799  -4.802  1.00 20.00    -0.162 SA
ENDROOT
TORSDOF 0
ENDMDL
MODEL 2
REMARK VINA RESULT:      -4.5      2.244      2.923
REMARK  0 active torsions:
REMARK  status: ('A' for Active; 'I' for Inactive)
ROOT
HETATM    1  C1  UNL     1     -36.137  14.398  -4.162  1.00 20.00     0.141 C 
HETATM    2  C2  UNL     1     -35.095  13.307  -4.308  1.00 20.00     0.079 C 
HETATM    3  C3  UNL     1     -33.795  13.693  -3.614  1.00 20.00     0.008 C 
HETATM    4  C4  UNL     1     -33.317  15.095  -4.008  1.00 20.00     0.017 C 
HETATM    5  C5  UNL     1     -37.175  17.256  -2.695  1.00 20.00     0.085 C 
HETATM    6  C6  UNL     1     -35.892  17.746  -2.052  1.00 20.00     0.084 C 
HETATM    7  C7  UNL     1     -35.669  15.795  -4.553  1.00 20.00     0.130 C 
HETATM    8  C8  UNL     1     -34.389  16.185  -3.804  1.00 20.00     0.068 C 
HETATM    9  O9  UNL     1     -37.291  14.124  -3.836  1.00 20.00    -0.297 OA
HETATM   10  S10 UNL     1     -37.010  17.023  -4.489  1.00 20.00    -0.155 SA
HETATM   11  S11 UNL     1     -34.621  16.455  -2.003  1.00 20.00    -0.162 SA
ENDROOT
TORSDOF 0
ENDMDL
MODEL 3
REMARK VINA RESULT:      -4.4      2.206      3.284
REMARK  0 active torsions:
REMARK  status: ('A' for Active; 'I' for Inactive)
ROOT
HETATM    1  C1  UNL     1     -34.954  15.478  -5.627  1.00 20.00     0.141 C 
HETATM    2  C2  UNL     1     -35.030  13.965  -5.675  1.00 20.00     0.079 C 
HETATM    3  C3  UNL     1     -34.674  13.354  -4.325  1.00 20.00     0.008 C 
HETATM    4  C4  UNL     1     -33.364  13.914  -3.758  1.00 20.00     0.017 C 
HETATM    5  C5  UNL     1     -34.709  18.326  -3.832  1.00 20.00     0.085 C 
HETATM    6  C6  UNL     1     -34.265  17.793  -2.482  1.00 20.00     0.084 C 
HETATM    7  C7  UNL     1     -33.653  16.042  -5.065  1.00 20.00     0.130 C 
HETATM    8  C8  UNL     1     -33.341  15.454  -3.683  1.00 20.00     0.068 C 
HETATM    9  O9  UNL     1     -35.856  16.167  -6.099  1.00 20.00    -0.297 OA
HETATM   10  S10 UNL     1     -33.577  17.856  -5.171  1.00 20.00    -0.155 SA
HETATM   11  S11 UNL     1     -34.486  15.998  -2.355  1.00 20.00    -0.162 SA
ENDROOT
TORSDOF 0
ENDMDL
MODEL 4
REMARK VINA RESULT:      -4.3      2.399      3.322
REMARK  0 active torsions:
REMARK  status: ('A' for Active; 'I' for Inactive)
ROOT
HETATM    1  C1  UNL     1     -34.107  17.307  -4.344  1.00 20.00     0.141 C 
HETATM    2  C2  UNL     1     -33.725  17.915  -3.009  1.00 20.00     0.079 C 
HETATM    3  C3  UNL     1     -33.725  16.864  -1.906  1.00 20.00     0.008 C 
HETATM    4  C4  UNL     1     -35.014  16.034  -1.890  1.00 20.00     0.017 C 
HETATM    5  C5  UNL     1     -34.648  14.574  -6.250  1.00 20.00     0.085 C 
HETATM    6  C6  UNL     1     -34.748  13.487  -5.196  1.00 20.00     0.084 C 
HETATM    7  C7  UNL     1     -35.388  16.482  -4.335  1.00 20.00     0.130 C 
HETATM    8  C8  UNL     1     -35.345  15.395  -3.253  1.00 20.00     0.068 C 
HETATM    9  O9  UNL     1     -33.455  17.557  -5.356  1.00 20.00    -0.297 OA
HETATM   10  S10 UNL     1     -35.858  15.904  -5.995  1.00 20.00    -0.155 SA
HETATM   11  S11 UNL     1     -34.140  14.049  -3.583  1.00 20.00    -0.162 SA
ENDROOT
TORSDOF 0
ENDMDL
MODEL 5
REMARK VINA RESULT:      -4.2      1.997      2.768
REMARK  0 active torsions:
REMARK  status: ('A' for Active; 'I' for Inactive)
ROOT
HETATM    1  C1  UNL     1     -35.339  16.010  -3.253  1.00 20.00     0.141 C 
HETATM    2  C2  UNL     1     -33.966  15.843  -2.634  1.00 20.00     0.079 C 
HETATM    3  C3  UNL     1     -33.050  15.032  -3.540  1.00 20.00     0.008 C 
HETATM    4  C4  UNL     1     -33.703  13.729  -4.015  1.00 20.00     0.017 C 
HETATM    5  C5  UNL     1     -37.375  15.757  -5.933  1.00 20.00     0.085 C 
HETATM    6  C6  UNL     1     -36.552  14.876  -6.853  1.00 20.00     0.084 C 
HETATM    7  C7  UNL     1     -35.996  14.718  -3.726  1.00 20.00     0.130 C 
HETATM    8  C8  UNL     1     -35.078  13.943  -4.680  1.00 20.00     0.068 C 
HETATM    9  O9  UNL     1     -35.889  17.110  -3.272  1.00 20.00    -0.297 OA
HETATM   10  S10 UNL     1     -37.694  14.978  -4.324  1.00 20.00    -0.155 SA
HETATM   11  S11 UNL     1     -34.827  14.751  -6.309  1.00 20.00    -0.162 SA
ENDROOT
TORSDOF 0
ENDMDL
MODEL 6
REMARK VINA RESULT:      -4.2      1.825      2.830
REMARK  0 active torsions:
REMARK  status: ('A' for Active; 'I' for Inactive)
ROOT
HETATM    1  C1  UNL     1     -33.689  16.105  -4.475  1.00 20.00     0.141 C 
HETATM    2  C2  UNL     1     -33.140  14.979  -3.622  1.00 20.00     0.079 C 
HETATM    3  C3  UNL     1     -33.704  13.633  -4.059  1.00 20.00     0.008 C 
HETATM    4  C4  UNL     1     -35.231  13.654  -4.190  1.00 20.00     0.017 C 
HETATM    5  C5  UNL     1     -35.360  17.126  -7.224  1.00 20.00     0.085 C 
HETATM    6  C6  UNL     1     -36.026  15.836  -7.667  1.00 20.00     0.084 C 
HETATM    7  C7  UNL     1     -35.207  16.133  -4.608  1.00 20.00     0.130 C 
HETATM    8  C8  UNL     1     -35.750  14.785  -5.101  1.00 20.00     0.068 C 
HETATM    9  O9  UNL     1     -32.941  16.965  -4.935  1.00 20.00    -0.297 OA
HETATM   10  S10 UNL     1     -35.800  17.588  -5.525  1.00 20.00    -0.155 SA
HETATM   11  S11 UNL     1     -35.316  14.388  -6.841  1.00 20.00    -0.162 SA
ENDROOT
TORSDOF 0
ENDMDL
MODEL 7
REMARK VINA RESULT:      -4.2      2.351      3.646
REMARK  0 active torsions:
REMARK  status: ('A' for Active; 'I' for Inactive)
ROOT
HETATM    1  C1  UNL     1     -33.625  14.771  -3.545  1.00 20.00     0.141 C 
HETATM    2  C2  UNL     1     -34.105  13.491  -4.200  1.00 20.00     0.079 C 
HETATM    3  C3  UNL     1     -35.429  13.706  -4.922  1.00 20.00     0.008 C 
HETATM    4  C4  UNL     1     -36.468  14.406  -4.039  1.00 20.00     0.017 C 
HETATM    5  C5  UNL     1     -33.870  18.115  -3.163  1.00 20.00     0.085 C 
HETATM    6  C6  UNL     1     -35.225  18.390  -3.789  1.00 20.00     0.084 C 
HETATM    7  C7  UNL     1     -34.653  15.471  -2.665  1.00 20.00     0.130 C 
HETATM    8  C8  UNL     1     -35.960  15.727  -3.427  1.00 20.00     0.068 C 
HETATM    9  O9  UNL     1     -32.457  15.137  -3.666  1.00 20.00    -0.297 OA
HETATM   10  S10 UNL     1     -33.963  16.917  -1.802  1.00 20.00    -0.155 SA
HETATM   11  S11 UNL     1     -35.822  16.981  -4.760  1.00 20.00    -0.162 SA
ENDROOT
TORSDOF 0
ENDMDL
MODEL 8
REMARK VINA RESULT:      -4.1      2.096      3.185
REMARK  0 active torsions:
REMARK  status: ('A' for Active; 'I' for Inactive)
ROOT
HETATM    1  C1  UNL     1     -33.360  15.082  -3.835  1.00 20.00     0.141 C 
HETATM    2  C2  UNL     1     -33.738  13.619  -3.719  1.00 20.00     0.079 C 
HETATM    3  C3  UNL     1     -35.025  13.322  -4.478  1.00 20.00     0.008 C 
HETATM    4  C4  UNL     1     -36.148  14.306  -4.131  1.00 20.00     0.017 C 
HETATM    5  C5  UNL     1     -33.788  18.093  -5.300  1.00 20.00     0.085 C 
HETATM    6  C6  UNL     1     -35.114  17.895  -6.010  1.00 20.00     0.084 C 
HETATM    7  C7  UNL     1     -34.471  16.066  -3.489  1.00 20.00     0.130 C 
HETATM    8  C8  UNL     1     -35.740  15.783  -4.303  1.00 20.00     0.068 C 
HETATM    9  O9  UNL     1     -32.206  15.412  -4.102  1.00 20.00    -0.297 OA
HETATM   10  S10 UNL     1     -33.905  17.795  -3.512  1.00 20.00    -0.155 SA
HETATM   11  S11 UNL     1     -35.583  16.146  -6.096  1.00 20.00    -0.162 SA
ENDROOT
TORSDOF 0
ENDMDL
MODEL 9
REMARK VINA RESULT:      -4.1      2.260      3.149
REMARK  0 active torsions:
REMARK  status: ('A' for Active; 'I' for Inactive)
ROOT
HETATM    1  C1  UNL     1     -34.051  16.413  -2.719  1.00 20.00     0.141 C 
HETATM    2  C2  UNL     1     -33.868  17.917  -2.678  1.00 20.00     0.079 C 
HETATM    3  C3  UNL     1     -34.160  18.543  -4.035  1.00 20.00     0.008 C 
HETATM    4  C4  UNL     1     -33.419  17.837  -5.176  1.00 20.00     0.017 C 
HETATM    5  C5  UNL     1     -35.175  13.659  -4.314  1.00 20.00     0.085 C 
HETATM    6  C6  UNL     1     -35.405  14.196  -5.714  1.00 20.00     0.084 C 
HETATM    7  C7  UNL     1     -33.315  15.704  -3.850  1.00 20.00     0.130 C 
HETATM    8  C8  UNL     1     -33.665  16.315  -5.213  1.00 20.00     0.068 C 
HETATM    9  O9  UNL     1     -34.679  15.834  -1.834  1.00 20.00    -0.297 OA
HETATM   10  S10 UNL     1     -33.464  13.893  -3.751  1.00 20.00    -0.155 SA
HETATM   11  S11 UNL     1     -35.392  16.008  -5.757  1.00 20.00    -0.162 SA
ENDROOT
TORSDOF 0
ENDMDL
