MODEL 1
REMARK VINA RESULT:      -5.0      0.000      0.000
REMARK  3 active torsions:
REMARK  status: ('A' for Active; 'I' for Inactive)
REMARK    1  A    between atoms: C1_1  and  C7_7 
REMARK    2  A    between atoms: C2_2  and  C8_8 
REMARK    3  A    between atoms: C8_8  and  C9_9 
ROOT
HETATM    1  C1  UNL     1     -31.902   7.590   3.050  1.00 20.00     0.157 A 
HETATM    2  C2  UNL     1     -32.668   6.601   3.893  1.00 20.00     0.185 A 
HETATM    3  O10 UNL     1     -31.808   6.177   2.828  1.00 20.00    -0.372 OA
ENDROOT
BRANCH   2   4
HETATM    4  C8  UNL     1     -34.119   6.298   3.686  1.00 20.00     0.204 C 
HETATM    5  F11 UNL     1     -34.224   5.341   2.724  1.00 20.00    -0.246 F 
BRANCH   4   6
HETATM    6  C9  UNL     1     -34.846   5.823   4.954  1.00 20.00     0.014 C 
HETATM    7  C5  UNL     1     -34.114   6.225   6.237  1.00 20.00     0.012 C 
HETATM    8  C6  UNL     1     -35.012   4.301   4.921  1.00 20.00     0.012 C 
ENDBRANCH   4   6
ENDBRANCH   2   4
BRANCH   1   9
HETATM    9  C7  UNL     1     -32.516   8.357   1.934  1.00 20.00     0.009 C 
HETATM   10  C3  UNL     1     -32.782   9.826   2.320  1.00 20.00     0.012 C 
HETATM   11  C4  UNL     1     -31.645   8.322   0.662  1.00 20.00     0.012 C 
ENDBRANCH   1   9
TORSDOF 3
ENDMDL
MODEL 2
REMARK VINA RESULT:      -4.8      1.311      1.693
REMARK  3 active torsions:
REMARK  status: ('A' for Active; 'I' for Inactive)
REMARK    1  A    between atoms: C1_1  and  C7_7 
REMARK    2  A    between atoms: C2_2  and  C8_8 
REMARK    3  A    between atoms: C8_8  and  C9_9 
ROOT
HETATM    1  C1  UNL     1     -32.565   5.976   2.944  1.00 20.00     0.157 A 
HETATM    2  C2  UNL     1     -33.758   5.232   3.490  1.00 20.00     0.185 A 
HETATM    3  O10 UNL     1     -33.662   5.591   2.106  1.00 20.00    -0.372 OA
ENDROOT
BRANCH   2   4
HETATM    4  C8  UNL     1     -34.869   5.900   4.237  1.00 20.00     0.204 C 
HETATM    5  F11 UNL     1     -36.052   5.488   3.703  1.00 20.00    -0.246 F 
BRANCH   4   6
HETATM    6  C9  UNL     1     -34.869   5.616   5.747  1.00 20.00     0.014 C 
HETATM    7  C5  UNL     1     -33.919   6.535   6.517  1.00 20.00     0.012 C 
HETATM    8  C6  UNL     1     -34.482   4.157   6.003  1.00 20.00     0.012 C 
ENDBRANCH   4   6
ENDBRANCH   2   4
BRANCH   1   9
HETATM    9  C7  UNL     1     -32.381   7.443   3.095  1.00 20.00     0.009 C 
HETATM   10  C3  UNL     1     -31.288   7.786   4.128  1.00 20.00     0.012 C 
HETATM   11  C4  UNL     1     -32.034   8.123   1.754  1.00 20.00     0.012 C 
ENDBRANCH   1   9
TORSDOF 3
ENDMDL
MODEL 3
REMARK VINA RESULT:      -4.8      1.461      4.368
REMARK  3 active torsions:
REMARK  status: ('A' for Active; 'I' for Inactive)
REMARK    1  A    between atoms: C1_1  and  C7_7 
REMARK    2  A    between atoms: C2_2  and  C8_8 
REMARK    3  A    between atoms: C8_8  and  C9_9 
ROOT
HETATM    1  C1  UNL     1     -34.700   5.963   4.260  1.00 20.00     0.157 A 
HETATM    2  C2  UNL     1     -33.783   6.254   3.097  1.00 20.00     0.185 A 
HETATM    3  O10 UNL     1     -34.556   5.048   3.166  1.00 20.00    -0.372 OA
ENDROOT
BRANCH   2   4
HETATM    4  C8  UNL     1     -32.302   6.053   3.153  1.00 20.00     0.204 C 
HETATM    5  F11 UNL     1     -31.947   5.196   2.156  1.00 20.00    -0.246 F 
BRANCH   4   6
HETATM    6  C9  UNL     1     -31.488   7.351   3.017  1.00 20.00     0.014 C 
HETATM    7  C5  UNL     1     -31.290   8.061   4.358  1.00 20.00     0.012 C 
HETATM    8  C6  UNL     1     -32.181   8.300   2.037  1.00 20.00     0.012 C 
ENDBRANCH   4   6
ENDBRANCH   2   4
BRANCH   1   9
HETATM    9  C7  UNL     1     -34.219   5.450   5.569  1.00 20.00     0.009 C 
HETATM   10  C3  UNL     1     -34.079   6.574   6.615  1.00 20.00     0.012 C 
HETATM   11  C4  UNL     1     -35.142   4.351   6.134  1.00 20.00     0.012 C 
ENDBRANCH   1   9
TORSDOF 3
ENDMDL
MODEL 4
REMARK VINA RESULT:      -4.1     11.220     12.448
REMARK  3 active torsions:
REMARK  status: ('A' for Active; 'I' for Inactive)
REMARK    1  A    between atoms: C1_1  and  C7_7 
REMARK    2  A    between atoms: C2_2  and  C8_8 
REMARK    3  A    between atoms: C8_8  and  C9_9 
ROOT
HETATM    1  C1  UNL     1     -34.252  16.724  -5.501  1.00 20.00     0.157 A 
HETATM    2  C2  UNL     1     -33.722  17.131  -4.147  1.00 20.00     0.185 A 
HETATM    3  O10 UNL     1     -32.859  16.628  -5.176  1.00 20.00    -0.372 OA
ENDROOT
BRANCH   2   4
HETATM    4  C8  UNL     1     -33.824  16.263  -2.933  1.00 20.00     0.204 C 
HETATM    5  F11 UNL     1     -32.879  15.286  -3.025  1.00 20.00    -0.246 F 
BRANCH   4   6
HETATM    6  C9  UNL     1     -33.643  17.018  -1.607  1.00 20.00     0.014 C 
HETATM    7  C5  UNL     1     -34.771  16.736  -0.612  1.00 20.00     0.012 C 
HETATM    8  C6  UNL     1     -33.564  18.524  -1.870  1.00 20.00     0.012 C 
ENDBRANCH   4   6
ENDBRANCH   2   4
BRANCH   1   9
HETATM    9  C7  UNL     1     -34.924  15.423  -5.755  1.00 20.00     0.009 C 
HETATM   10  C3  UNL     1     -36.461  15.550  -5.724  1.00 20.00     0.012 C 
HETATM   11  C4  UNL     1     -34.499  14.807  -7.103  1.00 20.00     0.012 C 
ENDBRANCH   1   9
TORSDOF 3
ENDMDL
MODEL 5
REMARK VINA RESULT:      -4.1     10.960     12.483
REMARK  3 active torsions:
REMARK  status: ('A' for Active; 'I' for Inactive)
REMARK    1  A    between atoms: C1_1  and  C7_7 
REMARK    2  A    between atoms: C2_2  and  C8_8 
REMARK    3  A    between atoms: C8_8  and  C9_9 
ROOT
HETATM    1  C1  UNL     1     -35.771  15.933  -3.499  1.00 20.00     0.157 A 
HETATM    2  C2  UNL     1     -35.887  15.114  -4.762  1.00 20.00     0.185 A 
HETATM    3  O10 UNL     1     -36.228  14.574  -3.478  1.00 20.00    -0.372 OA
ENDROOT
BRANCH   2   4
HETATM    4  C8  UNL     1     -34.716  14.463  -5.426  1.00 20.00     0.204 C 
HETATM    5  F11 UNL     1     -34.915  13.116  -5.421  1.00 20.00    -0.246 F 
BRANCH   4   6
HETATM    6  C9  UNL     1     -34.473  14.933  -6.869  1.00 20.00     0.014 C 
HETATM    7  C5  UNL     1     -34.373  16.456  -6.981  1.00 20.00     0.012 C 
HETATM    8  C6  UNL     1     -35.598  14.430  -7.778  1.00 20.00     0.012 C 
ENDBRANCH   4   6
ENDBRANCH   2   4
BRANCH   1   9
HETATM    9  C7  UNL     1     -34.483  16.168  -2.796  1.00 20.00     0.009 C 
HETATM   10  C3  UNL     1     -33.731  17.391  -3.361  1.00 20.00     0.012 C 
HETATM   11  C4  UNL     1     -34.680  16.357  -1.278  1.00 20.00     0.012 C 
ENDBRANCH   1   9
TORSDOF 3
ENDMDL
MODEL 6
REMARK VINA RESULT:      -4.1     10.774     11.814
REMARK  3 active torsions:
REMARK  status: ('A' for Active; 'I' for Inactive)
REMARK    1  A    between atoms: C1_1  and  C7_7 
REMARK    2  A    between atoms: C2_2  and  C8_8 
REMARK    3  A    between atoms: C8_8  and  C9_9 
ROOT
HETATM    1  C1  UNL     1     -33.500  15.658  -4.850  1.00 20.00     0.157 A 
HETATM    2  C2  UNL     1     -33.558  16.478  -3.584  1.00 20.00     0.185 A 
HETATM    3  O10 UNL     1     -32.836  15.241  -3.650  1.00 20.00    -0.372 OA
ENDROOT
BRANCH   2   4
HETATM    4  C8  UNL     1     -34.731  16.471  -2.656  1.00 20.00     0.204 C 
HETATM    5  F11 UNL     1     -34.746  15.281  -1.993  1.00 20.00    -0.246 F 
BRANCH   4   6
HETATM    6  C9  UNL     1     -34.729  17.619  -1.634  1.00 20.00     0.014 C 
HETATM    7  C5  UNL     1     -33.526  18.551  -1.802  1.00 20.00     0.012 C 
HETATM    8  C6  UNL     1     -34.738  17.052  -0.212  1.00 20.00     0.012 C 
ENDBRANCH   4   6
ENDBRANCH   2   4
BRANCH   1   9
HETATM    9  C7  UNL     1     -34.603  14.767  -5.294  1.00 20.00     0.009 C 
HETATM   10  C3  UNL     1     -34.750  14.748  -6.829  1.00 20.00     0.012 C 
HETATM   11  C4  UNL     1     -34.416  13.321  -4.790  1.00 20.00     0.012 C 
ENDBRANCH   1   9
TORSDOF 3
ENDMDL
MODEL 7
REMARK VINA RESULT:      -4.1     10.735     11.832
REMARK  3 active torsions:
REMARK  status: ('A' for Active; 'I' for Inactive)
REMARK    1  A    between atoms: C1_1  and  C7_7 
REMARK    2  A    between atoms: C2_2  and  C8_8 
REMARK    3  A    between atoms: C8_8  and  C9_9 
ROOT
HETATM    1  C1  UNL     1     -34.554  14.048  -5.215  1.00 20.00     0.157 A 
HETATM    2  C2  UNL     1     -34.589  14.338  -3.735  1.00 20.00     0.185 A 
HETATM    3  O10 UNL     1     -35.579  13.514  -4.366  1.00 20.00    -0.372 OA
ENDROOT
BRANCH   2   4
HETATM    4  C8  UNL     1     -35.111  15.619  -3.164  1.00 20.00     0.204 C 
HETATM    5  F11 UNL     1     -36.257  15.348  -2.480  1.00 20.00    -0.246 F 
BRANCH   4   6
HETATM    6  C9  UNL     1     -34.123  16.336  -2.229  1.00 20.00     0.014 C 
HETATM    7  C5  UNL     1     -34.695  16.552  -0.826  1.00 20.00     0.012 C 
HETATM    8  C6  UNL     1     -33.725  17.687  -2.829  1.00 20.00     0.012 C 
ENDBRANCH   4   6
ENDBRANCH   2   4
BRANCH   1   9
HETATM    9  C7  UNL     1     -35.035  15.005  -6.245  1.00 20.00     0.009 C 
HETATM   10  C3  UNL     1     -33.961  16.051  -6.609  1.00 20.00     0.012 C 
HETATM   11  C4  UNL     1     -35.494  14.288  -7.531  1.00 20.00     0.012 C 
ENDBRANCH   1   9
TORSDOF 3
ENDMDL
MODEL 8
REMARK VINA RESULT:      -4.0     10.428     11.666
REMARK  3 active torsions:
REMARK  status: ('A' for Active; 'I' for Inactive)
REMARK    1  A    between atoms: C1_1  and  C7_7 
REMARK    2  A    between atoms: C2_2  and  C8_8 
REMARK    3  A    between atoms: C8_8  and  C9_9 
ROOT
HETATM    1  C1  UNL     1     -36.057  14.430  -4.976  1.00 20.00     0.157 A 
HETATM    2  C2  UNL     1     -34.625  13.981  -4.822  1.00 20.00     0.185 A 
HETATM    3  O10 UNL     1     -35.721  13.067  -4.685  1.00 20.00    -0.372 OA
ENDROOT
BRANCH   2   4
HETATM    4  C8  UNL     1     -33.828  14.197  -3.575  1.00 20.00     0.204 C 
HETATM    5  F11 UNL     1     -32.908  13.198  -3.475  1.00 20.00    -0.246 F 
BRANCH   4   6
HETATM    6  C9  UNL     1     -33.109  15.555  -3.519  1.00 20.00     0.014 C 
HETATM    7  C5  UNL     1     -33.672  16.472  -2.431  1.00 20.00     0.012 C 
HETATM    8  C6  UNL     1     -33.210  16.255  -4.876  1.00 20.00     0.012 C 
ENDBRANCH   4   6
ENDBRANCH   2   4
BRANCH   1   9
HETATM    9  C7  UNL     1     -36.812  15.129  -3.903  1.00 20.00     0.009 C 
HETATM   10  C3  UNL     1     -36.828  16.658  -4.109  1.00 20.00     0.012 C 
HETATM   11  C4  UNL     1     -38.264  14.622  -3.794  1.00 20.00     0.012 C 
ENDBRANCH   1   9
TORSDOF 3
ENDMDL
MODEL 9
REMARK VINA RESULT:      -4.0     11.072     12.036
REMARK  3 active torsions:
REMARK  status: ('A' for Active; 'I' for Inactive)
REMARK    1  A    between atoms: C1_1  and  C7_7 
REMARK    2  A    between atoms: C2_2  and  C8_8 
REMARK    3  A    between atoms: C8_8  and  C9_9 
ROOT
HETATM    1  C1  UNL     1     -33.303  16.211  -3.354  1.00 20.00     0.157 A 
HETATM    2  C2  UNL     1     -33.687  15.497  -4.627  1.00 20.00     0.185 A 
HETATM    3  O10 UNL     1     -32.941  16.721  -4.644  1.00 20.00    -0.372 OA
ENDROOT
BRANCH   2   4
HETATM    4  C8  UNL     1     -35.050  15.584  -5.236  1.00 20.00     0.204 C 
HETATM    5  F11 UNL     1     -34.913  15.631  -6.590  1.00 20.00    -0.246 F 
BRANCH   4   6
HETATM    6  C9  UNL     1     -35.979  14.417  -4.863  1.00 20.00     0.014 C 
HETATM    7  C5  UNL     1     -37.027  14.811  -3.820  1.00 20.00     0.012 C 
HETATM    8  C6  UNL     1     -35.152  13.242  -4.332  1.00 20.00     0.012 C 
ENDBRANCH   4   6
ENDBRANCH   2   4
BRANCH   1   9
HETATM    9  C7  UNL     1     -34.243  17.068  -2.586  1.00 20.00     0.009 C 
HETATM   10  C3  UNL     1     -34.638  16.430  -1.238  1.00 20.00     0.012 C 
HETATM   11  C4  UNL     1     -33.662  18.473  -2.325  1.00 20.00     0.012 C 
ENDBRANCH   1   9
TORSDOF 3
ENDMDL
