MODEL 1
REMARK VINA RESULT:      -4.4      0.000      0.000
REMARK  2 active torsions:
REMARK  status: ('A' for Active; 'I' for Inactive)
REMARK    1  A    between atoms: C1_1  and  C2_2 
REMARK    2  A    between atoms: C1_1  and  C3_3 
ROOT
HETATM    1  C2  UNL     1     -33.642   5.254   3.958  1.00 20.00     0.043 A 
HETATM    2  C4  UNL     1     -35.086   5.242   3.879  1.00 20.00     0.013 A 
HETATM    3  C5  UNL     1     -34.367   5.154   5.220  1.00 20.00    -0.023 A 
HETATM    4  C8  UNL     1     -35.904   6.423   3.474  1.00 20.00     0.012 C 
HETATM    5  C9  UNL     1     -34.411   6.315   6.184  1.00 20.00     0.017 C 
HETATM    6  C10 UNL     1     -34.349   3.809   5.906  1.00 20.00     0.017 C 
ENDROOT
BRANCH   1   7
HETATM    7  C1  UNL     1     -32.887   6.246   3.609  1.00 20.00    -0.159 C 
BRANCH   7   8
HETATM    8  C3  UNL     1     -32.127   7.247   3.257  1.00 20.00     0.022 C 
HETATM    9  C6  UNL     1     -32.232   7.901   1.909  1.00 20.00     0.029 C 
HETATM   10  C7  UNL     1     -31.089   7.828   4.175  1.00 20.00     0.029 C 
ENDBRANCH   7   8
ENDBRANCH   1   7
TORSDOF 2
ENDMDL
MODEL 2
REMARK VINA RESULT:      -4.4     11.444     12.763
REMARK  2 active torsions:
REMARK  status: ('A' for Active; 'I' for Inactive)
REMARK    1  A    between atoms: C1_1  and  C2_2 
REMARK    2  A    between atoms: C1_1  and  C3_3 
ROOT
HETATM    1  C2  UNL     1     -33.468  15.617  -3.096  1.00 20.00     0.043 A 
HETATM    2  C4  UNL     1     -33.319  15.911  -4.504  1.00 20.00     0.013 A 
HETATM    3  C5  UNL     1     -34.471  15.055  -3.993  1.00 20.00    -0.023 A 
HETATM    4  C8  UNL     1     -33.516  17.268  -5.093  1.00 20.00     0.012 C 
HETATM    5  C9  UNL     1     -35.883  15.591  -4.012  1.00 20.00     0.017 C 
HETATM    6  C10 UNL     1     -34.394  13.569  -4.250  1.00 20.00     0.017 C 
ENDROOT
BRANCH   1   7
HETATM    7  C1  UNL     1     -33.700  16.495  -2.174  1.00 20.00    -0.159 C 
BRANCH   7   8
HETATM    8  C3  UNL     1     -33.933  17.381  -1.245  1.00 20.00     0.022 C 
HETATM    9  C6  UNL     1     -34.858  17.112  -0.092  1.00 20.00     0.029 C 
HETATM   10  C7  UNL     1     -33.290  18.738  -1.250  1.00 20.00     0.029 C 
ENDBRANCH   7   8
ENDBRANCH   1   7
TORSDOF 2
ENDMDL
MODEL 3
REMARK VINA RESULT:      -4.4     11.169     13.323
REMARK  2 active torsions:
REMARK  status: ('A' for Active; 'I' for Inactive)
REMARK    1  A    between atoms: C1_1  and  C2_2 
REMARK    2  A    between atoms: C1_1  and  C3_3 
ROOT
HETATM    1  C2  UNL     1     -33.336  16.158  -4.179  1.00 20.00     0.043 A 
HETATM    2  C4  UNL     1     -33.069  14.970  -3.400  1.00 20.00     0.013 A 
HETATM    3  C5  UNL     1     -34.131  15.975  -2.970  1.00 20.00    -0.023 A 
HETATM    4  C8  UNL     1     -33.399  13.588  -3.855  1.00 20.00     0.012 C 
HETATM    5  C9  UNL     1     -35.595  15.615  -3.051  1.00 20.00     0.017 C 
HETATM    6  C10 UNL     1     -33.800  16.871  -1.800  1.00 20.00     0.017 C 
ENDROOT
BRANCH   1   7
HETATM    7  C1  UNL     1     -33.804  16.165  -5.386  1.00 20.00    -0.159 C 
BRANCH   7   8
HETATM    8  C3  UNL     1     -34.277  16.172  -6.602  1.00 20.00     0.022 C 
HETATM    9  C6  UNL     1     -34.530  17.444  -7.359  1.00 20.00     0.029 C 
HETATM   10  C7  UNL     1     -34.602  14.906  -7.344  1.00 20.00     0.029 C 
ENDBRANCH   7   8
ENDBRANCH   1   7
TORSDOF 2
ENDMDL
MODEL 4
REMARK VINA RESULT:      -4.3     11.525     12.447
REMARK  2 active torsions:
REMARK  status: ('A' for Active; 'I' for Inactive)
REMARK    1  A    between atoms: C1_1  and  C2_2 
REMARK    2  A    between atoms: C1_1  and  C3_3 
ROOT
HETATM    1  C2  UNL     1     -35.054  15.329  -2.275  1.00 20.00     0.043 A 
HETATM    2  C4  UNL     1     -34.238  14.831  -3.360  1.00 20.00     0.013 A 
HETATM    3  C5  UNL     1     -35.567  15.529  -3.625  1.00 20.00    -0.023 A 
HETATM    4  C8  UNL     1     -32.923  15.418  -3.746  1.00 20.00     0.012 C 
HETATM    5  C9  UNL     1     -35.591  16.903  -4.251  1.00 20.00     0.017 C 
HETATM    6  C10 UNL     1     -36.731  14.662  -4.043  1.00 20.00     0.017 C 
ENDROOT
BRANCH   1   7
HETATM    7  C1  UNL     1     -34.709  16.274  -1.460  1.00 20.00    -0.159 C 
BRANCH   7   8
HETATM    8  C3  UNL     1     -34.363  17.227  -0.639  1.00 20.00     0.022 C 
HETATM    9  C6  UNL     1     -35.050  17.440   0.680  1.00 20.00     0.029 C 
HETATM   10  C7  UNL     1     -33.245  18.183  -0.944  1.00 20.00     0.029 C 
ENDBRANCH   7   8
ENDBRANCH   1   7
TORSDOF 2
ENDMDL
MODEL 5
REMARK VINA RESULT:      -4.2     11.117     12.566
REMARK  2 active torsions:
REMARK  status: ('A' for Active; 'I' for Inactive)
REMARK    1  A    between atoms: C1_1  and  C2_2 
REMARK    2  A    between atoms: C1_1  and  C3_3 
ROOT
HETATM    1  C2  UNL     1     -35.195  15.082  -3.276  1.00 20.00     0.043 A 
HETATM    2  C4  UNL     1     -34.368  14.008  -3.779  1.00 20.00     0.013 A 
HETATM    3  C5  UNL     1     -34.927  15.078  -4.710  1.00 20.00    -0.023 A 
HETATM    4  C8  UNL     1     -32.912  13.874  -3.481  1.00 20.00     0.012 C 
HETATM    5  C9  UNL     1     -34.007  16.102  -5.331  1.00 20.00     0.017 C 
HETATM    6  C10 UNL     1     -36.071  14.679  -5.611  1.00 20.00     0.017 C 
ENDROOT
BRANCH   1   7
HETATM    7  C1  UNL     1     -34.803  15.996  -2.447  1.00 20.00    -0.159 C 
BRANCH   7   8
HETATM    8  C3  UNL     1     -34.408  16.918  -1.612  1.00 20.00     0.022 C 
HETATM    9  C6  UNL     1     -34.785  16.900  -0.158  1.00 20.00     0.029 C 
HETATM   10  C7  UNL     1     -33.541  18.068  -2.037  1.00 20.00     0.029 C 
ENDBRANCH   7   8
ENDBRANCH   1   7
TORSDOF 2
ENDMDL
MODEL 6
REMARK VINA RESULT:      -4.2      9.027     10.961
REMARK  2 active torsions:
REMARK  status: ('A' for Active; 'I' for Inactive)
REMARK    1  A    between atoms: C1_1  and  C2_2 
REMARK    2  A    between atoms: C1_1  and  C3_3 
ROOT
HETATM    1  C2  UNL     1     -41.183   4.485  -1.367  1.00 20.00     0.043 A 
HETATM    2  C4  UNL     1     -41.794   4.650  -0.066  1.00 20.00     0.013 A 
HETATM    3  C5  UNL     1     -41.762   5.791  -1.075  1.00 20.00    -0.023 A 
HETATM    4  C8  UNL     1     -43.055   3.970   0.350  1.00 20.00     0.012 C 
HETATM    5  C9  UNL     1     -43.035   6.245  -1.750  1.00 20.00     0.017 C 
HETATM    6  C10 UNL     1     -40.792   6.918  -0.812  1.00 20.00     0.017 C 
ENDROOT
BRANCH   1   7
HETATM    7  C1  UNL     1     -41.599   3.673  -2.285  1.00 20.00    -0.159 C 
BRANCH   7   8
HETATM    8  C3  UNL     1     -42.019   2.855  -3.212  1.00 20.00     0.022 C 
HETATM    9  C6  UNL     1     -43.417   2.910  -3.758  1.00 20.00     0.029 C 
HETATM   10  C7  UNL     1     -41.135   1.798  -3.810  1.00 20.00     0.029 C 
ENDBRANCH   7   8
ENDBRANCH   1   7
TORSDOF 2
ENDMDL
MODEL 7
REMARK VINA RESULT:      -4.1     11.840     12.747
REMARK  2 active torsions:
REMARK  status: ('A' for Active; 'I' for Inactive)
REMARK    1  A    between atoms: C1_1  and  C2_2 
REMARK    2  A    between atoms: C1_1  and  C3_3 
ROOT
HETATM    1  C2  UNL     1     -34.446  16.903  -0.593  1.00 20.00     0.043 A 
HETATM    2  C4  UNL     1     -35.396  17.940  -0.257  1.00 20.00     0.013 A 
HETATM    3  C5  UNL     1     -33.917  18.254  -0.448  1.00 20.00    -0.023 A 
HETATM    4  C8  UNL     1     -36.456  18.427  -1.187  1.00 20.00     0.012 C 
HETATM    5  C9  UNL     1     -33.458  19.042  -1.652  1.00 20.00     0.017 C 
HETATM    6  C10 UNL     1     -33.105  18.534   0.794  1.00 20.00     0.017 C 
ENDROOT
BRANCH   1   7
HETATM    7  C1  UNL     1     -34.452  16.219  -1.692  1.00 20.00    -0.159 C 
BRANCH   7   8
HETATM    8  C3  UNL     1     -34.458  15.530  -2.801  1.00 20.00     0.022 C 
HETATM    9  C6  UNL     1     -35.722  14.987  -3.402  1.00 20.00     0.029 C 
HETATM   10  C7  UNL     1     -33.200  15.229  -3.566  1.00 20.00     0.029 C 
ENDBRANCH   7   8
ENDBRANCH   1   7
TORSDOF 2
ENDMDL
MODEL 8
REMARK VINA RESULT:      -4.0      1.185      4.114
REMARK  2 active torsions:
REMARK  status: ('A' for Active; 'I' for Inactive)
REMARK    1  A    between atoms: C1_1  and  C2_2 
REMARK    2  A    between atoms: C1_1  and  C3_3 
ROOT
HETATM    1  C2  UNL     1     -33.495   6.770   3.240  1.00 20.00     0.043 A 
HETATM    2  C4  UNL     1     -32.555   6.060   2.403  1.00 20.00     0.013 A 
HETATM    3  C5  UNL     1     -32.256   7.465   2.912  1.00 20.00    -0.023 A 
HETATM    4  C8  UNL     1     -31.792   4.857   2.848  1.00 20.00     0.012 C 
HETATM    5  C9  UNL     1     -31.188   7.683   3.957  1.00 20.00     0.017 C 
HETATM    6  C10 UNL     1     -32.356   8.596   1.916  1.00 20.00     0.017 C 
ENDROOT
BRANCH   1   7
HETATM    7  C1  UNL     1     -33.853   6.406   4.430  1.00 20.00    -0.159 C 
BRANCH   7   8
HETATM    8  C3  UNL     1     -34.214   6.039   5.629  1.00 20.00     0.022 C 
HETATM    9  C6  UNL     1     -34.945   4.754   5.891  1.00 20.00     0.029 C 
HETATM   10  C7  UNL     1     -33.920   6.871   6.845  1.00 20.00     0.029 C 
ENDBRANCH   7   8
ENDBRANCH   1   7
TORSDOF 2
ENDMDL
MODEL 9
REMARK VINA RESULT:      -3.8     11.303     13.184
REMARK  2 active torsions:
REMARK  status: ('A' for Active; 'I' for Inactive)
REMARK    1  A    between atoms: C1_1  and  C2_2 
REMARK    2  A    between atoms: C1_1  and  C3_3 
ROOT
HETATM    1  C2  UNL     1     -33.891  16.730  -2.984  1.00 20.00     0.043 A 
HETATM    2  C4  UNL     1     -33.812  17.250  -1.637  1.00 20.00     0.013 A 
HETATM    3  C5  UNL     1     -34.372  18.091  -2.777  1.00 20.00    -0.023 A 
HETATM    4  C8  UNL     1     -34.650  16.755  -0.506  1.00 20.00     0.012 C 
HETATM    5  C9  UNL     1     -35.848  18.410  -2.832  1.00 20.00     0.017 C 
HETATM    6  C10 UNL     1     -33.501  19.206  -3.306  1.00 20.00     0.017 C 
ENDROOT
BRANCH   1   7
HETATM    7  C1  UNL     1     -34.623  15.728  -3.351  1.00 20.00    -0.159 C 
BRANCH   7   8
HETATM    8  C3  UNL     1     -35.360  14.717  -3.722  1.00 20.00     0.022 C 
HETATM    9  C6  UNL     1     -34.768  13.404  -4.147  1.00 20.00     0.029 C 
HETATM   10  C7  UNL     1     -36.861  14.785  -3.747  1.00 20.00     0.029 C 
ENDBRANCH   7   8
ENDBRANCH   1   7
TORSDOF 2
ENDMDL
