MODEL 1
REMARK VINA RESULT:      -4.6      0.000      0.000
REMARK  2 active torsions:
REMARK  status: ('A' for Active; 'I' for Inactive)
REMARK    1  A    between atoms: C7_7  and  C9_9 
REMARK    2  A    between atoms: C8_8  and  C10_10 
ROOT
HETATM    1  C1  UNL     1     -33.365  13.904  -3.780  1.00 20.00     0.005 C 
HETATM    2  C2  UNL     1     -34.896  13.648  -3.822  1.00 20.00     0.005 C 
HETATM    3  C3  UNL     1     -33.591  16.147  -2.736  1.00 20.00     0.005 C 
HETATM    4  C4  UNL     1     -35.003  15.636  -2.336  1.00 20.00     0.005 C 
HETATM    5  C7  UNL     1     -33.103  15.421  -4.007  1.00 20.00    -0.010 C 
HETATM    6  C8  UNL     1     -35.664  14.963  -3.574  1.00 20.00    -0.010 C 
ENDROOT
BRANCH   5   7
HETATM    7  C9  UNL     1     -33.970  15.762  -5.228  1.00 20.00    -0.006 C 
HETATM    8  C5  UNL     1     -34.069  15.555  -6.765  1.00 20.00     0.006 C 
HETATM    9  C6  UNL     1     -34.698  17.017  -6.741  1.00 20.00     0.006 C 
HETATM   10  C10 UNL     1     -33.661  17.256  -5.607  1.00 20.00    -0.006 C 
ENDBRANCH   5   7
TORSDOF 2
ENDMDL
MODEL 2
REMARK VINA RESULT:      -4.4      1.435      3.658
REMARK  2 active torsions:
REMARK  status: ('A' for Active; 'I' for Inactive)
REMARK    1  A    between atoms: C7_7  and  C9_9 
REMARK    2  A    between atoms: C8_8  and  C10_10 
ROOT
HETATM    1  C1  UNL     1     -35.548  14.800  -3.629  1.00 20.00     0.005 C 
HETATM    2  C2  UNL     1     -34.129  14.188  -3.472  1.00 20.00     0.005 C 
HETATM    3  C3  UNL     1     -34.729  16.843  -4.782  1.00 20.00     0.005 C 
HETATM    4  C4  UNL     1     -33.467  15.982  -5.058  1.00 20.00     0.005 C 
HETATM    5  C7  UNL     1     -35.444  16.348  -3.507  1.00 20.00    -0.010 C 
HETATM    6  C8  UNL     1     -33.053  15.259  -3.742  1.00 20.00    -0.010 C 
ENDROOT
BRANCH   5   7
HETATM    7  C9  UNL     1     -34.583  16.557  -2.253  1.00 20.00    -0.006 C 
HETATM    8  C5  UNL     1     -34.658  16.601  -0.701  1.00 20.00     0.006 C 
HETATM    9  C6  UNL     1     -33.520  17.704  -0.856  1.00 20.00     0.006 C 
HETATM   10  C10 UNL     1     -34.323  18.103  -2.128  1.00 20.00    -0.006 C 
ENDBRANCH   5   7
TORSDOF 2
ENDMDL
MODEL 3
REMARK VINA RESULT:      -4.4      0.950      2.495
REMARK  2 active torsions:
REMARK  status: ('A' for Active; 'I' for Inactive)
REMARK    1  A    between atoms: C7_7  and  C9_9 
REMARK    2  A    between atoms: C8_8  and  C10_10 
ROOT
HETATM    1  C1  UNL     1     -35.549  15.166  -3.027  1.00 20.00     0.005 C 
HETATM    2  C2  UNL     1     -34.164  15.843  -2.832  1.00 20.00     0.005 C 
HETATM    3  C3  UNL     1     -34.631  13.263  -4.334  1.00 20.00     0.005 C 
HETATM    4  C4  UNL     1     -33.283  13.682  -3.685  1.00 20.00     0.005 C 
HETATM    5  C7  UNL     1     -35.580  14.477  -4.421  1.00 20.00    -0.010 C 
HETATM    6  C8  UNL     1     -33.130  15.228  -3.797  1.00 20.00    -0.010 C 
ENDROOT
BRANCH   5   7
HETATM    7  C9  UNL     1     -35.041  15.555  -5.373  1.00 20.00    -0.006 C 
HETATM    8  C5  UNL     1     -35.455  16.844  -6.135  1.00 20.00     0.006 C 
HETATM    9  C6  UNL     1     -34.439  16.307  -7.236  1.00 20.00     0.006 C 
HETATM   10  C10 UNL     1     -34.984  14.914  -6.808  1.00 20.00    -0.006 C 
ENDBRANCH   5   7
TORSDOF 2
ENDMDL
MODEL 4
REMARK VINA RESULT:      -4.3      1.248      3.516
REMARK  2 active torsions:
REMARK  status: ('A' for Active; 'I' for Inactive)
REMARK    1  A    between atoms: C7_7  and  C9_9 
REMARK    2  A    between atoms: C8_8  and  C10_10 
ROOT
HETATM    1  C1  UNL     1     -34.093  13.905  -3.463  1.00 20.00     0.005 C 
HETATM    2  C2  UNL     1     -32.791  14.706  -3.740  1.00 20.00     0.005 C 
HETATM    3  C3  UNL     1     -35.498  15.348  -4.918  1.00 20.00     0.005 C 
HETATM    4  C4  UNL     1     -34.136  15.760  -5.543  1.00 20.00     0.005 C 
HETATM    5  C7  UNL     1     -35.297  14.890  -3.458  1.00 20.00    -0.010 C 
HETATM    6  C8  UNL     1     -33.127  16.061  -4.396  1.00 20.00    -0.010 C 
ENDROOT
BRANCH   5   7
HETATM    7  C9  UNL     1     -34.822  16.042  -2.560  1.00 20.00    -0.006 C 
HETATM    8  C5  UNL     1     -34.624  16.442  -1.071  1.00 20.00     0.006 C 
HETATM    9  C6  UNL     1     -35.016  17.893  -1.595  1.00 20.00     0.006 C 
HETATM   10  C10 UNL     1     -35.979  17.107  -2.528  1.00 20.00    -0.006 C 
ENDBRANCH   5   7
TORSDOF 2
ENDMDL
MODEL 5
REMARK VINA RESULT:      -4.3      1.157      3.104
REMARK  2 active torsions:
REMARK  status: ('A' for Active; 'I' for Inactive)
REMARK    1  A    between atoms: C7_7  and  C9_9 
REMARK    2  A    between atoms: C8_8  and  C10_10 
ROOT
HETATM    1  C1  UNL     1     -34.041  15.752  -5.434  1.00 20.00     0.005 C 
HETATM    2  C2  UNL     1     -35.203  14.769  -5.125  1.00 20.00     0.005 C 
HETATM    3  C3  UNL     1     -32.538  14.795  -3.702  1.00 20.00     0.005 C 
HETATM    4  C4  UNL     1     -33.481  13.565  -3.799  1.00 20.00     0.005 C 
HETATM    5  C7  UNL     1     -33.292  16.078  -4.109  1.00 20.00    -0.010 C 
HETATM    6  C8  UNL     1     -34.957  14.059  -3.777  1.00 20.00    -0.010 C 
ENDROOT
BRANCH   5   7
HETATM    7  C9  UNL     1     -34.423  16.411  -3.125  1.00 20.00    -0.006 C 
HETATM    8  C5  UNL     1     -35.438  17.525  -2.746  1.00 20.00     0.006 C 
HETATM    9  C6  UNL     1     -35.207  16.985  -1.267  1.00 20.00     0.006 C 
HETATM   10  C10 UNL     1     -33.745  16.782  -1.755  1.00 20.00    -0.006 C 
ENDBRANCH   5   7
TORSDOF 2
ENDMDL
MODEL 6
REMARK VINA RESULT:      -4.1     11.763     13.843
REMARK  2 active torsions:
REMARK  status: ('A' for Active; 'I' for Inactive)
REMARK    1  A    between atoms: C7_7  and  C9_9 
REMARK    2  A    between atoms: C8_8  and  C10_10 
ROOT
HETATM    1  C1  UNL     1     -42.615   5.427   0.842  1.00 20.00     0.005 C 
HETATM    2  C2  UNL     1     -43.416   6.446  -0.013  1.00 20.00     0.005 C 
HETATM    3  C3  UNL     1     -40.507   5.745  -0.435  1.00 20.00     0.005 C 
HETATM    4  C4  UNL     1     -41.177   7.072  -0.888  1.00 20.00     0.005 C 
HETATM    5  C7  UNL     1     -41.585   4.702  -0.072  1.00 20.00    -0.010 C 
HETATM    6  C8  UNL     1     -42.646   6.777  -1.308  1.00 20.00    -0.010 C 
ENDROOT
BRANCH   5   7
HETATM    7  C9  UNL     1     -42.415   4.289  -1.297  1.00 20.00    -0.006 C 
HETATM    8  C5  UNL     1     -43.417   3.213  -1.800  1.00 20.00     0.006 C 
HETATM    9  C6  UNL     1     -42.694   3.450  -3.198  1.00 20.00     0.006 C 
HETATM   10  C10 UNL     1     -41.424   3.616  -2.316  1.00 20.00    -0.006 C 
ENDBRANCH   5   7
TORSDOF 2
ENDMDL
MODEL 7
REMARK VINA RESULT:      -4.1      1.467      3.778
REMARK  2 active torsions:
REMARK  status: ('A' for Active; 'I' for Inactive)
REMARK    1  A    between atoms: C7_7  and  C9_9 
REMARK    2  A    between atoms: C8_8  and  C10_10 
ROOT
HETATM    1  C1  UNL     1     -36.779  15.256  -6.417  1.00 20.00     0.005 C 
HETATM    2  C2  UNL     1     -35.842  14.587  -7.459  1.00 20.00     0.005 C 
HETATM    3  C3  UNL     1     -35.138  17.024  -5.818  1.00 20.00     0.005 C 
HETATM    4  C4  UNL     1     -34.490  16.652  -7.180  1.00 20.00     0.005 C 
HETATM    5  C7  UNL     1     -35.915  15.817  -5.251  1.00 20.00    -0.010 C 
HETATM    6  C8  UNL     1     -34.398  15.102  -7.287  1.00 20.00    -0.010 C 
ENDROOT
BRANCH   5   7
HETATM    7  C9  UNL     1     -34.979  14.651  -4.899  1.00 20.00    -0.006 C 
HETATM    8  C5  UNL     1     -34.952  13.256  -4.215  1.00 20.00     0.006 C 
HETATM    9  C6  UNL     1     -33.484  13.694  -3.782  1.00 20.00     0.006 C 
HETATM   10  C10 UNL     1     -34.131  15.103  -3.654  1.00 20.00    -0.006 C 
ENDBRANCH   5   7
TORSDOF 2
ENDMDL
MODEL 8
REMARK VINA RESULT:      -4.0      1.284      2.208
REMARK  2 active torsions:
REMARK  status: ('A' for Active; 'I' for Inactive)
REMARK    1  A    between atoms: C7_7  and  C9_9 
REMARK    2  A    between atoms: C8_8  and  C10_10 
ROOT
HETATM    1  C1  UNL     1     -33.558  15.855  -2.956  1.00 20.00     0.005 C 
HETATM    2  C2  UNL     1     -35.074  15.994  -2.645  1.00 20.00     0.005 C 
HETATM    3  C3  UNL     1     -33.584  17.590  -4.734  1.00 20.00     0.005 C 
HETATM    4  C4  UNL     1     -34.904  18.038  -4.048  1.00 20.00     0.005 C 
HETATM    5  C7  UNL     1     -33.333  16.089  -4.478  1.00 20.00    -0.010 C 
HETATM    6  C8  UNL     1     -35.778  16.780  -3.770  1.00 20.00    -0.010 C 
ENDROOT
BRANCH   5   7
HETATM    7  C9  UNL     1     -34.402  15.210  -5.143  1.00 20.00    -0.006 C 
HETATM    8  C5  UNL     1     -34.742  13.734  -5.490  1.00 20.00     0.006 C 
HETATM    9  C6  UNL     1     -35.422  14.380  -6.776  1.00 20.00     0.006 C 
HETATM   10  C10 UNL     1     -34.225  15.370  -6.697  1.00 20.00    -0.006 C 
ENDBRANCH   5   7
TORSDOF 2
ENDMDL
MODEL 9
REMARK VINA RESULT:      -4.0      1.871      4.082
REMARK  2 active torsions:
REMARK  status: ('A' for Active; 'I' for Inactive)
REMARK    1  A    between atoms: C7_7  and  C9_9 
REMARK    2  A    between atoms: C8_8  and  C10_10 
ROOT
HETATM    1  C1  UNL     1     -33.277  16.284  -4.070  1.00 20.00     0.005 C 
HETATM    2  C2  UNL     1     -33.961  17.602  -4.528  1.00 20.00     0.005 C 
HETATM    3  C3  UNL     1     -35.373  15.306  -3.163  1.00 20.00     0.005 C 
HETATM    4  C4  UNL     1     -36.063  16.359  -4.073  1.00 20.00     0.005 C 
HETATM    5  C7  UNL     1     -33.963  15.790  -2.764  1.00 20.00    -0.010 C 
HETATM    6  C8  UNL     1     -35.355  17.732  -3.880  1.00 20.00    -0.010 C 
ENDROOT
BRANCH   5   7
HETATM    7  C9  UNL     1     -34.018  17.047  -1.884  1.00 20.00    -0.006 C 
HETATM    8  C5  UNL     1     -33.148  17.942  -0.958  1.00 20.00     0.006 C 
HETATM    9  C6  UNL     1     -34.510  18.126  -0.155  1.00 20.00     0.006 C 
HETATM   10  C10 UNL     1     -34.741  16.639  -0.547  1.00 20.00    -0.006 C 
ENDBRANCH   5   7
TORSDOF 2
ENDMDL
