MODEL 1
REMARK VINA RESULT:      -4.6      0.000      0.000
REMARK  2 active torsions:
REMARK  status: ('A' for Active; 'I' for Inactive)
REMARK    1  A    between atoms: C2_2  and  C5_5 
REMARK    2  A    between atoms: C5_5  and  C6_6 
ROOT
HETATM    1  C5  UNL     1     -34.771   5.349   3.835  1.00 20.00     0.042 C 
ENDROOT
BRANCH   1   2
HETATM    2  C2  UNL     1     -33.883   6.535   3.578  1.00 20.00    -0.030 C 
HETATM    3  C1  UNL     1     -32.673   6.451   3.003  1.00 20.00    -0.035 C 
HETATM    4  C3  UNL     1     -31.790   7.628   2.752  1.00 20.00     0.036 C 
ENDBRANCH   1   2
BRANCH   1   5
HETATM    5  C6  UNL     1     -35.093   5.160   5.321  1.00 20.00     0.057 C 
HETATM    6  C4  UNL     1     -34.745   3.757   5.797  1.00 20.00     0.022 C 
HETATM    7 BR7  UNL     1     -34.059   6.438   6.395  1.00 20.00    -0.091 Br
ENDBRANCH   1   5
TORSDOF 2
ENDMDL
MODEL 2
REMARK VINA RESULT:      -4.4      1.408      2.049
REMARK  2 active torsions:
REMARK  status: ('A' for Active; 'I' for Inactive)
REMARK    1  A    between atoms: C2_2  and  C5_5 
REMARK    2  A    between atoms: C5_5  and  C6_6 
ROOT
HETATM    1  C5  UNL     1     -32.639   6.464   4.041  1.00 20.00     0.042 C 
ENDROOT
BRANCH   1   2
HETATM    2  C2  UNL     1     -32.388   6.954   2.641  1.00 20.00    -0.030 C 
HETATM    3  C1  UNL     1     -32.144   8.237   2.332  1.00 20.00    -0.035 C 
HETATM    4  C3  UNL     1     -31.900   8.724   0.942  1.00 20.00     0.036 C 
ENDBRANCH   1   2
BRANCH   1   5
HETATM    5  C6  UNL     1     -34.130   6.332   4.365  1.00 20.00     0.057 C 
HETATM    6  C4  UNL     1     -34.818   5.331   3.449  1.00 20.00     0.022 C 
HETATM    7 BR7  UNL     1     -34.357   5.714   6.215  1.00 20.00    -0.091 Br
ENDBRANCH   1   5
TORSDOF 2
ENDMDL
MODEL 3
REMARK VINA RESULT:      -3.8      2.066      3.975
REMARK  2 active torsions:
REMARK  status: ('A' for Active; 'I' for Inactive)
REMARK    1  A    between atoms: C2_2  and  C5_5 
REMARK    2  A    between atoms: C5_5  and  C6_6 
ROOT
HETATM    1  C5  UNL     1     -33.974   6.976   3.672  1.00 20.00     0.042 C 
ENDROOT
BRANCH   1   2
HETATM    2  C2  UNL     1     -34.455   5.660   4.216  1.00 20.00    -0.030 C 
HETATM    3  C1  UNL     1     -34.589   5.396   5.524  1.00 20.00    -0.035 C 
HETATM    4  C3  UNL     1     -35.062   4.087   6.063  1.00 20.00     0.036 C 
ENDBRANCH   1   2
BRANCH   1   5
HETATM    5  C6  UNL     1     -32.472   6.983   3.375  1.00 20.00     0.057 C 
HETATM    6  C4  UNL     1     -31.988   5.623   2.893  1.00 20.00     0.022 C 
HETATM    7 BR7  UNL     1     -32.075   8.299   1.972  1.00 20.00    -0.091 Br
ENDBRANCH   1   5
TORSDOF 2
ENDMDL
MODEL 4
REMARK VINA RESULT:      -3.6     12.137     12.706
REMARK  2 active torsions:
REMARK  status: ('A' for Active; 'I' for Inactive)
REMARK    1  A    between atoms: C2_2  and  C5_5 
REMARK    2  A    between atoms: C5_5  and  C6_6 
ROOT
HETATM    1  C5  UNL     1     -34.604  15.618  -2.543  1.00 20.00     0.042 C 
ENDROOT
BRANCH   1   2
HETATM    2  C2  UNL     1     -34.141  16.695  -1.601  1.00 20.00    -0.030 C 
HETATM    3  C1  UNL     1     -34.704  16.935  -0.407  1.00 20.00    -0.035 C 
HETATM    4  C3  UNL     1     -34.247  18.008   0.525  1.00 20.00     0.036 C 
ENDBRANCH   1   2
BRANCH   1   5
HETATM    5  C6  UNL     1     -33.508  15.163  -3.511  1.00 20.00     0.057 C 
HETATM    6  C4  UNL     1     -33.788  13.775  -4.066  1.00 20.00     0.022 C 
HETATM    7 BR7  UNL     1     -33.397  16.409  -5.025  1.00 20.00    -0.091 Br
ENDBRANCH   1   5
TORSDOF 2
ENDMDL
MODEL 5
REMARK VINA RESULT:      -3.6     11.629     12.416
REMARK  2 active torsions:
REMARK  status: ('A' for Active; 'I' for Inactive)
REMARK    1  A    between atoms: C2_2  and  C5_5 
REMARK    2  A    between atoms: C5_5  and  C6_6 
ROOT
HETATM    1  C5  UNL     1     -33.687  16.020  -2.947  1.00 20.00     0.042 C 
ENDROOT
BRANCH   1   2
HETATM    2  C2  UNL     1     -34.528  16.238  -1.719  1.00 20.00    -0.030 C 
HETATM    3  C1  UNL     1     -34.227  17.121  -0.755  1.00 20.00    -0.035 C 
HETATM    4  C3  UNL     1     -35.060  17.333   0.466  1.00 20.00     0.036 C 
ENDBRANCH   1   2
BRANCH   1   5
HETATM    5  C6  UNL     1     -34.341  15.069  -3.954  1.00 20.00     0.057 C 
HETATM    6  C4  UNL     1     -33.779  13.659  -3.841  1.00 20.00     0.022 C 
HETATM    7 BR7  UNL     1     -36.274  14.978  -3.626  1.00 20.00    -0.091 Br
ENDBRANCH   1   5
TORSDOF 2
ENDMDL
MODEL 6
REMARK VINA RESULT:      -3.6     12.041     12.447
REMARK  2 active torsions:
REMARK  status: ('A' for Active; 'I' for Inactive)
REMARK    1  A    between atoms: C2_2  and  C5_5 
REMARK    2  A    between atoms: C5_5  and  C6_6 
ROOT
HETATM    1  C5  UNL     1     -34.905  15.398  -2.640  1.00 20.00     0.042 C 
ENDROOT
BRANCH   1   2
HETATM    2  C2  UNL     1     -34.252  16.482  -1.829  1.00 20.00    -0.030 C 
HETATM    3  C1  UNL     1     -34.658  16.845  -0.603  1.00 20.00    -0.035 C 
HETATM    4  C3  UNL     1     -34.013  17.926   0.200  1.00 20.00     0.036 C 
ENDBRANCH   1   2
BRANCH   1   5
HETATM    5  C6  UNL     1     -34.116  15.044  -3.904  1.00 20.00     0.057 C 
HETATM    6  C4  UNL     1     -32.634  14.866  -3.610  1.00 20.00     0.022 C 
HETATM    7 BR7  UNL     1     -34.789  13.362  -4.662  1.00 20.00    -0.091 Br
ENDBRANCH   1   5
TORSDOF 2
ENDMDL
MODEL 7
REMARK VINA RESULT:      -3.5     12.253     12.720
REMARK  2 active torsions:
REMARK  status: ('A' for Active; 'I' for Inactive)
REMARK    1  A    between atoms: C2_2  and  C5_5 
REMARK    2  A    between atoms: C5_5  and  C6_6 
ROOT
HETATM    1  C5  UNL     1     -33.434  15.089  -4.060  1.00 20.00     0.042 C 
ENDROOT
BRANCH   1   2
HETATM    2  C2  UNL     1     -34.135  15.363  -2.758  1.00 20.00    -0.030 C 
HETATM    3  C1  UNL     1     -33.984  16.494  -2.053  1.00 20.00    -0.035 C 
HETATM    4  C3  UNL     1     -34.677  16.764  -0.758  1.00 20.00     0.036 C 
ENDBRANCH   1   2
BRANCH   1   5
HETATM    5  C6  UNL     1     -34.170  14.062  -4.926  1.00 20.00     0.057 C 
HETATM    6  C4  UNL     1     -35.422  13.539  -4.237  1.00 20.00     0.022 C 
HETATM    7 BR7  UNL     1     -34.712  14.887  -6.623  1.00 20.00    -0.091 Br
ENDBRANCH   1   5
TORSDOF 2
ENDMDL
MODEL 8
REMARK VINA RESULT:      -3.4     12.164     12.625
REMARK  2 active torsions:
REMARK  status: ('A' for Active; 'I' for Inactive)
REMARK    1  A    between atoms: C2_2  and  C5_5 
REMARK    2  A    between atoms: C5_5  and  C6_6 
ROOT
HETATM    1  C5  UNL     1     -33.730  16.025  -3.032  1.00 20.00     0.042 C 
ENDROOT
BRANCH   1   2
HETATM    2  C2  UNL     1     -33.799  16.801  -1.746  1.00 20.00    -0.030 C 
HETATM    3  C1  UNL     1     -34.765  16.642  -0.829  1.00 20.00    -0.035 C 
HETATM    4  C3  UNL     1     -34.835  17.415   0.446  1.00 20.00     0.036 C 
ENDBRANCH   1   2
BRANCH   1   5
HETATM    5  C6  UNL     1     -34.996  15.205  -3.299  1.00 20.00     0.057 C 
HETATM    6  C4  UNL     1     -35.952  15.934  -4.232  1.00 20.00     0.022 C 
HETATM    7 BR7  UNL     1     -34.517  13.496  -4.139  1.00 20.00    -0.091 Br
ENDBRANCH   1   5
TORSDOF 2
ENDMDL
MODEL 9
REMARK VINA RESULT:      -3.3      9.345     10.394
REMARK  2 active torsions:
REMARK  status: ('A' for Active; 'I' for Inactive)
REMARK    1  A    between atoms: C2_2  and  C5_5 
REMARK    2  A    between atoms: C5_5  and  C6_6 
ROOT
HETATM    1  C5  UNL     1     -40.726   4.573  -1.110  1.00 20.00     0.042 C 
ENDROOT
BRANCH   1   2
HETATM    2  C2  UNL     1     -41.800   4.324  -2.132  1.00 20.00    -0.030 C 
HETATM    3  C1  UNL     1     -41.994   3.143  -2.739  1.00 20.00    -0.035 C 
HETATM    4  C3  UNL     1     -43.057   2.898  -3.757  1.00 20.00     0.036 C 
ENDBRANCH   1   2
BRANCH   1   5
HETATM    5  C6  UNL     1     -41.074   5.713  -0.148  1.00 20.00     0.057 C 
HETATM    6  C4  UNL     1     -41.103   7.059  -0.857  1.00 20.00     0.022 C 
HETATM    7 BR7  UNL     1     -42.847   5.405   0.637  1.00 20.00    -0.091 Br
ENDBRANCH   1   5
TORSDOF 2
ENDMDL
