MODEL 1
REMARK VINA RESULT:      -4.9      0.000      0.000
REMARK  1 active torsions:
REMARK  status: ('A' for Active; 'I' for Inactive)
REMARK    1  A    between atoms: C1_1  and  C5_5 
ROOT
HETATM    1  C3  UNL     1     -33.448  14.125  -3.550  1.00 20.00     0.207 C 
HETATM    2  C4  UNL     1     -35.086  13.366  -5.121  1.00 20.00     0.208 C 
HETATM    3  C5  UNL     1     -34.548  15.147  -3.246  1.00 20.00     0.267 C 
HETATM    4  C6  UNL     1     -35.232  14.825  -5.589  1.00 20.00     0.172 C 
HETATM    5  C8  UNL     1     -34.205  15.145  -6.688  1.00 20.00     0.051 C 
HETATM    6  C9  UNL     1     -36.647  15.035  -6.155  1.00 20.00     0.051 C 
HETATM    7  N10 UNL     1     -35.002  15.780  -4.488  1.00 20.00     0.104 N 
HETATM    8  O11 UNL     1     -33.828  13.125  -4.497  1.00 20.00    -0.386 OA
HETATM    9  H28 UNL     1     -35.855  16.311  -4.313  1.00 20.00     0.318 HD
ENDROOT
BRANCH   3  10
HETATM   10  C1  UNL     1     -34.053  16.175  -2.276  1.00 20.00     0.006 C 
HETATM   11  C2  UNL     1     -34.692  16.500  -1.142  1.00 20.00    -0.033 C 
HETATM   12  C7  UNL     1     -34.200  17.524  -0.174  1.00 20.00     0.036 C 
ENDBRANCH   3  10
TORSDOF 1
ENDMDL
MODEL 2
REMARK VINA RESULT:      -4.6      1.640      2.253
REMARK  1 active torsions:
REMARK  status: ('A' for Active; 'I' for Inactive)
REMARK    1  A    between atoms: C1_1  and  C5_5 
ROOT
HETATM    1  C3  UNL     1     -33.869  17.306  -3.992  1.00 20.00     0.207 C 
HETATM    2  C4  UNL     1     -33.985  15.285  -5.269  1.00 20.00     0.208 C 
HETATM    3  C5  UNL     1     -33.806  16.301  -2.837  1.00 20.00     0.267 C 
HETATM    4  C6  UNL     1     -35.095  14.811  -4.314  1.00 20.00     0.172 C 
HETATM    5  C8  UNL     1     -36.470  15.296  -4.802  1.00 20.00     0.051 C 
HETATM    6  C9  UNL     1     -35.098  13.274  -4.268  1.00 20.00     0.051 C 
HETATM    7  N10 UNL     1     -34.907  15.339  -2.950  1.00 20.00     0.104 N 
HETATM    8  O11 UNL     1     -33.862  16.705  -5.288  1.00 20.00    -0.386 OA
HETATM    9  H28 UNL     1     -34.757  14.564  -2.302  1.00 20.00     0.318 HD
ENDROOT
BRANCH   3  10
HETATM   10  C1  UNL     1     -33.856  17.013  -1.520  1.00 20.00     0.006 C 
HETATM   11  C2  UNL     1     -34.801  16.801  -0.593  1.00 20.00    -0.033 C 
HETATM   12  C7  UNL     1     -34.851  17.509   0.720  1.00 20.00     0.036 C 
ENDBRANCH   3  10
TORSDOF 1
ENDMDL
MODEL 3
REMARK VINA RESULT:      -4.5      1.268      1.420
REMARK  1 active torsions:
REMARK  status: ('A' for Active; 'I' for Inactive)
REMARK    1  A    between atoms: C1_1  and  C5_5 
ROOT
HETATM    1  C3  UNL     1     -33.565  15.085  -3.490  1.00 20.00     0.207 C 
HETATM    2  C4  UNL     1     -35.398  13.744  -4.245  1.00 20.00     0.208 C 
HETATM    3  C5  UNL     1     -34.622  15.555  -2.486  1.00 20.00     0.267 C 
HETATM    4  C6  UNL     1     -36.259  15.020  -4.245  1.00 20.00     0.172 C 
HETATM    5  C8  UNL     1     -36.135  15.754  -5.591  1.00 20.00     0.051 C 
HETATM    6  C9  UNL     1     -37.731  14.635  -4.023  1.00 20.00     0.051 C 
HETATM    7  N10 UNL     1     -35.839  15.965  -3.194  1.00 20.00     0.104 N 
HETATM    8  O11 UNL     1     -34.007  14.033  -4.351  1.00 20.00    -0.386 OA
HETATM    9  H28 UNL     1     -36.600  16.093  -2.526  1.00 20.00     0.318 HD
ENDROOT
BRANCH   3  10
HETATM   10  C1  UNL     1     -34.088  16.679  -1.652  1.00 20.00     0.006 C 
HETATM   11  C2  UNL     1     -34.564  17.001  -0.440  1.00 20.00    -0.033 C 
HETATM   12  C7  UNL     1     -34.032  18.121   0.392  1.00 20.00     0.036 C 
ENDBRANCH   3  10
TORSDOF 1
ENDMDL
MODEL 4
REMARK VINA RESULT:      -4.2     11.984     13.635
REMARK  1 active torsions:
REMARK  status: ('A' for Active; 'I' for Inactive)
REMARK    1  A    between atoms: C1_1  and  C5_5 
ROOT
HETATM    1  C3  UNL     1     -40.829   4.310  -1.178  1.00 20.00     0.207 C 
HETATM    2  C4  UNL     1     -41.152   6.655  -0.820  1.00 20.00     0.208 C 
HETATM    3  C5  UNL     1     -41.899   4.561  -2.247  1.00 20.00     0.267 C 
HETATM    4  C6  UNL     1     -42.667   6.384  -0.781  1.00 20.00     0.172 C 
HETATM    5  C8  UNL     1     -43.114   6.020   0.644  1.00 20.00     0.051 C 
HETATM    6  C9  UNL     1     -43.417   7.649  -1.230  1.00 20.00     0.051 C 
HETATM    7  N10 UNL     1     -43.045   5.258  -1.655  1.00 20.00     0.104 N 
HETATM    8  O11 UNL     1     -40.390   5.493  -0.508  1.00 20.00    -0.386 OA
HETATM    9  H28 UNL     1     -43.665   5.593  -2.394  1.00 20.00     0.318 HD
ENDROOT
BRANCH   3  10
HETATM   10  C1  UNL     1     -42.327   3.269  -2.872  1.00 20.00     0.006 C 
HETATM   11  C2  UNL     1     -41.478   2.385  -3.416  1.00 20.00    -0.033 C 
HETATM   12  C7  UNL     1     -41.903   1.097  -4.038  1.00 20.00     0.036 C 
ENDBRANCH   3  10
TORSDOF 1
ENDMDL
MODEL 5
REMARK VINA RESULT:      -4.2      1.467      1.966
REMARK  1 active torsions:
REMARK  status: ('A' for Active; 'I' for Inactive)
REMARK    1  A    between atoms: C1_1  and  C5_5 
ROOT
HETATM    1  C3  UNL     1     -35.872  15.590  -2.942  1.00 20.00     0.207 C 
HETATM    2  C4  UNL     1     -36.374  14.908  -5.181  1.00 20.00     0.208 C 
HETATM    3  C5  UNL     1     -34.817  16.423  -3.678  1.00 20.00     0.267 C 
HETATM    4  C6  UNL     1     -34.871  14.642  -5.378  1.00 20.00     0.172 C 
HETATM    5  C8  UNL     1     -34.513  13.213  -4.934  1.00 20.00     0.051 C 
HETATM    6  C9  UNL     1     -34.521  14.802  -6.866  1.00 20.00     0.051 C 
HETATM    7  N10 UNL     1     -34.042  15.565  -4.580  1.00 20.00     0.104 N 
HETATM    8  O11 UNL     1     -36.752  14.870  -3.808  1.00 20.00    -0.386 OA
HETATM    9  H28 UNL     1     -33.476  16.141  -5.205  1.00 20.00     0.318 HD
ENDROOT
BRANCH   3  10
HETATM   10  C1  UNL     1     -33.918  17.113  -2.699  1.00 20.00     0.006 C 
HETATM   11  C2  UNL     1     -34.197  17.243  -1.394  1.00 20.00    -0.033 C 
HETATM   12  C7  UNL     1     -33.302  17.930  -0.416  1.00 20.00     0.036 C 
ENDBRANCH   3  10
TORSDOF 1
ENDMDL
MODEL 6
REMARK VINA RESULT:      -4.1      2.744      5.234
REMARK  1 active torsions:
REMARK  status: ('A' for Active; 'I' for Inactive)
REMARK    1  A    between atoms: C1_1  and  C5_5 
ROOT
HETATM    1  C3  UNL     1     -35.104  17.607  -3.241  1.00 20.00     0.207 C 
HETATM    2  C4  UNL     1     -35.568  18.719  -1.173  1.00 20.00     0.208 C 
HETATM    3  C5  UNL     1     -35.568  16.395  -2.428  1.00 20.00     0.267 C 
HETATM    4  C6  UNL     1     -34.739  17.631  -0.466  1.00 20.00     0.172 C 
HETATM    5  C8  UNL     1     -33.251  18.019  -0.437  1.00 20.00     0.051 C 
HETATM    6  C9  UNL     1     -35.240  17.474   0.979  1.00 20.00     0.051 C 
HETATM    7  N10 UNL     1     -34.836  16.332  -1.159  1.00 20.00     0.104 N 
HETATM    8  O11 UNL     1     -35.220  18.852  -2.548  1.00 20.00    -0.386 OA
HETATM    9  H28 UNL     1     -35.273  15.648  -0.541  1.00 20.00     0.318 HD
ENDROOT
BRANCH   3  10
HETATM   10  C1  UNL     1     -35.378  15.134  -3.213  1.00 20.00     0.006 C 
HETATM   11  C2  UNL     1     -34.180  14.585  -3.466  1.00 20.00    -0.033 C 
HETATM   12  C7  UNL     1     -33.989  13.328  -4.248  1.00 20.00     0.036 C 
ENDBRANCH   3  10
TORSDOF 1
ENDMDL
MODEL 7
REMARK VINA RESULT:      -4.1      1.321      4.384
REMARK  1 active torsions:
REMARK  status: ('A' for Active; 'I' for Inactive)
REMARK    1  A    between atoms: C1_1  and  C5_5 
ROOT
HETATM    1  C3  UNL     1     -34.710  13.327  -5.023  1.00 20.00     0.207 C 
HETATM    2  C4  UNL     1     -33.177  14.626  -3.722  1.00 20.00     0.208 C 
HETATM    3  C5  UNL     1     -34.762  14.626  -5.835  1.00 20.00     0.267 C 
HETATM    4  C6  UNL     1     -34.226  15.752  -3.712  1.00 20.00     0.172 C 
HETATM    5  C8  UNL     1     -35.201  15.572  -2.537  1.00 20.00     0.051 C 
HETATM    6  C9  UNL     1     -33.512  17.106  -3.563  1.00 20.00     0.051 C 
HETATM    7  N10 UNL     1     -35.032  15.761  -4.947  1.00 20.00     0.104 N 
HETATM    8  O11 UNL     1     -33.762  13.348  -3.954  1.00 20.00    -0.386 OA
HETATM    9  H28 UNL     1     -34.878  16.636  -5.449  1.00 20.00     0.318 HD
ENDROOT
BRANCH   3  10
HETATM   10  C1  UNL     1     -35.804  14.531  -6.908  1.00 20.00     0.006 C 
HETATM   11  C2  UNL     1     -37.002  15.129  -6.839  1.00 20.00    -0.033 C 
HETATM   12  C7  UNL     1     -38.040  15.035  -7.908  1.00 20.00     0.036 C 
ENDBRANCH   3  10
TORSDOF 1
ENDMDL
MODEL 8
REMARK VINA RESULT:      -4.0      1.708      4.208
REMARK  1 active torsions:
REMARK  status: ('A' for Active; 'I' for Inactive)
REMARK    1  A    between atoms: C1_1  and  C5_5 
ROOT
HETATM    1  C3  UNL     1     -36.090  14.958  -5.617  1.00 20.00     0.207 C 
HETATM    2  C4  UNL     1     -35.052  13.411  -4.113  1.00 20.00     0.208 C 
HETATM    3  C5  UNL     1     -34.651  15.067  -6.132  1.00 20.00     0.267 C 
HETATM    4  C6  UNL     1     -33.985  14.484  -3.834  1.00 20.00     0.172 C 
HETATM    5  C8  UNL     1     -34.438  15.414  -2.697  1.00 20.00     0.051 C 
HETATM    6  C9  UNL     1     -32.673  13.796  -3.421  1.00 20.00     0.051 C 
HETATM    7  N10 UNL     1     -33.738  15.332  -5.016  1.00 20.00     0.104 N 
HETATM    8  O11 UNL     1     -36.269  13.975  -4.595  1.00 20.00    -0.386 OA
HETATM    9  H28 UNL     1     -32.772  15.215  -5.324  1.00 20.00     0.318 HD
ENDROOT
BRANCH   3  10
HETATM   10  C1  UNL     1     -34.547  16.142  -7.170  1.00 20.00     0.006 C 
HETATM   11  C2  UNL     1     -34.404  17.444  -6.884  1.00 20.00    -0.033 C 
HETATM   12  C7  UNL     1     -34.300  18.516  -7.918  1.00 20.00     0.036 C 
ENDBRANCH   3  10
TORSDOF 1
ENDMDL
MODEL 9
REMARK VINA RESULT:      -4.0      1.249      1.385
REMARK  1 active torsions:
REMARK  status: ('A' for Active; 'I' for Inactive)
REMARK    1  A    between atoms: C1_1  and  C5_5 
ROOT
HETATM    1  C3  UNL     1     -34.157  14.648  -3.238  1.00 20.00     0.207 C 
HETATM    2  C4  UNL     1     -35.477  14.891  -5.220  1.00 20.00     0.208 C 
HETATM    3  C5  UNL     1     -35.061  15.796  -2.774  1.00 20.00     0.267 C 
HETATM    4  C6  UNL     1     -35.195  16.402  -5.156  1.00 20.00     0.172 C 
HETATM    5  C8  UNL     1     -33.885  16.739  -5.887  1.00 20.00     0.051 C 
HETATM    6  C9  UNL     1     -36.350  17.160  -5.832  1.00 20.00     0.051 C 
HETATM    7  N10 UNL     1     -35.051  16.875  -3.767  1.00 20.00     0.104 N 
HETATM    8  O11 UNL     1     -34.492  14.130  -4.527  1.00 20.00    -0.386 OA
HETATM    9  H28 UNL     1     -35.790  17.545  -3.555  1.00 20.00     0.318 HD
ENDROOT
BRANCH   3  10
HETATM   10  C1  UNL     1     -34.618  16.301  -1.435  1.00 20.00     0.006 C 
HETATM   11  C2  UNL     1     -34.174  17.548  -1.218  1.00 20.00    -0.033 C 
HETATM   12  C7  UNL     1     -33.734  18.053   0.116  1.00 20.00     0.036 C 
ENDBRANCH   3  10
TORSDOF 1
ENDMDL
