MODEL 1
REMARK VINA RESULT:      -5.5      0.000      0.000
REMARK  0 active torsions:
REMARK  status: ('A' for Active; 'I' for Inactive)
ROOT
HETATM    1  C1  UNL     1     -32.858   7.243   2.860  1.00 20.00     0.010 A 
HETATM    2  C2  UNL     1     -32.167   5.936   3.143  1.00 20.00     0.010 A 
HETATM    3  C3  UNL     1     -34.174   4.008   5.811  1.00 20.00     0.010 A 
HETATM    4  C4  UNL     1     -35.374   4.826   6.206  1.00 20.00     0.010 A 
HETATM    5  C5  UNL     1     -33.565   6.542   5.315  1.00 20.00     0.019 C 
HETATM    6  C6  UNL     1     -34.726   5.592   3.755  1.00 20.00     0.019 C 
HETATM    7  C7  UNL     1     -33.430   6.294   3.864  1.00 20.00    -0.038 A 
HETATM    8  C8  UNL     1     -34.420   5.344   5.179  1.00 20.00    -0.038 A 
ENDROOT
TORSDOF 0
ENDMDL
MODEL 2
REMARK VINA RESULT:      -5.5      0.040      3.410
REMARK  0 active torsions:
REMARK  status: ('A' for Active; 'I' for Inactive)
ROOT
HETATM    1  C1  UNL     1     -35.368   4.770   6.192  1.00 20.00     0.010 A 
HETATM    2  C2  UNL     1     -34.169   3.959   5.779  1.00 20.00     0.010 A 
HETATM    3  C3  UNL     1     -32.160   5.944   3.153  1.00 20.00     0.010 A 
HETATM    4  C4  UNL     1     -32.850   7.257   2.901  1.00 20.00     0.010 A 
HETATM    5  C5  UNL     1     -34.719   5.590   3.759  1.00 20.00     0.019 C 
HETATM    6  C6  UNL     1     -33.557   6.504   5.339  1.00 20.00     0.019 C 
HETATM    7  C7  UNL     1     -34.413   5.309   5.177  1.00 20.00    -0.038 A 
HETATM    8  C8  UNL     1     -33.423   6.288   3.883  1.00 20.00    -0.038 A 
ENDROOT
TORSDOF 0
ENDMDL
MODEL 3
REMARK VINA RESULT:      -4.6      1.097      3.497
REMARK  0 active torsions:
REMARK  status: ('A' for Active; 'I' for Inactive)
ROOT
HETATM    1  C1  UNL     1     -35.190   4.618   4.635  1.00 20.00     0.010 A 
HETATM    2  C2  UNL     1     -35.682   5.652   3.658  1.00 20.00     0.010 A 
HETATM    3  C3  UNL     1     -32.718   7.869   2.580  1.00 20.00     0.010 A 
HETATM    4  C4  UNL     1     -31.474   7.398   3.282  1.00 20.00     0.010 A 
HETATM    5  C5  UNL     1     -33.512   6.660   4.804  1.00 20.00     0.019 C 
HETATM    6  C6  UNL     1     -33.098   5.309   3.165  1.00 20.00     0.019 C 
HETATM    7  C7  UNL     1     -34.238   5.614   4.054  1.00 20.00    -0.038 A 
HETATM    8  C8  UNL     1     -32.777   6.706   3.522  1.00 20.00    -0.038 A 
ENDROOT
TORSDOF 0
ENDMDL
MODEL 4
REMARK VINA RESULT:      -4.6      1.070      1.941
REMARK  0 active torsions:
REMARK  status: ('A' for Active; 'I' for Inactive)
ROOT
HETATM    1  C1  UNL     1     -31.483   7.393   3.261  1.00 20.00     0.010 A 
HETATM    2  C2  UNL     1     -32.742   7.848   2.572  1.00 20.00     0.010 A 
HETATM    3  C3  UNL     1     -35.671   5.612   3.708  1.00 20.00     0.010 A 
HETATM    4  C4  UNL     1     -35.155   4.591   4.685  1.00 20.00     0.010 A 
HETATM    5  C5  UNL     1     -33.090   5.289   3.181  1.00 20.00     0.019 C 
HETATM    6  C6  UNL     1     -33.493   6.649   4.817  1.00 20.00     0.019 C 
HETATM    7  C7  UNL     1     -32.777   6.692   3.524  1.00 20.00    -0.038 A 
HETATM    8  C8  UNL     1     -34.221   5.591   4.085  1.00 20.00    -0.038 A 
ENDROOT
TORSDOF 0
ENDMDL
MODEL 5
REMARK VINA RESULT:      -4.0     12.129     12.870
REMARK  0 active torsions:
REMARK  status: ('A' for Active; 'I' for Inactive)
ROOT
HETATM    1  C1  UNL     1     -34.467  13.222  -4.862  1.00 20.00     0.010 A 
HETATM    2  C2  UNL     1     -34.548  14.524  -5.613  1.00 20.00     0.010 A 
HETATM    3  C3  UNL     1     -33.984  17.431  -3.144  1.00 20.00     0.010 A 
HETATM    4  C4  UNL     1     -33.760  16.867  -1.767  1.00 20.00     0.010 A 
HETATM    5  C5  UNL     1     -35.173  15.060  -3.090  1.00 20.00     0.019 C 
HETATM    6  C6  UNL     1     -33.044  14.971  -3.472  1.00 20.00     0.019 C 
HETATM    7  C7  UNL     1     -34.284  14.517  -4.138  1.00 20.00    -0.038 A 
HETATM    8  C8  UNL     1     -34.005  15.950  -2.921  1.00 20.00    -0.038 A 
ENDROOT
TORSDOF 0
ENDMDL
MODEL 6
REMARK VINA RESULT:      -4.0     12.117     12.860
REMARK  0 active torsions:
REMARK  status: ('A' for Active; 'I' for Inactive)
ROOT
HETATM    1  C1  UNL     1     -33.734  16.905  -1.781  1.00 20.00     0.010 A 
HETATM    2  C2  UNL     1     -33.995  17.458  -3.156  1.00 20.00     0.010 A 
HETATM    3  C3  UNL     1     -34.570  14.527  -5.595  1.00 20.00     0.010 A 
HETATM    4  C4  UNL     1     -34.454  13.232  -4.839  1.00 20.00     0.010 A 
HETATM    5  C5  UNL     1     -33.028  15.010  -3.490  1.00 20.00     0.019 C 
HETATM    6  C6  UNL     1     -35.149  15.070  -3.063  1.00 20.00     0.019 C 
HETATM    7  C7  UNL     1     -33.991  15.978  -2.925  1.00 20.00    -0.038 A 
HETATM    8  C8  UNL     1     -34.274  14.533  -4.126  1.00 20.00    -0.038 A 
ENDROOT
TORSDOF 0
ENDMDL
MODEL 7
REMARK VINA RESULT:      -4.0     11.863     12.822
REMARK  0 active torsions:
REMARK  status: ('A' for Active; 'I' for Inactive)
ROOT
HETATM    1  C1  UNL     1     -34.526  14.029  -5.373  1.00 20.00     0.010 A 
HETATM    2  C2  UNL     1     -35.165  13.578  -4.086  1.00 20.00     0.010 A 
HETATM    3  C3  UNL     1     -34.598  16.280  -1.394  1.00 20.00     0.010 A 
HETATM    4  C4  UNL     1     -33.816  17.415  -1.998  1.00 20.00     0.010 A 
HETATM    5  C5  UNL     1     -33.225  15.264  -3.425  1.00 20.00     0.019 C 
HETATM    6  C6  UNL     1     -35.073  16.229  -4.005  1.00 20.00     0.019 C 
HETATM    7  C7  UNL     1     -34.455  14.895  -4.157  1.00 20.00    -0.038 A 
HETATM    8  C8  UNL     1     -34.176  16.228  -2.831  1.00 20.00    -0.038 A 
ENDROOT
TORSDOF 0
ENDMDL
MODEL 8
REMARK VINA RESULT:      -4.0     11.891     12.855
REMARK  0 active torsions:
REMARK  status: ('A' for Active; 'I' for Inactive)
ROOT
HETATM    1  C1  UNL     1     -33.793  17.369  -1.987  1.00 20.00     0.010 A 
HETATM    2  C2  UNL     1     -34.622  16.254  -1.408  1.00 20.00     0.010 A 
HETATM    3  C3  UNL     1     -35.194  13.578  -4.124  1.00 20.00     0.010 A 
HETATM    4  C4  UNL     1     -34.510  14.014  -5.392  1.00 20.00     0.010 A 
HETATM    5  C5  UNL     1     -35.030  16.225  -4.030  1.00 20.00     0.019 C 
HETATM    6  C6  UNL     1     -33.225  15.206  -3.407  1.00 20.00     0.019 C 
HETATM    7  C7  UNL     1     -34.164  16.194  -2.833  1.00 20.00    -0.038 A 
HETATM    8  C8  UNL     1     -34.445  14.875  -4.172  1.00 20.00    -0.038 A 
ENDROOT
TORSDOF 0
ENDMDL
MODEL 9
REMARK VINA RESULT:      -3.9      9.168     10.460
REMARK  0 active torsions:
REMARK  status: ('A' for Active; 'I' for Inactive)
ROOT
HETATM    1  C1  UNL     1     -41.046   6.855  -0.749  1.00 20.00     0.010 A 
HETATM    2  C2  UNL     1     -42.168   6.137  -0.048  1.00 20.00     0.010 A 
HETATM    3  C3  UNL     1     -42.958   2.882  -1.957  1.00 20.00     0.010 A 
HETATM    4  C4  UNL     1     -42.037   2.774  -3.142  1.00 20.00     0.010 A 
HETATM    5  C5  UNL     1     -42.230   5.355  -2.583  1.00 20.00     0.019 C 
HETATM    6  C6  UNL     1     -40.790   4.293  -1.367  1.00 20.00     0.019 C 
HETATM    7  C7  UNL     1     -41.554   5.555  -1.284  1.00 20.00    -0.038 A 
HETATM    8  C8  UNL     1     -41.943   3.950  -2.225  1.00 20.00    -0.038 A 
ENDROOT
TORSDOF 0
ENDMDL
