MODEL 1
REMARK VINA RESULT:      -5.3      0.000      0.000
REMARK  2 active torsions:
REMARK  status: ('A' for Active; 'I' for Inactive)
REMARK    1  A    between atoms: C1_1  and  C2_2 
REMARK    2  A    between atoms: C1_1  and  C3_3 
ROOT
HETATM    1  C1  UNL     1     -33.843   5.225   3.748  1.00 20.00     0.346 C 
HETATM    2  F4  UNL     1     -34.234   5.061   2.448  1.00 20.00    -0.234 F 
ENDROOT
BRANCH   1   3
HETATM    3  C2  UNL     1     -33.382   6.667   3.916  1.00 20.00     0.357 C 
HETATM    4  F5  UNL     1     -32.815   6.851   5.132  1.00 20.00    -0.184 F 
HETATM    5  F6  UNL     1     -34.446   7.504   3.846  1.00 20.00    -0.184 F 
HETATM    6 CL9  UNL     1     -32.207   7.114   2.664  1.00 20.00    -0.045 Cl
ENDBRANCH   1   3
BRANCH   1   7
HETATM    7  C3  UNL     1     -35.030   4.821   4.612  1.00 20.00     0.357 C 
HETATM    8  F7  UNL     1     -35.141   3.466   4.592  1.00 20.00    -0.184 F 
HETATM    9  F8  UNL     1     -36.178   5.309   4.076  1.00 20.00    -0.184 F 
HETATM   10 CL10 UNL     1     -34.889   5.351   6.296  1.00 20.00    -0.045 Cl
ENDBRANCH   1   7
TORSDOF 2
ENDMDL
MODEL 2
REMARK VINA RESULT:      -5.3      0.773      3.604
REMARK  2 active torsions:
REMARK  status: ('A' for Active; 'I' for Inactive)
REMARK    1  A    between atoms: C1_1  and  C2_2 
REMARK    2  A    between atoms: C1_1  and  C3_3 
ROOT
HETATM    1  C1  UNL     1     -33.759   5.487   4.864  1.00 20.00     0.346 C 
HETATM    2  F4  UNL     1     -33.811   6.466   5.818  1.00 20.00    -0.234 F 
ENDROOT
BRANCH   1   3
HETATM    3  C2  UNL     1     -35.019   4.641   4.997  1.00 20.00     0.357 C 
HETATM    4  F5  UNL     1     -34.845   3.427   4.424  1.00 20.00    -0.184 F 
HETATM    5  F6  UNL     1     -36.050   5.239   4.350  1.00 20.00    -0.184 F 
HETATM    6 CL9  UNL     1     -35.458   4.410   6.701  1.00 20.00    -0.045 Cl
ENDBRANCH   1   3
BRANCH   1   7
HETATM    7  C3  UNL     1     -33.596   6.195   3.525  1.00 20.00     0.357 C 
HETATM    8  F7  UNL     1     -34.430   7.269   3.498  1.00 20.00    -0.184 F 
HETATM    9  F8  UNL     1     -33.992   5.375   2.518  1.00 20.00    -0.184 F 
HETATM   10 CL10 UNL     1     -31.944   6.756   3.221  1.00 20.00    -0.045 Cl
ENDBRANCH   1   7
TORSDOF 2
ENDMDL
MODEL 3
REMARK VINA RESULT:      -5.2      1.469      2.069
REMARK  2 active torsions:
REMARK  status: ('A' for Active; 'I' for Inactive)
REMARK    1  A    between atoms: C1_1  and  C2_2 
REMARK    2  A    between atoms: C1_1  and  C3_3 
ROOT
HETATM    1  C1  UNL     1     -33.966   6.656   4.120  1.00 20.00     0.346 C 
HETATM    2  F4  UNL     1     -33.912   6.536   5.481  1.00 20.00    -0.234 F 
ENDROOT
BRANCH   1   3
HETATM    3  C2  UNL     1     -32.537   6.764   3.606  1.00 20.00     0.357 C 
HETATM    4  F5  UNL     1     -32.023   5.537   3.352  1.00 20.00    -0.184 F 
HETATM    5  F6  UNL     1     -31.747   7.337   4.548  1.00 20.00    -0.184 F 
HETATM    6 CL9  UNL     1     -32.462   7.733   2.120  1.00 20.00    -0.045 Cl
ENDBRANCH   1   3
BRANCH   1   7
HETATM    7  C3  UNL     1     -34.746   5.451   3.610  1.00 20.00     0.357 C 
HETATM    8  F7  UNL     1     -34.171   5.019   2.455  1.00 20.00    -0.184 F 
HETATM    9  F8  UNL     1     -36.013   5.822   3.293  1.00 20.00    -0.184 F 
HETATM   10 CL10 UNL     1     -34.791   4.102   4.757  1.00 20.00    -0.045 Cl
ENDBRANCH   1   7
TORSDOF 2
ENDMDL
MODEL 4
REMARK VINA RESULT:      -5.2      1.295      3.381
REMARK  2 active torsions:
REMARK  status: ('A' for Active; 'I' for Inactive)
REMARK    1  A    between atoms: C1_1  and  C2_2 
REMARK    2  A    between atoms: C1_1  and  C3_3 
ROOT
HETATM    1  C1  UNL     1     -34.032   6.212   3.673  1.00 20.00     0.346 C 
HETATM    2  F4  UNL     1     -34.270   5.338   2.649  1.00 20.00    -0.234 F 
ENDROOT
BRANCH   1   3
HETATM    3  C2  UNL     1     -34.386   5.509   4.977  1.00 20.00     0.357 C 
HETATM    4  F5  UNL     1     -33.623   4.403   5.149  1.00 20.00    -0.184 F 
HETATM    5  F6  UNL     1     -35.677   5.097   4.946  1.00 20.00    -0.184 F 
HETATM    6 CL9  UNL     1     -34.153   6.586   6.369  1.00 20.00    -0.045 Cl
ENDBRANCH   1   3
BRANCH   1   7
HETATM    7  C3  UNL     1     -32.577   6.643   3.546  1.00 20.00     0.357 C 
HETATM    8  F7  UNL     1     -31.822   5.545   3.274  1.00 20.00    -0.184 F 
HETATM    9  F8  UNL     1     -32.134   7.129   4.733  1.00 20.00    -0.184 F 
HETATM   10 CL10 UNL     1     -32.305   7.844   2.274  1.00 20.00    -0.045 Cl
ENDBRANCH   1   7
TORSDOF 2
ENDMDL
MODEL 5
REMARK VINA RESULT:      -5.1      1.777      3.188
REMARK  2 active torsions:
REMARK  status: ('A' for Active; 'I' for Inactive)
REMARK    1  A    between atoms: C1_1  and  C2_2 
REMARK    2  A    between atoms: C1_1  and  C3_3 
ROOT
HETATM    1  C1  UNL     1     -35.121   5.117   4.740  1.00 20.00     0.346 C 
HETATM    2  F4  UNL     1     -35.217   3.803   4.373  1.00 20.00    -0.234 F 
ENDROOT
BRANCH   1   3
HETATM    3  C2  UNL     1     -34.686   5.161   6.199  1.00 20.00     0.357 C 
HETATM    4  F5  UNL     1     -33.778   4.190   6.459  1.00 20.00    -0.184 F 
HETATM    5  F6  UNL     1     -35.751   4.932   7.007  1.00 20.00    -0.184 F 
HETATM    6 CL9  UNL     1     -33.974   6.734   6.609  1.00 20.00    -0.045 Cl
ENDBRANCH   1   3
BRANCH   1   7
HETATM    7  C3  UNL     1     -34.158   5.772   3.760  1.00 20.00     0.357 C 
HETATM    8  F7  UNL     1     -32.890   5.612   4.224  1.00 20.00    -0.184 F 
HETATM    9  F8  UNL     1     -34.384   7.109   3.714  1.00 20.00    -0.184 F 
HETATM   10 CL10 UNL     1     -34.249   5.098   2.124  1.00 20.00    -0.045 Cl
ENDBRANCH   1   7
TORSDOF 2
ENDMDL
MODEL 6
REMARK VINA RESULT:      -5.0      1.385      3.586
REMARK  2 active torsions:
REMARK  status: ('A' for Active; 'I' for Inactive)
REMARK    1  A    between atoms: C1_1  and  C2_2 
REMARK    2  A    between atoms: C1_1  and  C3_3 
ROOT
HETATM    1  C1  UNL     1     -33.755   5.902   5.186  1.00 20.00     0.346 C 
HETATM    2  F4  UNL     1     -33.932   7.002   5.979  1.00 20.00    -0.234 F 
ENDROOT
BRANCH   1   3
HETATM    3  C2  UNL     1     -34.969   5.000   5.365  1.00 20.00     0.357 C 
HETATM    4  F5  UNL     1     -35.939   5.317   4.475  1.00 20.00    -0.184 F 
HETATM    5  F6  UNL     1     -35.497   5.173   6.602  1.00 20.00    -0.184 F 
HETATM    6 CL9  UNL     1     -34.535   3.292   5.153  1.00 20.00    -0.045 Cl
ENDBRANCH   1   3
BRANCH   1   7
HETATM    7  C3  UNL     1     -33.538   6.419   3.770  1.00 20.00     0.357 C 
HETATM    8  F7  UNL     1     -34.443   7.404   3.524  1.00 20.00    -0.184 F 
HETATM    9  F8  UNL     1     -33.793   5.431   2.874  1.00 20.00    -0.184 F 
HETATM   10 CL10 UNL     1     -31.912   7.065   3.496  1.00 20.00    -0.045 Cl
ENDBRANCH   1   7
TORSDOF 2
ENDMDL
MODEL 7
REMARK VINA RESULT:      -4.9      1.669      2.546
REMARK  2 active torsions:
REMARK  status: ('A' for Active; 'I' for Inactive)
REMARK    1  A    between atoms: C1_1  and  C2_2 
REMARK    2  A    between atoms: C1_1  and  C3_3 
ROOT
HETATM    1  C1  UNL     1     -33.590   6.662   4.536  1.00 20.00     0.346 C 
HETATM    2  F4  UNL     1     -32.684   7.010   5.499  1.00 20.00    -0.234 F 
ENDROOT
BRANCH   1   3
HETATM    3  C2  UNL     1     -32.814   6.308   3.274  1.00 20.00     0.357 C 
HETATM    4  F5  UNL     1     -33.562   5.535   2.451  1.00 20.00    -0.184 F 
HETATM    5  F6  UNL     1     -31.710   5.590   3.596  1.00 20.00    -0.184 F 
HETATM    6 CL9  UNL     1     -32.321   7.769   2.394  1.00 20.00    -0.045 Cl
ENDBRANCH   1   3
BRANCH   1   7
HETATM    7  C3  UNL     1     -34.428   5.531   5.117  1.00 20.00     0.357 C 
HETATM    8  F7  UNL     1     -34.856   5.899   6.354  1.00 20.00    -0.184 F 
HETATM    9  F8  UNL     1     -33.657   4.427   5.290  1.00 20.00    -0.184 F 
HETATM   10 CL10 UNL     1     -35.840   5.120   4.131  1.00 20.00    -0.045 Cl
ENDBRANCH   1   7
TORSDOF 2
ENDMDL
MODEL 8
REMARK VINA RESULT:      -4.8      1.911      2.746
REMARK  2 active torsions:
REMARK  status: ('A' for Active; 'I' for Inactive)
REMARK    1  A    between atoms: C1_1  and  C2_2 
REMARK    2  A    between atoms: C1_1  and  C3_3 
ROOT
HETATM    1  C1  UNL     1     -34.188   6.199   4.635  1.00 20.00     0.346 C 
HETATM    2  F4  UNL     1     -32.890   6.139   4.207  1.00 20.00    -0.234 F 
ENDROOT
BRANCH   1   3
HETATM    3  C2  UNL     1     -34.997   5.211   3.804  1.00 20.00     0.357 C 
HETATM    4  F5  UNL     1     -36.269   5.647   3.644  1.00 20.00    -0.184 F 
HETATM    5  F6  UNL     1     -35.067   4.017   4.443  1.00 20.00    -0.184 F 
HETATM    6 CL9  UNL     1     -34.269   4.972   2.203  1.00 20.00    -0.045 Cl
ENDBRANCH   1   3
BRANCH   1   7
HETATM    7  C3  UNL     1     -34.165   5.918   6.131  1.00 20.00     0.357 C 
HETATM    8  F7  UNL     1     -33.404   4.813   6.353  1.00 20.00    -0.184 F 
HETATM    9  F8  UNL     1     -35.416   5.616   6.563  1.00 20.00    -0.184 F 
HETATM   10 CL10 UNL     1     -33.512   7.255   7.091  1.00 20.00    -0.045 Cl
ENDBRANCH   1   7
TORSDOF 2
ENDMDL
MODEL 9
REMARK VINA RESULT:      -4.8      1.885      2.952
REMARK  2 active torsions:
REMARK  status: ('A' for Active; 'I' for Inactive)
REMARK    1  A    between atoms: C1_1  and  C2_2 
REMARK    2  A    between atoms: C1_1  and  C3_3 
ROOT
HETATM    1  C1  UNL     1     -33.959   5.778   4.750  1.00 20.00     0.346 C 
HETATM    2  F4  UNL     1     -34.089   7.091   4.388  1.00 20.00    -0.234 F 
ENDROOT
BRANCH   1   3
HETATM    3  C2  UNL     1     -34.266   5.674   6.238  1.00 20.00     0.357 C 
HETATM    4  F5  UNL     1     -33.566   4.662   6.803  1.00 20.00    -0.184 F 
HETATM    5  F6  UNL     1     -35.581   5.396   6.421  1.00 20.00    -0.184 F 
HETATM    6 CL9  UNL     1     -33.869   7.184   7.082  1.00 20.00    -0.045 Cl
ENDBRANCH   1   3
BRANCH   1   7
HETATM    7  C3  UNL     1     -34.888   4.984   3.841  1.00 20.00     0.357 C 
HETATM    8  F7  UNL     1     -36.107   5.586   3.834  1.00 20.00    -0.184 F 
HETATM    9  F8  UNL     1     -35.078   3.740   4.350  1.00 20.00    -0.184 F 
HETATM   10 CL10 UNL     1     -34.308   4.862   2.172  1.00 20.00    -0.045 Cl
ENDBRANCH   1   7
TORSDOF 2
ENDMDL
