MODEL 1
REMARK VINA RESULT:      -5.2      0.000      0.000
REMARK  0 active torsions:
REMARK  status: ('A' for Active; 'I' for Inactive)
ROOT
HETATM    1  C1  UNL     1     -31.822   8.315   1.812  1.00 20.00     0.012 C 
HETATM    2  C2  UNL     1     -32.285   7.511   2.574  1.00 20.00    -0.113 C 
HETATM    3  C3  UNL     1     -33.540   7.234   4.682  1.00 20.00     0.020 C 
HETATM    4  C4  UNL     1     -33.985   6.230   5.749  1.00 20.00     0.041 C 
HETATM    5  C5  UNL     1     -33.841   5.609   2.777  1.00 20.00     0.052 C 
HETATM    6  C6  UNL     1     -32.852   6.525   3.509  1.00 20.00     0.067 C 
HETATM    7  C7  UNL     1     -34.604   4.726   3.715  1.00 20.00     0.158 A 
HETATM    8  C8  UNL     1     -34.716   5.042   5.190  1.00 20.00     0.084 A 
HETATM    9  C9  UNL     1     -35.068   3.952   6.150  1.00 20.00     0.049 C 
HETATM   10  O10 UNL     1     -35.770   5.362   4.277  1.00 20.00    -0.370 OA
ENDROOT
TORSDOF 0
ENDMDL
MODEL 2
REMARK VINA RESULT:      -4.7     11.798     12.803
REMARK  0 active torsions:
REMARK  status: ('A' for Active; 'I' for Inactive)
ROOT
HETATM    1  C1  UNL     1     -34.721  16.860  -0.241  1.00 20.00     0.012 C 
HETATM    2  C2  UNL     1     -34.741  16.621  -1.417  1.00 20.00    -0.113 C 
HETATM    3  C3  UNL     1     -33.339  16.134  -3.391  1.00 20.00     0.020 C 
HETATM    4  C4  UNL     1     -33.332  15.999  -4.916  1.00 20.00     0.041 C 
HETATM    5  C5  UNL     1     -35.616  15.082  -3.133  1.00 20.00     0.052 C 
HETATM    6  C6  UNL     1     -34.765  16.328  -2.860  1.00 20.00     0.067 C 
HETATM    7  C7  UNL     1     -35.507  14.614  -4.551  1.00 20.00     0.158 A 
HETATM    8  C8  UNL     1     -34.356  15.033  -5.439  1.00 20.00     0.084 A 
HETATM    9  C9  UNL     1     -34.504  14.941  -6.924  1.00 20.00     0.049 C 
HETATM   10  O10 UNL     1     -34.369  13.760  -4.785  1.00 20.00    -0.370 OA
ENDROOT
TORSDOF 0
ENDMDL
MODEL 3
REMARK VINA RESULT:      -4.6     12.213     13.199
REMARK  0 active torsions:
REMARK  status: ('A' for Active; 'I' for Inactive)
ROOT
HETATM    1  C1  UNL     1     -34.731  17.029  -0.057  1.00 20.00     0.012 C 
HETATM    2  C2  UNL     1     -34.616  16.554  -1.153  1.00 20.00    -0.113 C 
HETATM    3  C3  UNL     1     -35.850  15.596  -3.067  1.00 20.00     0.020 C 
HETATM    4  C4  UNL     1     -35.712  14.835  -4.386  1.00 20.00     0.041 C 
HETATM    5  C5  UNL     1     -33.757  16.956  -3.429  1.00 20.00     0.052 C 
HETATM    6  C6  UNL     1     -34.475  15.971  -2.499  1.00 20.00     0.067 C 
HETATM    7  C7  UNL     1     -33.772  16.507  -4.857  1.00 20.00     0.158 A 
HETATM    8  C8  UNL     1     -34.762  15.479  -5.357  1.00 20.00     0.084 A 
HETATM    9  C9  UNL     1     -34.471  14.730  -6.617  1.00 20.00     0.049 C 
HETATM   10  O10 UNL     1     -34.973  16.879  -5.562  1.00 20.00    -0.370 OA
ENDROOT
TORSDOF 0
ENDMDL
MODEL 4
REMARK VINA RESULT:      -4.5     12.221     13.399
REMARK  0 active torsions:
REMARK  status: ('A' for Active; 'I' for Inactive)
ROOT
HETATM    1  C1  UNL     1     -34.791  17.057  -0.038  1.00 20.00     0.012 C 
HETATM    2  C2  UNL     1     -34.758  16.655  -1.168  1.00 20.00    -0.113 C 
HETATM    3  C3  UNL     1     -35.316  17.202  -3.511  1.00 20.00     0.020 C 
HETATM    4  C4  UNL     1     -35.441  16.640  -4.929  1.00 20.00     0.041 C 
HETATM    5  C5  UNL     1     -33.275  15.828  -2.957  1.00 20.00     0.052 C 
HETATM    6  C6  UNL     1     -34.718  16.162  -2.556  1.00 20.00     0.067 C 
HETATM    7  C7  UNL     1     -33.144  15.524  -4.416  1.00 20.00     0.158 A 
HETATM    8  C8  UNL     1     -34.196  15.953  -5.415  1.00 20.00     0.084 A 
HETATM    9  C9  UNL     1     -34.277  15.263  -6.739  1.00 20.00     0.049 C 
HETATM   10  O10 UNL     1     -32.989  16.700  -5.235  1.00 20.00    -0.370 OA
ENDROOT
TORSDOF 0
ENDMDL
MODEL 5
REMARK VINA RESULT:      -4.4     12.148     13.436
REMARK  0 active torsions:
REMARK  status: ('A' for Active; 'I' for Inactive)
ROOT
HETATM    1  C1  UNL     1     -34.536  18.215   1.492  1.00 20.00     0.012 C 
HETATM    2  C2  UNL     1     -34.210  17.895   0.383  1.00 20.00    -0.113 C 
HETATM    3  C3  UNL     1     -34.633  16.297  -1.453  1.00 20.00     0.020 C 
HETATM    4  C4  UNL     1     -34.116  15.768  -2.792  1.00 20.00     0.041 C 
HETATM    5  C5  UNL     1     -33.980  18.683  -1.943  1.00 20.00     0.052 C 
HETATM    6  C6  UNL     1     -33.810  17.502  -0.979  1.00 20.00     0.067 C 
HETATM    7  C7  UNL     1     -33.790  18.286  -3.373  1.00 20.00     0.158 A 
HETATM    8  C8  UNL     1     -33.891  16.844  -3.818  1.00 20.00     0.084 A 
HETATM    9  C9  UNL     1     -33.263  16.427  -5.109  1.00 20.00     0.049 C 
HETATM   10  O10 UNL     1     -34.984  17.753  -3.982  1.00 20.00    -0.370 OA
ENDROOT
TORSDOF 0
ENDMDL
MODEL 6
REMARK VINA RESULT:      -4.1      9.606     10.792
REMARK  0 active torsions:
REMARK  status: ('A' for Active; 'I' for Inactive)
ROOT
HETATM    1  C1  UNL     1     -41.562   1.486  -3.767  1.00 20.00     0.012 C 
HETATM    2  C2  UNL     1     -41.798   2.484  -3.142  1.00 20.00    -0.113 C 
HETATM    3  C3  UNL     1     -40.816   4.223  -1.690  1.00 20.00     0.020 C 
HETATM    4  C4  UNL     1     -41.130   5.392  -0.753  1.00 20.00     0.041 C 
HETATM    5  C5  UNL     1     -42.677   4.782  -3.297  1.00 20.00     0.052 C 
HETATM    6  C6  UNL     1     -42.087   3.708  -2.375  1.00 20.00     0.067 C 
HETATM    7  C7  UNL     1     -42.795   6.113  -2.621  1.00 20.00     0.158 A 
HETATM    8  C8  UNL     1     -42.004   6.444  -1.375  1.00 20.00     0.084 A 
HETATM    9  C9  UNL     1     -42.464   7.553  -0.486  1.00 20.00     0.049 C 
HETATM   10  O10 UNL     1     -41.580   6.888  -2.668  1.00 20.00    -0.370 OA
ENDROOT
TORSDOF 0
ENDMDL
MODEL 7
REMARK VINA RESULT:      -4.1     11.740     13.174
REMARK  0 active torsions:
REMARK  status: ('A' for Active; 'I' for Inactive)
ROOT
HETATM    1  C1  UNL     1     -35.553  14.418  -7.816  1.00 20.00     0.012 C 
HETATM    2  C2  UNL     1     -35.501  14.730  -6.658  1.00 20.00    -0.113 C 
HETATM    3  C3  UNL     1     -34.165  14.548  -4.588  1.00 20.00     0.020 C 
HETATM    4  C4  UNL     1     -34.165  14.788  -3.077  1.00 20.00     0.041 C 
HETATM    5  C5  UNL     1     -35.481  16.639  -5.097  1.00 20.00     0.052 C 
HETATM    6  C6  UNL     1     -35.436  15.112  -5.237  1.00 20.00     0.067 C 
HETATM    7  C7  UNL     1     -35.208  17.093  -3.697  1.00 20.00     0.158 A 
HETATM    8  C8  UNL     1     -34.521  16.196  -2.691  1.00 20.00     0.084 A 
HETATM    9  C9  UNL     1     -34.671  16.480  -1.231  1.00 20.00     0.049 C 
HETATM   10  O10 UNL     1     -33.802  17.212  -3.399  1.00 20.00    -0.370 OA
ENDROOT
TORSDOF 0
ENDMDL
MODEL 8
REMARK VINA RESULT:      -4.1      9.680     10.496
REMARK  0 active torsions:
REMARK  status: ('A' for Active; 'I' for Inactive)
ROOT
HETATM    1  C1  UNL     1     -42.607   8.691  -4.804  1.00 20.00     0.012 C 
HETATM    2  C2  UNL     1     -42.624   7.988  -3.831  1.00 20.00    -0.113 C 
HETATM    3  C3  UNL     1     -42.814   5.656  -3.041  1.00 20.00     0.020 C 
HETATM    4  C4  UNL     1     -43.009   4.765  -1.812  1.00 20.00     0.041 C 
HETATM    5  C5  UNL     1     -41.358   7.317  -1.824  1.00 20.00     0.052 C 
HETATM    6  C6  UNL     1     -42.644   7.126  -2.637  1.00 20.00     0.067 C 
HETATM    7  C7  UNL     1     -41.228   6.318  -0.717  1.00 20.00     0.158 A 
HETATM    8  C8  UNL     1     -42.016   5.026  -0.716  1.00 20.00     0.084 A 
HETATM    9  C9  UNL     1     -42.219   4.291   0.570  1.00 20.00     0.049 C 
HETATM   10  O10 UNL     1     -40.650   5.067  -1.141  1.00 20.00    -0.370 OA
ENDROOT
TORSDOF 0
ENDMDL
MODEL 9
REMARK VINA RESULT:      -4.0     11.021     12.686
REMARK  0 active torsions:
REMARK  status: ('A' for Active; 'I' for Inactive)
ROOT
HETATM    1  C1  UNL     1     -38.825  16.279  -5.980  1.00 20.00     0.012 C 
HETATM    2  C2  UNL     1     -37.743  15.939  -5.588  1.00 20.00    -0.113 C 
HETATM    3  C3  UNL     1     -36.474  15.160  -3.617  1.00 20.00     0.020 C 
HETATM    4  C4  UNL     1     -35.075  14.890  -3.059  1.00 20.00     0.041 C 
HETATM    5  C5  UNL     1     -35.902  14.335  -5.931  1.00 20.00     0.052 C 
HETATM    6  C6  UNL     1     -36.415  15.522  -5.106  1.00 20.00     0.067 C 
HETATM    7  C7  UNL     1     -34.657  13.735  -5.355  1.00 20.00     0.158 A 
HETATM    8  C8  UNL     1     -34.252  13.973  -3.918  1.00 20.00     0.084 A 
HETATM    9  C9  UNL     1     -32.828  13.763  -3.511  1.00 20.00     0.049 C 
HETATM   10  O10 UNL     1     -34.914  12.769  -4.317  1.00 20.00    -0.370 OA
ENDROOT
TORSDOF 0
ENDMDL
