MODEL 1
REMARK VINA RESULT:      -4.2      0.000      0.000
REMARK  5 active torsions:
REMARK  status: ('A' for Active; 'I' for Inactive)
REMARK    1  A    between atoms: C1_1  and  O9_9 
REMARK    2  A    between atoms: C5_5  and  C6_6 
REMARK    3  A    between atoms: C6_6  and  C7_7 
REMARK    4  A    between atoms: C7_7  and  C8_8 
REMARK    5  A    between atoms: C8_8  and  O9_9 
ROOT
HETATM    1  C4  UNL     1     -34.549   5.386   2.678  1.00 20.00     0.040 C 
HETATM    2  C8  UNL     1     -33.566   6.181   3.526  1.00 20.00     0.125 C 
ENDROOT
BRANCH   2   3
HETATM    3  C7  UNL     1     -32.224   6.442   2.835  1.00 20.00     0.032 C 
BRANCH   3   4
HETATM    4  C6  UNL     1     -31.831   7.919   2.804  1.00 20.00     0.002 C 
BRANCH   4   5
HETATM    5  C5  UNL     1     -31.879   8.474   1.379  1.00 20.00    -0.004 C 
HETATM    6  C3  UNL     1     -32.485   9.869   1.346  1.00 20.00     0.005 C 
ENDBRANCH   4   5
ENDBRANCH   3   4
ENDBRANCH   2   3
BRANCH   2   7
HETATM    7  O9  UNL     1     -33.319   5.453   4.729  1.00 20.00    -0.340 OA
BRANCH   7   8
HETATM    8  C1  UNL     1     -34.088   5.632   5.823  1.00 20.00     0.109 C 
HETATM    9  C2  UNL     1     -33.953   6.890   6.622  1.00 20.00     0.089 C 
HETATM   10  S10 UNL     1     -35.151   4.407   6.206  1.00 20.00    -0.058 SA
ENDBRANCH   7   8
ENDBRANCH   2   7
TORSDOF 5
ENDMDL
MODEL 2
REMARK VINA RESULT:      -4.0     11.551     12.596
REMARK  5 active torsions:
REMARK  status: ('A' for Active; 'I' for Inactive)
REMARK    1  A    between atoms: C1_1  and  O9_9 
REMARK    2  A    between atoms: C5_5  and  C6_6 
REMARK    3  A    between atoms: C6_6  and  C7_7 
REMARK    4  A    between atoms: C7_7  and  C8_8 
REMARK    5  A    between atoms: C8_8  and  O9_9 
ROOT
HETATM    1  C4  UNL     1     -33.538  17.690  -4.786  1.00 20.00     0.040 C 
HETATM    2  C8  UNL     1     -34.113  16.421  -4.170  1.00 20.00     0.125 C 
ENDROOT
BRANCH   2   3
HETATM    3  C7  UNL     1     -33.682  16.190  -2.718  1.00 20.00     0.032 C 
BRANCH   3   4
HETATM    4  C6  UNL     1     -34.852  16.111  -1.739  1.00 20.00     0.002 C 
BRANCH   4   5
HETATM    5  C5  UNL     1     -34.584  16.950  -0.487  1.00 20.00    -0.004 C 
HETATM    6  C3  UNL     1     -33.443  17.930  -0.708  1.00 20.00     0.005 C 
ENDBRANCH   4   5
ENDBRANCH   3   4
ENDBRANCH   2   3
BRANCH   2   7
HETATM    7  O9  UNL     1     -33.681  15.307  -4.951  1.00 20.00    -0.340 OA
BRANCH   7   8
HETATM    8  C1  UNL     1     -34.562  14.390  -5.403  1.00 20.00     0.109 C 
HETATM    9  C2  UNL     1     -34.934  13.232  -4.532  1.00 20.00     0.089 C 
HETATM   10  S10 UNL     1     -35.176  14.625  -6.934  1.00 20.00    -0.058 SA
ENDBRANCH   7   8
ENDBRANCH   2   7
TORSDOF 5
ENDMDL
MODEL 3
REMARK VINA RESULT:      -3.9     11.528     12.723
REMARK  5 active torsions:
REMARK  status: ('A' for Active; 'I' for Inactive)
REMARK    1  A    between atoms: C1_1  and  O9_9 
REMARK    2  A    between atoms: C5_5  and  C6_6 
REMARK    3  A    between atoms: C6_6  and  C7_7 
REMARK    4  A    between atoms: C7_7  and  C8_8 
REMARK    5  A    between atoms: C8_8  and  O9_9 
ROOT
HETATM    1  C4  UNL     1     -33.637  17.920  -4.685  1.00 20.00     0.040 C 
HETATM    2  C8  UNL     1     -34.085  16.572  -4.137  1.00 20.00     0.125 C 
ENDROOT
BRANCH   2   3
HETATM    3  C7  UNL     1     -33.650  16.319  -2.690  1.00 20.00     0.032 C 
BRANCH   3   4
HETATM    4  C6  UNL     1     -34.820  16.147  -1.722  1.00 20.00     0.002 C 
BRANCH   4   5
HETATM    5  C5  UNL     1     -34.604  16.957  -0.442  1.00 20.00    -0.004 C 
HETATM    6  C3  UNL     1     -33.486  17.975  -0.611  1.00 20.00     0.005 C 
ENDBRANCH   4   5
ENDBRANCH   3   4
ENDBRANCH   2   3
BRANCH   2   7
HETATM    7  O9  UNL     1     -33.531  15.546  -4.960  1.00 20.00    -0.340 OA
BRANCH   7   8
HETATM    8  C1  UNL     1     -34.325  14.665  -5.605  1.00 20.00     0.109 C 
HETATM    9  C2  UNL     1     -34.654  14.887  -7.048  1.00 20.00     0.089 C 
HETATM   10  S10 UNL     1     -34.892  13.373  -4.719  1.00 20.00    -0.058 SA
ENDBRANCH   7   8
ENDBRANCH   2   7
TORSDOF 5
ENDMDL
MODEL 4
REMARK VINA RESULT:      -3.8     11.399     12.820
REMARK  5 active torsions:
REMARK  status: ('A' for Active; 'I' for Inactive)
REMARK    1  A    between atoms: C1_1  and  O9_9 
REMARK    2  A    between atoms: C5_5  and  C6_6 
REMARK    3  A    between atoms: C6_6  and  C7_7 
REMARK    4  A    between atoms: C7_7  and  C8_8 
REMARK    5  A    between atoms: C8_8  and  O9_9 
ROOT
HETATM    1  C4  UNL     1     -33.524  13.755  -3.807  1.00 20.00     0.040 C 
HETATM    2  C8  UNL     1     -33.583  15.235  -4.163  1.00 20.00     0.125 C 
ENDROOT
BRANCH   2   3
HETATM    3  C7  UNL     1     -33.602  16.163  -2.944  1.00 20.00     0.032 C 
BRANCH   3   4
HETATM    4  C6  UNL     1     -34.807  15.946  -2.030  1.00 20.00     0.002 C 
BRANCH   4   5
HETATM    5  C5  UNL     1     -34.645  16.704  -0.711  1.00 20.00    -0.004 C 
HETATM    6  C3  UNL     1     -33.521  17.725  -0.790  1.00 20.00     0.005 C 
ENDBRANCH   4   5
ENDBRANCH   3   4
ENDBRANCH   2   3
BRANCH   2   7
HETATM    7  O9  UNL     1     -34.769  15.467  -4.923  1.00 20.00    -0.340 OA
BRANCH   7   8
HETATM    8  C1  UNL     1     -34.705  15.839  -6.219  1.00 20.00     0.109 C 
HETATM    9  C2  UNL     1     -34.267  17.226  -6.568  1.00 20.00     0.089 C 
HETATM   10  S10 UNL     1     -35.131  14.695  -7.353  1.00 20.00    -0.058 SA
ENDBRANCH   7   8
ENDBRANCH   2   7
TORSDOF 5
ENDMDL
MODEL 5
REMARK VINA RESULT:      -3.7     11.261     12.205
REMARK  5 active torsions:
REMARK  status: ('A' for Active; 'I' for Inactive)
REMARK    1  A    between atoms: C1_1  and  O9_9 
REMARK    2  A    between atoms: C5_5  and  C6_6 
REMARK    3  A    between atoms: C6_6  and  C7_7 
REMARK    4  A    between atoms: C7_7  and  C8_8 
REMARK    5  A    between atoms: C8_8  and  O9_9 
ROOT
HETATM    1  C4  UNL     1     -33.575  17.368  -4.757  1.00 20.00     0.040 C 
HETATM    2  C8  UNL     1     -33.624  16.497  -3.509  1.00 20.00     0.125 C 
ENDROOT
BRANCH   2   3
HETATM    3  C7  UNL     1     -33.155  15.057  -3.742  1.00 20.00     0.032 C 
BRANCH   3   4
HETATM    4  C6  UNL     1     -34.257  14.017  -3.541  1.00 20.00     0.002 C 
BRANCH   4   5
HETATM    5  C5  UNL     1     -34.496  13.209  -4.818  1.00 20.00    -0.004 C 
HETATM    6  C3  UNL     1     -34.989  14.094  -5.952  1.00 20.00     0.005 C 
ENDBRANCH   4   5
ENDBRANCH   3   4
ENDBRANCH   2   3
BRANCH   2   7
HETATM    7  O9  UNL     1     -34.971  16.462  -3.038  1.00 20.00    -0.340 OA
BRANCH   7   8
HETATM    8  C1  UNL     1     -35.328  17.092  -1.899  1.00 20.00     0.109 C 
HETATM    9  C2  UNL     1     -34.621  16.765  -0.622  1.00 20.00     0.089 C 
HETATM   10  S10 UNL     1     -36.561  18.208  -2.011  1.00 20.00    -0.058 SA
ENDBRANCH   7   8
ENDBRANCH   2   7
TORSDOF 5
ENDMDL
MODEL 6
REMARK VINA RESULT:      -3.7     11.325     12.255
REMARK  5 active torsions:
REMARK  status: ('A' for Active; 'I' for Inactive)
REMARK    1  A    between atoms: C1_1  and  O9_9 
REMARK    2  A    between atoms: C5_5  and  C6_6 
REMARK    3  A    between atoms: C6_6  and  C7_7 
REMARK    4  A    between atoms: C7_7  and  C8_8 
REMARK    5  A    between atoms: C8_8  and  O9_9 
ROOT
HETATM    1  C4  UNL     1     -34.614  16.568  -1.032  1.00 20.00     0.040 C 
HETATM    2  C8  UNL     1     -34.877  16.024  -2.430  1.00 20.00     0.125 C 
ENDROOT
BRANCH   2   3
HETATM    3  C7  UNL     1     -33.661  16.095  -3.359  1.00 20.00     0.032 C 
BRANCH   3   4
HETATM    4  C6  UNL     1     -33.025  14.733  -3.637  1.00 20.00     0.002 C 
BRANCH   4   5
HETATM    5  C5  UNL     1     -34.072  13.618  -3.614  1.00 20.00    -0.004 C 
HETATM    6  C3  UNL     1     -34.580  13.302  -5.012  1.00 20.00     0.005 C 
ENDBRANCH   4   5
ENDBRANCH   3   4
ENDBRANCH   2   3
BRANCH   2   7
HETATM    7  O9  UNL     1     -35.936  16.782  -3.015  1.00 20.00    -0.340 OA
BRANCH   7   8
HETATM    8  C1  UNL     1     -36.727  16.250  -3.971  1.00 20.00     0.109 C 
HETATM    9  C2  UNL     1     -37.495  15.000  -3.681  1.00 20.00     0.089 C 
HETATM   10  S10 UNL     1     -36.783  17.048  -5.433  1.00 20.00    -0.058 SA
ENDBRANCH   7   8
ENDBRANCH   2   7
TORSDOF 5
ENDMDL
MODEL 7
REMARK VINA RESULT:      -3.7     11.652     12.430
REMARK  5 active torsions:
REMARK  status: ('A' for Active; 'I' for Inactive)
REMARK    1  A    between atoms: C1_1  and  O9_9 
REMARK    2  A    between atoms: C5_5  and  C6_6 
REMARK    3  A    between atoms: C6_6  and  C7_7 
REMARK    4  A    between atoms: C7_7  and  C8_8 
REMARK    5  A    between atoms: C8_8  and  O9_9 
ROOT
HETATM    1  C4  UNL     1     -36.726  16.609  -3.515  1.00 20.00     0.040 C 
HETATM    2  C8  UNL     1     -35.629  15.565  -3.356  1.00 20.00     0.125 C 
ENDROOT
BRANCH   2   3
HETATM    3  C7  UNL     1     -34.799  15.734  -2.079  1.00 20.00     0.032 C 
BRANCH   3   4
HETATM    4  C6  UNL     1     -33.812  16.899  -2.142  1.00 20.00     0.002 C 
BRANCH   4   5
HETATM    5  C5  UNL     1     -33.705  17.608  -0.790  1.00 20.00    -0.004 C 
HETATM    6  C3  UNL     1     -34.873  17.254   0.117  1.00 20.00     0.005 C 
ENDBRANCH   4   5
ENDBRANCH   3   4
ENDBRANCH   2   3
BRANCH   2   7
HETATM    7  O9  UNL     1     -34.752  15.660  -4.478  1.00 20.00    -0.340 OA
BRANCH   7   8
HETATM    8  C1  UNL     1     -34.632  14.641  -5.356  1.00 20.00     0.109 C 
HETATM    9  C2  UNL     1     -34.586  13.234  -4.851  1.00 20.00     0.089 C 
HETATM   10  S10 UNL     1     -34.538  15.045  -6.970  1.00 20.00    -0.058 SA
ENDBRANCH   7   8
ENDBRANCH   2   7
TORSDOF 5
ENDMDL
MODEL 8
REMARK VINA RESULT:      -3.7      1.147      1.747
REMARK  5 active torsions:
REMARK  status: ('A' for Active; 'I' for Inactive)
REMARK    1  A    between atoms: C1_1  and  O9_9 
REMARK    2  A    between atoms: C5_5  and  C6_6 
REMARK    3  A    between atoms: C6_6  and  C7_7 
REMARK    4  A    between atoms: C7_7  and  C8_8 
REMARK    5  A    between atoms: C8_8  and  O9_9 
ROOT
HETATM    1  C4  UNL     1     -32.064   5.304   2.951  1.00 20.00     0.040 C 
HETATM    2  C8  UNL     1     -32.910   6.565   3.060  1.00 20.00     0.125 C 
ENDROOT
BRANCH   2   3
HETATM    3  C7  UNL     1     -32.125   7.858   2.814  1.00 20.00     0.032 C 
BRANCH   3   4
HETATM    4  C6  UNL     1     -31.806   8.108   1.341  1.00 20.00     0.002 C 
BRANCH   4   5
HETATM    5  C5  UNL     1     -32.258   9.503   0.905  1.00 20.00    -0.004 C 
HETATM    6  C3  UNL     1     -32.827  10.293   2.073  1.00 20.00     0.005 C 
ENDBRANCH   4   5
ENDBRANCH   3   4
ENDBRANCH   2   3
BRANCH   2   7
HETATM    7  O9  UNL     1     -33.469   6.620   4.372  1.00 20.00    -0.340 OA
BRANCH   7   8
HETATM    8  C1  UNL     1     -34.502   5.826   4.724  1.00 20.00     0.109 C 
HETATM    9  C2  UNL     1     -35.555   5.496   3.714  1.00 20.00     0.089 C 
HETATM   10  S10 UNL     1     -34.522   5.267   6.293  1.00 20.00    -0.058 SA
ENDBRANCH   7   8
ENDBRANCH   2   7
TORSDOF 5
ENDMDL
MODEL 9
REMARK VINA RESULT:      -3.7     11.443     12.620
REMARK  5 active torsions:
REMARK  status: ('A' for Active; 'I' for Inactive)
REMARK    1  A    between atoms: C1_1  and  O9_9 
REMARK    2  A    between atoms: C5_5  and  C6_6 
REMARK    3  A    between atoms: C6_6  and  C7_7 
REMARK    4  A    between atoms: C7_7  and  C8_8 
REMARK    5  A    between atoms: C8_8  and  O9_9 
ROOT
HETATM    1  C4  UNL     1     -34.474  14.913  -7.196  1.00 20.00     0.040 C 
HETATM    2  C8  UNL     1     -35.012  14.821  -5.775  1.00 20.00     0.125 C 
ENDROOT
BRANCH   2   3
HETATM    3  C7  UNL     1     -34.577  13.554  -5.031  1.00 20.00     0.032 C 
BRANCH   3   4
HETATM    4  C6  UNL     1     -34.174  13.807  -3.579  1.00 20.00     0.002 C 
BRANCH   4   5
HETATM    5  C5  UNL     1     -33.796  15.273  -3.356  1.00 20.00    -0.004 C 
HETATM    6  C3  UNL     1     -34.586  15.884  -2.209  1.00 20.00     0.005 C 
ENDBRANCH   4   5
ENDBRANCH   3   4
ENDBRANCH   2   3
BRANCH   2   7
HETATM    7  O9  UNL     1     -36.439  14.841  -5.832  1.00 20.00    -0.340 OA
BRANCH   7   8
HETATM    8  C1  UNL     1     -37.162  15.541  -4.933  1.00 20.00     0.109 C 
HETATM    9  C2  UNL     1     -38.025  14.812  -3.951  1.00 20.00     0.089 C 
HETATM   10  S10 UNL     1     -37.036  17.201  -4.994  1.00 20.00    -0.058 SA
ENDBRANCH   7   8
ENDBRANCH   2   7
TORSDOF 5
ENDMDL
