MODEL 1
REMARK VINA RESULT:      -3.5      0.000      0.000
REMARK  0 active torsions:
REMARK  status: ('A' for Active; 'I' for Inactive)
ROOT
HETATM    1  C1  UNL     1     -34.189  16.591  -6.719  1.00 20.00     0.027 C 
HETATM    2  C2  UNL     1     -34.333  15.086  -6.981  1.00 20.00     0.012 C 
HETATM    3  C3  UNL     1     -33.828  16.977  -5.290  1.00 20.00     0.167 C 
HETATM    4  C4  UNL     1     -33.097  15.552  -3.517  1.00 20.00     0.177 C 
HETATM    5  C5  UNL     1     -35.299  14.345  -6.056  1.00 20.00     0.074 C 
HETATM    6  C6  UNL     1     -34.367  14.705  -3.428  1.00 20.00     0.100 C 
HETATM    7  O7  UNL     1     -32.832  16.088  -4.807  1.00 20.00    -0.390 OA
HETATM    8  S8  UNL     1     -34.470  13.418  -4.712  1.00 20.00    -0.167 SA
ENDROOT
TORSDOF 0
ENDMDL
MODEL 2
REMARK VINA RESULT:      -3.5     12.125     13.306
REMARK  0 active torsions:
REMARK  status: ('A' for Active; 'I' for Inactive)
ROOT
HETATM    1  C1  UNL     1     -40.773   6.144  -0.042  1.00 20.00     0.027 C 
HETATM    2  C2  UNL     1     -41.139   7.217  -1.077  1.00 20.00     0.012 C 
HETATM    3  C3  UNL     1     -41.164   4.719  -0.408  1.00 20.00     0.167 C 
HETATM    4  C4  UNL     1     -41.921   3.894  -2.519  1.00 20.00     0.177 C 
HETATM    5  C5  UNL     1     -42.606   7.248  -1.505  1.00 20.00     0.074 C 
HETATM    6  C6  UNL     1     -43.203   4.725  -2.591  1.00 20.00     0.100 C 
HETATM    7  O7  UNL     1     -40.867   4.495  -1.779  1.00 20.00    -0.390 OA
HETATM    8  S8  UNL     1     -42.921   6.444  -3.120  1.00 20.00    -0.167 SA
ENDROOT
TORSDOF 0
ENDMDL
MODEL 3
REMARK VINA RESULT:      -3.4      1.797      2.599
REMARK  0 active torsions:
REMARK  status: ('A' for Active; 'I' for Inactive)
ROOT
HETATM    1  C1  UNL     1     -34.707  15.827  -6.958  1.00 20.00     0.027 C 
HETATM    2  C2  UNL     1     -34.375  16.773  -5.796  1.00 20.00     0.012 C 
HETATM    3  C3  UNL     1     -34.887  14.362  -6.581  1.00 20.00     0.167 C 
HETATM    4  C4  UNL     1     -35.092  13.417  -4.396  1.00 20.00     0.177 C 
HETATM    5  C5  UNL     1     -33.168  16.375  -4.945  1.00 20.00     0.074 C 
HETATM    6  C6  UNL     1     -33.708  13.826  -3.889  1.00 20.00     0.100 C 
HETATM    7  O7  UNL     1     -35.641  14.283  -5.380  1.00 20.00    -0.390 OA
HETATM    8  S8  UNL     1     -33.616  15.567  -3.364  1.00 20.00    -0.167 SA
ENDROOT
TORSDOF 0
ENDMDL
MODEL 4
REMARK VINA RESULT:      -3.4      1.495      2.734
REMARK  0 active torsions:
REMARK  status: ('A' for Active; 'I' for Inactive)
ROOT
HETATM    1  C1  UNL     1     -33.515  13.642  -3.735  1.00 20.00     0.027 C 
HETATM    2  C2  UNL     1     -34.880  13.646  -4.436  1.00 20.00     0.012 C 
HETATM    3  C3  UNL     1     -32.778  14.975  -3.724  1.00 20.00     0.167 C 
HETATM    4  C4  UNL     1     -33.623  17.131  -4.317  1.00 20.00     0.177 C 
HETATM    5  C5  UNL     1     -34.882  14.172  -5.871  1.00 20.00     0.074 C 
HETATM    6  C6  UNL     1     -33.921  16.813  -5.783  1.00 20.00     0.100 C 
HETATM    7  O7  UNL     1     -33.704  16.014  -3.442  1.00 20.00    -0.390 OA
HETATM    8  S8  UNL     1     -35.477  15.898  -6.023  1.00 20.00    -0.167 SA
ENDROOT
TORSDOF 0
ENDMDL
MODEL 5
REMARK VINA RESULT:      -3.4      1.941      3.559
REMARK  0 active torsions:
REMARK  status: ('A' for Active; 'I' for Inactive)
ROOT
HETATM    1  C1  UNL     1     -33.939  13.761  -3.693  1.00 20.00     0.027 C 
HETATM    2  C2  UNL     1     -32.946  14.931  -3.676  1.00 20.00     0.012 C 
HETATM    3  C3  UNL     1     -35.002  13.818  -4.783  1.00 20.00     0.167 C 
HETATM    4  C4  UNL     1     -35.095  15.273  -6.676  1.00 20.00     0.177 C 
HETATM    5  C5  UNL     1     -33.570  16.325  -3.623  1.00 20.00     0.074 C 
HETATM    6  C6  UNL     1     -35.207  16.583  -5.894  1.00 20.00     0.100 C 
HETATM    7  O7  UNL     1     -34.398  14.237  -5.997  1.00 20.00    -0.390 OA
HETATM    8  S8  UNL     1     -33.613  17.176  -5.245  1.00 20.00    -0.167 SA
ENDROOT
TORSDOF 0
ENDMDL
MODEL 6
REMARK VINA RESULT:      -3.3      1.432      2.148
REMARK  0 active torsions:
REMARK  status: ('A' for Active; 'I' for Inactive)
ROOT
HETATM    1  C1  UNL     1     -33.593  17.128  -3.952  1.00 20.00     0.027 C 
HETATM    2  C2  UNL     1     -33.847  16.918  -5.450  1.00 20.00     0.012 C 
HETATM    3  C3  UNL     1     -33.634  15.869  -3.095  1.00 20.00     0.167 C 
HETATM    4  C4  UNL     1     -33.668  13.593  -3.822  1.00 20.00     0.177 C 
HETATM    5  C5  UNL     1     -35.137  16.176  -5.802  1.00 20.00     0.074 C 
HETATM    6  C6  UNL     1     -35.005  13.657  -4.561  1.00 20.00     0.100 C 
HETATM    7  O7  UNL     1     -32.957  14.823  -3.777  1.00 20.00    -0.390 OA
HETATM    8  S8  UNL     1     -34.883  14.409  -6.214  1.00 20.00    -0.167 SA
ENDROOT
TORSDOF 0
ENDMDL
MODEL 7
REMARK VINA RESULT:      -3.3     12.050     12.707
REMARK  0 active torsions:
REMARK  status: ('A' for Active; 'I' for Inactive)
ROOT
HETATM    1  C1  UNL     1     -42.657   7.854  -2.444  1.00 20.00     0.027 C 
HETATM    2  C2  UNL     1     -42.793   6.677  -3.419  1.00 20.00     0.012 C 
HETATM    3  C3  UNL     1     -41.925   7.550  -1.144  1.00 20.00     0.167 C 
HETATM    4  C4  UNL     1     -40.647   5.607  -0.592  1.00 20.00     0.177 C 
HETATM    5  C5  UNL     1     -43.417   5.408  -2.837  1.00 20.00     0.074 C 
HETATM    6  C6  UNL     1     -41.795   4.601  -0.688  1.00 20.00     0.100 C 
HETATM    7  O7  UNL     1     -40.789   6.747  -1.430  1.00 20.00    -0.390 OA
HETATM    8  S8  UNL     1     -42.193   4.119  -2.398  1.00 20.00    -0.167 SA
ENDROOT
TORSDOF 0
ENDMDL
MODEL 8
REMARK VINA RESULT:      -3.2      2.069      2.764
REMARK  0 active torsions:
REMARK  status: ('A' for Active; 'I' for Inactive)
ROOT
HETATM    1  C1  UNL     1     -32.964  14.788  -3.828  1.00 20.00     0.027 C 
HETATM    2  C2  UNL     1     -34.095  13.822  -3.451  1.00 20.00     0.012 C 
HETATM    3  C3  UNL     1     -33.404  16.192  -4.224  1.00 20.00     0.167 C 
HETATM    4  C4  UNL     1     -35.564  17.184  -3.976  1.00 20.00     0.177 C 
HETATM    5  C5  UNL     1     -35.206  13.669  -4.491  1.00 20.00     0.074 C 
HETATM    6  C6  UNL     1     -36.315  16.220  -4.896  1.00 20.00     0.100 C 
HETATM    7  O7  UNL     1     -34.424  16.625  -3.337  1.00 20.00    -0.390 OA
HETATM    8  S8  UNL     1     -36.716  14.631  -4.104  1.00 20.00    -0.167 SA
ENDROOT
TORSDOF 0
ENDMDL
MODEL 9
REMARK VINA RESULT:      -3.2     12.157     13.063
REMARK  0 active torsions:
REMARK  status: ('A' for Active; 'I' for Inactive)
ROOT
HETATM    1  C1  UNL     1     -40.764   6.025  -0.093  1.00 20.00     0.027 C 
HETATM    2  C2  UNL     1     -41.565   4.762  -0.436  1.00 20.00     0.012 C 
HETATM    3  C3  UNL     1     -41.170   7.285  -0.845  1.00 20.00     0.167 C 
HETATM    4  C4  UNL     1     -43.112   7.636  -2.193  1.00 20.00     0.177 C 
HETATM    5  C5  UNL     1     -41.623   4.401  -1.921  1.00 20.00     0.074 C 
HETATM    6  C6  UNL     1     -42.789   6.584  -3.255  1.00 20.00     0.100 C 
HETATM    7  O7  UNL     1     -42.587   7.353  -0.902  1.00 20.00    -0.390 OA
HETATM    8  S8  UNL     1     -43.190   4.886  -2.736  1.00 20.00    -0.167 SA
ENDROOT
TORSDOF 0
ENDMDL
