MODEL 1
REMARK VINA RESULT:      -5.6      0.000      0.000
REMARK  2 active torsions:
REMARK  status: ('A' for Active; 'I' for Inactive)
REMARK    1  A    between atoms: C1_1  and  C2_2 
REMARK    2  A    between atoms: C1_1  and  C3_3 
ROOT
HETATM    1  C1  UNL     1     -33.813   5.597   5.186  1.00 20.00     0.348 C 
HETATM    2  F4  UNL     1     -33.898   6.571   6.143  1.00 20.00    -0.234 F 
ENDROOT
BRANCH   1   3
HETATM    3  C2  UNL     1     -35.051   4.737   5.333  1.00 20.00     0.423 C 
HETATM    4  F5  UNL     1     -36.019   5.085   4.459  1.00 20.00    -0.168 F 
HETATM    5  F6  UNL     1     -34.771   3.430   5.145  1.00 20.00    -0.168 F 
HETATM    6  F7  UNL     1     -35.568   4.871   6.575  1.00 20.00    -0.168 F 
ENDBRANCH   1   3
BRANCH   1   7
HETATM    7  C3  UNL     1     -33.664   6.290   3.830  1.00 20.00     0.294 C 
HETATM    8  F8  UNL     1     -34.548   7.322   3.763  1.00 20.00    -0.204 F 
HETATM    9 CL9  UNL     1     -34.045   5.145   2.513  1.00 20.00    -0.062 Cl
HETATM   10 CL10 UNL     1     -32.022   6.929   3.575  1.00 20.00    -0.062 Cl
ENDBRANCH   1   7
TORSDOF 2
ENDMDL
MODEL 2
REMARK VINA RESULT:      -5.0      2.430      3.546
REMARK  2 active torsions:
REMARK  status: ('A' for Active; 'I' for Inactive)
REMARK    1  A    between atoms: C1_1  and  C2_2 
REMARK    2  A    between atoms: C1_1  and  C3_3 
ROOT
HETATM    1  C1  UNL     1     -33.783   6.634   4.136  1.00 20.00     0.348 C 
HETATM    2  F4  UNL     1     -33.503   6.471   5.465  1.00 20.00    -0.234 F 
ENDROOT
BRANCH   1   3
HETATM    3  C2  UNL     1     -32.451   6.744   3.424  1.00 20.00     0.423 C 
HETATM    4  F5  UNL     1     -31.841   5.547   3.298  1.00 20.00    -0.168 F 
HETATM    5  F6  UNL     1     -32.592   7.271   2.190  1.00 20.00    -0.168 F 
HETATM    6  F7  UNL     1     -31.615   7.547   4.120  1.00 20.00    -0.168 F 
ENDBRANCH   1   3
BRANCH   1   7
HETATM    7  C3  UNL     1     -34.656   5.457   3.697  1.00 20.00     0.294 C 
HETATM    8  F8  UNL     1     -34.139   4.926   2.556  1.00 20.00    -0.204 F 
HETATM    9 CL9  UNL     1     -36.314   6.021   3.345  1.00 20.00    -0.062 Cl
HETATM   10 CL10 UNL     1     -34.738   4.178   4.933  1.00 20.00    -0.062 Cl
ENDBRANCH   1   7
TORSDOF 2
ENDMDL
MODEL 3
REMARK VINA RESULT:      -4.9      1.152      1.368
REMARK  2 active torsions:
REMARK  status: ('A' for Active; 'I' for Inactive)
REMARK    1  A    between atoms: C1_1  and  C2_2 
REMARK    2  A    between atoms: C1_1  and  C3_3 
ROOT
HETATM    1  C1  UNL     1     -33.852   5.475   4.972  1.00 20.00     0.348 C 
HETATM    2  F4  UNL     1     -33.920   6.538   5.829  1.00 20.00    -0.234 F 
ENDROOT
BRANCH   1   3
HETATM    3  C2  UNL     1     -35.135   4.690   5.154  1.00 20.00     0.423 C 
HETATM    4  F5  UNL     1     -36.132   5.157   4.374  1.00 20.00    -0.168 F 
HETATM    5  F6  UNL     1     -34.960   3.383   4.868  1.00 20.00    -0.168 F 
HETATM    6  F7  UNL     1     -35.557   4.776   6.436  1.00 20.00    -0.168 F 
ENDBRANCH   1   3
BRANCH   1   7
HETATM    7  C3  UNL     1     -33.626   6.026   3.563  1.00 20.00     0.294 C 
HETATM    8  F8  UNL     1     -34.175   5.169   2.660  1.00 20.00    -0.204 F 
HETATM    9 CL9  UNL     1     -31.876   6.142   3.224  1.00 20.00    -0.062 Cl
HETATM   10 CL10 UNL     1     -34.359   7.634   3.341  1.00 20.00    -0.062 Cl
ENDBRANCH   1   7
TORSDOF 2
ENDMDL
MODEL 4
REMARK VINA RESULT:      -4.9      1.149      1.831
REMARK  2 active torsions:
REMARK  status: ('A' for Active; 'I' for Inactive)
REMARK    1  A    between atoms: C1_1  and  C2_2 
REMARK    2  A    between atoms: C1_1  and  C3_3 
ROOT
HETATM    1  C1  UNL     1     -33.862   5.483   4.982  1.00 20.00     0.348 C 
HETATM    2  F4  UNL     1     -33.937   6.552   5.832  1.00 20.00    -0.234 F 
ENDROOT
BRANCH   1   3
HETATM    3  C2  UNL     1     -35.141   4.692   5.168  1.00 20.00     0.423 C 
HETATM    4  F5  UNL     1     -35.580   4.728   6.443  1.00 20.00    -0.168 F 
HETATM    5  F6  UNL     1     -36.129   5.154   4.373  1.00 20.00    -0.168 F 
HETATM    6  F7  UNL     1     -34.935   3.393   4.853  1.00 20.00    -0.168 F 
ENDBRANCH   1   3
BRANCH   1   7
HETATM    7  C3  UNL     1     -33.638   6.026   3.570  1.00 20.00     0.294 C 
HETATM    8  F8  UNL     1     -34.208   5.175   2.674  1.00 20.00    -0.204 F 
HETATM    9 CL9  UNL     1     -31.889   6.113   3.217  1.00 20.00    -0.062 Cl
HETATM   10 CL10 UNL     1     -34.347   7.645   3.348  1.00 20.00    -0.062 Cl
ENDBRANCH   1   7
TORSDOF 2
ENDMDL
MODEL 5
REMARK VINA RESULT:      -4.9      1.369      2.193
REMARK  2 active torsions:
REMARK  status: ('A' for Active; 'I' for Inactive)
REMARK    1  A    between atoms: C1_1  and  C2_2 
REMARK    2  A    between atoms: C1_1  and  C3_3 
ROOT
HETATM    1  C1  UNL     1     -34.893   5.409   4.287  1.00 20.00     0.348 C 
HETATM    2  F4  UNL     1     -34.631   4.764   3.109  1.00 20.00    -0.234 F 
ENDROOT
BRANCH   1   3
HETATM    3  C2  UNL     1     -34.840   4.358   5.377  1.00 20.00     0.423 C 
HETATM    4  F5  UNL     1     -33.590   4.183   5.854  1.00 20.00    -0.168 F 
HETATM    5  F6  UNL     1     -35.640   4.680   6.414  1.00 20.00    -0.168 F 
HETATM    6  F7  UNL     1     -35.253   3.164   4.895  1.00 20.00    -0.168 F 
ENDBRANCH   1   3
BRANCH   1   7
HETATM    7  C3  UNL     1     -33.878   6.543   4.432  1.00 20.00     0.294 C 
HETATM    8  F8  UNL     1     -34.375   7.660   3.833  1.00 20.00    -0.204 F 
HETATM    9 CL9  UNL     1     -32.352   6.108   3.612  1.00 20.00    -0.062 Cl
HETATM   10 CL10 UNL     1     -33.524   6.920   6.136  1.00 20.00    -0.062 Cl
ENDBRANCH   1   7
TORSDOF 2
ENDMDL
MODEL 6
REMARK VINA RESULT:      -4.8      2.207      3.780
REMARK  2 active torsions:
REMARK  status: ('A' for Active; 'I' for Inactive)
REMARK    1  A    between atoms: C1_1  and  C2_2 
REMARK    2  A    between atoms: C1_1  and  C3_3 
ROOT
HETATM    1  C1  UNL     1     -33.446   5.418   3.630  1.00 20.00     0.348 C 
HETATM    2  F4  UNL     1     -33.982   5.004   2.442  1.00 20.00    -0.234 F 
ENDROOT
BRANCH   1   3
HETATM    3  C2  UNL     1     -32.840   6.783   3.379  1.00 20.00     0.423 C 
HETATM    4  F5  UNL     1     -33.779   7.747   3.279  1.00 20.00    -0.168 F 
HETATM    5  F6  UNL     1     -31.987   7.135   4.364  1.00 20.00    -0.168 F 
HETATM    6  F7  UNL     1     -32.146   6.780   2.218  1.00 20.00    -0.168 F 
ENDBRANCH   1   3
BRANCH   1   7
HETATM    7  C3  UNL     1     -34.559   5.388   4.678  1.00 20.00     0.294 C 
HETATM    8  F8  UNL     1     -35.702   5.874   4.121  1.00 20.00    -0.204 F 
HETATM    9 CL9  UNL     1     -34.128   6.434   6.061  1.00 20.00    -0.062 Cl
HETATM   10 CL10 UNL     1     -34.875   3.743   5.283  1.00 20.00    -0.062 Cl
ENDBRANCH   1   7
TORSDOF 2
ENDMDL
MODEL 7
REMARK VINA RESULT:      -4.8      2.352      3.500
REMARK  2 active torsions:
REMARK  status: ('A' for Active; 'I' for Inactive)
REMARK    1  A    between atoms: C1_1  and  C2_2 
REMARK    2  A    between atoms: C1_1  and  C3_3 
ROOT
HETATM    1  C1  UNL     1     -33.574   6.622   4.306  1.00 20.00     0.348 C 
HETATM    2  F4  UNL     1     -32.649   7.035   5.225  1.00 20.00    -0.234 F 
ENDROOT
BRANCH   1   3
HETATM    3  C2  UNL     1     -32.806   6.253   3.054  1.00 20.00     0.423 C 
HETATM    4  F5  UNL     1     -31.626   5.662   3.337  1.00 20.00    -0.168 F 
HETATM    5  F6  UNL     1     -33.513   5.414   2.269  1.00 20.00    -0.168 F 
HETATM    6  F7  UNL     1     -32.533   7.362   2.330  1.00 20.00    -0.168 F 
ENDBRANCH   1   3
BRANCH   1   7
HETATM    7  C3  UNL     1     -34.376   5.481   4.933  1.00 20.00     0.294 C 
HETATM    8  F8  UNL     1     -33.664   4.327   4.818  1.00 20.00    -0.204 F 
HETATM    9 CL9  UNL     1     -35.921   5.267   4.063  1.00 20.00    -0.062 Cl
HETATM   10 CL10 UNL     1     -34.725   5.765   6.656  1.00 20.00    -0.062 Cl
ENDBRANCH   1   7
TORSDOF 2
ENDMDL
MODEL 8
REMARK VINA RESULT:      -4.8      2.029      3.374
REMARK  2 active torsions:
REMARK  status: ('A' for Active; 'I' for Inactive)
REMARK    1  A    between atoms: C1_1  and  C2_2 
REMARK    2  A    between atoms: C1_1  and  C3_3 
ROOT
HETATM    1  C1  UNL     1     -33.889   6.628   4.185  1.00 20.00     0.348 C 
HETATM    2  F4  UNL     1     -33.643   6.431   5.516  1.00 20.00    -0.234 F 
ENDROOT
BRANCH   1   3
HETATM    3  C2  UNL     1     -32.538   6.734   3.507  1.00 20.00     0.423 C 
HETATM    4  F5  UNL     1     -31.949   5.530   3.355  1.00 20.00    -0.168 F 
HETATM    5  F6  UNL     1     -32.640   7.305   2.288  1.00 20.00    -0.168 F 
HETATM    6  F7  UNL     1     -31.703   7.497   4.248  1.00 20.00    -0.168 F 
ENDBRANCH   1   3
BRANCH   1   7
HETATM    7  C3  UNL     1     -34.767   5.474   3.698  1.00 20.00     0.294 C 
HETATM    8  F8  UNL     1     -36.042   5.925   3.543  1.00 20.00    -0.204 F 
HETATM    9 CL9  UNL     1     -34.786   4.164   4.913  1.00 20.00    -0.062 Cl
HETATM   10 CL10 UNL     1     -34.207   4.806   2.146  1.00 20.00    -0.062 Cl
ENDBRANCH   1   7
TORSDOF 2
ENDMDL
MODEL 9
REMARK VINA RESULT:      -4.7      2.113      3.430
REMARK  2 active torsions:
REMARK  status: ('A' for Active; 'I' for Inactive)
REMARK    1  A    between atoms: C1_1  and  C2_2 
REMARK    2  A    between atoms: C1_1  and  C3_3 
ROOT
HETATM    1  C1  UNL     1     -34.883   4.905   4.443  1.00 20.00     0.348 C 
HETATM    2  F4  UNL     1     -36.166   5.327   4.223  1.00 20.00    -0.234 F 
ENDROOT
BRANCH   1   3
HETATM    3  C2  UNL     1     -33.987   5.780   3.591  1.00 20.00     0.423 C 
HETATM    4  F5  UNL     1     -34.360   7.076   3.626  1.00 20.00    -0.168 F 
HETATM    5  F6  UNL     1     -32.700   5.706   3.990  1.00 20.00    -0.168 F 
HETATM    6  F7  UNL     1     -34.040   5.384   2.299  1.00 20.00    -0.168 F 
ENDBRANCH   1   3
BRANCH   1   7
HETATM    7  C3  UNL     1     -34.621   4.982   5.948  1.00 20.00     0.294 C 
HETATM    8  F8  UNL     1     -35.781   4.731   6.612  1.00 20.00    -0.204 F 
HETATM    9 CL9  UNL     1     -34.074   6.624   6.391  1.00 20.00    -0.062 Cl
HETATM   10 CL10 UNL     1     -33.393   3.808   6.481  1.00 20.00    -0.062 Cl
ENDBRANCH   1   7
TORSDOF 2
ENDMDL
