MODEL 1
REMARK VINA RESULT:      -4.8      0.000      0.000
REMARK  2 active torsions:
REMARK  status: ('A' for Active; 'I' for Inactive)
REMARK    1  A    between atoms: C6_6  and  C8_8 
REMARK    2  A    between atoms: C7_7  and  C9_9 
ROOT
HETATM    1  C1  UNL     1     -34.375   5.847   6.263  1.00 20.00     0.005 C 
HETATM    2  C2  UNL     1     -34.660   4.326   6.294  1.00 20.00     0.005 C 
HETATM    3  C5  UNL     1     -35.720   5.166   4.394  1.00 20.00     0.010 C 
HETATM    4  C6  UNL     1     -34.694   6.240   4.812  1.00 20.00    -0.010 C 
HETATM    5  C7  UNL     1     -34.803   4.003   4.783  1.00 20.00    -0.010 C 
ENDROOT
BRANCH   4   6
HETATM    6  C8  UNL     1     -33.599   5.842   3.826  1.00 20.00    -0.006 C 
HETATM    7  C3  UNL     1     -33.062   5.768   2.372  1.00 20.00     0.006 C 
HETATM    8  C4  UNL     1     -31.692   6.197   3.065  1.00 20.00     0.006 C 
HETATM    9  C9  UNL     1     -32.623   7.078   3.952  1.00 20.00    -0.006 C 
ENDBRANCH   4   6
TORSDOF 2
ENDMDL
MODEL 2
REMARK VINA RESULT:      -4.7      0.745      3.633
REMARK  2 active torsions:
REMARK  status: ('A' for Active; 'I' for Inactive)
REMARK    1  A    between atoms: C6_6  and  C8_8 
REMARK    2  A    between atoms: C7_7  and  C9_9 
ROOT
HETATM    1  C1  UNL     1     -34.055   5.360   2.417  1.00 20.00     0.005 C 
HETATM    2  C2  UNL     1     -32.510   5.400   2.344  1.00 20.00     0.005 C 
HETATM    3  C5  UNL     1     -33.177   7.339   3.454  1.00 20.00     0.010 C 
HETATM    4  C6  UNL     1     -34.387   6.384   3.514  1.00 20.00    -0.010 C 
HETATM    5  C7  UNL     1     -32.157   6.209   3.619  1.00 20.00    -0.010 C 
ENDROOT
BRANCH   4   6
HETATM    6  C8  UNL     1     -34.136   5.857   4.924  1.00 20.00    -0.006 C 
HETATM    7  C3  UNL     1     -34.369   5.953   6.455  1.00 20.00     0.006 C 
HETATM    8  C4  UNL     1     -34.477   4.367   6.341  1.00 20.00     0.006 C 
HETATM    9  C9  UNL     1     -35.201   4.692   4.999  1.00 20.00    -0.006 C 
ENDBRANCH   4   6
TORSDOF 2
ENDMDL
MODEL 3
REMARK VINA RESULT:      -4.3     11.696     12.853
REMARK  2 active torsions:
REMARK  status: ('A' for Active; 'I' for Inactive)
REMARK    1  A    between atoms: C6_6  and  C8_8 
REMARK    2  A    between atoms: C7_7  and  C9_9 
ROOT
HETATM    1  C1  UNL     1     -34.945  14.324  -3.779  1.00 20.00     0.005 C 
HETATM    2  C2  UNL     1     -33.553  13.650  -3.840  1.00 20.00     0.005 C 
HETATM    3  C5  UNL     1     -33.245  15.876  -4.461  1.00 20.00     0.010 C 
HETATM    4  C6  UNL     1     -34.613  15.825  -3.750  1.00 20.00    -0.010 C 
HETATM    5  C7  UNL     1     -32.613  14.842  -3.524  1.00 20.00    -0.010 C 
ENDROOT
BRANCH   4   6
HETATM    6  C8  UNL     1     -34.130  16.308  -2.386  1.00 20.00    -0.006 C 
HETATM    7  C3  UNL     1     -33.548  17.431  -1.487  1.00 20.00     0.006 C 
HETATM    8  C4  UNL     1     -34.612  16.874  -0.439  1.00 20.00     0.006 C 
HETATM    9  C9  UNL     1     -35.502  16.698  -1.706  1.00 20.00    -0.006 C 
ENDBRANCH   4   6
TORSDOF 2
ENDMDL
MODEL 4
REMARK VINA RESULT:      -4.2     11.682     13.039
REMARK  2 active torsions:
REMARK  status: ('A' for Active; 'I' for Inactive)
REMARK    1  A    between atoms: C6_6  and  C8_8 
REMARK    2  A    between atoms: C7_7  and  C9_9 
ROOT
HETATM    1  C1  UNL     1     -34.059  15.299  -5.450  1.00 20.00     0.005 C 
HETATM    2  C2  UNL     1     -34.895  13.997  -5.440  1.00 20.00     0.005 C 
HETATM    3  C5  UNL     1     -33.340  13.805  -3.714  1.00 20.00     0.010 C 
HETATM    4  C6  UNL     1     -33.394  15.307  -4.064  1.00 20.00    -0.010 C 
HETATM    5  C7  UNL     1     -34.840  13.601  -3.942  1.00 20.00    -0.010 C 
ENDROOT
BRANCH   4   6
HETATM    6  C8  UNL     1     -34.343  15.723  -2.944  1.00 20.00    -0.006 C 
HETATM    7  C3  UNL     1     -34.571  16.269  -1.509  1.00 20.00     0.006 C 
HETATM    8  C4  UNL     1     -35.727  17.104  -2.222  1.00 20.00     0.006 C 
HETATM    9  C9  UNL     1     -34.696  17.198  -3.387  1.00 20.00    -0.006 C 
ENDBRANCH   4   6
TORSDOF 2
ENDMDL
MODEL 5
REMARK VINA RESULT:      -4.2     12.013     13.455
REMARK  2 active torsions:
REMARK  status: ('A' for Active; 'I' for Inactive)
REMARK    1  A    between atoms: C6_6  and  C8_8 
REMARK    2  A    between atoms: C7_7  and  C9_9 
ROOT
HETATM    1  C1  UNL     1     -35.411  15.222  -3.165  1.00 20.00     0.005 C 
HETATM    2  C2  UNL     1     -34.052  15.750  -2.646  1.00 20.00     0.005 C 
HETATM    3  C5  UNL     1     -33.598  13.795  -3.833  1.00 20.00     0.010 C 
HETATM    4  C6  UNL     1     -35.010  14.237  -4.274  1.00 20.00    -0.010 C 
HETATM    5  C7  UNL     1     -33.077  15.232  -3.734  1.00 20.00    -0.010 C 
ENDROOT
BRANCH   4   6
HETATM    6  C8  UNL     1     -34.589  14.928  -5.569  1.00 20.00    -0.006 C 
HETATM    7  C3  UNL     1     -34.401  14.895  -7.109  1.00 20.00     0.006 C 
HETATM    8  C4  UNL     1     -35.000  16.370  -7.016  1.00 20.00     0.006 C 
HETATM    9  C9  UNL     1     -35.900  15.742  -5.909  1.00 20.00    -0.006 C 
ENDBRANCH   4   6
TORSDOF 2
ENDMDL
MODEL 6
REMARK VINA RESULT:      -4.1     11.637     13.033
REMARK  2 active torsions:
REMARK  status: ('A' for Active; 'I' for Inactive)
REMARK    1  A    between atoms: C6_6  and  C8_8 
REMARK    2  A    between atoms: C7_7  and  C9_9 
ROOT
HETATM    1  C1  UNL     1     -36.061  16.697  -2.952  1.00 20.00     0.005 C 
HETATM    2  C2  UNL     1     -35.203  17.842  -3.543  1.00 20.00     0.005 C 
HETATM    3  C5  UNL     1     -33.843  16.701  -2.031  1.00 20.00     0.010 C 
HETATM    4  C6  UNL     1     -35.017  15.749  -2.341  1.00 20.00    -0.010 C 
HETATM    5  C7  UNL     1     -33.777  17.238  -3.464  1.00 20.00    -0.010 C 
ENDROOT
BRANCH   4   6
HETATM    6  C8  UNL     1     -34.294  14.899  -3.383  1.00 20.00    -0.006 C 
HETATM    7  C3  UNL     1     -33.434  13.659  -3.742  1.00 20.00     0.006 C 
HETATM    8  C4  UNL     1     -34.430  13.572  -4.984  1.00 20.00     0.006 C 
HETATM    9  C9  UNL     1     -35.491  14.028  -3.937  1.00 20.00    -0.006 C 
ENDBRANCH   4   6
TORSDOF 2
ENDMDL
MODEL 7
REMARK VINA RESULT:      -4.1     12.146     13.542
REMARK  2 active torsions:
REMARK  status: ('A' for Active; 'I' for Inactive)
REMARK    1  A    between atoms: C6_6  and  C8_8 
REMARK    2  A    between atoms: C7_7  and  C9_9 
ROOT
HETATM    1  C1  UNL     1     -33.418  15.217  -4.129  1.00 20.00     0.005 C 
HETATM    2  C2  UNL     1     -33.497  13.725  -3.724  1.00 20.00     0.005 C 
HETATM    3  C5  UNL     1     -35.677  14.551  -3.661  1.00 20.00     0.010 C 
HETATM    4  C6  UNL     1     -34.869  15.563  -4.500  1.00 20.00    -0.010 C 
HETATM    5  C7  UNL     1     -34.918  13.342  -4.215  1.00 20.00    -0.010 C 
ENDROOT
BRANCH   4   6
HETATM    6  C8  UNL     1     -35.281  15.036  -5.872  1.00 20.00    -0.006 C 
HETATM    7  C3  UNL     1     -36.223  15.088  -7.104  1.00 20.00     0.006 C 
HETATM    8  C4  UNL     1     -34.861  14.886  -7.907  1.00 20.00     0.006 C 
HETATM    9  C9  UNL     1     -34.280  15.824  -6.806  1.00 20.00    -0.006 C 
ENDBRANCH   4   6
TORSDOF 2
ENDMDL
MODEL 8
REMARK VINA RESULT:      -4.0     12.115     13.098
REMARK  2 active torsions:
REMARK  status: ('A' for Active; 'I' for Inactive)
REMARK    1  A    between atoms: C6_6  and  C8_8 
REMARK    2  A    between atoms: C7_7  and  C9_9 
ROOT
HETATM    1  C1  UNL     1     -34.538  14.376  -5.219  1.00 20.00     0.005 C 
HETATM    2  C2  UNL     1     -35.633  15.187  -5.953  1.00 20.00     0.005 C 
HETATM    3  C5  UNL     1     -36.615  14.340  -4.015  1.00 20.00     0.010 C 
HETATM    4  C6  UNL     1     -35.091  14.240  -3.792  1.00 20.00    -0.010 C 
HETATM    5  C7  UNL     1     -36.512  15.669  -4.769  1.00 20.00    -0.010 C 
ENDROOT
BRANCH   4   6
HETATM    6  C8  UNL     1     -34.942  15.513  -2.965  1.00 20.00    -0.006 C 
HETATM    7  C3  UNL     1     -34.803  16.211  -1.586  1.00 20.00     0.006 C 
HETATM    8  C4  UNL     1     -33.729  17.098  -2.362  1.00 20.00     0.006 C 
HETATM    9  C9  UNL     1     -33.382  15.747  -3.058  1.00 20.00    -0.006 C 
ENDBRANCH   4   6
TORSDOF 2
ENDMDL
MODEL 9
REMARK VINA RESULT:      -3.9     11.596     13.087
REMARK  2 active torsions:
REMARK  status: ('A' for Active; 'I' for Inactive)
REMARK    1  A    between atoms: C6_6  and  C8_8 
REMARK    2  A    between atoms: C7_7  and  C9_9 
ROOT
HETATM    1  C1  UNL     1     -34.529  16.211  -1.619  1.00 20.00     0.005 C 
HETATM    2  C2  UNL     1     -35.581  17.277  -2.010  1.00 20.00     0.005 C 
HETATM    3  C5  UNL     1     -33.863  17.429  -3.579  1.00 20.00     0.010 C 
HETATM    4  C6  UNL     1     -33.688  16.056  -2.897  1.00 20.00    -0.010 C 
HETATM    5  C7  UNL     1     -35.392  17.356  -3.548  1.00 20.00    -0.010 C 
ENDROOT
BRANCH   4   6
HETATM    6  C8  UNL     1     -34.379  15.225  -3.975  1.00 20.00    -0.006 C 
HETATM    7  C3  UNL     1     -34.367  14.576  -5.384  1.00 20.00     0.006 C 
HETATM    8  C4  UNL     1     -35.041  13.355  -4.612  1.00 20.00     0.006 C 
HETATM    9  C9  UNL     1     -34.055  13.762  -3.475  1.00 20.00    -0.006 C 
ENDBRANCH   4   6
TORSDOF 2
ENDMDL
