MODEL 1
REMARK VINA RESULT:      -3.9      0.000      0.000
REMARK  2 active torsions:
REMARK  status: ('A' for Active; 'I' for Inactive)
REMARK    1  A    between atoms: C1_1  and  C2_2 
REMARK    2  A    between atoms: C2_2  and  C3_3 
ROOT
HETATM    1  C2  UNL     1     -34.634  14.909  -4.480  1.00 20.00     0.205 C 
HETATM    2 CL7  UNL     1     -34.400  13.148  -4.827  1.00 20.00    -0.092 Cl
HETATM    3 CL8  UNL     1     -35.985  15.008  -3.282  1.00 20.00    -0.092 Cl
ENDROOT
BRANCH   1   4
HETATM    4  C1  UNL     1     -35.067  15.589  -5.789  1.00 20.00     0.164 C 
HETATM    5 CL6  UNL     1     -34.333  14.883  -7.252  1.00 20.00    -0.127 Cl
ENDBRANCH   1   4
BRANCH   1   6
HETATM    6  C3  UNL     1     -33.359  15.470  -3.823  1.00 20.00     0.355 C 
HETATM    7  F4  UNL     1     -32.472  14.470  -3.578  1.00 20.00    -0.184 F 
HETATM    8  F5  UNL     1     -32.732  16.317  -4.685  1.00 20.00    -0.184 F 
HETATM    9 CL9  UNL     1     -33.661  16.338  -2.300  1.00 20.00    -0.045 Cl
ENDBRANCH   1   6
TORSDOF 2
ENDMDL
MODEL 2
REMARK VINA RESULT:      -3.8     11.807     12.672
REMARK  2 active torsions:
REMARK  status: ('A' for Active; 'I' for Inactive)
REMARK    1  A    between atoms: C1_1  and  C2_2 
REMARK    2  A    between atoms: C2_2  and  C3_3 
ROOT
HETATM    1  C2  UNL     1     -33.931   6.398   4.169  1.00 20.00     0.205 C 
HETATM    2 CL7  UNL     1     -34.635   7.976   3.626  1.00 20.00    -0.092 Cl
HETATM    3 CL8  UNL     1     -33.879   6.469   5.975  1.00 20.00    -0.092 Cl
ENDROOT
BRANCH   1   4
HETATM    4  C1  UNL     1     -32.496   6.316   3.624  1.00 20.00     0.164 C 
HETATM    5 CL6  UNL     1     -32.067   7.634   2.503  1.00 20.00    -0.127 Cl
ENDBRANCH   1   4
BRANCH   1   6
HETATM    6  C3  UNL     1     -34.873   5.254   3.753  1.00 20.00     0.355 C 
HETATM    7  F4  UNL     1     -36.110   5.737   3.466  1.00 20.00    -0.184 F 
HETATM    8  F5  UNL     1     -34.423   4.684   2.601  1.00 20.00    -0.184 F 
HETATM    9 CL9  UNL     1     -35.039   3.981   4.984  1.00 20.00    -0.045 Cl
ENDBRANCH   1   6
TORSDOF 2
ENDMDL
MODEL 3
REMARK VINA RESULT:      -3.8      1.391      3.234
REMARK  2 active torsions:
REMARK  status: ('A' for Active; 'I' for Inactive)
REMARK    1  A    between atoms: C1_1  and  C2_2 
REMARK    2  A    between atoms: C2_2  and  C3_3 
ROOT
HETATM    1  C2  UNL     1     -34.167  14.806  -4.280  1.00 20.00     0.205 C 
HETATM    2 CL7  UNL     1     -34.560  13.145  -4.884  1.00 20.00    -0.092 Cl
HETATM    3 CL8  UNL     1     -32.523  14.692  -3.535  1.00 20.00    -0.092 Cl
ENDROOT
BRANCH   1   4
HETATM    4  C1  UNL     1     -35.193  15.160  -3.191  1.00 20.00     0.164 C 
HETATM    5 CL6  UNL     1     -34.511  16.070  -1.818  1.00 20.00    -0.127 Cl
ENDBRANCH   1   4
BRANCH   1   6
HETATM    6  C3  UNL     1     -34.095  15.775  -5.474  1.00 20.00     0.355 C 
HETATM    7  F4  UNL     1     -35.046  16.740  -5.361  1.00 20.00    -0.184 F 
HETATM    8  F5  UNL     1     -32.902  16.430  -5.463  1.00 20.00    -0.184 F 
HETATM    9 CL9  UNL     1     -34.288  14.981  -7.053  1.00 20.00    -0.045 Cl
ENDBRANCH   1   6
TORSDOF 2
ENDMDL
MODEL 4
REMARK VINA RESULT:      -3.8      2.178      3.555
REMARK  2 active torsions:
REMARK  status: ('A' for Active; 'I' for Inactive)
REMARK    1  A    between atoms: C1_1  and  C2_2 
REMARK    2  A    between atoms: C2_2  and  C3_3 
ROOT
HETATM    1  C2  UNL     1     -34.224  14.912  -4.311  1.00 20.00     0.205 C 
HETATM    2 CL7  UNL     1     -33.078  13.675  -3.653  1.00 20.00    -0.092 Cl
HETATM    3 CL8  UNL     1     -33.201  16.294  -4.872  1.00 20.00    -0.092 Cl
ENDROOT
BRANCH   1   4
HETATM    4  C1  UNL     1     -35.118  15.382  -3.152  1.00 20.00     0.164 C 
HETATM    5 CL6  UNL     1     -34.237  16.217  -1.847  1.00 20.00    -0.127 Cl
ENDBRANCH   1   4
BRANCH   1   6
HETATM    6  C3  UNL     1     -34.960  14.324  -5.529  1.00 20.00     0.355 C 
HETATM    7  F4  UNL     1     -34.890  12.967  -5.516  1.00 20.00    -0.184 F 
HETATM    8  F5  UNL     1     -36.285  14.627  -5.456  1.00 20.00    -0.184 F 
HETATM    9 CL9  UNL     1     -34.335  14.903  -7.091  1.00 20.00    -0.045 Cl
ENDBRANCH   1   6
TORSDOF 2
ENDMDL
MODEL 5
REMARK VINA RESULT:      -3.8      2.096      2.583
REMARK  2 active torsions:
REMARK  status: ('A' for Active; 'I' for Inactive)
REMARK    1  A    between atoms: C1_1  and  C2_2 
REMARK    2  A    between atoms: C2_2  and  C3_3 
ROOT
HETATM    1  C2  UNL     1     -35.208  15.216  -3.956  1.00 20.00     0.205 C 
HETATM    2 CL7  UNL     1     -36.983  14.920  -3.757  1.00 20.00    -0.092 Cl
HETATM    3 CL8  UNL     1     -34.591  15.679  -2.320  1.00 20.00    -0.092 Cl
ENDROOT
BRANCH   1   4
HETATM    4  C1  UNL     1     -35.039  16.406  -4.915  1.00 20.00     0.164 C 
HETATM    5 CL6  UNL     1     -33.346  16.908  -5.160  1.00 20.00    -0.127 Cl
ENDBRANCH   1   4
BRANCH   1   6
HETATM    6  C3  UNL     1     -34.520  13.907  -4.384  1.00 20.00     0.355 C 
HETATM    7  F4  UNL     1     -35.315  12.840  -4.107  1.00 20.00    -0.184 F 
HETATM    8  F5  UNL     1     -34.349  13.898  -5.735  1.00 20.00    -0.184 F 
HETATM    9 CL9  UNL     1     -32.939  13.644  -3.614  1.00 20.00    -0.045 Cl
ENDBRANCH   1   6
TORSDOF 2
ENDMDL
MODEL 6
REMARK VINA RESULT:      -3.7      1.525      2.081
REMARK  2 active torsions:
REMARK  status: ('A' for Active; 'I' for Inactive)
REMARK    1  A    between atoms: C1_1  and  C2_2 
REMARK    2  A    between atoms: C2_2  and  C3_3 
ROOT
HETATM    1  C2  UNL     1     -34.462  15.452  -4.701  1.00 20.00     0.205 C 
HETATM    2 CL7  UNL     1     -36.024  16.339  -4.474  1.00 20.00    -0.092 Cl
HETATM    3 CL8  UNL     1     -33.292  16.662  -5.362  1.00 20.00    -0.092 Cl
ENDROOT
BRANCH   1   4
HETATM    4  C1  UNL     1     -34.698  14.352  -5.749  1.00 20.00     0.164 C 
HETATM    5 CL6  UNL     1     -34.458  14.887  -7.432  1.00 20.00    -0.127 Cl
ENDBRANCH   1   4
BRANCH   1   6
HETATM    6  C3  UNL     1     -33.948  14.974  -3.331  1.00 20.00     0.355 C 
HETATM    7  F4  UNL     1     -34.270  13.668  -3.132  1.00 20.00    -0.184 F 
HETATM    8  F5  UNL     1     -32.588  15.026  -3.307  1.00 20.00    -0.184 F 
HETATM    9 CL9  UNL     1     -34.573  15.921  -1.962  1.00 20.00    -0.045 Cl
ENDBRANCH   1   6
TORSDOF 2
ENDMDL
MODEL 7
REMARK VINA RESULT:      -3.7      1.418      2.426
REMARK  2 active torsions:
REMARK  status: ('A' for Active; 'I' for Inactive)
REMARK    1  A    between atoms: C1_1  and  C2_2 
REMARK    2  A    between atoms: C2_2  and  C3_3 
ROOT
HETATM    1  C2  UNL     1     -34.690  15.292  -4.702  1.00 20.00     0.205 C 
HETATM    2 CL7  UNL     1     -33.672  16.471  -5.624  1.00 20.00    -0.092 Cl
HETATM    3 CL8  UNL     1     -34.806  13.814  -5.738  1.00 20.00    -0.092 Cl
ENDROOT
BRANCH   1   4
HETATM    4  C1  UNL     1     -36.089  15.910  -4.543  1.00 20.00     0.164 C 
HETATM    5 CL6  UNL     1     -37.298  14.802  -3.845  1.00 20.00    -0.127 Cl
ENDBRANCH   1   4
BRANCH   1   6
HETATM    6  C3  UNL     1     -33.971  14.916  -3.394  1.00 20.00     0.355 C 
HETATM    7  F4  UNL     1     -34.187  13.608  -3.093  1.00 20.00    -0.184 F 
HETATM    8  F5  UNL     1     -32.625  15.040  -3.557  1.00 20.00    -0.184 F 
HETATM    9 CL9  UNL     1     -34.463  15.902  -1.998  1.00 20.00    -0.045 Cl
ENDBRANCH   1   6
TORSDOF 2
ENDMDL
MODEL 8
REMARK VINA RESULT:      -3.7      2.042      3.550
REMARK  2 active torsions:
REMARK  status: ('A' for Active; 'I' for Inactive)
REMARK    1  A    between atoms: C1_1  and  C2_2 
REMARK    2  A    between atoms: C2_2  and  C3_3 
ROOT
HETATM    1  C2  UNL     1     -34.441  15.934  -3.852  1.00 20.00     0.205 C 
HETATM    2 CL7  UNL     1     -33.351  16.288  -5.253  1.00 20.00    -0.092 Cl
HETATM    3 CL8  UNL     1     -35.866  17.032  -4.037  1.00 20.00    -0.092 Cl
ENDROOT
BRANCH   1   4
HETATM    4  C1  UNL     1     -33.682  16.302  -2.566  1.00 20.00     0.164 C 
HETATM    5 CL6  UNL     1     -34.706  16.359  -1.108  1.00 20.00    -0.127 Cl
ENDBRANCH   1   4
BRANCH   1   6
HETATM    6  C3  UNL     1     -34.932  14.478  -3.947  1.00 20.00     0.355 C 
HETATM    7  F4  UNL     1     -34.197  13.675  -3.133  1.00 20.00    -0.184 F 
HETATM    8  F5  UNL     1     -36.212  14.394  -3.491  1.00 20.00    -0.184 F 
HETATM    9 CL9  UNL     1     -34.875  13.810  -5.595  1.00 20.00    -0.045 Cl
ENDBRANCH   1   6
TORSDOF 2
ENDMDL
MODEL 9
REMARK VINA RESULT:      -3.6      2.133      2.626
REMARK  2 active torsions:
REMARK  status: ('A' for Active; 'I' for Inactive)
REMARK    1  A    between atoms: C1_1  and  C2_2 
REMARK    2  A    between atoms: C2_2  and  C3_3 
ROOT
HETATM    1  C2  UNL     1     -34.275  14.886  -4.561  1.00 20.00     0.205 C 
HETATM    2 CL7  UNL     1     -33.209  16.240  -5.116  1.00 20.00    -0.092 Cl
HETATM    3 CL8  UNL     1     -33.197  13.726  -3.689  1.00 20.00    -0.092 Cl
ENDROOT
BRANCH   1   4
HETATM    4  C1  UNL     1     -34.848  14.201  -5.813  1.00 20.00     0.164 C 
HETATM    5 CL6  UNL     1     -34.377  14.978  -7.347  1.00 20.00    -0.127 Cl
ENDBRANCH   1   4
BRANCH   1   6
HETATM    6  C3  UNL     1     -35.311  15.434  -3.564  1.00 20.00     0.355 C 
HETATM    7  F4  UNL     1     -35.951  16.513  -4.087  1.00 20.00    -0.184 F 
HETATM    8  F5  UNL     1     -36.278  14.501  -3.346  1.00 20.00    -0.184 F 
HETATM    9 CL9  UNL     1     -34.616  15.901  -1.994  1.00 20.00    -0.045 Cl
ENDBRANCH   1   6
TORSDOF 2
ENDMDL
