MODEL 1
REMARK VINA RESULT:      -5.1      0.000      0.000
REMARK  2 active torsions:
REMARK  status: ('A' for Active; 'I' for Inactive)
REMARK    1  A    between atoms: C4_4  and  C8_8 
REMARK    2  A    between atoms: C9_9  and  O11_11 
ROOT
HETATM    1  C1  UNL     1     -35.742  15.558  -3.152  1.00 20.00    -0.079 C 
HETATM    2  C2  UNL     1     -36.657  16.516  -3.373  1.00 20.00     0.015 C 
HETATM    3  C5  UNL     1     -35.896  14.196  -3.789  1.00 20.00     0.065 C 
HETATM    4  C6  UNL     1     -33.251  15.353  -3.167  1.00 20.00     0.016 C 
HETATM    5  C7  UNL     1     -33.378  13.977  -3.821  1.00 20.00     0.033 C 
HETATM    6  C8  UNL     1     -34.484  15.696  -2.306  1.00 20.00     0.041 C 
HETATM    7  C9  UNL     1     -34.669  13.852  -4.632  1.00 20.00     0.122 C 
ENDROOT
BRANCH   6   8
HETATM    8  C4  UNL     1     -34.299  17.029  -1.640  1.00 20.00    -0.085 C 
HETATM    9  C3  UNL     1     -33.735  18.067  -2.274  1.00 20.00     0.014 C 
HETATM   10  C10 UNL     1     -34.784  17.133  -0.224  1.00 20.00     0.043 C 
ENDBRANCH   6   8
BRANCH   7  11
HETATM   11  O11 UNL     1     -34.805  12.515  -5.106  1.00 20.00    -0.395 OA
HETATM   12  H27 UNL     1     -35.196  12.002  -4.381  1.00 20.00     0.210 HD
ENDBRANCH   7  11
TORSDOF 2
ENDMDL
MODEL 2
REMARK VINA RESULT:      -4.4      1.672      2.575
REMARK  2 active torsions:
REMARK  status: ('A' for Active; 'I' for Inactive)
REMARK    1  A    between atoms: C4_4  and  C8_8 
REMARK    2  A    between atoms: C9_9  and  O11_11 
ROOT
HETATM    1  C1  UNL     1     -34.214  15.979  -3.134  1.00 20.00    -0.079 C 
HETATM    2  C2  UNL     1     -34.102  16.522  -1.911  1.00 20.00     0.015 C 
HETATM    3  C5  UNL     1     -34.107  14.482  -3.315  1.00 20.00     0.065 C 
HETATM    4  C6  UNL     1     -35.744  16.172  -5.101  1.00 20.00     0.016 C 
HETATM    5  C7  UNL     1     -35.662  14.658  -5.301  1.00 20.00     0.033 C 
HETATM    6  C8  UNL     1     -34.474  16.732  -4.431  1.00 20.00     0.041 C 
HETATM    7  C9  UNL     1     -35.361  13.928  -3.990  1.00 20.00     0.122 C 
ENDROOT
BRANCH   6   8
HETATM    8  C4  UNL     1     -34.571  18.225  -4.299  1.00 20.00    -0.085 C 
HETATM    9  C3  UNL     1     -33.505  19.023  -4.468  1.00 20.00     0.014 C 
HETATM   10  C10 UNL     1     -35.928  18.773  -3.971  1.00 20.00     0.043 C 
ENDBRANCH   6   8
BRANCH   7  11
HETATM   11  O11 UNL     1     -35.160  12.543  -4.253  1.00 20.00    -0.395 OA
HETATM   12  H27 UNL     1     -35.912  12.073  -3.859  1.00 20.00     0.210 HD
ENDBRANCH   7  11
TORSDOF 2
ENDMDL
MODEL 3
REMARK VINA RESULT:      -4.4      1.336      1.845
REMARK  2 active torsions:
REMARK  status: ('A' for Active; 'I' for Inactive)
REMARK    1  A    between atoms: C4_4  and  C8_8 
REMARK    2  A    between atoms: C9_9  and  O11_11 
ROOT
HETATM    1  C1  UNL     1     -35.672  16.201  -3.822  1.00 20.00    -0.079 C 
HETATM    2  C2  UNL     1     -36.557  17.057  -4.358  1.00 20.00     0.015 C 
HETATM    3  C5  UNL     1     -36.034  14.744  -3.644  1.00 20.00     0.065 C 
HETATM    4  C6  UNL     1     -33.256  15.630  -4.113  1.00 20.00     0.016 C 
HETATM    5  C7  UNL     1     -33.596  14.148  -3.945  1.00 20.00     0.033 C 
HETATM    6  C8  UNL     1     -34.257  16.536  -3.370  1.00 20.00     0.041 C 
HETATM    7  C9  UNL     1     -35.034  13.845  -4.370  1.00 20.00     0.122 C 
ENDROOT
BRANCH   6   8
HETATM    8  C4  UNL     1     -33.861  17.978  -3.515  1.00 20.00    -0.085 C 
HETATM    9  C3  UNL     1     -33.870  18.824  -2.474  1.00 20.00     0.014 C 
HETATM   10  C10 UNL     1     -33.453  18.416  -4.890  1.00 20.00     0.043 C 
ENDBRANCH   6   8
BRANCH   7  11
HETATM   11  O11 UNL     1     -35.342  12.488  -4.067  1.00 20.00    -0.395 OA
HETATM   12  H27 UNL     1     -35.073  12.340  -3.147  1.00 20.00     0.210 HD
ENDBRANCH   7  11
TORSDOF 2
ENDMDL
MODEL 4
REMARK VINA RESULT:      -4.3      2.461      3.730
REMARK  2 active torsions:
REMARK  status: ('A' for Active; 'I' for Inactive)
REMARK    1  A    between atoms: C4_4  and  C8_8 
REMARK    2  A    between atoms: C9_9  and  O11_11 
ROOT
HETATM    1  C1  UNL     1     -35.065  16.239  -4.778  1.00 20.00    -0.079 C 
HETATM    2  C2  UNL     1     -35.616  17.440  -4.534  1.00 20.00     0.015 C 
HETATM    3  C5  UNL     1     -33.569  16.054  -4.682  1.00 20.00     0.065 C 
HETATM    4  C6  UNL     1     -35.465  13.862  -4.116  1.00 20.00     0.016 C 
HETATM    5  C7  UNL     1     -33.955  13.650  -4.002  1.00 20.00     0.033 C 
HETATM    6  C8  UNL     1     -35.815  14.963  -5.136  1.00 20.00     0.041 C 
HETATM    7  C9  UNL     1     -33.222  14.954  -3.680  1.00 20.00     0.122 C 
ENDROOT
BRANCH   6   8
HETATM    8  C4  UNL     1     -37.305  15.106  -5.258  1.00 20.00    -0.085 C 
HETATM    9  C3  UNL     1     -37.892  15.466  -6.409  1.00 20.00     0.014 C 
HETATM   10  C10 UNL     1     -38.100  14.820  -4.018  1.00 20.00     0.043 C 
ENDBRANCH   6   8
BRANCH   7  11
HETATM   11  O11 UNL     1     -31.816  14.730  -3.720  1.00 20.00    -0.395 OA
HETATM   12  H27 UNL     1     -31.403  15.479  -3.262  1.00 20.00     0.210 HD
ENDBRANCH   7  11
TORSDOF 2
ENDMDL
MODEL 5
REMARK VINA RESULT:      -4.2     11.492     12.256
REMARK  2 active torsions:
REMARK  status: ('A' for Active; 'I' for Inactive)
REMARK    1  A    between atoms: C4_4  and  C8_8 
REMARK    2  A    between atoms: C9_9  and  O11_11 
ROOT
HETATM    1  C1  UNL     1     -34.089   5.538   3.376  1.00 20.00    -0.079 C 
HETATM    2  C2  UNL     1     -33.619   4.955   2.261  1.00 20.00     0.015 C 
HETATM    3  C5  UNL     1     -35.167   4.863   4.192  1.00 20.00     0.065 C 
HETATM    4  C6  UNL     1     -33.148   6.640   5.413  1.00 20.00     0.016 C 
HETATM    5  C7  UNL     1     -34.222   5.961   6.264  1.00 20.00     0.033 C 
HETATM    6  C8  UNL     1     -33.620   6.863   3.962  1.00 20.00     0.041 C 
HETATM    7  C9  UNL     1     -34.703   4.653   5.633  1.00 20.00     0.122 C 
ENDROOT
BRANCH   6   8
HETATM    8  C4  UNL     1     -32.560   7.576   3.173  1.00 20.00    -0.085 C 
HETATM    9  C3  UNL     1     -32.847   8.259   2.055  1.00 20.00     0.014 C 
HETATM   10  C10 UNL     1     -31.162   7.483   3.709  1.00 20.00     0.043 C 
ENDBRANCH   6   8
BRANCH   7  11
HETATM   11  O11 UNL     1     -35.793   4.134   6.389  1.00 20.00    -0.395 OA
HETATM   12  H27 UNL     1     -36.466   3.854   5.749  1.00 20.00     0.210 HD
ENDBRANCH   7  11
TORSDOF 2
ENDMDL
MODEL 6
REMARK VINA RESULT:      -4.2      1.862      3.437
REMARK  2 active torsions:
REMARK  status: ('A' for Active; 'I' for Inactive)
REMARK    1  A    between atoms: C4_4  and  C8_8 
REMARK    2  A    between atoms: C9_9  and  O11_11 
ROOT
HETATM    1  C1  UNL     1     -35.535  14.743  -4.926  1.00 20.00    -0.079 C 
HETATM    2  C2  UNL     1     -36.043  14.879  -6.162  1.00 20.00     0.015 C 
HETATM    3  C5  UNL     1     -34.127  14.226  -4.735  1.00 20.00     0.065 C 
HETATM    4  C6  UNL     1     -35.386  16.106  -2.837  1.00 20.00     0.016 C 
HETATM    5  C7  UNL     1     -33.956  15.607  -2.624  1.00 20.00     0.033 C 
HETATM    6  C8  UNL     1     -36.238  15.090  -3.622  1.00 20.00     0.041 C 
HETATM    7  C9  UNL     1     -33.285  15.228  -3.946  1.00 20.00     0.122 C 
ENDROOT
BRANCH   6   8
HETATM    8  C4  UNL     1     -37.647  15.593  -3.764  1.00 20.00    -0.085 C 
HETATM    9  C3  UNL     1     -38.692  14.757  -3.860  1.00 20.00     0.014 C 
HETATM   10  C10 UNL     1     -37.817  17.083  -3.793  1.00 20.00     0.043 C 
ENDBRANCH   6   8
BRANCH   7  11
HETATM   11  O11 UNL     1     -32.013  14.643  -3.683  1.00 20.00    -0.395 OA
HETATM   12  H27 UNL     1     -32.062  14.261  -2.793  1.00 20.00     0.210 HD
ENDBRANCH   7  11
TORSDOF 2
ENDMDL
MODEL 7
REMARK VINA RESULT:      -4.1      2.656      4.339
REMARK  2 active torsions:
REMARK  status: ('A' for Active; 'I' for Inactive)
REMARK    1  A    between atoms: C4_4  and  C8_8 
REMARK    2  A    between atoms: C9_9  and  O11_11 
ROOT
HETATM    1  C1  UNL     1     -35.125  14.809  -4.012  1.00 20.00    -0.079 C 
HETATM    2  C2  UNL     1     -35.157  13.475  -4.170  1.00 20.00     0.015 C 
HETATM    3  C5  UNL     1     -34.945  15.408  -2.636  1.00 20.00     0.065 C 
HETATM    4  C6  UNL     1     -33.990  16.762  -5.080  1.00 20.00     0.016 C 
HETATM    5  C7  UNL     1     -33.786  17.387  -3.699  1.00 20.00     0.033 C 
HETATM    6  C8  UNL     1     -35.230  15.848  -5.120  1.00 20.00     0.041 C 
HETATM    7  C9  UNL     1     -33.723  16.324  -2.600  1.00 20.00     0.122 C 
ENDROOT
BRANCH   6   8
HETATM    8  C4  UNL     1     -35.426  15.296  -6.502  1.00 20.00    -0.085 C 
HETATM    9  C3  UNL     1     -34.390  14.980  -7.294  1.00 20.00     0.014 C 
HETATM   10  C10 UNL     1     -36.848  15.116  -6.947  1.00 20.00     0.043 C 
ENDBRANCH   6   8
BRANCH   7  11
HETATM   11  O11 UNL     1     -33.670  16.961  -1.327  1.00 20.00    -0.395 OA
HETATM   12  H27 UNL     1     -32.995  16.493  -0.811  1.00 20.00     0.210 HD
ENDBRANCH   7  11
TORSDOF 2
ENDMDL
MODEL 8
REMARK VINA RESULT:      -4.1      1.747      2.107
REMARK  2 active torsions:
REMARK  status: ('A' for Active; 'I' for Inactive)
REMARK    1  A    between atoms: C4_4  and  C8_8 
REMARK    2  A    between atoms: C9_9  and  O11_11 
ROOT
HETATM    1  C1  UNL     1     -35.344  15.540  -3.641  1.00 20.00    -0.079 C 
HETATM    2  C2  UNL     1     -36.603  15.366  -3.207  1.00 20.00     0.015 C 
HETATM    3  C5  UNL     1     -34.847  14.792  -4.857  1.00 20.00     0.065 C 
HETATM    4  C6  UNL     1     -33.808  17.454  -4.113  1.00 20.00     0.016 C 
HETATM    5  C7  UNL     1     -33.295  16.724  -5.355  1.00 20.00     0.033 C 
HETATM    6  C8  UNL     1     -34.305  16.473  -3.033  1.00 20.00     0.041 C 
HETATM    7  C9  UNL     1     -34.343  15.765  -5.922  1.00 20.00     0.122 C 
ENDROOT
BRANCH   6   8
HETATM    8  C4  UNL     1     -34.751  17.224  -1.812  1.00 20.00    -0.085 C 
HETATM    9  C3  UNL     1     -34.618  16.715  -0.578  1.00 20.00     0.014 C 
HETATM   10  C10 UNL     1     -35.353  18.577  -2.051  1.00 20.00     0.043 C 
ENDBRANCH   6   8
BRANCH   7  11
HETATM   11  O11 UNL     1     -33.772  15.014  -6.989  1.00 20.00    -0.395 OA
HETATM   12  H27 UNL     1     -33.599  14.125  -6.641  1.00 20.00     0.210 HD
ENDBRANCH   7  11
TORSDOF 2
ENDMDL
MODEL 9
REMARK VINA RESULT:      -4.1      2.652      4.287
REMARK  2 active torsions:
REMARK  status: ('A' for Active; 'I' for Inactive)
REMARK    1  A    between atoms: C4_4  and  C8_8 
REMARK    2  A    between atoms: C9_9  and  O11_11 
ROOT
HETATM    1  C1  UNL     1     -34.280  16.712  -4.549  1.00 20.00    -0.079 C 
HETATM    2  C2  UNL     1     -34.963  16.833  -5.699  1.00 20.00     0.015 C 
HETATM    3  C5  UNL     1     -33.434  17.857  -4.042  1.00 20.00     0.065 C 
HETATM    4  C6  UNL     1     -34.725  15.925  -2.219  1.00 20.00     0.016 C 
HETATM    5  C7  UNL     1     -33.882  17.081  -1.678  1.00 20.00     0.033 C 
HETATM    6  C8  UNL     1     -34.276  15.498  -3.630  1.00 20.00     0.041 C 
HETATM    7  C9  UNL     1     -33.871  18.272  -2.637  1.00 20.00     0.122 C 
ENDROOT
BRANCH   6   8
HETATM    8  C4  UNL     1     -35.092  14.330  -4.104  1.00 20.00    -0.085 C 
HETATM    9  C3  UNL     1     -34.532  13.274  -4.714  1.00 20.00     0.014 C 
HETATM   10  C10 UNL     1     -36.569  14.411  -3.855  1.00 20.00     0.043 C 
ENDBRANCH   6   8
BRANCH   7  11
HETATM   11  O11 UNL     1     -32.967  19.262  -2.155  1.00 20.00    -0.395 OA
HETATM   12  H27 UNL     1     -32.578  19.687  -2.936  1.00 20.00     0.210 HD
ENDBRANCH   7  11
TORSDOF 2
ENDMDL
