MODEL 1
REMARK VINA RESULT:      -3.7      0.000      0.000
REMARK  0 active torsions:
REMARK  status: ('A' for Active; 'I' for Inactive)
ROOT
HETATM    1  C1  UNL     1     -35.498   5.643   3.886  1.00 20.00     0.177 A 
HETATM    2  C2  UNL     1     -34.049   5.390   3.672  1.00 20.00     0.218 A 
HETATM    3  O3  UNL     1     -34.557   5.944   6.295  1.00 20.00    -0.226 OA
HETATM    4  O4  UNL     1     -35.073   3.564   5.401  1.00 20.00    -0.226 OA
HETATM    5  S5  UNL     1     -34.545   4.901   5.300  1.00 20.00     0.165 S 
HETATM    6 CL6  UNL     1     -32.954   6.740   3.511  1.00 20.00    -0.107 Cl
ENDROOT
TORSDOF 0
ENDMDL
MODEL 2
REMARK VINA RESULT:      -3.5     12.525     12.653
REMARK  0 active torsions:
REMARK  status: ('A' for Active; 'I' for Inactive)
ROOT
HETATM    1  C1  UNL     1     -34.722  14.888  -3.125  1.00 20.00     0.177 A 
HETATM    2  C2  UNL     1     -34.457  15.230  -4.547  1.00 20.00     0.218 A 
HETATM    3  O3  UNL     1     -32.868  13.166  -3.737  1.00 20.00    -0.226 OA
HETATM    4  O4  UNL     1     -35.341  12.671  -4.348  1.00 20.00    -0.226 OA
HETATM    5  S5  UNL     1     -34.173  13.509  -4.245  1.00 20.00     0.165 S 
HETATM    6 CL6  UNL     1     -33.090  16.237  -4.951  1.00 20.00    -0.107 Cl
ENDROOT
TORSDOF 0
ENDMDL
MODEL 3
REMARK VINA RESULT:      -3.4      2.560      2.614
REMARK  0 active torsions:
REMARK  status: ('A' for Active; 'I' for Inactive)
ROOT
HETATM    1  C1  UNL     1     -34.233   4.705   5.770  1.00 20.00     0.177 A 
HETATM    2  C2  UNL     1     -34.515   6.140   6.036  1.00 20.00     0.218 A 
HETATM    3  O3  UNL     1     -33.011   5.851   3.777  1.00 20.00    -0.226 OA
HETATM    4  O4  UNL     1     -35.564   5.407   3.641  1.00 20.00    -0.226 OA
HETATM    5  S5  UNL     1     -34.355   5.835   4.299  1.00 20.00     0.165 S 
HETATM    6 CL6  UNL     1     -33.304   7.125   6.818  1.00 20.00    -0.107 Cl
ENDROOT
TORSDOF 0
ENDMDL
MODEL 4
REMARK VINA RESULT:      -3.3     12.461     12.582
REMARK  0 active torsions:
REMARK  status: ('A' for Active; 'I' for Inactive)
ROOT
HETATM    1  C1  UNL     1     -34.642  15.197  -4.820  1.00 20.00     0.177 A 
HETATM    2  C2  UNL     1     -34.202  14.840  -3.445  1.00 20.00     0.218 A 
HETATM    3  O3  UNL     1     -36.740  13.953  -3.908  1.00 20.00    -0.226 OA
HETATM    4  O4  UNL     1     -34.750  12.592  -4.866  1.00 20.00    -0.226 OA
HETATM    5  S5  UNL     1     -35.343  13.642  -4.077  1.00 20.00     0.165 S 
HETATM    6 CL6  UNL     1     -34.703  15.829  -2.097  1.00 20.00    -0.107 Cl
ENDROOT
TORSDOF 0
ENDMDL
MODEL 5
REMARK VINA RESULT:      -3.2     12.802     12.979
REMARK  0 active torsions:
REMARK  status: ('A' for Active; 'I' for Inactive)
ROOT
HETATM    1  C1  UNL     1     -34.990  15.149  -3.121  1.00 20.00     0.177 A 
HETATM    2  C2  UNL     1     -35.166  15.574  -4.535  1.00 20.00     0.218 A 
HETATM    3  O3  UNL     1     -35.071  12.854  -4.348  1.00 20.00    -0.226 OA
HETATM    4  O4  UNL     1     -37.281  14.069  -3.739  1.00 20.00    -0.226 OA
HETATM    5  S5  UNL     1     -35.933  14.005  -4.244  1.00 20.00     0.165 S 
HETATM    6 CL6  UNL     1     -33.781  15.635  -5.595  1.00 20.00    -0.107 Cl
ENDROOT
TORSDOF 0
ENDMDL
MODEL 6
REMARK VINA RESULT:      -3.1     12.591     12.801
REMARK  0 active torsions:
REMARK  status: ('A' for Active; 'I' for Inactive)
ROOT
HETATM    1  C1  UNL     1     -34.698  15.099  -5.181  1.00 20.00     0.177 A 
HETATM    2  C2  UNL     1     -35.367  15.059  -3.854  1.00 20.00     0.218 A 
HETATM    3  O3  UNL     1     -34.821  12.536  -4.739  1.00 20.00    -0.226 OA
HETATM    4  O4  UNL     1     -32.901  13.934  -3.695  1.00 20.00    -0.226 OA
HETATM    5  S5  UNL     1     -34.273  13.681  -4.056  1.00 20.00     0.165 S 
HETATM    6 CL6  UNL     1     -37.082  14.748  -3.763  1.00 20.00    -0.107 Cl
ENDROOT
TORSDOF 0
ENDMDL
MODEL 7
REMARK VINA RESULT:      -3.0      2.942      3.041
REMARK  0 active torsions:
REMARK  status: ('A' for Active; 'I' for Inactive)
ROOT
HETATM    1  C1  UNL     1     -34.125   6.475   5.443  1.00 20.00     0.177 A 
HETATM    2  C2  UNL     1     -34.008   4.993   5.464  1.00 20.00     0.218 A 
HETATM    3  O3  UNL     1     -35.634   5.807   3.429  1.00 20.00    -0.226 OA
HETATM    4  O4  UNL     1     -33.064   5.975   3.115  1.00 20.00    -0.226 OA
HETATM    5  S5  UNL     1     -34.263   5.587   3.815  1.00 20.00     0.165 S 
HETATM    6 CL6  UNL     1     -35.269   4.040   6.204  1.00 20.00    -0.107 Cl
ENDROOT
TORSDOF 0
ENDMDL
MODEL 8
REMARK VINA RESULT:      -3.0     13.150     13.200
REMARK  0 active torsions:
REMARK  status: ('A' for Active; 'I' for Inactive)
ROOT
HETATM    1  C1  UNL     1     -35.768  14.989  -5.176  1.00 20.00     0.177 A 
HETATM    2  C2  UNL     1     -34.384  15.028  -5.718  1.00 20.00     0.218 A 
HETATM    3  O3  UNL     1     -34.360  14.526  -3.036  1.00 20.00    -0.226 OA
HETATM    4  O4  UNL     1     -34.909  12.581  -4.664  1.00 20.00    -0.226 OA
HETATM    5  S5  UNL     1     -34.495  13.923  -4.338  1.00 20.00     0.165 S 
HETATM    6 CL6  UNL     1     -33.431  16.479  -5.541  1.00 20.00    -0.107 Cl
ENDROOT
TORSDOF 0
ENDMDL
MODEL 9
REMARK VINA RESULT:      -3.0     12.576     12.756
REMARK  0 active torsions:
REMARK  status: ('A' for Active; 'I' for Inactive)
ROOT
HETATM    1  C1  UNL     1     -36.176  14.552  -3.850  1.00 20.00     0.177 A 
HETATM    2  C2  UNL     1     -35.146  15.586  -3.564  1.00 20.00     0.218 A 
HETATM    3  O3  UNL     1     -34.064  13.084  -3.440  1.00 20.00    -0.226 OA
HETATM    4  O4  UNL     1     -34.455  14.160  -5.769  1.00 20.00    -0.226 OA
HETATM    5  S5  UNL     1     -34.421  14.163  -4.328  1.00 20.00     0.165 S 
HETATM    6 CL6  UNL     1     -34.722  15.944  -1.909  1.00 20.00    -0.107 Cl
ENDROOT
TORSDOF 0
ENDMDL
