MODEL 1
REMARK VINA RESULT:      -4.1      0.000      0.000
REMARK  1 active torsions:
REMARK  status: ('A' for Active; 'I' for Inactive)
REMARK    1  A    between atoms: C2_2  and  C6_6 
ROOT
HETATM    1  C3  UNL     1     -34.073   6.319   5.728  1.00 20.00     0.181 C 
HETATM    2  C4  UNL     1     -35.650   5.308   4.060  1.00 20.00     0.181 C 
HETATM    3  C5  UNL     1     -34.897   4.129   5.948  1.00 20.00     0.337 C 
HETATM    4  C6  UNL     1     -34.535   6.339   4.267  1.00 20.00     0.061 C 
HETATM    5  O8  UNL     1     -33.777   4.988   6.154  1.00 20.00    -0.366 OA
HETATM    6  O9  UNL     1     -35.269   4.032   4.576  1.00 20.00    -0.366 OA
ENDROOT
BRANCH   4   7
HETATM    7  C2  UNL     1     -33.384   6.074   3.339  1.00 20.00    -0.085 C 
HETATM    8  C1  UNL     1     -33.471   5.186   2.337  1.00 20.00     0.014 C 
HETATM    9  C7  UNL     1     -32.131   6.857   3.597  1.00 20.00     0.043 C 
ENDBRANCH   4   7
TORSDOF 1
ENDMDL
MODEL 2
REMARK VINA RESULT:      -4.0     12.511     13.136
REMARK  1 active torsions:
REMARK  status: ('A' for Active; 'I' for Inactive)
REMARK    1  A    between atoms: C2_2  and  C6_6 
ROOT
HETATM    1  C3  UNL     1     -34.543  13.391  -5.050  1.00 20.00     0.181 C 
HETATM    2  C4  UNL     1     -36.467  14.617  -4.006  1.00 20.00     0.181 C 
HETATM    3  C5  UNL     1     -35.953  14.803  -6.292  1.00 20.00     0.337 C 
HETATM    4  C6  UNL     1     -35.087  14.000  -3.753  1.00 20.00     0.061 C 
HETATM    5  O8  UNL     1     -34.619  14.327  -6.127  1.00 20.00    -0.366 OA
HETATM    6  O9  UNL     1     -36.439  15.486  -5.139  1.00 20.00    -0.366 OA
ENDROOT
BRANCH   4   7
HETATM    7  C2  UNL     1     -34.136  15.027  -3.204  1.00 20.00    -0.085 C 
HETATM    8  C1  UNL     1     -32.862  15.103  -3.615  1.00 20.00     0.014 C 
HETATM    9  C7  UNL     1     -34.694  15.960  -2.172  1.00 20.00     0.043 C 
ENDBRANCH   4   7
TORSDOF 1
ENDMDL
MODEL 3
REMARK VINA RESULT:      -3.8     12.720     13.472
REMARK  1 active torsions:
REMARK  status: ('A' for Active; 'I' for Inactive)
REMARK    1  A    between atoms: C2_2  and  C6_6 
ROOT
HETATM    1  C3  UNL     1     -35.002  16.474  -2.840  1.00 20.00     0.181 C 
HETATM    2  C4  UNL     1     -32.988  15.268  -3.722  1.00 20.00     0.181 C 
HETATM    3  C5  UNL     1     -33.613  17.397  -4.497  1.00 20.00     0.337 C 
HETATM    4  C6  UNL     1     -34.372  15.100  -3.087  1.00 20.00     0.061 C 
HETATM    5  O8  UNL     1     -34.952  17.280  -4.019  1.00 20.00    -0.366 OA
HETATM    6  O9  UNL     1     -33.046  16.139  -4.853  1.00 20.00    -0.366 OA
ENDROOT
BRANCH   4   7
HETATM    7  C2  UNL     1     -35.259  14.253  -3.956  1.00 20.00    -0.085 C 
HETATM    8  C1  UNL     1     -36.586  14.441  -4.011  1.00 20.00     0.014 C 
HETATM    9  C7  UNL     1     -34.576  13.185  -4.758  1.00 20.00     0.043 C 
ENDBRANCH   4   7
TORSDOF 1
ENDMDL
MODEL 4
REMARK VINA RESULT:      -3.8     12.139     13.149
REMARK  1 active torsions:
REMARK  status: ('A' for Active; 'I' for Inactive)
REMARK    1  A    between atoms: C2_2  and  C6_6 
ROOT
HETATM    1  C3  UNL     1     -34.183  15.427  -5.508  1.00 20.00     0.181 C 
HETATM    2  C4  UNL     1     -33.111  14.252  -3.569  1.00 20.00     0.181 C 
HETATM    3  C5  UNL     1     -34.732  13.218  -4.920  1.00 20.00     0.337 C 
HETATM    4  C6  UNL     1     -33.508  15.614  -4.145  1.00 20.00     0.061 C 
HETATM    5  O8  UNL     1     -35.226  14.454  -5.435  1.00 20.00    -0.366 OA
HETATM    6  O9  UNL     1     -34.211  13.342  -3.600  1.00 20.00    -0.366 OA
ENDROOT
BRANCH   4   7
HETATM    7  C2  UNL     1     -34.413  16.351  -3.198  1.00 20.00    -0.085 C 
HETATM    8  C1  UNL     1     -34.404  16.112  -1.878  1.00 20.00     0.014 C 
HETATM    9  C7  UNL     1     -35.328  17.368  -3.813  1.00 20.00     0.043 C 
ENDBRANCH   4   7
TORSDOF 1
ENDMDL
MODEL 5
REMARK VINA RESULT:      -3.7     12.571     13.293
REMARK  1 active torsions:
REMARK  status: ('A' for Active; 'I' for Inactive)
REMARK    1  A    between atoms: C2_2  and  C6_6 
ROOT
HETATM    1  C3  UNL     1     -34.294  15.734  -3.870  1.00 20.00     0.181 C 
HETATM    2  C4  UNL     1     -35.260  13.495  -4.458  1.00 20.00     0.181 C 
HETATM    3  C5  UNL     1     -33.093  13.733  -3.579  1.00 20.00     0.337 C 
HETATM    4  C6  UNL     1     -35.293  14.995  -4.767  1.00 20.00     0.061 C 
HETATM    5  O8  UNL     1     -33.007  15.116  -3.920  1.00 20.00    -0.366 OA
HETATM    6  O9  UNL     1     -33.921  12.998  -4.476  1.00 20.00    -0.366 OA
ENDROOT
BRANCH   4   7
HETATM    7  C2  UNL     1     -34.997  15.248  -6.219  1.00 20.00    -0.085 C 
HETATM    8  C1  UNL     1     -35.314  14.359  -7.172  1.00 20.00     0.014 C 
HETATM    9  C7  UNL     1     -34.327  16.550  -6.541  1.00 20.00     0.043 C 
ENDBRANCH   4   7
TORSDOF 1
ENDMDL
MODEL 6
REMARK VINA RESULT:      -3.6      1.685      3.321
REMARK  1 active torsions:
REMARK  status: ('A' for Active; 'I' for Inactive)
REMARK    1  A    between atoms: C2_2  and  C6_6 
ROOT
HETATM    1  C3  UNL     1     -34.314   5.229   2.790  1.00 20.00     0.181 C 
HETATM    2  C4  UNL     1     -33.882   7.265   4.191  1.00 20.00     0.181 C 
HETATM    3  C5  UNL     1     -32.190   6.227   2.932  1.00 20.00     0.337 C 
HETATM    4  C6  UNL     1     -34.760   6.021   4.024  1.00 20.00     0.061 C 
HETATM    5  O8  UNL     1     -32.905   4.998   2.812  1.00 20.00    -0.366 OA
HETATM    6  O9  UNL     1     -32.496   6.924   4.137  1.00 20.00    -0.366 OA
ENDROOT
BRANCH   4   7
HETATM    7  C2  UNL     1     -34.709   5.162   5.257  1.00 20.00    -0.085 C 
HETATM    8  C1  UNL     1     -34.946   3.842   5.212  1.00 20.00     0.014 C 
HETATM    9  C7  UNL     1     -34.380   5.865   6.540  1.00 20.00     0.043 C 
ENDBRANCH   4   7
TORSDOF 1
ENDMDL
MODEL 7
REMARK VINA RESULT:      -3.6     12.917     13.577
REMARK  1 active torsions:
REMARK  status: ('A' for Active; 'I' for Inactive)
REMARK    1  A    between atoms: C2_2  and  C6_6 
ROOT
HETATM    1  C3  UNL     1     -32.955  15.323  -3.714  1.00 20.00     0.181 C 
HETATM    2  C4  UNL     1     -35.109  14.642  -4.803  1.00 20.00     0.181 C 
HETATM    3  C5  UNL     1     -33.577  16.085  -5.849  1.00 20.00     0.337 C 
HETATM    4  C6  UNL     1     -34.395  14.864  -3.466  1.00 20.00     0.061 C 
HETATM    5  O8  UNL     1     -32.916  16.419  -4.630  1.00 20.00    -0.366 OA
HETATM    6  O9  UNL     1     -34.955  15.775  -5.660  1.00 20.00    -0.366 OA
ENDROOT
BRANCH   4   7
HETATM    7  C2  UNL     1     -35.137  15.864  -2.624  1.00 20.00    -0.085 C 
HETATM    8  C1  UNL     1     -36.387  16.251  -2.920  1.00 20.00     0.014 C 
HETATM    9  C7  UNL     1     -34.400  16.406  -1.436  1.00 20.00     0.043 C 
ENDBRANCH   4   7
TORSDOF 1
ENDMDL
MODEL 8
REMARK VINA RESULT:      -3.5     13.017     13.643
REMARK  1 active torsions:
REMARK  status: ('A' for Active; 'I' for Inactive)
REMARK    1  A    between atoms: C2_2  and  C6_6 
ROOT
HETATM    1  C3  UNL     1     -36.560  14.970  -3.551  1.00 20.00     0.181 C 
HETATM    2  C4  UNL     1     -37.163  16.099  -5.708  1.00 20.00     0.181 C 
HETATM    3  C5  UNL     1     -38.717  14.836  -4.478  1.00 20.00     0.337 C 
HETATM    4  C6  UNL     1     -36.023  15.480  -4.893  1.00 20.00     0.061 C 
HETATM    5  O8  UNL     1     -37.710  14.144  -3.741  1.00 20.00    -0.366 OA
HETATM    6  O9  UNL     1     -38.281  15.213  -5.781  1.00 20.00    -0.366 OA
ENDROOT
BRANCH   4   7
HETATM    7  C2  UNL     1     -35.359  14.371  -5.660  1.00 20.00    -0.085 C 
HETATM    8  C1  UNL     1     -35.334  14.354  -7.001  1.00 20.00     0.014 C 
HETATM    9  C7  UNL     1     -34.728  13.285  -4.841  1.00 20.00     0.043 C 
ENDBRANCH   4   7
TORSDOF 1
ENDMDL
MODEL 9
REMARK VINA RESULT:      -3.5     12.266     13.039
REMARK  1 active torsions:
REMARK  status: ('A' for Active; 'I' for Inactive)
REMARK    1  A    between atoms: C2_2  and  C6_6 
ROOT
HETATM    1  C3  UNL     1     -36.019  16.658  -4.205  1.00 20.00     0.181 C 
HETATM    2  C4  UNL     1     -35.951  14.273  -4.980  1.00 20.00     0.181 C 
HETATM    3  C5  UNL     1     -37.683  15.102  -3.624  1.00 20.00     0.337 C 
HETATM    4  C6  UNL     1     -35.108  15.508  -4.646  1.00 20.00     0.061 C 
HETATM    5  O8  UNL     1     -36.927  16.231  -3.188  1.00 20.00    -0.366 OA
HETATM    6  O9  UNL     1     -36.863  13.975  -3.922  1.00 20.00    -0.366 OA
ENDROOT
BRANCH   4   7
HETATM    7  C2  UNL     1     -34.095  15.190  -3.582  1.00 20.00    -0.085 C 
HETATM    8  C1  UNL     1     -33.805  16.055  -2.599  1.00 20.00     0.014 C 
HETATM    9  C7  UNL     1     -33.425  13.852  -3.683  1.00 20.00     0.043 C 
ENDBRANCH   4   7
TORSDOF 1
ENDMDL
