MODEL 1
REMARK VINA RESULT:      -4.9      0.000      0.000
REMARK  4 active torsions:
REMARK  status: ('A' for Active; 'I' for Inactive)
REMARK    1  A    between atoms: C2_2  and  C9_9 
REMARK    2  A    between atoms: C7_7  and  C8_8 
REMARK    3  A    between atoms: C8_8  and  C9_9 
REMARK    4  A    between atoms: C9_9  and  O11_11 
ROOT
HETATM    1  C3  UNL     1     -33.340   6.359   5.379  1.00 20.00     0.031 C 
HETATM    2  C4  UNL     1     -34.538   4.899   3.727  1.00 20.00     0.031 C 
HETATM    3  C5  UNL     1     -34.440   6.015   6.375  1.00 20.00     0.168 C 
HETATM    4  C6  UNL     1     -35.571   4.637   4.816  1.00 20.00     0.168 C 
HETATM    5  C7  UNL     1     -33.861   6.258   3.941  1.00 20.00    -0.008 C 
HETATM    6  O10 UNL     1     -34.975   4.718   6.110  1.00 20.00    -0.391 OA
ENDROOT
BRANCH   5   7
HETATM    7  C8  UNL     1     -32.736   6.477   2.932  1.00 20.00     0.040 C 
BRANCH   7   8
HETATM    8  C9  UNL     1     -32.196   7.910   2.929  1.00 20.00     0.140 C 
BRANCH   8   9
HETATM    9  C2  UNL     1     -31.891   8.416   1.549  1.00 20.00    -0.006 C 
HETATM   10  C1  UNL     1     -32.349   9.573   1.060  1.00 20.00     0.009 C 
ENDBRANCH   8   9
BRANCH   8  11
HETATM   11  O11 UNL     1     -30.976   7.934   3.670  1.00 20.00    -0.392 OA
HETATM   12  H27 UNL     1     -30.308   7.509   3.112  1.00 20.00     0.210 HD
ENDBRANCH   8  11
ENDBRANCH   7   8
ENDBRANCH   5   7
TORSDOF 4
ENDMDL
MODEL 2
REMARK VINA RESULT:      -4.8      0.504      1.529
REMARK  4 active torsions:
REMARK  status: ('A' for Active; 'I' for Inactive)
REMARK    1  A    between atoms: C2_2  and  C9_9 
REMARK    2  A    between atoms: C7_7  and  C8_8 
REMARK    3  A    between atoms: C8_8  and  C9_9 
REMARK    4  A    between atoms: C9_9  and  O11_11 
ROOT
HETATM    1  C3  UNL     1     -34.700   4.787   3.964  1.00 20.00     0.031 C 
HETATM    2  C4  UNL     1     -33.779   6.742   5.239  1.00 20.00     0.031 C 
HETATM    3  C5  UNL     1     -35.065   4.171   5.309  1.00 20.00     0.168 C 
HETATM    4  C6  UNL     1     -34.196   6.016   6.513  1.00 20.00     0.168 C 
HETATM    5  C7  UNL     1     -33.508   5.741   4.111  1.00 20.00    -0.008 C 
HETATM    6  O10 UNL     1     -35.333   5.188   6.275  1.00 20.00    -0.391 OA
ENDROOT
BRANCH   5   7
HETATM    7  C8  UNL     1     -33.212   6.459   2.797  1.00 20.00     0.040 C 
BRANCH   7   8
HETATM    8  C9  UNL     1     -32.387   7.736   2.977  1.00 20.00     0.140 C 
BRANCH   8   9
HETATM    9  C2  UNL     1     -32.014   8.379   1.673  1.00 20.00    -0.006 C 
HETATM   10  C1  UNL     1     -32.364   9.622   1.325  1.00 20.00     0.009 C 
ENDBRANCH   8   9
BRANCH   8  11
HETATM   11  O11 UNL     1     -31.173   7.398   3.647  1.00 20.00    -0.392 OA
HETATM   12  H27 UNL     1     -31.244   6.463   3.890  1.00 20.00     0.210 HD
ENDBRANCH   8  11
ENDBRANCH   7   8
ENDBRANCH   5   7
TORSDOF 4
ENDMDL
MODEL 3
REMARK VINA RESULT:      -4.6     11.036     12.540
REMARK  4 active torsions:
REMARK  status: ('A' for Active; 'I' for Inactive)
REMARK    1  A    between atoms: C2_2  and  C9_9 
REMARK    2  A    between atoms: C7_7  and  C8_8 
REMARK    3  A    between atoms: C8_8  and  C9_9 
REMARK    4  A    between atoms: C9_9  and  O11_11 
ROOT
HETATM    1  C3  UNL     1     -33.288  16.659  -4.342  1.00 20.00     0.031 C 
HETATM    2  C4  UNL     1     -34.399  15.922  -2.216  1.00 20.00     0.031 C 
HETATM    3  C5  UNL     1     -33.774  18.068  -4.025  1.00 20.00     0.168 C 
HETATM    4  C6  UNL     1     -34.822  17.373  -2.018  1.00 20.00     0.168 C 
HETATM    5  C7  UNL     1     -34.210  15.613  -3.705  1.00 20.00    -0.008 C 
HETATM    6  O10 UNL     1     -33.879  18.262  -2.615  1.00 20.00    -0.391 OA
ENDROOT
BRANCH   5   7
HETATM    7  C8  UNL     1     -33.664  14.201  -3.909  1.00 20.00     0.040 C 
BRANCH   7   8
HETATM    8  C9  UNL     1     -34.492  13.368  -4.891  1.00 20.00     0.140 C 
BRANCH   8   9
HETATM    9  C2  UNL     1     -35.324  14.211  -5.813  1.00 20.00    -0.006 C 
HETATM   10  C1  UNL     1     -35.033  14.420  -7.101  1.00 20.00     0.009 C 
ENDBRANCH   8   9
BRANCH   8  11
HETATM   11  O11 UNL     1     -35.386  12.545  -4.143  1.00 20.00    -0.392 OA
HETATM   12  H27 UNL     1     -35.051  11.638  -4.216  1.00 20.00     0.210 HD
ENDBRANCH   8  11
ENDBRANCH   7   8
ENDBRANCH   5   7
TORSDOF 4
ENDMDL
MODEL 4
REMARK VINA RESULT:      -4.6     11.172     12.470
REMARK  4 active torsions:
REMARK  status: ('A' for Active; 'I' for Inactive)
REMARK    1  A    between atoms: C2_2  and  C9_9 
REMARK    2  A    between atoms: C7_7  and  C8_8 
REMARK    3  A    between atoms: C8_8  and  C9_9 
REMARK    4  A    between atoms: C9_9  and  O11_11 
ROOT
HETATM    1  C3  UNL     1     -34.591  16.265  -1.532  1.00 20.00     0.031 C 
HETATM    2  C4  UNL     1     -34.573  17.208  -3.857  1.00 20.00     0.031 C 
HETATM    3  C5  UNL     1     -33.739  17.458  -1.117  1.00 20.00     0.168 C 
HETATM    4  C6  UNL     1     -33.722  18.349  -3.311  1.00 20.00     0.168 C 
HETATM    5  C7  UNL     1     -34.382  15.941  -3.016  1.00 20.00    -0.008 C 
HETATM    6  O10 UNL     1     -34.021  18.592  -1.938  1.00 20.00    -0.391 OA
ENDROOT
BRANCH   5   7
HETATM    7  C8  UNL     1     -35.323  14.830  -3.474  1.00 20.00     0.040 C 
BRANCH   7   8
HETATM    8  C9  UNL     1     -34.691  13.887  -4.502  1.00 20.00     0.140 C 
BRANCH   8   9
HETATM    9  C2  UNL     1     -35.136  14.173  -5.907  1.00 20.00    -0.006 C 
HETATM   10  C1  UNL     1     -34.437  14.911  -6.776  1.00 20.00     0.009 C 
ENDBRANCH   8   9
BRANCH   8  11
HETATM   11  O11 UNL     1     -35.088  12.551  -4.194  1.00 20.00    -0.392 OA
HETATM   12  H27 UNL     1     -35.686  12.272  -4.903  1.00 20.00     0.210 HD
ENDBRANCH   8  11
ENDBRANCH   7   8
ENDBRANCH   5   7
TORSDOF 4
ENDMDL
MODEL 5
REMARK VINA RESULT:      -4.3     11.448     12.291
REMARK  4 active torsions:
REMARK  status: ('A' for Active; 'I' for Inactive)
REMARK    1  A    between atoms: C2_2  and  C9_9 
REMARK    2  A    between atoms: C7_7  and  C8_8 
REMARK    3  A    between atoms: C8_8  and  C9_9 
REMARK    4  A    between atoms: C9_9  and  O11_11 
ROOT
HETATM    1  C3  UNL     1     -35.601  17.208  -2.951  1.00 20.00     0.031 C 
HETATM    2  C4  UNL     1     -34.290  16.849  -0.842  1.00 20.00     0.031 C 
HETATM    3  C5  UNL     1     -36.612  17.976  -2.108  1.00 20.00     0.168 C 
HETATM    4  C6  UNL     1     -35.375  17.637  -0.117  1.00 20.00     0.168 C 
HETATM    5  C7  UNL     1     -34.858  16.175  -2.096  1.00 20.00    -0.008 C 
HETATM    6  O10 UNL     1     -35.974  18.594  -0.990  1.00 20.00    -0.391 OA
ENDROOT
BRANCH   5   7
HETATM    7  C8  UNL     1     -33.756  15.487  -2.898  1.00 20.00     0.040 C 
BRANCH   7   8
HETATM    8  C9  UNL     1     -33.892  15.688  -4.410  1.00 20.00     0.140 C 
BRANCH   8   9
HETATM    9  C2  UNL     1     -34.394  14.464  -5.118  1.00 20.00    -0.006 C 
HETATM   10  C1  UNL     1     -34.695  13.315  -4.502  1.00 20.00     0.009 C 
ENDBRANCH   8   9
BRANCH   8  11
HETATM   11  O11 UNL     1     -32.603  15.989  -4.944  1.00 20.00    -0.392 OA
HETATM   12  H27 UNL     1     -32.746  16.612  -5.672  1.00 20.00     0.210 HD
ENDBRANCH   8  11
ENDBRANCH   7   8
ENDBRANCH   5   7
TORSDOF 4
ENDMDL
MODEL 6
REMARK VINA RESULT:      -4.2     11.628     12.895
REMARK  4 active torsions:
REMARK  status: ('A' for Active; 'I' for Inactive)
REMARK    1  A    between atoms: C2_2  and  C9_9 
REMARK    2  A    between atoms: C7_7  and  C8_8 
REMARK    3  A    between atoms: C8_8  and  C9_9 
REMARK    4  A    between atoms: C9_9  and  O11_11 
ROOT
HETATM    1  C3  UNL     1     -36.594  14.926  -4.811  1.00 20.00     0.031 C 
HETATM    2  C4  UNL     1     -34.990  14.394  -6.666  1.00 20.00     0.031 C 
HETATM    3  C5  UNL     1     -37.494  15.558  -5.865  1.00 20.00     0.168 C 
HETATM    4  C6  UNL     1     -35.981  15.056  -7.617  1.00 20.00     0.168 C 
HETATM    5  C7  UNL     1     -35.127  14.973  -5.254  1.00 20.00    -0.008 C 
HETATM    6  O10 UNL     1     -37.316  14.922  -7.131  1.00 20.00    -0.391 OA
ENDROOT
BRANCH   5   7
HETATM    7  C8  UNL     1     -34.230  14.232  -4.265  1.00 20.00     0.040 C 
BRANCH   7   8
HETATM    8  C9  UNL     1     -33.163  15.126  -3.628  1.00 20.00     0.140 C 
BRANCH   8   9
HETATM    9  C2  UNL     1     -33.747  16.278  -2.863  1.00 20.00    -0.006 C 
HETATM   10  C1  UNL     1     -34.553  16.139  -1.805  1.00 20.00     0.009 C 
ENDBRANCH   8   9
BRANCH   8  11
HETATM   11  O11 UNL     1     -32.352  15.673  -4.668  1.00 20.00    -0.392 OA
HETATM   12  H27 UNL     1     -31.490  15.235  -4.603  1.00 20.00     0.210 HD
ENDBRANCH   8  11
ENDBRANCH   7   8
ENDBRANCH   5   7
TORSDOF 4
ENDMDL
MODEL 7
REMARK VINA RESULT:      -4.2     11.038     12.199
REMARK  4 active torsions:
REMARK  status: ('A' for Active; 'I' for Inactive)
REMARK    1  A    between atoms: C2_2  and  C9_9 
REMARK    2  A    between atoms: C7_7  and  C8_8 
REMARK    3  A    between atoms: C8_8  and  C9_9 
REMARK    4  A    between atoms: C9_9  and  O11_11 
ROOT
HETATM    1  C3  UNL     1     -34.220  13.982  -3.529  1.00 20.00     0.031 C 
HETATM    2  C4  UNL     1     -34.636  16.072  -4.853  1.00 20.00     0.031 C 
HETATM    3  C5  UNL     1     -34.935  13.221  -4.638  1.00 20.00     0.168 C 
HETATM    4  C6  UNL     1     -35.328  15.194  -5.888  1.00 20.00     0.168 C 
HETATM    5  C7  UNL     1     -34.713  15.432  -3.462  1.00 20.00    -0.008 C 
HETATM    6  O10 UNL     1     -34.769  13.881  -5.893  1.00 20.00    -0.391 OA
ENDROOT
BRANCH   5   7
HETATM    7  C8  UNL     1     -33.916  16.239  -2.440  1.00 20.00     0.040 C 
BRANCH   7   8
HETATM    8  C9  UNL     1     -34.778  17.215  -1.634  1.00 20.00     0.140 C 
BRANCH   8   9
HETATM    9  C2  UNL     1     -34.396  17.267  -0.183  1.00 20.00    -0.006 C 
HETATM   10  C1  UNL     1     -35.253  17.548   0.805  1.00 20.00     0.009 C 
ENDBRANCH   8   9
BRANCH   8  11
HETATM   11  O11 UNL     1     -36.136  16.780  -1.701  1.00 20.00    -0.392 OA
HETATM   12  H27 UNL     1     -36.350  16.415  -0.829  1.00 20.00     0.210 HD
ENDBRANCH   8  11
ENDBRANCH   7   8
ENDBRANCH   5   7
TORSDOF 4
ENDMDL
MODEL 8
REMARK VINA RESULT:      -4.1     10.961     12.354
REMARK  4 active torsions:
REMARK  status: ('A' for Active; 'I' for Inactive)
REMARK    1  A    between atoms: C2_2  and  C9_9 
REMARK    2  A    between atoms: C7_7  and  C8_8 
REMARK    3  A    between atoms: C8_8  and  C9_9 
REMARK    4  A    between atoms: C9_9  and  O11_11 
ROOT
HETATM    1  C3  UNL     1     -34.169  15.997  -5.220  1.00 20.00     0.031 C 
HETATM    2  C4  UNL     1     -34.637  14.102  -3.643  1.00 20.00     0.031 C 
HETATM    3  C5  UNL     1     -34.259  14.983  -6.354  1.00 20.00     0.168 C 
HETATM    4  C6  UNL     1     -34.700  13.194  -4.865  1.00 20.00     0.168 C 
HETATM    5  C7  UNL     1     -33.740  15.315  -3.916  1.00 20.00    -0.008 C 
HETATM    6  O10 UNL     1     -35.146  13.918  -6.011  1.00 20.00    -0.391 OA
ENDROOT
BRANCH   5   7
HETATM    7  C8  UNL     1     -33.768  16.296  -2.746  1.00 20.00     0.040 C 
BRANCH   7   8
HETATM    8  C9  UNL     1     -35.087  16.271  -1.968  1.00 20.00     0.140 C 
BRANCH   8   9
HETATM    9  C2  UNL     1     -35.997  17.409  -2.326  1.00 20.00    -0.006 C 
HETATM   10  C1  UNL     1     -37.026  17.304  -3.175  1.00 20.00     0.009 C 
ENDBRANCH   8   9
BRANCH   8  11
HETATM   11  O11 UNL     1     -34.791  16.385  -0.576  1.00 20.00    -0.392 OA
HETATM   12  H27 UNL     1     -35.251  15.654  -0.137  1.00 20.00     0.210 HD
ENDBRANCH   8  11
ENDBRANCH   7   8
ENDBRANCH   5   7
TORSDOF 4
ENDMDL
MODEL 9
REMARK VINA RESULT:      -4.1      9.913     11.414
REMARK  4 active torsions:
REMARK  status: ('A' for Active; 'I' for Inactive)
REMARK    1  A    between atoms: C2_2  and  C9_9 
REMARK    2  A    between atoms: C7_7  and  C8_8 
REMARK    3  A    between atoms: C8_8  and  C9_9 
REMARK    4  A    between atoms: C9_9  and  O11_11 
ROOT
HETATM    1  C3  UNL     1     -42.346   6.585  -2.521  1.00 20.00     0.031 C 
HETATM    2  C4  UNL     1     -41.039   4.942  -1.147  1.00 20.00     0.031 C 
HETATM    3  C5  UNL     1     -42.065   7.613  -1.432  1.00 20.00     0.168 C 
HETATM    4  C6  UNL     1     -40.831   6.063  -0.134  1.00 20.00     0.168 C 
HETATM    5  C7  UNL     1     -42.330   5.166  -1.942  1.00 20.00    -0.008 C 
HETATM    6  O10 UNL     1     -40.825   7.335  -0.781  1.00 20.00    -0.391 OA
ENDROOT
BRANCH   5   7
HETATM    7  C8  UNL     1     -42.485   4.120  -3.045  1.00 20.00     0.040 C 
BRANCH   7   8
HETATM    8  C9  UNL     1     -41.884   2.760  -2.678  1.00 20.00     0.140 C 
BRANCH   8   9
HETATM    9  C2  UNL     1     -41.438   1.977  -3.878  1.00 20.00    -0.006 C 
HETATM   10  C1  UNL     1     -41.653   0.667  -4.038  1.00 20.00     0.009 C 
ENDBRANCH   8   9
BRANCH   8  11
HETATM   11  O11 UNL     1     -42.885   1.988  -2.015  1.00 20.00    -0.392 OA
HETATM   12  H27 UNL     1     -43.106   2.466  -1.201  1.00 20.00     0.210 HD
ENDBRANCH   8  11
ENDBRANCH   7   8
ENDBRANCH   5   7
TORSDOF 4
ENDMDL
