MODEL 1
REMARK VINA RESULT:      -3.9      0.000      0.000
REMARK  2 active torsions:
REMARK  status: ('A' for Active; 'I' for Inactive)
REMARK    1  A    between atoms: C5_5  and  C6_6 
REMARK    2  A    between atoms: C5_5  and  O8_8 
ROOT
HETATM    1  C1  UNL     1     -32.244   7.362   2.947  1.00 20.00     0.228 C 
HETATM    2  N7  UNL     1     -32.022   8.028   2.023  1.00 20.00    -0.164 NA
HETATM    3  O8  UNL     1     -32.493   6.604   4.014  1.00 20.00    -0.283 OA
ENDROOT
BRANCH   3   4
HETATM    4  C5  UNL     1     -33.318   5.501   3.658  1.00 20.00     0.198 C 
BRANCH   4   5
HETATM    5  C6  UNL     1     -34.513   5.368   4.623  1.00 20.00    -0.029 C 
HETATM    6  C2  UNL     1     -34.647   3.915   5.108  1.00 20.00     0.016 C 
HETATM    7  C3  UNL     1     -35.797   5.778   3.887  1.00 20.00     0.016 C 
HETATM    8  C4  UNL     1     -34.315   6.283   5.844  1.00 20.00     0.016 C 
ENDBRANCH   4   5
ENDBRANCH   3   4
TORSDOF 2
ENDMDL
MODEL 2
REMARK VINA RESULT:      -3.9      0.034      1.533
REMARK  2 active torsions:
REMARK  status: ('A' for Active; 'I' for Inactive)
REMARK    1  A    between atoms: C5_5  and  C6_6 
REMARK    2  A    between atoms: C5_5  and  O8_8 
ROOT
HETATM    1  C1  UNL     1     -32.246   7.389   2.939  1.00 20.00     0.228 C 
HETATM    2  N7  UNL     1     -32.004   8.030   2.001  1.00 20.00    -0.164 NA
HETATM    3  O8  UNL     1     -32.517   6.660   4.020  1.00 20.00    -0.283 OA
ENDROOT
BRANCH   3   4
HETATM    4  C5  UNL     1     -33.304   5.527   3.672  1.00 20.00     0.198 C 
BRANCH   4   5
HETATM    5  C6  UNL     1     -34.502   5.369   4.628  1.00 20.00    -0.029 C 
HETATM    6  C2  UNL     1     -35.808   5.762   3.916  1.00 20.00     0.016 C 
HETATM    7  C3  UNL     1     -34.295   6.284   5.845  1.00 20.00     0.016 C 
HETATM    8  C4  UNL     1     -34.615   3.911   5.104  1.00 20.00     0.016 C 
ENDBRANCH   4   5
ENDBRANCH   3   4
TORSDOF 2
ENDMDL
MODEL 3
REMARK VINA RESULT:      -3.5     11.163     12.250
REMARK  2 active torsions:
REMARK  status: ('A' for Active; 'I' for Inactive)
REMARK    1  A    between atoms: C5_5  and  C6_6 
REMARK    2  A    between atoms: C5_5  and  O8_8 
ROOT
HETATM    1  C1  UNL     1     -34.602  13.568  -3.951  1.00 20.00     0.228 C 
HETATM    2  N7  UNL     1     -34.820  12.715  -4.707  1.00 20.00    -0.164 NA
HETATM    3  O8  UNL     1     -34.342  14.544  -3.081  1.00 20.00    -0.283 OA
ENDROOT
BRANCH   3   4
HETATM    4  C5  UNL     1     -35.446  15.437  -2.992  1.00 20.00     0.198 C 
BRANCH   4   5
HETATM    5  C6  UNL     1     -35.022  16.780  -2.365  1.00 20.00    -0.029 C 
HETATM    6  C2  UNL     1     -36.178  17.791  -2.440  1.00 20.00     0.016 C 
HETATM    7  C3  UNL     1     -33.815  17.333  -3.138  1.00 20.00     0.016 C 
HETATM    8  C4  UNL     1     -34.631  16.580  -0.891  1.00 20.00     0.016 C 
ENDBRANCH   4   5
ENDBRANCH   3   4
TORSDOF 2
ENDMDL
MODEL 4
REMARK VINA RESULT:      -3.5     11.163     12.295
REMARK  2 active torsions:
REMARK  status: ('A' for Active; 'I' for Inactive)
REMARK    1  A    between atoms: C5_5  and  C6_6 
REMARK    2  A    between atoms: C5_5  and  O8_8 
ROOT
HETATM    1  C1  UNL     1     -34.652  13.577  -3.936  1.00 20.00     0.228 C 
HETATM    2  N7  UNL     1     -34.872  12.711  -4.678  1.00 20.00    -0.164 NA
HETATM    3  O8  UNL     1     -34.390  14.566  -3.083  1.00 20.00    -0.283 OA
ENDROOT
BRANCH   3   4
HETATM    4  C5  UNL     1     -35.478  15.481  -3.035  1.00 20.00     0.198 C 
BRANCH   4   5
HETATM    5  C6  UNL     1     -35.054  16.810  -2.378  1.00 20.00    -0.029 C 
HETATM    6  C2  UNL     1     -33.891  17.444  -3.159  1.00 20.00     0.016 C 
HETATM    7  C3  UNL     1     -34.604  16.534  -0.935  1.00 20.00     0.016 C 
HETATM    8  C4  UNL     1     -36.235  17.796  -2.360  1.00 20.00     0.016 C 
ENDBRANCH   4   5
ENDBRANCH   3   4
TORSDOF 2
ENDMDL
MODEL 5
REMARK VINA RESULT:      -3.5     11.154     12.243
REMARK  2 active torsions:
REMARK  status: ('A' for Active; 'I' for Inactive)
REMARK    1  A    between atoms: C5_5  and  C6_6 
REMARK    2  A    between atoms: C5_5  and  O8_8 
ROOT
HETATM    1  C1  UNL     1     -34.617  13.612  -3.895  1.00 20.00     0.228 C 
HETATM    2  N7  UNL     1     -34.828  12.746  -4.639  1.00 20.00    -0.164 NA
HETATM    3  O8  UNL     1     -34.366  14.601  -3.039  1.00 20.00    -0.283 OA
ENDROOT
BRANCH   3   4
HETATM    4  C5  UNL     1     -35.442  15.531  -3.025  1.00 20.00     0.198 C 
BRANCH   4   5
HETATM    5  C6  UNL     1     -35.028  16.847  -2.337  1.00 20.00    -0.029 C 
HETATM    6  C2  UNL     1     -34.611  16.578  -0.881  1.00 20.00     0.016 C 
HETATM    7  C3  UNL     1     -36.221  17.815  -2.351  1.00 20.00     0.016 C 
HETATM    8  C4  UNL     1     -33.846  17.489  -3.082  1.00 20.00     0.016 C 
ENDBRANCH   4   5
ENDBRANCH   3   4
TORSDOF 2
ENDMDL
MODEL 6
REMARK VINA RESULT:      -3.4     11.653     12.608
REMARK  2 active torsions:
REMARK  status: ('A' for Active; 'I' for Inactive)
REMARK    1  A    between atoms: C5_5  and  C6_6 
REMARK    2  A    between atoms: C5_5  and  O8_8 
ROOT
HETATM    1  C1  UNL     1     -37.558  14.926  -3.790  1.00 20.00     0.228 C 
HETATM    2  N7  UNL     1     -38.540  14.311  -3.854  1.00 20.00    -0.164 NA
HETATM    3  O8  UNL     1     -36.435  15.639  -3.710  1.00 20.00    -0.283 OA
ENDROOT
BRANCH   3   4
HETATM    4  C5  UNL     1     -35.404  15.029  -4.476  1.00 20.00     0.198 C 
BRANCH   4   5
HETATM    5  C6  UNL     1     -34.026  15.239  -3.817  1.00 20.00    -0.029 C 
HETATM    6  C2  UNL     1     -33.165  16.186  -4.670  1.00 20.00     0.016 C 
HETATM    7  C3  UNL     1     -33.317  13.881  -3.697  1.00 20.00     0.016 C 
HETATM    8  C4  UNL     1     -34.194  15.847  -2.414  1.00 20.00     0.016 C 
ENDBRANCH   4   5
ENDBRANCH   3   4
TORSDOF 2
ENDMDL
MODEL 7
REMARK VINA RESULT:      -3.4     11.391     12.035
REMARK  2 active torsions:
REMARK  status: ('A' for Active; 'I' for Inactive)
REMARK    1  A    between atoms: C5_5  and  C6_6 
REMARK    2  A    between atoms: C5_5  and  O8_8 
ROOT
HETATM    1  C1  UNL     1     -34.442  16.600  -1.076  1.00 20.00     0.228 C 
HETATM    2  N7  UNL     1     -34.870  16.980  -0.066  1.00 20.00    -0.164 NA
HETATM    3  O8  UNL     1     -33.943  16.168  -2.233  1.00 20.00    -0.283 OA
ENDROOT
BRANCH   3   4
HETATM    4  C5  UNL     1     -34.936  15.468  -2.972  1.00 20.00     0.198 C 
BRANCH   4   5
HETATM    5  C6  UNL     1     -34.295  14.585  -4.062  1.00 20.00    -0.029 C 
HETATM    6  C2  UNL     1     -35.130  13.311  -4.275  1.00 20.00     0.016 C 
HETATM    7  C3  UNL     1     -32.877  14.193  -3.618  1.00 20.00     0.016 C 
HETATM    8  C4  UNL     1     -34.215  15.354  -5.392  1.00 20.00     0.016 C 
ENDBRANCH   4   5
ENDBRANCH   3   4
TORSDOF 2
ENDMDL
MODEL 8
REMARK VINA RESULT:      -3.4     11.994     12.673
REMARK  2 active torsions:
REMARK  status: ('A' for Active; 'I' for Inactive)
REMARK    1  A    between atoms: C5_5  and  C6_6 
REMARK    2  A    between atoms: C5_5  and  O8_8 
ROOT
HETATM    1  C1  UNL     1     -37.264  14.930  -3.784  1.00 20.00     0.228 C 
HETATM    2  N7  UNL     1     -38.246  14.311  -3.764  1.00 20.00    -0.164 NA
HETATM    3  O8  UNL     1     -36.142  15.648  -3.805  1.00 20.00    -0.283 OA
ENDROOT
BRANCH   3   4
HETATM    4  C5  UNL     1     -35.011  14.799  -3.949  1.00 20.00     0.198 C 
BRANCH   4   5
HETATM    5  C6  UNL     1     -33.703  15.564  -3.665  1.00 20.00    -0.029 C 
HETATM    6  C2  UNL     1     -33.820  16.345  -2.344  1.00 20.00     0.016 C 
HETATM    7  C3  UNL     1     -33.441  16.549  -4.814  1.00 20.00     0.016 C 
HETATM    8  C4  UNL     1     -32.523  14.583  -3.559  1.00 20.00     0.016 C 
ENDBRANCH   4   5
ENDBRANCH   3   4
TORSDOF 2
ENDMDL
MODEL 9
REMARK VINA RESULT:      -3.4     11.410     12.027
REMARK  2 active torsions:
REMARK  status: ('A' for Active; 'I' for Inactive)
REMARK    1  A    between atoms: C5_5  and  C6_6 
REMARK    2  A    between atoms: C5_5  and  O8_8 
ROOT
HETATM    1  C1  UNL     1     -34.439  16.644  -1.112  1.00 20.00     0.228 C 
HETATM    2  N7  UNL     1     -34.817  16.978  -0.067  1.00 20.00    -0.164 NA
HETATM    3  O8  UNL     1     -33.997  16.265  -2.310  1.00 20.00    -0.283 OA
ENDROOT
BRANCH   3   4
HETATM    4  C5  UNL     1     -34.941  15.406  -2.939  1.00 20.00     0.198 C 
BRANCH   4   5
HETATM    5  C6  UNL     1     -34.272  14.561  -4.042  1.00 20.00    -0.029 C 
HETATM    6  C2  UNL     1     -34.153  15.377  -5.340  1.00 20.00     0.016 C 
HETATM    7  C3  UNL     1     -35.130  13.314  -4.305  1.00 20.00     0.016 C 
HETATM    8  C4  UNL     1     -32.866  14.124  -3.598  1.00 20.00     0.016 C 
ENDBRANCH   4   5
ENDBRANCH   3   4
TORSDOF 2
ENDMDL
