MODEL 1
REMARK VINA RESULT:      -4.6      0.000      0.000
REMARK  0 active torsions:
REMARK  status: ('A' for Active; 'I' for Inactive)
ROOT
HETATM    1  C1  UNL     1     -34.679  18.137   2.523  1.00 20.00     0.011 A 
HETATM    2  C2  UNL     1     -33.996  18.261   3.734  1.00 20.00     0.024 A 
HETATM    3  C3  UNL     1     -31.964  18.930   2.574  1.00 20.00     0.031 A 
HETATM    4  C4  UNL     1     -33.996  18.417   1.350  1.00 20.00    -0.033 A 
HETATM    5  C5  UNL     1     -32.652  18.816   1.378  1.00 20.00    -0.049 A 
HETATM    6  C6  UNL     1     -32.648  18.654   3.759  1.00 20.00     0.034 A 
HETATM    7  C7  UNL     1     -32.130  19.026  -0.009  1.00 20.00     0.041 C 
HETATM    8  C8  UNL     1     -33.442  19.168  -0.799  1.00 20.00     0.030 C 
HETATM    9  C9  UNL     1     -34.499  18.331  -0.058  1.00 20.00     0.116 C 
HETATM   10 CL10 UNL     1     -31.828  18.792   5.268  1.00 20.00    -0.084 Cl
HETATM   11 CL11 UNL     1     -34.492  16.643  -0.610  1.00 20.00    -0.120 Cl
ENDROOT
TORSDOF 0
ENDMDL
MODEL 2
REMARK VINA RESULT:      -4.6      5.022      6.818
REMARK  0 active torsions:
REMARK  status: ('A' for Active; 'I' for Inactive)
ROOT
HETATM    1  C1  UNL     1     -33.750  16.970  -4.500  1.00 20.00     0.011 A 
HETATM    2  C2  UNL     1     -33.696  17.490  -3.206  1.00 20.00     0.024 A 
HETATM    3  C3  UNL     1     -34.745  15.485  -2.308  1.00 20.00     0.031 A 
HETATM    4  C4  UNL     1     -34.295  15.709  -4.682  1.00 20.00    -0.033 A 
HETATM    5  C5  UNL     1     -34.783  14.973  -3.593  1.00 20.00    -0.049 A 
HETATM    6  C6  UNL     1     -34.191  16.753  -2.118  1.00 20.00     0.034 A 
HETATM    7  C7  UNL     1     -35.350  13.663  -4.046  1.00 20.00     0.041 C 
HETATM    8  C8  UNL     1     -34.705  13.529  -5.436  1.00 20.00     0.030 C 
HETATM    9  C9  UNL     1     -34.485  14.958  -5.964  1.00 20.00     0.116 C 
HETATM   10 CL10 UNL     1     -34.120  17.423  -0.532  1.00 20.00    -0.084 Cl
HETATM   11 CL11 UNL     1     -35.919  15.560  -6.821  1.00 20.00    -0.120 Cl
ENDROOT
TORSDOF 0
ENDMDL
MODEL 3
REMARK VINA RESULT:      -4.5      3.274      4.893
REMARK  0 active torsions:
REMARK  status: ('A' for Active; 'I' for Inactive)
ROOT
HETATM    1  C1  UNL     1     -33.599  18.623  -2.389  1.00 20.00     0.011 A 
HETATM    2  C2  UNL     1     -33.933  18.784  -1.043  1.00 20.00     0.024 A 
HETATM    3  C3  UNL     1     -34.641  16.461  -0.892  1.00 20.00     0.031 A 
HETATM    4  C4  UNL     1     -33.785  17.378  -2.969  1.00 20.00    -0.033 A 
HETATM    5  C5  UNL     1     -34.297  16.306  -2.224  1.00 20.00    -0.049 A 
HETATM    6  C6  UNL     1     -34.452  17.711  -0.301  1.00 20.00     0.034 A 
HETATM    7  C7  UNL     1     -34.437  15.083  -3.076  1.00 20.00     0.041 C 
HETATM    8  C8  UNL     1     -33.510  15.436  -4.252  1.00 20.00     0.030 C 
HETATM    9  C9  UNL     1     -33.529  16.969  -4.387  1.00 20.00     0.116 C 
HETATM   10 CL10 UNL     1     -34.863  17.942   1.356  1.00 20.00    -0.084 Cl
HETATM   11 CL11 UNL     1     -34.859  17.511  -5.432  1.00 20.00    -0.120 Cl
ENDROOT
TORSDOF 0
ENDMDL
MODEL 4
REMARK VINA RESULT:      -4.5      6.837      8.505
REMARK  0 active torsions:
REMARK  status: ('A' for Active; 'I' for Inactive)
ROOT
HETATM    1  C1  UNL     1     -34.699  15.281  -6.860  1.00 20.00     0.011 A 
HETATM    2  C2  UNL     1     -34.533  16.578  -7.349  1.00 20.00     0.024 A 
HETATM    3  C3  UNL     1     -33.446  17.269  -5.284  1.00 20.00     0.031 A 
HETATM    4  C4  UNL     1     -34.230  14.992  -5.588  1.00 20.00    -0.033 A 
HETATM    5  C5  UNL     1     -33.604  15.977  -4.811  1.00 20.00    -0.049 A 
HETATM    6  C6  UNL     1     -33.911  17.565  -6.566  1.00 20.00     0.034 A 
HETATM    7  C7  UNL     1     -33.218  15.434  -3.470  1.00 20.00     0.041 C 
HETATM    8  C8  UNL     1     -33.259  13.920  -3.744  1.00 20.00     0.030 C 
HETATM    9  C9  UNL     1     -34.315  13.696  -4.842  1.00 20.00     0.116 C 
HETATM   10 CL10 UNL     1     -33.727  19.159  -7.194  1.00 20.00    -0.084 Cl
HETATM   11 CL11 UNL     1     -35.937  13.493  -4.149  1.00 20.00    -0.120 Cl
ENDROOT
TORSDOF 0
ENDMDL
MODEL 5
REMARK VINA RESULT:      -4.5      5.463      7.329
REMARK  0 active torsions:
REMARK  status: ('A' for Active; 'I' for Inactive)
ROOT
HETATM    1  C1  UNL     1     -33.174  15.900  -4.376  1.00 20.00     0.011 A 
HETATM    2  C2  UNL     1     -33.325  16.173  -3.015  1.00 20.00     0.024 A 
HETATM    3  C3  UNL     1     -35.716  15.741  -3.147  1.00 20.00     0.031 A 
HETATM    4  C4  UNL     1     -34.297  15.545  -5.106  1.00 20.00    -0.033 A 
HETATM    5  C5  UNL     1     -35.556  15.461  -4.493  1.00 20.00    -0.049 A 
HETATM    6  C6  UNL     1     -34.588  16.094  -2.406  1.00 20.00     0.034 A 
HETATM    7  C7  UNL     1     -36.611  15.094  -5.490  1.00 20.00     0.041 C 
HETATM    8  C8  UNL     1     -35.752  14.515  -6.627  1.00 20.00     0.030 C 
HETATM    9  C9  UNL     1     -34.393  15.235  -6.568  1.00 20.00     0.116 C 
HETATM   10 CL10 UNL     1     -34.745  16.443  -0.726  1.00 20.00    -0.084 Cl
HETATM   11 CL11 UNL     1     -34.415  16.739  -7.513  1.00 20.00    -0.120 Cl
ENDROOT
TORSDOF 0
ENDMDL
MODEL 6
REMARK VINA RESULT:      -4.4      3.295      6.004
REMARK  0 active torsions:
REMARK  status: ('A' for Active; 'I' for Inactive)
ROOT
HETATM    1  C1  UNL     1     -33.603  18.043  -3.471  1.00 20.00     0.011 A 
HETATM    2  C2  UNL     1     -33.636  16.898  -4.270  1.00 20.00     0.024 A 
HETATM    3  C3  UNL     1     -34.481  15.571  -2.413  1.00 20.00     0.031 A 
HETATM    4  C4  UNL     1     -34.016  17.939  -2.152  1.00 20.00    -0.033 A 
HETATM    5  C5  UNL     1     -34.456  16.713  -1.632  1.00 20.00    -0.049 A 
HETATM    6  C6  UNL     1     -34.070  15.671  -3.744  1.00 20.00     0.034 A 
HETATM    7  C7  UNL     1     -34.815  16.847  -0.184  1.00 20.00     0.041 C 
HETATM    8  C8  UNL     1     -34.986  18.371  -0.063  1.00 20.00     0.030 C 
HETATM    9  C9  UNL     1     -34.047  19.007  -1.104  1.00 20.00     0.116 C 
HETATM   10 CL10 UNL     1     -34.092  14.273  -4.751  1.00 20.00    -0.084 Cl
HETATM   11 CL11 UNL     1     -32.419  19.259  -0.438  1.00 20.00    -0.120 Cl
ENDROOT
TORSDOF 0
ENDMDL
MODEL 7
REMARK VINA RESULT:      -4.4      4.647      7.369
REMARK  0 active torsions:
REMARK  status: ('A' for Active; 'I' for Inactive)
ROOT
HETATM    1  C1  UNL     1     -33.672  14.737  -3.412  1.00 20.00     0.011 A 
HETATM    2  C2  UNL     1     -34.103  14.179  -4.617  1.00 20.00     0.024 A 
HETATM    3  C3  UNL     1     -35.063  16.305  -5.311  1.00 20.00     0.031 A 
HETATM    4  C4  UNL     1     -33.938  16.076  -3.173  1.00 20.00    -0.033 A 
HETATM    5  C5  UNL     1     -34.622  16.853  -4.119  1.00 20.00    -0.049 A 
HETATM    6  C6  UNL     1     -34.795  14.958  -5.559  1.00 20.00     0.034 A 
HETATM    7  C7  UNL     1     -34.816  18.251  -3.620  1.00 20.00     0.041 C 
HETATM    8  C8  UNL     1     -33.759  18.315  -2.504  1.00 20.00     0.030 C 
HETATM    9  C9  UNL     1     -33.604  16.884  -1.958  1.00 20.00     0.116 C 
HETATM   10 CL10 UNL     1     -35.321  14.241  -7.034  1.00 20.00    -0.084 Cl
HETATM   11 CL11 UNL     1     -34.774  16.556  -0.662  1.00 20.00    -0.120 Cl
ENDROOT
TORSDOF 0
ENDMDL
MODEL 8
REMARK VINA RESULT:      -4.3      6.375      9.149
REMARK  0 active torsions:
REMARK  status: ('A' for Active; 'I' for Inactive)
ROOT
HETATM    1  C1  UNL     1     -34.396  14.932  -6.533  1.00 20.00     0.011 A 
HETATM    2  C2  UNL     1     -35.509  14.911  -7.376  1.00 20.00     0.024 A 
HETATM    3  C3  UNL     1     -37.007  15.219  -5.483  1.00 20.00     0.031 A 
HETATM    4  C4  UNL     1     -34.602  15.103  -5.173  1.00 20.00    -0.033 A 
HETATM    5  C5  UNL     1     -35.897  15.251  -4.656  1.00 20.00    -0.049 A 
HETATM    6  C6  UNL     1     -36.805  15.053  -6.854  1.00 20.00     0.034 A 
HETATM    7  C7  UNL     1     -35.863  15.387  -3.165  1.00 20.00     0.041 C 
HETATM    8  C8  UNL     1     -34.393  15.777  -2.938  1.00 20.00     0.030 C 
HETATM    9  C9  UNL     1     -33.582  15.133  -4.078  1.00 20.00     0.116 C 
HETATM   10 CL10 UNL     1     -38.159  15.014  -7.917  1.00 20.00    -0.084 Cl
HETATM   11 CL11 UNL     1     -33.080  13.481  -3.662  1.00 20.00    -0.120 Cl
ENDROOT
TORSDOF 0
ENDMDL
MODEL 9
REMARK VINA RESULT:      -4.3      4.470      6.155
REMARK  0 active torsions:
REMARK  status: ('A' for Active; 'I' for Inactive)
ROOT
HETATM    1  C1  UNL     1     -34.858  15.671  -2.214  1.00 20.00     0.011 A 
HETATM    2  C2  UNL     1     -34.288  16.778  -1.584  1.00 20.00     0.024 A 
HETATM    3  C3  UNL     1     -33.797  17.807  -3.734  1.00 20.00     0.031 A 
HETATM    4  C4  UNL     1     -34.896  15.648  -3.599  1.00 20.00    -0.033 A 
HETATM    5  C5  UNL     1     -34.374  16.711  -4.351  1.00 20.00    -0.049 A 
HETATM    6  C6  UNL     1     -33.760  17.838  -2.339  1.00 20.00     0.034 A 
HETATM    7  C7  UNL     1     -34.501  16.439  -5.817  1.00 20.00     0.041 C 
HETATM    8  C8  UNL     1     -35.573  15.336  -5.821  1.00 20.00     0.030 C 
HETATM    9  C9  UNL     1     -35.426  14.570  -4.493  1.00 20.00     0.116 C 
HETATM   10 CL10 UNL     1     -33.055  19.189  -1.534  1.00 20.00    -0.084 Cl
HETATM   11 CL11 UNL     1     -34.243  13.252  -4.634  1.00 20.00    -0.120 Cl
ENDROOT
TORSDOF 0
ENDMDL
