MODEL 1
REMARK VINA RESULT:      -4.8      0.000      0.000
REMARK  0 active torsions:
REMARK  status: ('A' for Active; 'I' for Inactive)
ROOT
HETATM    1  C1  UNL     1     -33.468  13.601  -3.717  1.00 20.00     0.005 C 
HETATM    2  C2  UNL     1     -34.874  14.045  -5.728  1.00 20.00     0.005 C 
HETATM    3  C3  UNL     1     -32.701  14.937  -3.714  1.00 20.00     0.005 C 
HETATM    4  C4  UNL     1     -34.327  15.452  -6.041  1.00 20.00     0.005 C 
HETATM    5  C5  UNL     1     -34.699  15.690  -2.514  1.00 20.00     0.010 C 
HETATM    6  C6  UNL     1     -35.996  16.100  -4.370  1.00 20.00     0.010 C 
HETATM    7  C7  UNL     1     -34.925  13.778  -4.206  1.00 20.00    -0.010 C 
HETATM    8  C8  UNL     1     -33.676  16.121  -3.578  1.00 20.00    -0.010 C 
HETATM    9  C9  UNL     1     -34.569  16.403  -4.856  1.00 20.00    -0.010 C 
HETATM   10  C10 UNL     1     -35.676  14.938  -3.425  1.00 20.00    -0.010 C 
ENDROOT
TORSDOF 0
ENDMDL
MODEL 2
REMARK VINA RESULT:      -4.7      0.719      2.694
REMARK  0 active torsions:
REMARK  status: ('A' for Active; 'I' for Inactive)
ROOT
HETATM    1  C1  UNL     1     -33.404  13.779  -3.799  1.00 20.00     0.005 C 
HETATM    2  C2  UNL     1     -33.962  15.894  -2.602  1.00 20.00     0.005 C 
HETATM    3  C3  UNL     1     -34.845  13.374  -4.165  1.00 20.00     0.005 C 
HETATM    4  C4  UNL     1     -35.491  15.822  -2.780  1.00 20.00     0.005 C 
HETATM    5  C5  UNL     1     -34.432  14.891  -6.043  1.00 20.00     0.010 C 
HETATM    6  C6  UNL     1     -34.947  16.843  -4.939  1.00 20.00     0.010 C 
HETATM    7  C7  UNL     1     -33.216  15.314  -3.826  1.00 20.00    -0.010 C 
HETATM    8  C8  UNL     1     -35.508  14.458  -5.034  1.00 20.00    -0.010 C 
HETATM    9  C9  UNL     1     -35.863  15.802  -4.273  1.00 20.00    -0.010 C 
HETATM   10  C10 UNL     1     -33.727  15.950  -5.189  1.00 20.00    -0.010 C 
ENDROOT
TORSDOF 0
ENDMDL
MODEL 3
REMARK VINA RESULT:      -4.7      0.734      2.671
REMARK  0 active torsions:
REMARK  status: ('A' for Active; 'I' for Inactive)
ROOT
HETATM    1  C1  UNL     1     -35.130  16.794  -4.967  1.00 20.00     0.005 C 
HETATM    2  C2  UNL     1     -34.389  14.676  -6.054  1.00 20.00     0.005 C 
HETATM    3  C3  UNL     1     -35.989  16.156  -3.858  1.00 20.00     0.005 C 
HETATM    4  C4  UNL     1     -35.132  13.704  -5.116  1.00 20.00     0.005 C 
HETATM    5  C5  UNL     1     -33.817  15.996  -2.737  1.00 20.00     0.010 C 
HETATM    6  C6  UNL     1     -33.133  14.041  -3.740  1.00 20.00     0.010 C 
HETATM    7  C7  UNL     1     -33.890  15.930  -5.299  1.00 20.00    -0.010 C 
HETATM    8  C8  UNL     1     -35.132  15.235  -2.971  1.00 20.00    -0.010 C 
HETATM    9  C9  UNL     1     -34.662  13.888  -3.662  1.00 20.00    -0.010 C 
HETATM   10  C10 UNL     1     -33.066  15.550  -3.996  1.00 20.00    -0.010 C 
ENDROOT
TORSDOF 0
ENDMDL
MODEL 4
REMARK VINA RESULT:      -4.7      0.489      2.949
REMARK  0 active torsions:
REMARK  status: ('A' for Active; 'I' for Inactive)
ROOT
HETATM    1  C1  UNL     1     -36.334  16.000  -4.443  1.00 20.00     0.005 C 
HETATM    2  C2  UNL     1     -35.003  15.683  -2.360  1.00 20.00     0.005 C 
HETATM    3  C3  UNL     1     -35.186  16.517  -5.333  1.00 20.00     0.005 C 
HETATM    4  C4  UNL     1     -33.645  16.149  -2.921  1.00 20.00     0.005 C 
HETATM    5  C5  UNL     1     -34.777  14.118  -5.610  1.00 20.00     0.010 C 
HETATM    6  C6  UNL     1     -33.549  13.824  -3.687  1.00 20.00     0.010 C 
HETATM    7  C7  UNL     1     -35.840  14.943  -3.428  1.00 20.00    -0.010 C 
HETATM    8  C8  UNL     1     -34.064  15.468  -5.432  1.00 20.00    -0.010 C 
HETATM    9  C9  UNL     1     -33.217  15.266  -4.107  1.00 20.00    -0.010 C 
HETATM   10  C10 UNL     1     -35.013  13.785  -4.133  1.00 20.00    -0.010 C 
ENDROOT
TORSDOF 0
ENDMDL
MODEL 5
REMARK VINA RESULT:      -4.6     11.576     12.894
REMARK  0 active torsions:
REMARK  status: ('A' for Active; 'I' for Inactive)
ROOT
HETATM    1  C1  UNL     1     -40.914   6.985  -0.840  1.00 20.00     0.005 C 
HETATM    2  C2  UNL     1     -40.637   4.516  -1.041  1.00 20.00     0.005 C 
HETATM    3  C3  UNL     1     -42.060   7.139  -1.859  1.00 20.00     0.005 C 
HETATM    4  C4  UNL     1     -41.740   4.280  -2.092  1.00 20.00     0.005 C 
HETATM    5  C5  UNL     1     -43.416   6.533   0.089  1.00 20.00     0.010 C 
HETATM    6  C6  UNL     1     -43.161   4.254  -0.097  1.00 20.00     0.010 C 
HETATM    7  C7  UNL     1     -41.013   5.652  -0.062  1.00 20.00    -0.010 C 
HETATM    8  C8  UNL     1     -43.283   6.310  -1.426  1.00 20.00    -0.010 C 
HETATM    9  C9  UNL     1     -43.107   4.740  -1.555  1.00 20.00    -0.010 C 
HETATM   10  C10 UNL     1     -42.455   5.439   0.568  1.00 20.00    -0.010 C 
ENDROOT
TORSDOF 0
ENDMDL
MODEL 6
REMARK VINA RESULT:      -4.6      0.739      2.635
REMARK  0 active torsions:
REMARK  status: ('A' for Active; 'I' for Inactive)
ROOT
HETATM    1  C1  UNL     1     -34.841  15.061  -6.235  1.00 20.00     0.005 C 
HETATM    2  C2  UNL     1     -33.276  16.235  -4.690  1.00 20.00     0.005 C 
HETATM    3  C3  UNL     1     -34.737  13.662  -5.595  1.00 20.00     0.005 C 
HETATM    4  C4  UNL     1     -32.925  15.021  -3.807  1.00 20.00     0.005 C 
HETATM    5  C5  UNL     1     -36.441  14.592  -4.102  1.00 20.00     0.010 C 
HETATM    6  C6  UNL     1     -34.997  15.676  -2.676  1.00 20.00     0.010 C 
HETATM    7  C7  UNL     1     -34.743  16.184  -5.176  1.00 20.00    -0.010 C 
HETATM    8  C8  UNL     1     -35.186  13.706  -4.123  1.00 20.00    -0.010 C 
HETATM    9  C9  UNL     1     -34.190  14.452  -3.142  1.00 20.00    -0.010 C 
HETATM   10  C10 UNL     1     -35.758  15.958  -3.976  1.00 20.00    -0.010 C 
ENDROOT
TORSDOF 0
ENDMDL
MODEL 7
REMARK VINA RESULT:      -4.6      0.810      2.315
REMARK  0 active torsions:
REMARK  status: ('A' for Active; 'I' for Inactive)
ROOT
HETATM    1  C1  UNL     1     -33.392  16.273  -5.236  1.00 20.00     0.005 C 
HETATM    2  C2  UNL     1     -35.781  15.849  -5.811  1.00 20.00     0.005 C 
HETATM    3  C3  UNL     1     -33.581  16.438  -3.716  1.00 20.00     0.005 C 
HETATM    4  C4  UNL     1     -36.347  15.948  -4.380  1.00 20.00     0.005 C 
HETATM    5  C5  UNL     1     -33.439  13.994  -3.777  1.00 20.00     0.010 C 
HETATM    6  C6  UNL     1     -35.643  13.602  -4.306  1.00 20.00     0.010 C 
HETATM    7  C7  UNL     1     -34.366  15.225  -5.825  1.00 20.00    -0.010 C 
HETATM    8  C8  UNL     1     -34.181  15.159  -3.103  1.00 20.00    -0.010 C 
HETATM    9  C9  UNL     1     -35.700  14.891  -3.468  1.00 20.00    -0.010 C 
HETATM   10  C10 UNL     1     -34.315  13.854  -5.026  1.00 20.00    -0.010 C 
ENDROOT
TORSDOF 0
ENDMDL
MODEL 8
REMARK VINA RESULT:      -4.5     11.309     12.486
REMARK  0 active torsions:
REMARK  status: ('A' for Active; 'I' for Inactive)
ROOT
HETATM    1  C1  UNL     1     -42.029   4.076  -1.827  1.00 20.00     0.005 C 
HETATM    2  C2  UNL     1     -42.712   6.222  -2.896  1.00 20.00     0.005 C 
HETATM    3  C3  UNL     1     -40.757   4.600  -1.131  1.00 20.00     0.005 C 
HETATM    4  C4  UNL     1     -41.548   7.084  -2.368  1.00 20.00     0.005 C 
HETATM    5  C5  UNL     1     -42.380   5.273   0.576  1.00 20.00     0.010 C 
HETATM    6  C6  UNL     1     -43.011   7.254  -0.411  1.00 20.00     0.010 C 
HETATM    7  C7  UNL     1     -43.142   5.149  -1.869  1.00 20.00    -0.010 C 
HETATM    8  C8  UNL     1     -41.106   5.733  -0.149  1.00 20.00    -0.010 C 
HETATM    9  C9  UNL     1     -41.539   7.098  -0.830  1.00 20.00    -0.010 C 
HETATM   10  C10 UNL     1     -43.416   5.776  -0.436  1.00 20.00    -0.010 C 
ENDROOT
TORSDOF 0
ENDMDL
MODEL 9
REMARK VINA RESULT:      -4.5     11.570     12.939
REMARK  0 active torsions:
REMARK  status: ('A' for Active; 'I' for Inactive)
ROOT
HETATM    1  C1  UNL     1     -43.255   4.203  -0.160  1.00 20.00     0.005 C 
HETATM    2  C2  UNL     1     -43.417   6.656   0.251  1.00 20.00     0.005 C 
HETATM    3  C3  UNL     1     -43.150   4.267  -1.697  1.00 20.00     0.005 C 
HETATM    4  C4  UNL     1     -43.338   7.107  -1.221  1.00 20.00     0.005 C 
HETATM    5  C5  UNL     1     -40.784   4.635  -1.179  1.00 20.00     0.010 C 
HETATM    6  C6  UNL     1     -40.934   6.899  -0.800  1.00 20.00     0.010 C 
HETATM    7  C7  UNL     1     -42.550   5.403   0.513  1.00 20.00    -0.010 C 
HETATM    8  C8  UNL     1     -41.914   5.081  -2.121  1.00 20.00    -0.010 C 
HETATM    9  C9  UNL     1     -42.018   6.641  -1.860  1.00 20.00    -0.010 C 
HETATM   10  C10 UNL     1     -41.064   5.590  -0.015  1.00 20.00    -0.010 C 
ENDROOT
TORSDOF 0
ENDMDL
