MODEL 1
REMARK VINA RESULT:      -3.9      0.000      0.000
REMARK  4 active torsions:
REMARK  status: ('A' for Active; 'I' for Inactive)
REMARK    1  A    between atoms: C1_1  and  O8_8 
REMARK    2  A    between atoms: C5_5  and  C6_6 
REMARK    3  A    between atoms: C6_6  and  C7_7 
REMARK    4  A    between atoms: C7_7  and  O8_8 
ROOT
HETATM    1  C4  UNL     1     -34.114   5.379   2.337  1.00 20.00     0.040 C 
HETATM    2  C7  UNL     1     -33.225   5.814   3.495  1.00 20.00     0.125 C 
ENDROOT
BRANCH   2   3
HETATM    3  C6  UNL     1     -32.029   6.638   3.007  1.00 20.00     0.032 C 
BRANCH   3   4
HETATM    4  C5  UNL     1     -32.429   8.067   2.631  1.00 20.00    -0.002 C 
HETATM    5  C3  UNL     1     -31.856   8.468   1.282  1.00 20.00     0.005 C 
ENDBRANCH   3   4
ENDBRANCH   2   3
BRANCH   2   6
HETATM    6  O8  UNL     1     -34.007   6.579   4.408  1.00 20.00    -0.340 OA
BRANCH   6   7
HETATM    7  C1  UNL     1     -34.130   6.212   5.702  1.00 20.00     0.109 C 
HETATM    8  C2  UNL     1     -33.616   7.116   6.777  1.00 20.00     0.089 C 
HETATM    9  S9  UNL     1     -34.861   4.745   6.005  1.00 20.00    -0.058 SA
ENDBRANCH   6   7
ENDBRANCH   2   6
TORSDOF 4
ENDMDL
MODEL 2
REMARK VINA RESULT:      -3.8      1.314      1.704
REMARK  4 active torsions:
REMARK  status: ('A' for Active; 'I' for Inactive)
REMARK    1  A    between atoms: C1_1  and  O8_8 
REMARK    2  A    between atoms: C5_5  and  C6_6 
REMARK    3  A    between atoms: C6_6  and  C7_7 
REMARK    4  A    between atoms: C7_7  and  O8_8 
ROOT
HETATM    1  C4  UNL     1     -32.447   5.569   2.252  1.00 20.00     0.040 C 
HETATM    2  C7  UNL     1     -32.484   6.485   3.468  1.00 20.00     0.125 C 
ENDROOT
BRANCH   2   3
HETATM    3  C6  UNL     1     -31.855   7.849   3.163  1.00 20.00     0.032 C 
BRANCH   3   4
HETATM    4  C5  UNL     1     -31.985   8.226   1.685  1.00 20.00    -0.002 C 
HETATM    5  C3  UNL     1     -32.451   9.663   1.517  1.00 20.00     0.005 C 
ENDBRANCH   3   4
ENDBRANCH   2   3
BRANCH   2   6
HETATM    6  O8  UNL     1     -33.839   6.651   3.876  1.00 20.00    -0.340 OA
BRANCH   6   7
HETATM    7  C1  UNL     1     -34.356   5.927   4.893  1.00 20.00     0.109 C 
HETATM    8  C2  UNL     1     -35.238   4.757   4.590  1.00 20.00     0.089 C 
HETATM    9  S9  UNL     1     -33.963   6.409   6.439  1.00 20.00    -0.058 SA
ENDBRANCH   6   7
ENDBRANCH   2   6
TORSDOF 4
ENDMDL
MODEL 3
REMARK VINA RESULT:      -3.6     11.818     12.846
REMARK  4 active torsions:
REMARK  status: ('A' for Active; 'I' for Inactive)
REMARK    1  A    between atoms: C1_1  and  O8_8 
REMARK    2  A    between atoms: C5_5  and  C6_6 
REMARK    3  A    between atoms: C6_6  and  C7_7 
REMARK    4  A    between atoms: C7_7  and  O8_8 
ROOT
HETATM    1  C4  UNL     1     -33.662  17.779  -4.661  1.00 20.00     0.040 C 
HETATM    2  C7  UNL     1     -33.608  16.296  -4.315  1.00 20.00     0.125 C 
ENDROOT
BRANCH   2   3
HETATM    3  C6  UNL     1     -33.431  16.076  -2.810  1.00 20.00     0.032 C 
BRANCH   3   4
HETATM    4  C5  UNL     1     -34.768  16.080  -2.065  1.00 20.00    -0.002 C 
HETATM    5  C3  UNL     1     -34.639  16.721  -0.693  1.00 20.00     0.005 C 
ENDBRANCH   3   4
ENDBRANCH   2   3
BRANCH   2   6
HETATM    6  O8  UNL     1     -34.811  15.679  -4.762  1.00 20.00    -0.340 OA
BRANCH   6   7
HETATM    7  C1  UNL     1     -34.783  14.575  -5.542  1.00 20.00     0.109 C 
HETATM    8  C2  UNL     1     -34.736  13.224  -4.903  1.00 20.00     0.089 C 
HETATM    9  S9  UNL     1     -34.803  14.815  -7.191  1.00 20.00    -0.058 SA
ENDBRANCH   6   7
ENDBRANCH   2   6
TORSDOF 4
ENDMDL
MODEL 4
REMARK VINA RESULT:      -3.6     11.745     13.042
REMARK  4 active torsions:
REMARK  status: ('A' for Active; 'I' for Inactive)
REMARK    1  A    between atoms: C1_1  and  O8_8 
REMARK    2  A    between atoms: C5_5  and  C6_6 
REMARK    3  A    between atoms: C6_6  and  C7_7 
REMARK    4  A    between atoms: C7_7  and  O8_8 
ROOT
HETATM    1  C4  UNL     1     -33.541  13.712  -3.857  1.00 20.00     0.040 C 
HETATM    2  C7  UNL     1     -34.342  15.003  -3.965  1.00 20.00     0.125 C 
ENDROOT
BRANCH   2   3
HETATM    3  C6  UNL     1     -34.932  15.414  -2.612  1.00 20.00     0.032 C 
BRANCH   3   4
HETATM    4  C5  UNL     1     -34.085  16.482  -1.915  1.00 20.00    -0.002 C 
HETATM    5  C3  UNL     1     -34.643  16.825  -0.543  1.00 20.00     0.005 C 
ENDBRANCH   3   4
ENDBRANCH   2   3
BRANCH   2   6
HETATM    6  O8  UNL     1     -33.488  16.031  -4.460  1.00 20.00    -0.340 OA
BRANCH   6   7
HETATM    7  C1  UNL     1     -33.782  16.696  -5.599  1.00 20.00     0.109 C 
HETATM    8  C2  UNL     1     -34.175  15.926  -6.820  1.00 20.00     0.089 C 
HETATM    9  S9  UNL     1     -33.677  18.358  -5.552  1.00 20.00    -0.058 SA
ENDBRANCH   6   7
ENDBRANCH   2   6
TORSDOF 4
ENDMDL
MODEL 5
REMARK VINA RESULT:      -3.5     11.311     12.259
REMARK  4 active torsions:
REMARK  status: ('A' for Active; 'I' for Inactive)
REMARK    1  A    between atoms: C1_1  and  O8_8 
REMARK    2  A    between atoms: C5_5  and  C6_6 
REMARK    3  A    between atoms: C6_6  and  C7_7 
REMARK    4  A    between atoms: C7_7  and  O8_8 
ROOT
HETATM    1  C4  UNL     1     -33.406  16.851  -5.405  1.00 20.00     0.040 C 
HETATM    2  C7  UNL     1     -33.838  16.165  -4.116  1.00 20.00     0.125 C 
ENDROOT
BRANCH   2   3
HETATM    3  C6  UNL     1     -32.851  15.067  -3.705  1.00 20.00     0.032 C 
BRANCH   3   4
HETATM    4  C5  UNL     1     -33.481  13.673  -3.765  1.00 20.00    -0.002 C 
HETATM    5  C3  UNL     1     -34.987  13.752  -3.956  1.00 20.00     0.005 C 
ENDBRANCH   3   4
ENDBRANCH   2   3
BRANCH   2   6
HETATM    6  O8  UNL     1     -33.936  17.145  -3.086  1.00 20.00    -0.340 OA
BRANCH   6   7
HETATM    7  C1  UNL     1     -34.926  17.098  -2.168  1.00 20.00     0.109 C 
HETATM    8  C2  UNL     1     -34.618  16.646  -0.776  1.00 20.00     0.089 C 
HETATM    9  S9  UNL     1     -36.447  17.558  -2.672  1.00 20.00    -0.058 SA
ENDBRANCH   6   7
ENDBRANCH   2   6
TORSDOF 4
ENDMDL
MODEL 6
REMARK VINA RESULT:      -3.5      2.533      4.188
REMARK  4 active torsions:
REMARK  status: ('A' for Active; 'I' for Inactive)
REMARK    1  A    between atoms: C1_1  and  O8_8 
REMARK    2  A    between atoms: C5_5  and  C6_6 
REMARK    3  A    between atoms: C6_6  and  C7_7 
REMARK    4  A    between atoms: C7_7  and  O8_8 
ROOT
HETATM    1  C4  UNL     1     -35.000   5.602   3.285  1.00 20.00     0.040 C 
HETATM    2  C7  UNL     1     -33.997   6.531   3.957  1.00 20.00     0.125 C 
ENDROOT
BRANCH   2   3
HETATM    3  C6  UNL     1     -33.807   6.178   5.435  1.00 20.00     0.032 C 
BRANCH   3   4
HETATM    4  C5  UNL     1     -34.919   5.264   5.957  1.00 20.00    -0.002 C 
HETATM    5  C3  UNL     1     -34.460   3.817   6.035  1.00 20.00     0.005 C 
ENDBRANCH   3   4
ENDBRANCH   2   3
BRANCH   2   6
HETATM    6  O8  UNL     1     -32.754   6.439   3.267  1.00 20.00    -0.340 OA
BRANCH   6   7
HETATM    7  C1  UNL     1     -31.956   7.518   3.116  1.00 20.00     0.109 C 
HETATM    8  C2  UNL     1     -30.990   7.877   4.200  1.00 20.00     0.089 C 
HETATM    9  S9  UNL     1     -32.117   8.384   1.701  1.00 20.00    -0.058 SA
ENDBRANCH   6   7
ENDBRANCH   2   6
TORSDOF 4
ENDMDL
MODEL 7
REMARK VINA RESULT:      -3.4     11.160     11.996
REMARK  4 active torsions:
REMARK  status: ('A' for Active; 'I' for Inactive)
REMARK    1  A    between atoms: C1_1  and  O8_8 
REMARK    2  A    between atoms: C5_5  and  C6_6 
REMARK    3  A    between atoms: C6_6  and  C7_7 
REMARK    4  A    between atoms: C7_7  and  O8_8 
ROOT
HETATM    1  C4  UNL     1     -35.605  17.431  -3.113  1.00 20.00     0.040 C 
HETATM    2  C7  UNL     1     -34.603  16.474  -2.481  1.00 20.00     0.125 C 
ENDROOT
BRANCH   2   3
HETATM    3  C6  UNL     1     -34.625  16.566  -0.952  1.00 20.00     0.032 C 
BRANCH   3   4
HETATM    4  C5  UNL     1     -33.773  17.726  -0.432  1.00 20.00    -0.002 C 
HETATM    5  C3  UNL     1     -34.258  18.208   0.926  1.00 20.00     0.005 C 
ENDBRANCH   3   4
ENDBRANCH   2   3
BRANCH   2   6
HETATM    6  O8  UNL     1     -34.914  15.147  -2.896  1.00 20.00    -0.340 OA
BRANCH   6   7
HETATM    7  C1  UNL     1     -34.080  14.454  -3.702  1.00 20.00     0.109 C 
HETATM    8  C2  UNL     1     -32.607  14.698  -3.623  1.00 20.00     0.089 C 
HETATM    9  S9  UNL     1     -34.777  13.357  -4.746  1.00 20.00    -0.058 SA
ENDBRANCH   6   7
ENDBRANCH   2   6
TORSDOF 4
ENDMDL
MODEL 8
REMARK VINA RESULT:      -3.3      2.401      4.368
REMARK  4 active torsions:
REMARK  status: ('A' for Active; 'I' for Inactive)
REMARK    1  A    between atoms: C1_1  and  O8_8 
REMARK    2  A    between atoms: C5_5  and  C6_6 
REMARK    3  A    between atoms: C6_6  and  C7_7 
REMARK    4  A    between atoms: C7_7  and  O8_8 
ROOT
HETATM    1  C4  UNL     1     -33.725   6.950   6.568  1.00 20.00     0.040 C 
HETATM    2  C7  UNL     1     -33.521   6.337   5.189  1.00 20.00     0.125 C 
ENDROOT
BRANCH   2   3
HETATM    3  C6  UNL     1     -34.839   6.246   4.414  1.00 20.00     0.032 C 
BRANCH   3   4
HETATM    4  C5  UNL     1     -35.361   4.809   4.332  1.00 20.00    -0.002 C 
HETATM    5  C3  UNL     1     -34.963   4.002   5.557  1.00 20.00     0.005 C 
ENDBRANCH   3   4
ENDBRANCH   2   3
BRANCH   2   6
HETATM    6  O8  UNL     1     -32.583   7.132   4.469  1.00 20.00    -0.340 OA
BRANCH   6   7
HETATM    7  C1  UNL     1     -32.282   6.863   3.180  1.00 20.00     0.109 C 
HETATM    8  C2  UNL     1     -32.110   5.443   2.745  1.00 20.00     0.089 C 
HETATM    9  S9  UNL     1     -32.122   8.167   2.154  1.00 20.00    -0.058 SA
ENDBRANCH   6   7
ENDBRANCH   2   6
TORSDOF 4
ENDMDL
MODEL 9
REMARK VINA RESULT:      -3.3     11.826     13.167
REMARK  4 active torsions:
REMARK  status: ('A' for Active; 'I' for Inactive)
REMARK    1  A    between atoms: C1_1  and  O8_8 
REMARK    2  A    between atoms: C5_5  and  C6_6 
REMARK    3  A    between atoms: C6_6  and  C7_7 
REMARK    4  A    between atoms: C7_7  and  O8_8 
ROOT
HETATM    1  C4  UNL     1     -34.525  16.296  -1.639  1.00 20.00     0.040 C 
HETATM    2  C7  UNL     1     -33.942  16.463  -3.036  1.00 20.00     0.125 C 
ENDROOT
BRANCH   2   3
HETATM    3  C6  UNL     1     -33.351  15.150  -3.559  1.00 20.00     0.032 C 
BRANCH   3   4
HETATM    4  C5  UNL     1     -34.350  13.993  -3.473  1.00 20.00    -0.002 C 
HETATM    5  C3  UNL     1     -34.483  13.273  -4.805  1.00 20.00     0.005 C 
ENDBRANCH   3   4
ENDBRANCH   2   3
BRANCH   2   6
HETATM    6  O8  UNL     1     -34.972  16.919  -3.909  1.00 20.00    -0.340 OA
BRANCH   6   7
HETATM    7  C1  UNL     1     -34.688  17.360  -5.154  1.00 20.00     0.109 C 
HETATM    8  C2  UNL     1     -35.305  16.681  -6.335  1.00 20.00     0.089 C 
HETATM    9  S9  UNL     1     -33.646  18.656  -5.277  1.00 20.00    -0.058 SA
ENDBRANCH   6   7
ENDBRANCH   2   6
TORSDOF 4
ENDMDL
