MODEL 1
REMARK VINA RESULT:      -4.3      0.000      0.000
REMARK  0 active torsions:
REMARK  status: ('A' for Active; 'I' for Inactive)
ROOT
HETATM    1  C1  UNL     1     -36.212  14.420  -4.092  1.00 20.00     0.141 C 
HETATM    2  C2  UNL     1     -35.144  13.381  -4.354  1.00 20.00     0.079 C 
HETATM    3  C3  UNL     1     -33.863  13.745  -3.625  1.00 20.00     0.008 C 
HETATM    4  C4  UNL     1     -33.399  15.150  -3.996  1.00 20.00     0.017 C 
HETATM    5  C5  UNL     1     -36.481  18.576  -4.276  1.00 20.00     0.085 C 
HETATM    6  C6  UNL     1     -35.165  18.894  -3.588  1.00 20.00     0.084 C 
HETATM    7  C7  UNL     1     -35.810  15.875  -4.352  1.00 20.00     0.130 C 
HETATM    8  C8  UNL     1     -34.477  16.194  -3.658  1.00 20.00     0.068 C 
HETATM    9  O9  UNL     1     -37.351  14.066  -3.789  1.00 20.00    -0.297 OA
HETATM   10  S10 UNL     1     -37.159  16.970  -3.772  1.00 20.00    -0.155 SA
HETATM   11  S11 UNL     1     -33.810  17.828  -4.156  1.00 20.00    -0.162 SA
ENDROOT
TORSDOF 0
ENDMDL
MODEL 2
REMARK VINA RESULT:      -4.1      2.342      2.745
REMARK  0 active torsions:
REMARK  status: ('A' for Active; 'I' for Inactive)
ROOT
HETATM    1  C1  UNL     1     -35.037  14.017  -5.557  1.00 20.00     0.141 C 
HETATM    2  C2  UNL     1     -35.328  14.176  -7.034  1.00 20.00     0.079 C 
HETATM    3  C3  UNL     1     -34.421  15.232  -7.639  1.00 20.00     0.008 C 
HETATM    4  C4  UNL     1     -34.536  16.554  -6.886  1.00 20.00     0.017 C 
HETATM    5  C5  UNL     1     -34.659  16.555  -2.270  1.00 20.00     0.085 C 
HETATM    6  C6  UNL     1     -33.794  17.613  -2.933  1.00 20.00     0.084 C 
HETATM    7  C7  UNL     1     -35.044  15.306  -4.729  1.00 20.00     0.130 C 
HETATM    8  C8  UNL     1     -34.172  16.378  -5.402  1.00 20.00     0.068 C 
HETATM    9  O9  UNL     1     -34.913  12.892  -5.074  1.00 20.00    -0.297 OA
HETATM   10  S10 UNL     1     -34.463  14.921  -3.036  1.00 20.00    -0.155 SA
HETATM   11  S11 UNL     1     -34.358  18.020  -4.609  1.00 20.00    -0.162 SA
ENDROOT
TORSDOF 0
ENDMDL
MODEL 3
REMARK VINA RESULT:      -4.1      2.227      3.148
REMARK  0 active torsions:
REMARK  status: ('A' for Active; 'I' for Inactive)
ROOT
HETATM    1  C1  UNL     1     -33.598  16.148  -4.484  1.00 20.00     0.141 C 
HETATM    2  C2  UNL     1     -32.908  15.048  -3.707  1.00 20.00     0.079 C 
HETATM    3  C3  UNL     1     -33.560  13.709  -3.998  1.00 20.00     0.008 C 
HETATM    4  C4  UNL     1     -35.059  13.754  -3.721  1.00 20.00     0.017 C 
HETATM    5  C5  UNL     1     -37.526  17.416  -5.071  1.00 20.00     0.085 C 
HETATM    6  C6  UNL     1     -38.145  16.049  -5.306  1.00 20.00     0.084 C 
HETATM    7  C7  UNL     1     -35.121  16.220  -4.338  1.00 20.00     0.130 C 
HETATM    8  C8  UNL     1     -35.746  14.836  -4.572  1.00 20.00     0.068 C 
HETATM    9  O9  UNL     1     -32.928  16.977  -5.100  1.00 20.00    -0.297 OA
HETATM   10  S10 UNL     1     -35.767  17.466  -5.514  1.00 20.00    -0.155 SA
HETATM   11  S11 UNL     1     -37.528  14.799  -4.143  1.00 20.00    -0.162 SA
ENDROOT
TORSDOF 0
ENDMDL
MODEL 4
REMARK VINA RESULT:      -4.1      2.343      2.726
REMARK  0 active torsions:
REMARK  status: ('A' for Active; 'I' for Inactive)
ROOT
HETATM    1  C1  UNL     1     -34.457  13.865  -4.765  1.00 20.00     0.141 C 
HETATM    2  C2  UNL     1     -33.303  13.986  -3.793  1.00 20.00     0.079 C 
HETATM    3  C3  UNL     1     -33.307  15.356  -3.139  1.00 20.00     0.008 C 
HETATM    4  C4  UNL     1     -33.294  16.465  -4.186  1.00 20.00     0.017 C 
HETATM    5  C5  UNL     1     -35.991  16.120  -7.918  1.00 20.00     0.085 C 
HETATM    6  C6  UNL     1     -35.928  17.479  -7.242  1.00 20.00     0.084 C 
HETATM    7  C7  UNL     1     -34.580  14.983  -5.804  1.00 20.00     0.130 C 
HETATM    8  C8  UNL     1     -34.512  16.357  -5.120  1.00 20.00     0.068 C 
HETATM    9  O9  UNL     1     -35.166  12.858  -4.752  1.00 20.00    -0.297 OA
HETATM   10  S10 UNL     1     -36.146  14.759  -6.727  1.00 20.00    -0.155 SA
HETATM   11  S11 UNL     1     -34.378  17.728  -6.330  1.00 20.00    -0.162 SA
ENDROOT
TORSDOF 0
ENDMDL
MODEL 5
REMARK VINA RESULT:      -4.0      2.702      4.182
REMARK  0 active torsions:
REMARK  status: ('A' for Active; 'I' for Inactive)
ROOT
HETATM    1  C1  UNL     1     -33.920  17.939  -3.931  1.00 20.00     0.141 C 
HETATM    2  C2  UNL     1     -34.153  18.263  -2.471  1.00 20.00     0.079 C 
HETATM    3  C3  UNL     1     -33.865  17.048  -1.609  1.00 20.00     0.008 C 
HETATM    4  C4  UNL     1     -34.681  15.843  -2.066  1.00 20.00     0.017 C 
HETATM    5  C5  UNL     1     -35.091  14.934  -6.574  1.00 20.00     0.085 C 
HETATM    6  C6  UNL     1     -34.837  13.750  -5.657  1.00 20.00     0.084 C 
HETATM    7  C7  UNL     1     -34.630  16.690  -4.463  1.00 20.00     0.130 C 
HETATM    8  C8  UNL     1     -34.376  15.494  -3.532  1.00 20.00     0.068 C 
HETATM    9  O9  UNL     1     -33.277  18.715  -4.637  1.00 20.00    -0.297 OA
HETATM   10  S10 UNL     1     -34.048  16.362  -6.167  1.00 20.00    -0.155 SA
HETATM   11  S11 UNL     1     -35.417  14.048  -3.963  1.00 20.00    -0.162 SA
ENDROOT
TORSDOF 0
ENDMDL
MODEL 6
REMARK VINA RESULT:      -4.0      2.076      2.409
REMARK  0 active torsions:
REMARK  status: ('A' for Active; 'I' for Inactive)
ROOT
HETATM    1  C1  UNL     1     -34.682  14.564  -6.191  1.00 20.00     0.141 C 
HETATM    2  C2  UNL     1     -34.637  13.333  -5.312  1.00 20.00     0.079 C 
HETATM    3  C3  UNL     1     -35.268  13.626  -3.963  1.00 20.00     0.008 C 
HETATM    4  C4  UNL     1     -34.611  14.831  -3.298  1.00 20.00     0.017 C 
HETATM    5  C5  UNL     1     -33.637  18.581  -5.808  1.00 20.00     0.085 C 
HETATM    6  C6  UNL     1     -34.239  18.815  -4.433  1.00 20.00     0.084 C 
HETATM    7  C7  UNL     1     -34.123  15.850  -5.576  1.00 20.00     0.130 C 
HETATM    8  C8  UNL     1     -34.729  16.083  -4.183  1.00 20.00     0.068 C 
HETATM    9  O9  UNL     1     -35.057  14.469  -7.360  1.00 20.00    -0.297 OA
HETATM   10  S10 UNL     1     -34.468  17.244  -6.711  1.00 20.00    -0.155 SA
HETATM   11  S11 UNL     1     -33.898  17.450  -3.286  1.00 20.00    -0.162 SA
ENDROOT
TORSDOF 0
ENDMDL
MODEL 7
REMARK VINA RESULT:      -4.0      2.628      3.104
REMARK  0 active torsions:
REMARK  status: ('A' for Active; 'I' for Inactive)
ROOT
HETATM    1  C1  UNL     1     -34.067  15.484  -3.710  1.00 20.00     0.141 C 
HETATM    2  C2  UNL     1     -34.594  14.076  -3.546  1.00 20.00     0.079 C 
HETATM    3  C3  UNL     1     -34.418  13.293  -4.835  1.00 20.00     0.008 C 
HETATM    4  C4  UNL     1     -35.068  14.016  -6.011  1.00 20.00     0.017 C 
HETATM    5  C5  UNL     1     -34.550  18.582  -6.458  1.00 20.00     0.085 C 
HETATM    6  C6  UNL     1     -34.419  17.751  -7.723  1.00 20.00     0.084 C 
HETATM    7  C7  UNL     1     -34.597  16.264  -4.918  1.00 20.00     0.130 C 
HETATM    8  C8  UNL     1     -34.467  15.420  -6.196  1.00 20.00     0.068 C 
HETATM    9  O9  UNL     1     -33.339  15.972  -2.845  1.00 20.00    -0.297 OA
HETATM   10  S10 UNL     1     -33.679  17.843  -5.049  1.00 20.00    -0.155 SA
HETATM   11  S11 UNL     1     -35.331  16.185  -7.621  1.00 20.00    -0.162 SA
ENDROOT
TORSDOF 0
ENDMDL
MODEL 8
REMARK VINA RESULT:      -3.9      1.753      1.911
REMARK  0 active torsions:
REMARK  status: ('A' for Active; 'I' for Inactive)
ROOT
HETATM    1  C1  UNL     1     -35.776  15.333  -5.708  1.00 20.00     0.141 C 
HETATM    2  C2  UNL     1     -34.946  14.083  -5.909  1.00 20.00     0.079 C 
HETATM    3  C3  UNL     1     -34.881  13.282  -4.622  1.00 20.00     0.008 C 
HETATM    4  C4  UNL     1     -34.364  14.135  -3.468  1.00 20.00     0.017 C 
HETATM    5  C5  UNL     1     -35.897  18.459  -2.953  1.00 20.00     0.085 C 
HETATM    6  C6  UNL     1     -35.778  17.620  -1.692  1.00 20.00     0.084 C 
HETATM    7  C7  UNL     1     -35.386  16.213  -4.516  1.00 20.00     0.130 C 
HETATM    8  C8  UNL     1     -35.262  15.363  -3.243  1.00 20.00     0.068 C 
HETATM    9  O9  UNL     1     -36.633  15.639  -6.536  1.00 20.00    -0.297 OA
HETATM   10  S10 UNL     1     -36.636  17.539  -4.331  1.00 20.00    -0.155 SA
HETATM   11  S11 UNL     1     -34.535  16.306  -1.849  1.00 20.00    -0.162 SA
ENDROOT
TORSDOF 0
ENDMDL
MODEL 9
REMARK VINA RESULT:      -3.9      1.634      2.767
REMARK  0 active torsions:
REMARK  status: ('A' for Active; 'I' for Inactive)
ROOT
HETATM    1  C1  UNL     1     -33.376  15.132  -3.896  1.00 20.00     0.141 C 
HETATM    2  C2  UNL     1     -33.699  13.656  -3.807  1.00 20.00     0.079 C 
HETATM    3  C3  UNL     1     -34.986  13.353  -4.553  1.00 20.00     0.008 C 
HETATM    4  C4  UNL     1     -36.133  14.222  -4.048  1.00 20.00     0.017 C 
HETATM    5  C5  UNL     1     -35.412  18.708  -3.224  1.00 20.00     0.085 C 
HETATM    6  C6  UNL     1     -36.702  18.341  -3.937  1.00 20.00     0.084 C 
HETATM    7  C7  UNL     1     -34.500  16.091  -3.491  1.00 20.00     0.130 C 
HETATM    8  C8  UNL     1     -35.806  15.716  -4.210  1.00 20.00     0.068 C 
HETATM    9  O9  UNL     1     -32.234  15.494  -4.180  1.00 20.00    -0.297 OA
HETATM   10  S10 UNL     1     -33.979  17.804  -3.874  1.00 20.00    -0.155 SA
HETATM   11  S11 UNL     1     -37.245  16.650  -3.562  1.00 20.00    -0.162 SA
ENDROOT
TORSDOF 0
ENDMDL
