MODEL 1
REMARK VINA RESULT:      -4.4      0.000      0.000
REMARK  0 active torsions:
REMARK  status: ('A' for Active; 'I' for Inactive)
ROOT
HETATM    1  C1  UNL     1     -35.952  14.203  -4.002  1.00 20.00     0.411 C 
HETATM    2  C2  UNL     1     -33.754  13.915  -4.302  1.00 20.00     0.368 C 
HETATM    3  C3  UNL     1     -34.042  15.385  -4.168  1.00 20.00     0.199 C 
HETATM    4  C4  UNL     1     -33.328  16.234  -5.205  1.00 20.00     0.070 C 
HETATM    5  O5  UNL     1     -37.141  13.949  -3.874  1.00 20.00    -0.229 OA
HETATM    6  O6  UNL     1     -34.937  13.306  -3.804  1.00 20.00    -0.257 OA
HETATM    7  O7  UNL     1     -35.452  15.428  -4.359  1.00 20.00    -0.265 OA
HETATM    8  F8  UNL     1     -32.709  13.521  -3.539  1.00 20.00    -0.214 F 
HETATM    9 CL9  UNL     1     -33.664  16.003  -2.531  1.00 20.00    -0.082 Cl
ENDROOT
TORSDOF 0
ENDMDL
MODEL 2
REMARK VINA RESULT:      -4.2      1.912      1.974
REMARK  0 active torsions:
REMARK  status: ('A' for Active; 'I' for Inactive)
ROOT
HETATM    1  C1  UNL     1     -34.475  13.633  -4.524  1.00 20.00     0.411 C 
HETATM    2  C2  UNL     1     -33.495  15.289  -3.382  1.00 20.00     0.368 C 
HETATM    3  C3  UNL     1     -34.211  15.869  -4.571  1.00 20.00     0.199 C 
HETATM    4  C4  UNL     1     -33.384  16.891  -5.331  1.00 20.00     0.070 C 
HETATM    5  O5  UNL     1     -34.830  12.509  -4.847  1.00 20.00    -0.229 OA
HETATM    6  O6  UNL     1     -34.055  13.988  -3.271  1.00 20.00    -0.257 OA
HETATM    7  O7  UNL     1     -34.447  14.713  -5.368  1.00 20.00    -0.265 OA
HETATM    8  F8  UNL     1     -33.749  15.971  -2.243  1.00 20.00    -0.214 F 
HETATM    9 CL9  UNL     1     -35.787  16.592  -4.126  1.00 20.00    -0.082 Cl
ENDROOT
TORSDOF 0
ENDMDL
MODEL 3
REMARK VINA RESULT:      -4.2      2.180      2.724
REMARK  0 active torsions:
REMARK  status: ('A' for Active; 'I' for Inactive)
ROOT
HETATM    1  C1  UNL     1     -35.086  13.710  -4.159  1.00 20.00     0.411 C 
HETATM    2  C2  UNL     1     -36.001  15.705  -3.725  1.00 20.00     0.368 C 
HETATM    3  C3  UNL     1     -34.627  15.654  -3.117  1.00 20.00     0.199 C 
HETATM    4  C4  UNL     1     -34.577  16.187  -1.697  1.00 20.00     0.070 C 
HETATM    5  O5  UNL     1     -34.954  12.569  -4.578  1.00 20.00    -0.229 OA
HETATM    6  O6  UNL     1     -35.993  14.617  -4.638  1.00 20.00    -0.257 OA
HETATM    7  O7  UNL     1     -34.342  14.259  -3.147  1.00 20.00    -0.265 OA
HETATM    8  F8  UNL     1     -36.220  16.848  -4.413  1.00 20.00    -0.214 F 
HETATM    9 CL9  UNL     1     -33.412  16.508  -4.117  1.00 20.00    -0.082 Cl
ENDROOT
TORSDOF 0
ENDMDL
MODEL 4
REMARK VINA RESULT:      -4.1     11.724     12.259
REMARK  0 active torsions:
REMARK  status: ('A' for Active; 'I' for Inactive)
ROOT
HETATM    1  C1  UNL     1     -41.574   4.422  -1.854  1.00 20.00     0.411 C 
HETATM    2  C2  UNL     1     -40.835   6.166  -0.662  1.00 20.00     0.368 C 
HETATM    3  C3  UNL     1     -42.336   6.112  -0.575  1.00 20.00     0.199 C 
HETATM    4  C4  UNL     1     -42.998   7.464  -0.771  1.00 20.00     0.070 C 
HETATM    5  O5  UNL     1     -41.571   3.433  -2.573  1.00 20.00    -0.229 OA
HETATM    6  O6  UNL     1     -40.493   4.875  -1.147  1.00 20.00    -0.257 OA
HETATM    7  O7  UNL     1     -42.662   5.226  -1.641  1.00 20.00    -0.265 OA
HETATM    8  F8  UNL     1     -40.253   6.346   0.545  1.00 20.00    -0.214 F 
HETATM    9 CL9  UNL     1     -42.899   5.391   0.964  1.00 20.00    -0.082 Cl
ENDROOT
TORSDOF 0
ENDMDL
MODEL 5
REMARK VINA RESULT:      -4.1      1.405      1.405
REMARK  0 active torsions:
REMARK  status: ('A' for Active; 'I' for Inactive)
ROOT
HETATM    1  C1  UNL     1     -36.503  14.231  -4.253  1.00 20.00     0.411 C 
HETATM    2  C2  UNL     1     -34.640  13.283  -5.051  1.00 20.00     0.368 C 
HETATM    3  C3  UNL     1     -34.668  14.731  -5.459  1.00 20.00     0.199 C 
HETATM    4  C4  UNL     1     -34.301  14.952  -6.916  1.00 20.00     0.070 C 
HETATM    5  O5  UNL     1     -37.575  14.361  -3.680  1.00 20.00    -0.229 OA
HETATM    6  O6  UNL     1     -35.611  13.220  -4.016  1.00 20.00    -0.257 OA
HETATM    7  O7  UNL     1     -36.027  15.080  -5.217  1.00 20.00    -0.265 OA
HETATM    8  F8  UNL     1     -33.442  12.911  -4.547  1.00 20.00    -0.214 F 
HETATM    9 CL9  UNL     1     -33.621  15.746  -4.421  1.00 20.00    -0.082 Cl
ENDROOT
TORSDOF 0
ENDMDL
MODEL 6
REMARK VINA RESULT:      -4.0      1.842      1.985
REMARK  0 active torsions:
REMARK  status: ('A' for Active; 'I' for Inactive)
ROOT
HETATM    1  C1  UNL     1     -36.611  14.550  -4.075  1.00 20.00     0.411 C 
HETATM    2  C2  UNL     1     -34.929  15.390  -5.290  1.00 20.00     0.368 C 
HETATM    3  C3  UNL     1     -34.436  15.111  -3.897  1.00 20.00     0.199 C 
HETATM    4  C4  UNL     1     -33.608  16.242  -3.314  1.00 20.00     0.070 C 
HETATM    5  O5  UNL     1     -37.725  14.151  -3.771  1.00 20.00    -0.229 OA
HETATM    6  O6  UNL     1     -36.142  14.654  -5.358  1.00 20.00    -0.257 OA
HETATM    7  O7  UNL     1     -35.656  14.951  -3.178  1.00 20.00    -0.265 OA
HETATM    8  F8  UNL     1     -34.086  14.927  -6.240  1.00 20.00    -0.214 F 
HETATM    9 CL9  UNL     1     -33.508  13.583  -3.801  1.00 20.00    -0.082 Cl
ENDROOT
TORSDOF 0
ENDMDL
MODEL 7
REMARK VINA RESULT:      -4.0      1.757      2.118
REMARK  0 active torsions:
REMARK  status: ('A' for Active; 'I' for Inactive)
ROOT
HETATM    1  C1  UNL     1     -34.935  13.778  -4.213  1.00 20.00     0.411 C 
HETATM    2  C2  UNL     1     -34.127  15.847  -4.486  1.00 20.00     0.368 C 
HETATM    3  C3  UNL     1     -35.265  15.890  -3.503  1.00 20.00     0.199 C 
HETATM    4  C4  UNL     1     -36.238  17.027  -3.760  1.00 20.00     0.070 C 
HETATM    5  O5  UNL     1     -35.080  12.571  -4.342  1.00 20.00    -0.229 OA
HETATM    6  O6  UNL     1     -33.797  14.466  -4.538  1.00 20.00    -0.257 OA
HETATM    7  O7  UNL     1     -35.889  14.628  -3.717  1.00 20.00    -0.265 OA
HETATM    8  F8  UNL     1     -33.046  16.536  -4.056  1.00 20.00    -0.214 F 
HETATM    9 CL9  UNL     1     -34.693  15.967  -1.808  1.00 20.00    -0.082 Cl
ENDROOT
TORSDOF 0
ENDMDL
MODEL 8
REMARK VINA RESULT:      -3.8      2.516      3.245
REMARK  0 active torsions:
REMARK  status: ('A' for Active; 'I' for Inactive)
ROOT
HETATM    1  C1  UNL     1     -33.526  17.214  -4.851  1.00 20.00     0.411 C 
HETATM    2  C2  UNL     1     -32.976  15.537  -3.476  1.00 20.00     0.368 C 
HETATM    3  C3  UNL     1     -34.362  16.014  -3.139  1.00 20.00     0.199 C 
HETATM    4  C4  UNL     1     -34.593  16.185  -1.648  1.00 20.00     0.070 C 
HETATM    5  O5  UNL     1     -33.443  18.052  -5.738  1.00 20.00    -0.229 OA
HETATM    6  O6  UNL     1     -32.747  16.092  -4.763  1.00 20.00    -0.257 OA
HETATM    7  O7  UNL     1     -34.415  17.269  -3.810  1.00 20.00    -0.265 OA
HETATM    8  F8  UNL     1     -32.899  14.190  -3.562  1.00 20.00    -0.214 F 
HETATM    9 CL9  UNL     1     -35.629  14.946  -3.818  1.00 20.00    -0.082 Cl
ENDROOT
TORSDOF 0
ENDMDL
MODEL 9
REMARK VINA RESULT:      -3.8      2.675      2.933
REMARK  0 active torsions:
REMARK  status: ('A' for Active; 'I' for Inactive)
ROOT
HETATM    1  C1  UNL     1     -35.066  13.734  -4.629  1.00 20.00     0.411 C 
HETATM    2  C2  UNL     1     -35.689  15.856  -4.972  1.00 20.00     0.368 C 
HETATM    3  C3  UNL     1     -34.300  15.659  -5.513  1.00 20.00     0.199 C 
HETATM    4  C4  UNL     1     -33.342  16.773  -5.130  1.00 20.00     0.070 C 
HETATM    5  O5  UNL     1     -35.102  12.566  -4.269  1.00 20.00    -0.229 OA
HETATM    6  O6  UNL     1     -36.167  14.527  -4.815  1.00 20.00    -0.257 OA
HETATM    7  O7  UNL     1     -33.918  14.428  -4.906  1.00 20.00    -0.265 OA
HETATM    8  F8  UNL     1     -36.495  16.507  -5.841  1.00 20.00    -0.214 F 
HETATM    9 CL9  UNL     1     -34.289  15.450  -7.291  1.00 20.00    -0.082 Cl
ENDROOT
TORSDOF 0
ENDMDL
