MODEL 1
REMARK VINA RESULT:      -4.8      0.000      0.000
REMARK  1 active torsions:
REMARK  status: ('A' for Active; 'I' for Inactive)
REMARK    1  A    between atoms: C4_4  and  O11_11 
ROOT
HETATM    1  C1  UNL     1     -42.287   6.938  -1.562  1.00 20.00    -0.021 C 
HETATM    2  C2  UNL     1     -41.155   7.109  -0.860  1.00 20.00    -0.025 C 
HETATM    3  C3  UNL     1     -41.869   4.529  -1.740  1.00 20.00    -0.043 C 
HETATM    4  C4  UNL     1     -42.118   3.622  -2.688  1.00 20.00     0.045 C 
HETATM    5  C5  UNL     1     -40.571   4.685  -0.955  1.00 20.00     0.046 C 
HETATM    6  C6  UNL     1     -42.422   5.540   0.272  1.00 20.00     0.022 C 
HETATM    7  C7  UNL     1     -42.832   5.573  -1.205  1.00 20.00     0.040 C 
HETATM    8  C8  UNL     1     -40.952   5.861  -0.023  1.00 20.00     0.013 C 
HETATM    9  C9  UNL     1     -43.417   3.524  -3.422  1.00 20.00     0.076 C 
ENDROOT
BRANCH   4  10
HETATM   10  O11 UNL     1     -41.150   2.701  -3.042  1.00 20.00    -0.360 OA
HETATM   11  C10 UNL     1     -41.673   1.629  -3.786  1.00 20.00     0.209 C 
ENDBRANCH   4  10
TORSDOF 1
ENDMDL
MODEL 2
REMARK VINA RESULT:      -4.4     12.467     13.691
REMARK  1 active torsions:
REMARK  status: ('A' for Active; 'I' for Inactive)
REMARK    1  A    between atoms: C4_4  and  O11_11 
ROOT
HETATM    1  C1  UNL     1     -35.465  14.678  -3.433  1.00 20.00    -0.021 C 
HETATM    2  C2  UNL     1     -34.656  15.482  -2.724  1.00 20.00    -0.025 C 
HETATM    3  C3  UNL     1     -34.275  15.231  -5.505  1.00 20.00    -0.043 C 
HETATM    4  C4  UNL     1     -34.661  15.370  -6.776  1.00 20.00     0.045 C 
HETATM    5  C5  UNL     1     -33.344  16.160  -4.734  1.00 20.00     0.046 C 
HETATM    6  C6  UNL     1     -33.305  13.961  -3.824  1.00 20.00     0.022 C 
HETATM    7  C7  UNL     1     -34.642  14.099  -4.561  1.00 20.00     0.040 C 
HETATM    8  C8  UNL     1     -33.287  15.426  -3.372  1.00 20.00     0.013 C 
HETATM    9  C9  UNL     1     -35.581  14.419  -7.473  1.00 20.00     0.076 C 
ENDROOT
BRANCH   4  10
HETATM   10  O11 UNL     1     -34.208  16.438  -7.527  1.00 20.00    -0.360 OA
HETATM   11  C10 UNL     1     -35.244  17.312  -7.901  1.00 20.00     0.209 C 
ENDBRANCH   4  10
TORSDOF 1
ENDMDL
MODEL 3
REMARK VINA RESULT:      -4.4     12.131     13.386
REMARK  1 active torsions:
REMARK  status: ('A' for Active; 'I' for Inactive)
REMARK    1  A    between atoms: C4_4  and  O11_11 
ROOT
HETATM    1  C1  UNL     1     -32.718  15.229  -3.819  1.00 20.00    -0.021 C 
HETATM    2  C2  UNL     1     -32.868  13.942  -3.466  1.00 20.00    -0.025 C 
HETATM    3  C3  UNL     1     -34.489  15.021  -5.502  1.00 20.00    -0.043 C 
HETATM    4  C4  UNL     1     -34.681  15.570  -6.705  1.00 20.00     0.045 C 
HETATM    5  C5  UNL     1     -34.681  13.554  -5.135  1.00 20.00     0.046 C 
HETATM    6  C6  UNL     1     -34.934  14.954  -3.227  1.00 20.00     0.022 C 
HETATM    7  C7  UNL     1     -34.081  15.741  -4.229  1.00 20.00     0.040 C 
HETATM    8  C8  UNL     1     -34.336  13.600  -3.627  1.00 20.00     0.013 C 
HETATM    9  C9  UNL     1     -34.473  17.022  -6.998  1.00 20.00     0.076 C 
ENDROOT
BRANCH   4  10
HETATM   10  O11 UNL     1     -35.097  14.790  -7.767  1.00 20.00    -0.360 OA
HETATM   11  C10 UNL     1     -36.495  14.787  -7.918  1.00 20.00     0.209 C 
ENDBRANCH   4  10
TORSDOF 1
ENDMDL
MODEL 4
REMARK VINA RESULT:      -4.3     12.332     14.065
REMARK  1 active torsions:
REMARK  status: ('A' for Active; 'I' for Inactive)
REMARK    1  A    between atoms: C4_4  and  O11_11 
ROOT
HETATM    1  C1  UNL     1     -34.635  13.580  -3.795  1.00 20.00    -0.021 C 
HETATM    2  C2  UNL     1     -34.454  13.705  -5.120  1.00 20.00    -0.025 C 
HETATM    3  C3  UNL     1     -34.675  16.016  -3.523  1.00 20.00    -0.043 C 
HETATM    4  C4  UNL     1     -34.259  16.839  -2.557  1.00 20.00     0.045 C 
HETATM    5  C5  UNL     1     -34.460  16.198  -5.021  1.00 20.00     0.046 C 
HETATM    6  C6  UNL     1     -36.383  14.865  -4.588  1.00 20.00     0.022 C 
HETATM    7  C7  UNL     1     -35.488  14.746  -3.349  1.00 20.00     0.040 C 
HETATM    8  C8  UNL     1     -35.200  14.949  -5.560  1.00 20.00     0.013 C 
HETATM    9  C9  UNL     1     -34.503  16.599  -1.101  1.00 20.00     0.076 C 
ENDROOT
BRANCH   4  10
HETATM   10  O11 UNL     1     -33.560  17.988  -2.874  1.00 20.00    -0.360 OA
HETATM   11  C10 UNL     1     -33.476  18.883  -1.792  1.00 20.00     0.209 C 
ENDBRANCH   4  10
TORSDOF 1
ENDMDL
MODEL 5
REMARK VINA RESULT:      -4.3     12.897     14.762
REMARK  1 active torsions:
REMARK  status: ('A' for Active; 'I' for Inactive)
REMARK    1  A    between atoms: C4_4  and  O11_11 
ROOT
HETATM    1  C1  UNL     1     -32.776  18.757  -0.937  1.00 20.00    -0.021 C 
HETATM    2  C2  UNL     1     -33.272  18.456   0.274  1.00 20.00    -0.025 C 
HETATM    3  C3  UNL     1     -34.127  16.995  -1.978  1.00 20.00    -0.043 C 
HETATM    4  C4  UNL     1     -33.923  16.170  -3.009  1.00 20.00     0.045 C 
HETATM    5  C5  UNL     1     -34.704  16.619  -0.619  1.00 20.00     0.046 C 
HETATM    6  C6  UNL     1     -35.075  18.920  -1.099  1.00 20.00     0.022 C 
HETATM    7  C7  UNL     1     -33.871  18.491  -1.946  1.00 20.00     0.040 C 
HETATM    8  C8  UNL     1     -34.705  18.004   0.073  1.00 20.00     0.013 C 
HETATM    9  C9  UNL     1     -33.350  16.607  -4.320  1.00 20.00     0.076 C 
ENDROOT
BRANCH   4  10
HETATM   10  O11 UNL     1     -34.246  14.831  -2.903  1.00 20.00    -0.360 OA
HETATM   11  C10 UNL     1     -33.548  14.034  -3.828  1.00 20.00     0.209 C 
ENDBRANCH   4  10
TORSDOF 1
ENDMDL
MODEL 6
REMARK VINA RESULT:      -4.3     12.263     14.046
REMARK  1 active torsions:
REMARK  status: ('A' for Active; 'I' for Inactive)
REMARK    1  A    between atoms: C4_4  and  O11_11 
ROOT
HETATM    1  C1  UNL     1     -32.894  14.821  -3.513  1.00 20.00    -0.021 C 
HETATM    2  C2  UNL     1     -33.297  13.564  -3.761  1.00 20.00    -0.025 C 
HETATM    3  C3  UNL     1     -34.298  15.679  -5.332  1.00 20.00    -0.043 C 
HETATM    4  C4  UNL     1     -34.161  16.683  -6.201  1.00 20.00     0.045 C 
HETATM    5  C5  UNL     1     -34.770  14.265  -5.649  1.00 20.00     0.046 C 
HETATM    6  C6  UNL     1     -35.200  14.821  -3.375  1.00 20.00     0.022 C 
HETATM    7  C7  UNL     1     -34.057  15.733  -3.833  1.00 20.00     0.040 C 
HETATM    8  C8  UNL     1     -34.735  13.638  -4.234  1.00 20.00     0.013 C 
HETATM    9  C9  UNL     1     -33.690  18.052  -5.821  1.00 20.00     0.076 C 
ENDROOT
BRANCH   4  10
HETATM   10  O11 UNL     1     -34.461  16.493  -7.537  1.00 20.00    -0.360 OA
HETATM   11  C10 UNL     1     -35.653  17.135  -7.917  1.00 20.00     0.209 C 
ENDBRANCH   4  10
TORSDOF 1
ENDMDL
MODEL 7
REMARK VINA RESULT:      -4.2     12.667     14.259
REMARK  1 active torsions:
REMARK  status: ('A' for Active; 'I' for Inactive)
REMARK    1  A    between atoms: C4_4  and  O11_11 
ROOT
HETATM    1  C1  UNL     1     -33.444  16.063  -4.690  1.00 20.00    -0.021 C 
HETATM    2  C2  UNL     1     -34.505  15.456  -5.247  1.00 20.00    -0.025 C 
HETATM    3  C3  UNL     1     -34.583  16.170  -2.522  1.00 20.00    -0.043 C 
HETATM    4  C4  UNL     1     -34.575  17.058  -1.524  1.00 20.00     0.045 C 
HETATM    5  C5  UNL     1     -35.811  15.493  -3.121  1.00 20.00     0.046 C 
HETATM    6  C6  UNL     1     -33.860  14.166  -3.438  1.00 20.00     0.022 C 
HETATM    7  C7  UNL     1     -33.375  15.608  -3.250  1.00 20.00     0.040 C 
HETATM    8  C8  UNL     1     -35.136  14.585  -4.178  1.00 20.00     0.013 C 
HETATM    9  C9  UNL     1     -33.330  17.687  -0.983  1.00 20.00     0.076 C 
ENDROOT
BRANCH   4  10
HETATM   10  O11 UNL     1     -35.760  17.445  -0.927  1.00 20.00    -0.360 OA
HETATM   11  C10 UNL     1     -35.583  17.848   0.409  1.00 20.00     0.209 C 
ENDBRANCH   4  10
TORSDOF 1
ENDMDL
MODEL 8
REMARK VINA RESULT:      -4.2     11.103     13.024
REMARK  1 active torsions:
REMARK  status: ('A' for Active; 'I' for Inactive)
REMARK    1  A    between atoms: C4_4  and  O11_11 
ROOT
HETATM    1  C1  UNL     1     -34.121  17.077  -4.477  1.00 20.00    -0.021 C 
HETATM    2  C2  UNL     1     -33.267  16.051  -4.626  1.00 20.00    -0.025 C 
HETATM    3  C3  UNL     1     -35.794  15.598  -3.464  1.00 20.00    -0.043 C 
HETATM    4  C4  UNL     1     -37.129  15.566  -3.495  1.00 20.00     0.045 C 
HETATM    5  C5  UNL     1     -34.856  14.408  -3.627  1.00 20.00     0.046 C 
HETATM    6  C6  UNL     1     -33.819  16.151  -2.382  1.00 20.00     0.022 C 
HETATM    7  C7  UNL     1     -34.919  16.814  -3.219  1.00 20.00     0.040 C 
HETATM    8  C8  UNL     1     -33.487  15.110  -3.458  1.00 20.00     0.013 C 
HETATM    9  C9  UNL     1     -37.992  16.777  -3.329  1.00 20.00     0.076 C 
ENDROOT
BRANCH   4  10
HETATM   10  O11 UNL     1     -37.792  14.369  -3.686  1.00 20.00    -0.360 OA
HETATM   11  C10 UNL     1     -39.060  14.543  -4.270  1.00 20.00     0.209 C 
ENDBRANCH   4  10
TORSDOF 1
ENDMDL
MODEL 9
REMARK VINA RESULT:      -4.2     11.394     13.169
REMARK  1 active torsions:
REMARK  status: ('A' for Active; 'I' for Inactive)
REMARK    1  A    between atoms: C4_4  and  O11_11 
ROOT
HETATM    1  C1  UNL     1     -35.310  18.031  -2.831  1.00 20.00    -0.021 C 
HETATM    2  C2  UNL     1     -33.982  18.104  -2.648  1.00 20.00    -0.025 C 
HETATM    3  C3  UNL     1     -35.197  15.589  -3.020  1.00 20.00    -0.043 C 
HETATM    4  C4  UNL     1     -35.879  14.691  -3.736  1.00 20.00     0.045 C 
HETATM    5  C5  UNL     1     -33.686  15.633  -2.826  1.00 20.00     0.046 C 
HETATM    6  C6  UNL     1     -34.813  16.691  -1.016  1.00 20.00     0.022 C 
HETATM    7  C7  UNL     1     -35.776  16.734  -2.208  1.00 20.00     0.040 C 
HETATM    8  C8  UNL     1     -33.564  16.860  -1.890  1.00 20.00     0.013 C 
HETATM    9  C9  UNL     1     -37.368  14.707  -3.886  1.00 20.00     0.076 C 
ENDROOT
BRANCH   4  10
HETATM   10  O11 UNL     1     -35.213  13.673  -4.391  1.00 20.00    -0.360 OA
HETATM   11  C10 UNL     1     -35.041  13.936  -5.761  1.00 20.00     0.209 C 
ENDBRANCH   4  10
TORSDOF 1
ENDMDL
