MODEL 1
REMARK VINA RESULT:      -4.0      0.000      0.000
REMARK  0 active torsions:
REMARK  status: ('A' for Active; 'I' for Inactive)
ROOT
HETATM    1  C1  UNL     1     -34.388   6.126   6.078  1.00 20.00     0.080 A 
HETATM    2  C2  UNL     1     -34.111   4.695   5.736  1.00 20.00     0.207 A 
HETATM    3  C3  UNL     1     -34.325   5.691   4.634  1.00 20.00     0.128 A 
HETATM    4  F4  UNL     1     -35.112   3.776   6.001  1.00 20.00    -0.246 F 
HETATM    5 CL5  UNL     1     -35.832   5.627   3.726  1.00 20.00    -0.103 Cl
HETATM    6 BR6  UNL     1     -32.801   6.224   3.607  1.00 20.00    -0.065 Br
ENDROOT
TORSDOF 0
ENDMDL
MODEL 2
REMARK VINA RESULT:      -4.0      2.932      3.136
REMARK  0 active torsions:
REMARK  status: ('A' for Active; 'I' for Inactive)
ROOT
HETATM    1  C1  UNL     1     -34.615   6.474   3.879  1.00 20.00     0.080 A 
HETATM    2  C2  UNL     1     -33.232   5.909   3.966  1.00 20.00     0.207 A 
HETATM    3  C3  UNL     1     -34.132   5.850   5.166  1.00 20.00     0.128 A 
HETATM    4  F4  UNL     1     -32.180   6.809   3.974  1.00 20.00    -0.246 F 
HETATM    5 CL5  UNL     1     -33.793   6.918   6.524  1.00 20.00    -0.103 Cl
HETATM    6 BR6  UNL     1     -34.852   4.146   5.656  1.00 20.00    -0.065 Br
ENDROOT
TORSDOF 0
ENDMDL
MODEL 3
REMARK VINA RESULT:      -3.6      2.279      2.615
REMARK  0 active torsions:
REMARK  status: ('A' for Active; 'I' for Inactive)
ROOT
HETATM    1  C1  UNL     1     -33.456   5.693   3.850  1.00 20.00     0.080 A 
HETATM    2  C2  UNL     1     -34.850   6.235   3.894  1.00 20.00     0.207 A 
HETATM    3  C3  UNL     1     -34.252   5.631   5.131  1.00 20.00     0.128 A 
HETATM    4  F4  UNL     1     -35.827   5.524   3.218  1.00 20.00    -0.246 F 
HETATM    5 CL5  UNL     1     -34.835   4.058   5.664  1.00 20.00    -0.103 Cl
HETATM    6 BR6  UNL     1     -33.754   6.816   6.549  1.00 20.00    -0.065 Br
ENDROOT
TORSDOF 0
ENDMDL
MODEL 4
REMARK VINA RESULT:      -3.6      2.388      2.539
REMARK  0 active torsions:
REMARK  status: ('A' for Active; 'I' for Inactive)
ROOT
HETATM    1  C1  UNL     1     -33.944   4.833   6.014  1.00 20.00     0.080 A 
HETATM    2  C2  UNL     1     -34.294   6.269   6.245  1.00 20.00     0.207 A 
HETATM    3  C3  UNL     1     -34.106   5.770   4.842  1.00 20.00     0.128 A 
HETATM    4  F4  UNL     1     -33.314   7.078   6.795  1.00 20.00    -0.246 F 
HETATM    5 CL5  UNL     1     -32.658   6.253   3.966  1.00 20.00    -0.103 Cl
HETATM    6 BR6  UNL     1     -35.666   5.573   3.751  1.00 20.00    -0.065 Br
ENDROOT
TORSDOF 0
ENDMDL
MODEL 5
REMARK VINA RESULT:      -3.2      1.977      2.258
REMARK  0 active torsions:
REMARK  status: ('A' for Active; 'I' for Inactive)
ROOT
HETATM    1  C1  UNL     1     -34.183   4.405   4.151  1.00 20.00     0.080 A 
HETATM    2  C2  UNL     1     -35.080   5.455   3.573  1.00 20.00     0.207 A 
HETATM    3  C3  UNL     1     -33.890   5.866   4.391  1.00 20.00     0.128 A 
HETATM    4  F4  UNL     1     -36.341   5.586   4.130  1.00 20.00    -0.246 F 
HETATM    5 CL5  UNL     1     -34.163   6.505   6.008  1.00 20.00    -0.103 Cl
HETATM    6 BR6  UNL     1     -32.402   6.641   3.471  1.00 20.00    -0.065 Br
ENDROOT
TORSDOF 0
ENDMDL
MODEL 6
REMARK VINA RESULT:      -3.2      2.027      2.155
REMARK  0 active torsions:
REMARK  status: ('A' for Active; 'I' for Inactive)
ROOT
HETATM    1  C1  UNL     1     -35.646   5.656   4.233  1.00 20.00     0.080 A 
HETATM    2  C2  UNL     1     -35.063   4.457   4.912  1.00 20.00     0.207 A 
HETATM    3  C3  UNL     1     -34.226   5.692   4.745  1.00 20.00     0.128 A 
HETATM    4  F4  UNL     1     -34.781   3.357   4.120  1.00 20.00    -0.246 F 
HETATM    5 CL5  UNL     1     -32.922   5.670   3.563  1.00 20.00    -0.103 Cl
HETATM    6 BR6  UNL     1     -33.868   6.741   6.305  1.00 20.00    -0.065 Br
ENDROOT
TORSDOF 0
ENDMDL
MODEL 7
REMARK VINA RESULT:      -3.1      1.810      1.984
REMARK  0 active torsions:
REMARK  status: ('A' for Active; 'I' for Inactive)
ROOT
HETATM    1  C1  UNL     1     -33.801   4.115   5.871  1.00 20.00     0.080 A 
HETATM    2  C2  UNL     1     -35.245   4.501   5.805  1.00 20.00     0.207 A 
HETATM    3  C3  UNL     1     -34.193   5.507   5.437  1.00 20.00     0.128 A 
HETATM    4  F4  UNL     1     -35.915   4.656   7.007  1.00 20.00    -0.246 F 
HETATM    5 CL5  UNL     1     -33.877   6.836   6.547  1.00 20.00    -0.103 Cl
HETATM    6 BR6  UNL     1     -33.996   5.953   3.587  1.00 20.00    -0.065 Br
ENDROOT
TORSDOF 0
ENDMDL
MODEL 8
REMARK VINA RESULT:      -3.1     12.706     12.964
REMARK  0 active torsions:
REMARK  status: ('A' for Active; 'I' for Inactive)
ROOT
HETATM    1  C1  UNL     1     -33.252  13.733  -3.751  1.00 20.00     0.080 A 
HETATM    2  C2  UNL     1     -34.473  13.719  -4.616  1.00 20.00     0.207 A 
HETATM    3  C3  UNL     1     -34.075  14.987  -3.918  1.00 20.00     0.128 A 
HETATM    4  F4  UNL     1     -35.573  13.024  -4.146  1.00 20.00    -0.246 F 
HETATM    5 CL5  UNL     1     -35.038  15.529  -2.548  1.00 20.00    -0.103 Cl
HETATM    6 BR6  UNL     1     -33.344  16.399  -4.984  1.00 20.00    -0.065 Br
ENDROOT
TORSDOF 0
ENDMDL
MODEL 9
REMARK VINA RESULT:      -3.0     13.157     13.405
REMARK  0 active torsions:
REMARK  status: ('A' for Active; 'I' for Inactive)
ROOT
HETATM    1  C1  UNL     1     -33.551  13.709  -3.898  1.00 20.00     0.080 A 
HETATM    2  C2  UNL     1     -34.708  14.511  -3.392  1.00 20.00     0.207 A 
HETATM    3  C3  UNL     1     -34.081  14.867  -4.708  1.00 20.00     0.128 A 
HETATM    4  F4  UNL     1     -34.478  15.337  -2.306  1.00 20.00    -0.246 F 
HETATM    5 CL5  UNL     1     -33.098  16.324  -4.803  1.00 20.00    -0.103 Cl
HETATM    6 BR6  UNL     1     -35.063  14.466  -6.301  1.00 20.00    -0.065 Br
ENDROOT
TORSDOF 0
ENDMDL
