MODEL 1
REMARK VINA RESULT:      -4.7      0.000      0.000
REMARK  2 active torsions:
REMARK  status: ('A' for Active; 'I' for Inactive)
REMARK    1  A    between atoms: C7_7  and  C9_9 
REMARK    2  A    between atoms: C8_8  and  C10_10 
ROOT
HETATM    1  C1  UNL     1     -32.530   9.924   1.418  1.00 20.00     0.012 C 
HETATM    2  C2  UNL     1     -32.329   8.822   1.851  1.00 20.00    -0.112 C 
HETATM    3  C6  UNL     1     -32.091   7.504   2.369  1.00 20.00     0.074 A 
HETATM    4  C9  UNL     1     -33.069   6.951   3.383  1.00 20.00     0.015 A 
HETATM    5  C10 UNL     1     -31.675   7.376   3.818  1.00 20.00     0.015 A 
ENDROOT
BRANCH   4   6
HETATM    6  C7  UNL     1     -33.155   5.487   3.836  1.00 20.00     0.014 C 
HETATM    7  C3  UNL     1     -34.096   5.298   5.009  1.00 20.00    -0.025 C 
HETATM    8  C4  UNL     1     -35.338   5.561   4.565  1.00 20.00    -0.025 C 
HETATM    9  C8  UNL     1     -35.219   5.924   3.098  1.00 20.00     0.014 C 
HETATM   10  C5  UNL     1     -34.093   4.928   2.744  1.00 20.00     0.018 C 
ENDBRANCH   4   6
TORSDOF 2
ENDMDL
MODEL 2
REMARK VINA RESULT:      -4.4     10.224     12.288
REMARK  2 active torsions:
REMARK  status: ('A' for Active; 'I' for Inactive)
REMARK    1  A    between atoms: C7_7  and  C9_9 
REMARK    2  A    between atoms: C8_8  and  C10_10 
ROOT
HETATM    1  C1  UNL     1     -34.740  16.590  -1.070  1.00 20.00     0.012 C 
HETATM    2  C2  UNL     1     -34.308  16.075  -2.066  1.00 20.00    -0.112 C 
HETATM    3  C6  UNL     1     -33.793  15.461  -3.256  1.00 20.00     0.074 A 
HETATM    4  C9  UNL     1     -34.755  15.201  -4.395  1.00 20.00     0.015 A 
HETATM    5  C10 UNL     1     -34.221  14.043  -3.565  1.00 20.00     0.015 A 
ENDROOT
BRANCH   4   6
HETATM    6  C7  UNL     1     -34.360  14.824  -5.830  1.00 20.00     0.014 C 
HETATM    7  C3  UNL     1     -35.558  14.449  -6.680  1.00 20.00    -0.025 C 
HETATM    8  C4  UNL     1     -36.293  15.564  -6.841  1.00 20.00    -0.025 C 
HETATM    9  C8  UNL     1     -35.581  16.678  -6.096  1.00 20.00     0.014 C 
HETATM   10  C5  UNL     1     -34.138  16.233  -6.421  1.00 20.00     0.018 C 
ENDBRANCH   4   6
TORSDOF 2
ENDMDL
MODEL 3
REMARK VINA RESULT:      -4.3     10.202     11.612
REMARK  2 active torsions:
REMARK  status: ('A' for Active; 'I' for Inactive)
REMARK    1  A    between atoms: C7_7  and  C9_9 
REMARK    2  A    between atoms: C8_8  and  C10_10 
ROOT
HETATM    1  C1  UNL     1     -32.833  18.503  -0.168  1.00 20.00     0.012 C 
HETATM    2  C2  UNL     1     -33.596  17.672  -0.582  1.00 20.00    -0.112 C 
HETATM    3  C6  UNL     1     -34.506  16.678  -1.077  1.00 20.00     0.074 A 
HETATM    4  C9  UNL     1     -34.549  16.435  -2.570  1.00 20.00     0.015 A 
HETATM    5  C10 UNL     1     -35.701  17.148  -1.879  1.00 20.00     0.015 A 
ENDROOT
BRANCH   4   6
HETATM    6  C7  UNL     1     -35.228  15.245  -3.262  1.00 20.00     0.014 C 
HETATM    7  C3  UNL     1     -35.370  15.449  -4.758  1.00 20.00    -0.025 C 
HETATM    8  C4  UNL     1     -34.129  15.444  -5.276  1.00 20.00    -0.025 C 
HETATM    9  C8  UNL     1     -33.165  15.238  -4.123  1.00 20.00     0.014 C 
HETATM   10  C5  UNL     1     -34.042  14.257  -3.314  1.00 20.00     0.018 C 
ENDBRANCH   4   6
TORSDOF 2
ENDMDL
MODEL 4
REMARK VINA RESULT:      -4.3     10.522     11.568
REMARK  2 active torsions:
REMARK  status: ('A' for Active; 'I' for Inactive)
REMARK    1  A    between atoms: C7_7  and  C9_9 
REMARK    2  A    between atoms: C8_8  and  C10_10 
ROOT
HETATM    1  C1  UNL     1     -35.482  17.482   1.847  1.00 20.00     0.012 C 
HETATM    2  C2  UNL     1     -35.095  17.715   0.735  1.00 20.00    -0.112 C 
HETATM    3  C6  UNL     1     -34.634  17.994  -0.596  1.00 20.00     0.074 A 
HETATM    4  C9  UNL     1     -34.077  16.846  -1.409  1.00 20.00     0.015 A 
HETATM    5  C10 UNL     1     -33.146  17.916  -0.861  1.00 20.00     0.015 A 
ENDROOT
BRANCH   4   6
HETATM    6  C7  UNL     1     -33.802  16.871  -2.919  1.00 20.00     0.014 C 
HETATM    7  C3  UNL     1     -33.292  15.541  -3.437  1.00 20.00    -0.025 C 
HETATM    8  C4  UNL     1     -34.300  14.658  -3.319  1.00 20.00    -0.025 C 
HETATM    9  C8  UNL     1     -35.478  15.405  -2.722  1.00 20.00     0.014 C 
HETATM   10  C5  UNL     1     -35.245  16.745  -3.453  1.00 20.00     0.018 C 
ENDBRANCH   4   6
TORSDOF 2
ENDMDL
MODEL 5
REMARK VINA RESULT:      -4.2     10.120     12.200
REMARK  2 active torsions:
REMARK  status: ('A' for Active; 'I' for Inactive)
REMARK    1  A    between atoms: C7_7  and  C9_9 
REMARK    2  A    between atoms: C8_8  and  C10_10 
ROOT
HETATM    1  C1  UNL     1     -37.468  15.143  -7.908  1.00 20.00     0.012 C 
HETATM    2  C2  UNL     1     -36.428  14.855  -7.380  1.00 20.00    -0.112 C 
HETATM    3  C6  UNL     1     -35.185  14.512  -6.748  1.00 20.00     0.074 A 
HETATM    4  C9  UNL     1     -34.814  15.234  -5.471  1.00 20.00     0.015 A 
HETATM    5  C10 UNL     1     -34.073  15.538  -6.765  1.00 20.00     0.015 A 
ENDROOT
BRANCH   4   6
HETATM    6  C7  UNL     1     -33.693  14.824  -4.506  1.00 20.00     0.014 C 
HETATM    7  C3  UNL     1     -33.476  15.842  -3.404  1.00 20.00    -0.025 C 
HETATM    8  C4  UNL     1     -34.576  15.827  -2.630  1.00 20.00    -0.025 C 
HETATM    9  C8  UNL     1     -35.522  14.798  -3.220  1.00 20.00     0.014 C 
HETATM   10  C5  UNL     1     -34.447  13.778  -3.656  1.00 20.00     0.018 C 
ENDBRANCH   4   6
TORSDOF 2
ENDMDL
MODEL 6
REMARK VINA RESULT:      -4.1      9.200     10.172
REMARK  2 active torsions:
REMARK  status: ('A' for Active; 'I' for Inactive)
REMARK    1  A    between atoms: C7_7  and  C9_9 
REMARK    2  A    between atoms: C8_8  and  C10_10 
ROOT
HETATM    1  C1  UNL     1     -43.184   8.192  -4.370  1.00 20.00     0.012 C 
HETATM    2  C2  UNL     1     -42.475   7.785  -3.490  1.00 20.00    -0.112 C 
HETATM    3  C6  UNL     1     -41.628   7.298  -2.438  1.00 20.00     0.074 A 
HETATM    4  C9  UNL     1     -42.244   6.395  -1.391  1.00 20.00     0.015 A 
HETATM    5  C10 UNL     1     -41.861   7.824  -1.039  1.00 20.00     0.015 A 
ENDROOT
BRANCH   4   6
HETATM    6  C7  UNL     1     -41.468   5.554  -0.368  1.00 20.00     0.014 C 
HETATM    7  C3  UNL     1     -42.382   4.734   0.521  1.00 20.00    -0.025 C 
HETATM    8  C4  UNL     1     -42.968   3.810  -0.262  1.00 20.00    -0.025 C 
HETATM    9  C8  UNL     1     -42.442   4.020  -1.669  1.00 20.00     0.014 C 
HETATM   10  C5  UNL     1     -40.997   4.399  -1.278  1.00 20.00     0.018 C 
ENDBRANCH   4   6
TORSDOF 2
ENDMDL
MODEL 7
REMARK VINA RESULT:      -4.1      1.257      2.719
REMARK  2 active torsions:
REMARK  status: ('A' for Active; 'I' for Inactive)
REMARK    1  A    between atoms: C7_7  and  C9_9 
REMARK    2  A    between atoms: C8_8  and  C10_10 
ROOT
HETATM    1  C1  UNL     1     -31.487   7.827   2.529  1.00 20.00     0.012 C 
HETATM    2  C2  UNL     1     -32.567   7.401   2.838  1.00 20.00    -0.112 C 
HETATM    3  C6  UNL     1     -33.857   6.894   3.208  1.00 20.00     0.074 A 
HETATM    4  C9  UNL     1     -33.916   5.777   4.228  1.00 20.00     0.015 A 
HETATM    5  C10 UNL     1     -34.222   5.493   2.766  1.00 20.00     0.015 A 
ENDROOT
BRANCH   4   6
HETATM    6  C7  UNL     1     -35.178   5.298   4.958  1.00 20.00     0.014 C 
HETATM    7  C3  UNL     1     -35.162   3.805   5.224  1.00 20.00    -0.025 C 
HETATM    8  C4  UNL     1     -34.181   3.574   6.114  1.00 20.00    -0.025 C 
HETATM    9  C8  UNL     1     -33.546   4.914   6.436  1.00 20.00     0.014 C 
HETATM   10  C5  UNL     1     -34.842   5.754   6.394  1.00 20.00     0.018 C 
ENDBRANCH   4   6
TORSDOF 2
ENDMDL
MODEL 8
REMARK VINA RESULT:      -4.1     10.164     11.700
REMARK  2 active torsions:
REMARK  status: ('A' for Active; 'I' for Inactive)
REMARK    1  A    between atoms: C7_7  and  C9_9 
REMARK    2  A    between atoms: C8_8  and  C10_10 
ROOT
HETATM    1  C1  UNL     1     -37.562  18.106  -2.133  1.00 20.00     0.012 C 
HETATM    2  C2  UNL     1     -36.420  17.748  -2.231  1.00 20.00    -0.112 C 
HETATM    3  C6  UNL     1     -35.055  17.321  -2.350  1.00 20.00     0.074 A 
HETATM    4  C9  UNL     1     -34.792  15.905  -2.815  1.00 20.00     0.015 A 
HETATM    5  C10 UNL     1     -34.545  16.292  -1.365  1.00 20.00     0.015 A 
ENDROOT
BRANCH   4   6
HETATM    6  C7  UNL     1     -33.435  15.351  -3.273  1.00 20.00     0.014 C 
HETATM    7  C3  UNL     1     -33.513  13.894  -3.684  1.00 20.00    -0.025 C 
HETATM    8  C4  UNL     1     -34.265  13.838  -4.798  1.00 20.00    -0.025 C 
HETATM    9  C8  UNL     1     -34.685  15.259  -5.123  1.00 20.00     0.014 C 
HETATM   10  C5  UNL     1     -33.372  15.950  -4.695  1.00 20.00     0.018 C 
ENDBRANCH   4   6
TORSDOF 2
ENDMDL
MODEL 9
REMARK VINA RESULT:      -4.0     10.305     11.969
REMARK  2 active torsions:
REMARK  status: ('A' for Active; 'I' for Inactive)
REMARK    1  A    between atoms: C7_7  and  C9_9 
REMARK    2  A    between atoms: C8_8  and  C10_10 
ROOT
HETATM    1  C1  UNL     1     -34.489  14.855  -7.093  1.00 20.00     0.012 C 
HETATM    2  C2  UNL     1     -34.803  14.816  -5.934  1.00 20.00    -0.112 C 
HETATM    3  C6  UNL     1     -35.180  14.772  -4.550  1.00 20.00     0.074 A 
HETATM    4  C9  UNL     1     -34.429  15.658  -3.581  1.00 20.00     0.015 A 
HETATM    5  C10 UNL     1     -34.207  14.154  -3.570  1.00 20.00     0.015 A 
ENDROOT
BRANCH   4   6
HETATM    6  C7  UNL     1     -34.854  15.967  -2.138  1.00 20.00     0.014 C 
HETATM    7  C3  UNL     1     -33.864  16.865  -1.422  1.00 20.00    -0.025 C 
HETATM    8  C4  UNL     1     -33.912  18.066  -2.026  1.00 20.00    -0.025 C 
HETATM    9  C8  UNL     1     -34.934  17.963  -3.142  1.00 20.00     0.014 C 
HETATM   10  C5  UNL     1     -35.931  17.042  -2.405  1.00 20.00     0.018 C 
ENDBRANCH   4   6
TORSDOF 2
ENDMDL
