MODEL 1
REMARK VINA RESULT:      -3.9      0.000      0.000
REMARK  0 active torsions:
REMARK  status: ('A' for Active; 'I' for Inactive)
ROOT
HETATM    1  C1  UNL     1     -34.968   6.662   4.043  1.00 20.00     0.036 A 
HETATM    2  C2  UNL     1     -34.341   5.742   5.067  1.00 20.00    -0.025 A 
HETATM    3  C3  UNL     1     -33.650   5.998   3.720  1.00 20.00     0.041 A 
HETATM    4  C4  UNL     1     -34.998   4.405   5.315  1.00 20.00     0.016 C 
HETATM    5  C5  UNL     1     -33.794   6.368   6.327  1.00 20.00     0.016 C 
HETATM    6  C6  UNL     1     -33.619   4.943   2.649  1.00 20.00     0.033 C 
HETATM    7 CL7  UNL     1     -32.210   7.050   3.692  1.00 20.00    -0.119 Cl
ENDROOT
TORSDOF 0
ENDMDL
MODEL 2
REMARK VINA RESULT:      -3.8      1.771      3.184
REMARK  0 active torsions:
REMARK  status: ('A' for Active; 'I' for Inactive)
ROOT
HETATM    1  C1  UNL     1     -35.116   6.467   3.999  1.00 20.00     0.036 A 
HETATM    2  C2  UNL     1     -33.741   5.941   3.654  1.00 20.00    -0.025 A 
HETATM    3  C3  UNL     1     -34.381   5.622   5.013  1.00 20.00     0.041 A 
HETATM    4  C4  UNL     1     -32.599   6.927   3.591  1.00 20.00     0.016 C 
HETATM    5  C5  UNL     1     -33.649   4.870   2.593  1.00 20.00     0.016 C 
HETATM    6  C6  UNL     1     -33.891   6.275   6.276  1.00 20.00     0.033 C 
HETATM    7 CL7  UNL     1     -35.010   3.975   5.289  1.00 20.00    -0.119 Cl
ENDROOT
TORSDOF 0
ENDMDL
MODEL 3
REMARK VINA RESULT:      -3.4     11.675     12.595
REMARK  0 active torsions:
REMARK  status: ('A' for Active; 'I' for Inactive)
ROOT
HETATM    1  C1  UNL     1     -34.229  13.680  -3.662  1.00 20.00     0.036 A 
HETATM    2  C2  UNL     1     -34.210  15.191  -3.610  1.00 20.00    -0.025 A 
HETATM    3  C3  UNL     1     -35.222  14.453  -4.498  1.00 20.00     0.041 A 
HETATM    4  C4  UNL     1     -33.050  15.909  -4.256  1.00 20.00     0.016 C 
HETATM    5  C5  UNL     1     -34.668  15.852  -2.332  1.00 20.00     0.016 C 
HETATM    6  C6  UNL     1     -35.074  14.432  -5.994  1.00 20.00     0.033 C 
HETATM    7 CL7  UNL     1     -36.927  14.393  -3.974  1.00 20.00    -0.119 Cl
ENDROOT
TORSDOF 0
ENDMDL
MODEL 4
REMARK VINA RESULT:      -3.4     11.714     12.739
REMARK  0 active torsions:
REMARK  status: ('A' for Active; 'I' for Inactive)
ROOT
HETATM    1  C1  UNL     1     -34.196  13.774  -3.723  1.00 20.00     0.036 A 
HETATM    2  C2  UNL     1     -34.164  14.969  -4.649  1.00 20.00    -0.025 A 
HETATM    3  C3  UNL     1     -35.214  14.874  -3.534  1.00 20.00     0.041 A 
HETATM    4  C4  UNL     1     -34.591  14.766  -6.083  1.00 20.00     0.016 C 
HETATM    5  C5  UNL     1     -33.003  15.925  -4.514  1.00 20.00     0.016 C 
HETATM    6  C6  UNL     1     -36.656  14.582  -3.846  1.00 20.00     0.033 C 
HETATM    7 CL7  UNL     1     -35.018  15.907  -2.092  1.00 20.00    -0.119 Cl
ENDROOT
TORSDOF 0
ENDMDL
MODEL 5
REMARK VINA RESULT:      -3.4     12.188     13.127
REMARK  0 active torsions:
REMARK  status: ('A' for Active; 'I' for Inactive)
ROOT
HETATM    1  C1  UNL     1     -32.814  15.170  -3.802  1.00 20.00     0.036 A 
HETATM    2  C2  UNL     1     -34.297  15.176  -3.502  1.00 20.00    -0.025 A 
HETATM    3  C3  UNL     1     -33.726  16.042  -4.634  1.00 20.00     0.041 A 
HETATM    4  C4  UNL     1     -34.760  15.840  -2.227  1.00 20.00     0.016 C 
HETATM    5  C5  UNL     1     -35.080  13.927  -3.829  1.00 20.00     0.016 C 
HETATM    6  C6  UNL     1     -33.620  17.535  -4.492  1.00 20.00     0.033 C 
HETATM    7 CL7  UNL     1     -34.006  15.529  -6.320  1.00 20.00    -0.119 Cl
ENDROOT
TORSDOF 0
ENDMDL
MODEL 6
REMARK VINA RESULT:      -3.3      9.161      9.986
REMARK  0 active torsions:
REMARK  status: ('A' for Active; 'I' for Inactive)
ROOT
HETATM    1  C1  UNL     1     -40.855   6.645  -0.455  1.00 20.00     0.036 A 
HETATM    2  C2  UNL     1     -42.146   6.782  -1.230  1.00 20.00    -0.025 A 
HETATM    3  C3  UNL     1     -41.697   5.414  -0.697  1.00 20.00     0.041 A 
HETATM    4  C4  UNL     1     -42.058   7.061  -2.711  1.00 20.00     0.016 C 
HETATM    5  C5  UNL     1     -43.286   7.515  -0.564  1.00 20.00     0.016 C 
HETATM    6  C6  UNL     1     -41.172   4.353  -1.623  1.00 20.00     0.033 C 
HETATM    7 CL7  UNL     1     -42.546   4.735   0.718  1.00 20.00    -0.119 Cl
ENDROOT
TORSDOF 0
ENDMDL
MODEL 7
REMARK VINA RESULT:      -3.3     11.821     12.464
REMARK  0 active torsions:
REMARK  status: ('A' for Active; 'I' for Inactive)
ROOT
HETATM    1  C1  UNL     1     -34.444  15.767  -4.636  1.00 20.00     0.036 A 
HETATM    2  C2  UNL     1     -34.148  14.385  -4.097  1.00 20.00    -0.025 A 
HETATM    3  C3  UNL     1     -35.103  15.327  -3.350  1.00 20.00     0.041 A 
HETATM    4  C4  UNL     1     -32.774  14.126  -3.527  1.00 20.00     0.016 C 
HETATM    5  C5  UNL     1     -34.696  13.205  -4.864  1.00 20.00     0.016 C 
HETATM    6  C6  UNL     1     -34.693  15.992  -2.065  1.00 20.00     0.033 C 
HETATM    7 CL7  UNL     1     -36.854  14.992  -3.423  1.00 20.00    -0.119 Cl
ENDROOT
TORSDOF 0
ENDMDL
MODEL 8
REMARK VINA RESULT:      -3.3     12.074     12.918
REMARK  0 active torsions:
REMARK  status: ('A' for Active; 'I' for Inactive)
ROOT
HETATM    1  C1  UNL     1     -33.002  14.691  -3.816  1.00 20.00     0.036 A 
HETATM    2  C2  UNL     1     -34.329  14.664  -4.540  1.00 20.00    -0.025 A 
HETATM    3  C3  UNL     1     -33.994  15.802  -3.565  1.00 20.00     0.041 A 
HETATM    4  C4  UNL     1     -35.339  13.618  -4.133  1.00 20.00     0.016 C 
HETATM    5  C5  UNL     1     -34.317  14.917  -6.029  1.00 20.00     0.016 C 
HETATM    6  C6  UNL     1     -34.652  15.890  -2.216  1.00 20.00     0.033 C 
HETATM    7 CL7  UNL     1     -33.588  17.404  -4.238  1.00 20.00    -0.119 Cl
ENDROOT
TORSDOF 0
ENDMDL
MODEL 9
REMARK VINA RESULT:      -3.3      9.077      9.887
REMARK  0 active torsions:
REMARK  status: ('A' for Active; 'I' for Inactive)
ROOT
HETATM    1  C1  UNL     1     -40.818   6.545  -0.404  1.00 20.00     0.036 A 
HETATM    2  C2  UNL     1     -41.666   5.319  -0.661  1.00 20.00    -0.025 A 
HETATM    3  C3  UNL     1     -42.124   6.702  -1.147  1.00 20.00     0.041 A 
HETATM    4  C4  UNL     1     -42.367   4.682   0.515  1.00 20.00     0.016 C 
HETATM    5  C5  UNL     1     -41.145   4.305  -1.652  1.00 20.00     0.016 C 
HETATM    6  C6  UNL     1     -43.254   7.428  -0.472  1.00 20.00     0.033 C 
HETATM    7 CL7  UNL     1     -42.015   7.068  -2.890  1.00 20.00    -0.119 Cl
ENDROOT
TORSDOF 0
ENDMDL
