MODEL 1
REMARK VINA RESULT:      -4.7      0.000      0.000
REMARK  4 active torsions:
REMARK  status: ('A' for Active; 'I' for Inactive)
REMARK    1  A    between atoms: C1_1  and  C7_7 
REMARK    2  A    between atoms: C1_1  and  C8_8 
REMARK    3  A    between atoms: C5_5  and  C6_6 
REMARK    4  A    between atoms: C6_6  and  C8_8 
ROOT
HETATM    1  C1  UNL     1     -34.282   5.766   4.030  1.00 20.00     0.148 C 
HETATM    2  O9  UNL     1     -34.913   5.313   3.075  1.00 20.00    -0.296 OA
ENDROOT
BRANCH   1   3
HETATM    3  C7  UNL     1     -34.782   5.624   5.467  1.00 20.00     0.049 C 
HETATM    4  C3  UNL     1     -33.950   6.475   6.425  1.00 20.00     0.017 C 
HETATM    5  C4  UNL     1     -34.754   4.158   5.883  1.00 20.00     0.017 C 
ENDBRANCH   1   3
BRANCH   1   6
HETATM    6  C8  UNL     1     -32.968   6.509   3.832  1.00 20.00     0.152 C 
HETATM    7 CL10 UNL     1     -31.880   5.393   2.961  1.00 20.00    -0.117 Cl
BRANCH   6   8
HETATM    8  C6  UNL     1     -33.155   7.796   3.029  1.00 20.00     0.027 C 
BRANCH   8   9
HETATM    9  C5  UNL     1     -31.977   8.061   2.086  1.00 20.00    -0.003 C 
HETATM   10  C2  UNL     1     -32.253   9.243   1.171  1.00 20.00     0.005 C 
ENDBRANCH   8   9
ENDBRANCH   6   8
ENDBRANCH   1   6
TORSDOF 4
ENDMDL
MODEL 2
REMARK VINA RESULT:      -4.4      0.455      1.208
REMARK  4 active torsions:
REMARK  status: ('A' for Active; 'I' for Inactive)
REMARK    1  A    between atoms: C1_1  and  C7_7 
REMARK    2  A    between atoms: C1_1  and  C8_8 
REMARK    3  A    between atoms: C5_5  and  C6_6 
REMARK    4  A    between atoms: C6_6  and  C8_8 
ROOT
HETATM    1  C1  UNL     1     -34.034   5.768   4.141  1.00 20.00     0.148 C 
HETATM    2  O9  UNL     1     -35.049   5.610   3.462  1.00 20.00    -0.296 OA
ENDROOT
BRANCH   1   3
HETATM    3  C7  UNL     1     -33.982   5.376   5.618  1.00 20.00     0.049 C 
HETATM    4  C3  UNL     1     -35.116   4.417   5.971  1.00 20.00     0.017 C 
HETATM    5  C4  UNL     1     -34.039   6.626   6.487  1.00 20.00     0.017 C 
ENDBRANCH   1   3
BRANCH   1   6
HETATM    6  C8  UNL     1     -32.769   6.375   3.549  1.00 20.00     0.152 C 
HETATM    7 CL10 UNL     1     -32.192   5.231   2.305  1.00 20.00    -0.117 Cl
BRANCH   6   8
HETATM    8  C6  UNL     1     -33.033   7.744   2.922  1.00 20.00     0.027 C 
BRANCH   8   9
HETATM    9  C5  UNL     1     -31.909   8.168   1.972  1.00 20.00    -0.003 C 
HETATM   10  C2  UNL     1     -32.316   9.367   1.130  1.00 20.00     0.005 C 
ENDBRANCH   8   9
ENDBRANCH   6   8
ENDBRANCH   1   6
TORSDOF 4
ENDMDL
MODEL 3
REMARK VINA RESULT:      -4.4     10.948     12.177
REMARK  4 active torsions:
REMARK  status: ('A' for Active; 'I' for Inactive)
REMARK    1  A    between atoms: C1_1  and  C7_7 
REMARK    2  A    between atoms: C1_1  and  C8_8 
REMARK    3  A    between atoms: C5_5  and  C6_6 
REMARK    4  A    between atoms: C6_6  and  C8_8 
ROOT
HETATM    1  C1  UNL     1     -34.733  13.899  -4.674  1.00 20.00     0.148 C 
HETATM    2  O9  UNL     1     -34.845  12.713  -4.987  1.00 20.00    -0.296 OA
ENDROOT
BRANCH   1   3
HETATM    3  C7  UNL     1     -35.157  15.026  -5.616  1.00 20.00     0.049 C 
HETATM    4  C3  UNL     1     -36.670  15.023  -5.827  1.00 20.00     0.017 C 
HETATM    5  C4  UNL     1     -34.424  14.894  -6.945  1.00 20.00     0.017 C 
ENDBRANCH   1   3
BRANCH   1   6
HETATM    6  C8  UNL     1     -34.151  14.313  -3.329  1.00 20.00     0.152 C 
HETATM    7 CL10 UNL     1     -32.473  14.839  -3.643  1.00 20.00    -0.117 Cl
BRANCH   6   8
HETATM    8  C6  UNL     1     -34.947  15.449  -2.688  1.00 20.00     0.027 C 
BRANCH   8   9
HETATM    9  C5  UNL     1     -34.038  16.468  -1.994  1.00 20.00    -0.003 C 
HETATM   10  C2  UNL     1     -34.564  16.834  -0.615  1.00 20.00     0.005 C 
ENDBRANCH   8   9
ENDBRANCH   6   8
ENDBRANCH   1   6
TORSDOF 4
ENDMDL
MODEL 4
REMARK VINA RESULT:      -4.3     11.198     12.558
REMARK  4 active torsions:
REMARK  status: ('A' for Active; 'I' for Inactive)
REMARK    1  A    between atoms: C1_1  and  C7_7 
REMARK    2  A    between atoms: C1_1  and  C8_8 
REMARK    3  A    between atoms: C5_5  and  C6_6 
REMARK    4  A    between atoms: C6_6  and  C8_8 
ROOT
HETATM    1  C1  UNL     1     -34.859  14.007  -5.142  1.00 20.00     0.148 C 
HETATM    2  O9  UNL     1     -34.823  12.807  -4.865  1.00 20.00    -0.296 OA
ENDROOT
BRANCH   1   3
HETATM    3  C7  UNL     1     -34.499  14.524  -6.534  1.00 20.00     0.049 C 
HETATM    4  C3  UNL     1     -34.069  15.989  -6.481  1.00 20.00     0.017 C 
HETATM    5  C4  UNL     1     -35.682  14.342  -7.476  1.00 20.00     0.017 C 
ENDBRANCH   1   3
BRANCH   1   6
HETATM    6  C8  UNL     1     -35.253  15.049  -4.104  1.00 20.00     0.152 C 
HETATM    7 CL10 UNL     1     -36.950  14.710  -3.664  1.00 20.00    -0.117 Cl
BRANCH   6   8
HETATM    8  C6  UNL     1     -34.364  14.982  -2.862  1.00 20.00     0.027 C 
BRANCH   8   9
HETATM    9  C5  UNL     1     -34.033  16.375  -2.316  1.00 20.00    -0.003 C 
HETATM   10  C2  UNL     1     -34.636  16.588  -0.937  1.00 20.00     0.005 C 
ENDBRANCH   8   9
ENDBRANCH   6   8
ENDBRANCH   1   6
TORSDOF 4
ENDMDL
MODEL 5
REMARK VINA RESULT:      -4.2      1.438      1.694
REMARK  4 active torsions:
REMARK  status: ('A' for Active; 'I' for Inactive)
REMARK    1  A    between atoms: C1_1  and  C7_7 
REMARK    2  A    between atoms: C1_1  and  C8_8 
REMARK    3  A    between atoms: C5_5  and  C6_6 
REMARK    4  A    between atoms: C6_6  and  C8_8 
ROOT
HETATM    1  C1  UNL     1     -33.544   6.122   4.663  1.00 20.00     0.148 C 
HETATM    2  O9  UNL     1     -33.588   6.861   5.648  1.00 20.00    -0.296 OA
ENDROOT
BRANCH   1   3
HETATM    3  C7  UNL     1     -34.598   5.043   4.418  1.00 20.00     0.049 C 
HETATM    4  C3  UNL     1     -35.873   5.644   3.830  1.00 20.00     0.017 C 
HETATM    5  C4  UNL     1     -34.896   4.305   5.717  1.00 20.00     0.017 C 
ENDBRANCH   1   3
BRANCH   1   6
HETATM    6  C8  UNL     1     -32.426   6.235   3.636  1.00 20.00     0.152 C 
HETATM    7 CL10 UNL     1     -33.039   5.485   2.135  1.00 20.00    -0.117 Cl
BRANCH   6   8
HETATM    8  C6  UNL     1     -32.034   7.689   3.376  1.00 20.00     0.027 C 
BRANCH   8   9
HETATM    9  C5  UNL     1     -32.047   8.030   1.882  1.00 20.00    -0.003 C 
HETATM   10  C2  UNL     1     -32.414   9.486   1.648  1.00 20.00     0.005 C 
ENDBRANCH   8   9
ENDBRANCH   6   8
ENDBRANCH   1   6
TORSDOF 4
ENDMDL
MODEL 6
REMARK VINA RESULT:      -4.1     11.364     12.550
REMARK  4 active torsions:
REMARK  status: ('A' for Active; 'I' for Inactive)
REMARK    1  A    between atoms: C1_1  and  C7_7 
REMARK    2  A    between atoms: C1_1  and  C8_8 
REMARK    3  A    between atoms: C5_5  and  C6_6 
REMARK    4  A    between atoms: C6_6  and  C8_8 
ROOT
HETATM    1  C1  UNL     1     -33.759  16.093  -4.340  1.00 20.00     0.148 C 
HETATM    2  O9  UNL     1     -32.733  16.351  -4.971  1.00 20.00    -0.296 OA
ENDROOT
BRANCH   1   3
HETATM    3  C7  UNL     1     -34.481  14.755  -4.487  1.00 20.00     0.049 C 
HETATM    4  C3  UNL     1     -33.736  13.645  -3.747  1.00 20.00     0.017 C 
HETATM    5  C4  UNL     1     -34.639  14.410  -5.963  1.00 20.00     0.017 C 
ENDBRANCH   1   3
BRANCH   1   6
HETATM    6  C8  UNL     1     -34.376  17.103  -3.383  1.00 20.00     0.152 C 
HETATM    7 CL10 UNL     1     -36.113  16.702  -3.272  1.00 20.00    -0.117 Cl
BRANCH   6   8
HETATM    8  C6  UNL     1     -33.733  17.045  -1.997  1.00 20.00     0.027 C 
BRANCH   8   9
HETATM    9  C5  UNL     1     -34.693  16.490  -0.941  1.00 20.00    -0.003 C 
HETATM   10  C2  UNL     1     -34.802  17.423   0.255  1.00 20.00     0.005 C 
ENDBRANCH   8   9
ENDBRANCH   6   8
ENDBRANCH   1   6
TORSDOF 4
ENDMDL
MODEL 7
REMARK VINA RESULT:      -4.1     11.639     12.870
REMARK  4 active torsions:
REMARK  status: ('A' for Active; 'I' for Inactive)
REMARK    1  A    between atoms: C1_1  and  C7_7 
REMARK    2  A    between atoms: C1_1  and  C8_8 
REMARK    3  A    between atoms: C5_5  and  C6_6 
REMARK    4  A    between atoms: C6_6  and  C8_8 
ROOT
HETATM    1  C1  UNL     1     -33.906  16.018  -5.021  1.00 20.00     0.148 C 
HETATM    2  O9  UNL     1     -32.887  16.689  -5.192  1.00 20.00    -0.296 OA
ENDROOT
BRANCH   1   3
HETATM    3  C7  UNL     1     -34.963  15.863  -6.114  1.00 20.00     0.049 C 
HETATM    4  C3  UNL     1     -36.265  15.307  -5.543  1.00 20.00     0.017 C 
HETATM    5  C4  UNL     1     -34.432  14.966  -7.225  1.00 20.00     0.017 C 
ENDBRANCH   1   3
BRANCH   1   6
HETATM    6  C8  UNL     1     -34.177  15.310  -3.701  1.00 20.00     0.152 C 
HETATM    7 CL10 UNL     1     -33.291  13.760  -3.765  1.00 20.00    -0.117 Cl
BRANCH   6   8
HETATM    8  C6  UNL     1     -33.706  16.136  -2.503  1.00 20.00     0.027 C 
BRANCH   8   9
HETATM    9  C5  UNL     1     -34.803  16.291  -1.446  1.00 20.00    -0.003 C 
HETATM   10  C2  UNL     1     -34.392  17.271  -0.358  1.00 20.00     0.005 C 
ENDBRANCH   8   9
ENDBRANCH   6   8
ENDBRANCH   1   6
TORSDOF 4
ENDMDL
MODEL 8
REMARK VINA RESULT:      -4.1     11.084     12.653
REMARK  4 active torsions:
REMARK  status: ('A' for Active; 'I' for Inactive)
REMARK    1  A    between atoms: C1_1  and  C7_7 
REMARK    2  A    between atoms: C1_1  and  C8_8 
REMARK    3  A    between atoms: C5_5  and  C6_6 
REMARK    4  A    between atoms: C6_6  and  C8_8 
ROOT
HETATM    1  C1  UNL     1     -34.766  13.734  -4.902  1.00 20.00     0.148 C 
HETATM    2  O9  UNL     1     -35.088  12.618  -4.490  1.00 20.00    -0.296 OA
ENDROOT
BRANCH   1   3
HETATM    3  C7  UNL     1     -33.896  14.679  -4.073  1.00 20.00     0.049 C 
HETATM    4  C3  UNL     1     -32.704  13.940  -3.469  1.00 20.00     0.017 C 
HETATM    5  C4  UNL     1     -34.736  15.333  -2.982  1.00 20.00     0.017 C 
ENDBRANCH   1   3
BRANCH   1   6
HETATM    6  C8  UNL     1     -35.227  14.242  -6.261  1.00 20.00     0.152 C 
HETATM    7 CL10 UNL     1     -36.779  15.083  -5.988  1.00 20.00    -0.117 Cl
BRANCH   6   8
HETATM    8  C6  UNL     1     -34.213  15.199  -6.887  1.00 20.00     0.027 C 
BRANCH   8   9
HETATM    9  C5  UNL     1     -34.808  16.589  -7.130  1.00 20.00    -0.003 C 
HETATM   10  C2  UNL     1     -34.105  17.648  -6.296  1.00 20.00     0.005 C 
ENDBRANCH   8   9
ENDBRANCH   6   8
ENDBRANCH   1   6
TORSDOF 4
ENDMDL
MODEL 9
REMARK VINA RESULT:      -4.1     11.317     12.088
REMARK  4 active torsions:
REMARK  status: ('A' for Active; 'I' for Inactive)
REMARK    1  A    between atoms: C1_1  and  C7_7 
REMARK    2  A    between atoms: C1_1  and  C8_8 
REMARK    3  A    between atoms: C5_5  and  C6_6 
REMARK    4  A    between atoms: C6_6  and  C8_8 
ROOT
HETATM    1  C1  UNL     1     -34.811  15.321  -3.265  1.00 20.00     0.148 C 
HETATM    2  O9  UNL     1     -36.015  15.148  -3.071  1.00 20.00    -0.296 OA
ENDROOT
BRANCH   1   3
HETATM    3  C7  UNL     1     -33.990  16.294  -2.419  1.00 20.00     0.049 C 
HETATM    4  C3  UNL     1     -34.643  16.522  -1.057  1.00 20.00     0.017 C 
HETATM    5  C4  UNL     1     -33.818  17.611  -3.165  1.00 20.00     0.017 C 
ENDBRANCH   1   3
BRANCH   1   6
HETATM    6  C8  UNL     1     -34.071  14.582  -4.372  1.00 20.00     0.152 C 
HETATM    7 CL10 UNL     1     -32.845  13.562  -3.569  1.00 20.00    -0.117 Cl
BRANCH   6   8
HETATM    8  C6  UNL     1     -35.012  13.714  -5.207  1.00 20.00     0.027 C 
BRANCH   8   9
HETATM    9  C5  UNL     1     -35.268  14.314  -6.593  1.00 20.00    -0.003 C 
HETATM   10  C2  UNL     1     -34.260  15.403  -6.922  1.00 20.00     0.005 C 
ENDBRANCH   8   9
ENDBRANCH   6   8
ENDBRANCH   1   6
TORSDOF 4
ENDMDL
