MODEL 1
REMARK VINA RESULT:      -5.5      0.000      0.000
REMARK  1 active torsions:
REMARK  status: ('A' for Active; 'I' for Inactive)
REMARK    1  A    between atoms: C9_9  and  O10_10 
ROOT
HETATM    1  C1  UNL     1     -33.900  17.106  -4.804  1.00 20.00     0.053 A 
HETATM    2  C2  UNL     1     -34.079  15.063  -2.855  1.00 20.00     0.055 A 
HETATM    3  C3  UNL     1     -34.149  15.792  -5.166  1.00 20.00    -0.046 A 
HETATM    4  C4  UNL     1     -34.238  14.779  -4.202  1.00 20.00    -0.020 A 
HETATM    5  C5  UNL     1     -33.753  17.401  -3.448  1.00 20.00     0.155 A 
HETATM    6  C6  UNL     1     -33.841  16.388  -2.481  1.00 20.00     0.155 A 
HETATM    7  C7  UNL     1     -34.306  15.233  -6.546  1.00 20.00     0.042 C 
HETATM    8  C8  UNL     1     -34.967  13.882  -6.242  1.00 20.00     0.041 C 
HETATM    9  C9  UNL     1     -34.458  13.449  -4.856  1.00 20.00     0.152 C 
HETATM   10  F11 UNL     1     -33.516  18.663  -3.065  1.00 20.00    -0.203 F 
HETATM   11  F12 UNL     1     -33.688  16.694  -1.185  1.00 20.00    -0.203 F 
ENDROOT
BRANCH   9  12
HETATM   12  O10 UNL     1     -35.429  12.678  -4.178  1.00 20.00    -0.391 OA
HETATM   13  H20 UNL     1     -35.117  11.756  -4.180  1.00 20.00     0.210 HD
ENDBRANCH   9  12
TORSDOF 1
ENDMDL
MODEL 2
REMARK VINA RESULT:      -5.1     11.851     13.141
REMARK  1 active torsions:
REMARK  status: ('A' for Active; 'I' for Inactive)
REMARK    1  A    between atoms: C9_9  and  O10_10 
ROOT
HETATM    1  C1  UNL     1     -32.610   7.266   5.220  1.00 20.00     0.053 A 
HETATM    2  C2  UNL     1     -33.649   5.675   3.125  1.00 20.00     0.055 A 
HETATM    3  C3  UNL     1     -33.660   6.390   5.442  1.00 20.00    -0.046 A 
HETATM    4  C4  UNL     1     -34.176   5.601   4.405  1.00 20.00    -0.020 A 
HETATM    5  C5  UNL     1     -32.065   7.335   3.936  1.00 20.00     0.155 A 
HETATM    6  C6  UNL     1     -32.581   6.546   2.897  1.00 20.00     0.155 A 
HETATM    7  C7  UNL     1     -34.421   6.171   6.711  1.00 20.00     0.042 C 
HETATM    8  C8  UNL     1     -35.109   4.832   6.414  1.00 20.00     0.041 C 
HETATM    9  C9  UNL     1     -35.334   4.786   4.893  1.00 20.00     0.152 C 
HETATM   10  F11 UNL     1     -31.046   8.170   3.691  1.00 20.00    -0.203 F 
HETATM   11  F12 UNL     1     -32.049   6.635   1.670  1.00 20.00    -0.203 F 
ENDROOT
BRANCH   9  12
HETATM   12  O10 UNL     1     -35.288   3.457   4.414  1.00 20.00    -0.391 OA
HETATM   13  H20 UNL     1     -35.999   3.363   3.757  1.00 20.00     0.210 HD
ENDBRANCH   9  12
TORSDOF 1
ENDMDL
MODEL 3
REMARK VINA RESULT:      -4.9      1.351      2.441
REMARK  1 active torsions:
REMARK  status: ('A' for Active; 'I' for Inactive)
REMARK    1  A    between atoms: C9_9  and  O10_10 
ROOT
HETATM    1  C1  UNL     1     -34.489  15.548  -2.311  1.00 20.00     0.053 A 
HETATM    2  C2  UNL     1     -33.936  17.096  -4.614  1.00 20.00     0.055 A 
HETATM    3  C3  UNL     1     -34.677  15.030  -3.582  1.00 20.00    -0.046 A 
HETATM    4  C4  UNL     1     -34.403  15.796  -4.724  1.00 20.00    -0.020 A 
HETATM    5  C5  UNL     1     -34.005  16.852  -2.193  1.00 20.00     0.155 A 
HETATM    6  C6  UNL     1     -33.731  17.620  -3.335  1.00 20.00     0.155 A 
HETATM    7  C7  UNL     1     -35.214  13.684  -3.956  1.00 20.00     0.042 C 
HETATM    8  C8  UNL     1     -34.769  13.587  -5.421  1.00 20.00     0.041 C 
HETATM    9  C9  UNL     1     -34.740  15.026  -5.964  1.00 20.00     0.152 C 
HETATM   10  F11 UNL     1     -33.809  17.381  -0.978  1.00 20.00    -0.203 F 
HETATM   11  F12 UNL     1     -33.275  18.873  -3.198  1.00 20.00    -0.203 F 
ENDROOT
BRANCH   9  12
HETATM   12  O10 UNL     1     -33.750  15.169  -6.964  1.00 20.00    -0.391 OA
HETATM   13  H20 UNL     1     -33.989  14.571  -7.693  1.00 20.00     0.210 HD
ENDBRANCH   9  12
TORSDOF 1
ENDMDL
MODEL 4
REMARK VINA RESULT:      -4.9      2.754      3.574
REMARK  1 active torsions:
REMARK  status: ('A' for Active; 'I' for Inactive)
REMARK    1  A    between atoms: C9_9  and  O10_10 
ROOT
HETATM    1  C1  UNL     1     -33.695  16.642  -5.925  1.00 20.00     0.053 A 
HETATM    2  C2  UNL     1     -35.977  14.972  -6.010  1.00 20.00     0.055 A 
HETATM    3  C3  UNL     1     -33.877  15.633  -4.994  1.00 20.00    -0.046 A 
HETATM    4  C4  UNL     1     -35.007  14.805  -5.034  1.00 20.00    -0.020 A 
HETATM    5  C5  UNL     1     -34.662  16.807  -6.919  1.00 20.00     0.155 A 
HETATM    6  C6  UNL     1     -35.794  15.979  -6.960  1.00 20.00     0.155 A 
HETATM    7  C7  UNL     1     -33.004  15.290  -3.828  1.00 20.00     0.042 C 
HETATM    8  C8  UNL     1     -33.504  13.880  -3.490  1.00 20.00     0.041 C 
HETATM    9  C9  UNL     1     -34.988  13.836  -3.891  1.00 20.00     0.152 C 
HETATM   10  F11 UNL     1     -34.513  17.772  -7.837  1.00 20.00    -0.203 F 
HETATM   11  F12 UNL     1     -36.714  16.161  -7.918  1.00 20.00    -0.203 F 
ENDROOT
BRANCH   9  12
HETATM   12  O10 UNL     1     -35.366  12.534  -4.292  1.00 20.00    -0.391 OA
HETATM   13  H20 UNL     1     -35.649  12.058  -3.492  1.00 20.00     0.210 HD
ENDBRANCH   9  12
TORSDOF 1
ENDMDL
MODEL 5
REMARK VINA RESULT:      -4.9      3.073      4.602
REMARK  1 active torsions:
REMARK  status: ('A' for Active; 'I' for Inactive)
REMARK    1  A    between atoms: C9_9  and  O10_10 
ROOT
HETATM    1  C1  UNL     1     -34.674  14.369  -3.427  1.00 20.00     0.053 A 
HETATM    2  C2  UNL     1     -33.911  16.383  -5.262  1.00 20.00     0.055 A 
HETATM    3  C3  UNL     1     -34.433  15.666  -3.005  1.00 20.00    -0.046 A 
HETATM    4  C4  UNL     1     -34.055  16.665  -3.913  1.00 20.00    -0.020 A 
HETATM    5  C5  UNL     1     -34.544  14.081  -4.787  1.00 20.00     0.155 A 
HETATM    6  C6  UNL     1     -34.165  15.079  -5.697  1.00 20.00     0.155 A 
HETATM    7  C7  UNL     1     -34.474  16.201  -1.608  1.00 20.00     0.042 C 
HETATM    8  C8  UNL     1     -34.547  17.710  -1.872  1.00 20.00     0.041 C 
HETATM    9  C9  UNL     1     -33.805  17.957  -3.197  1.00 20.00     0.152 C 
HETATM   10  F11 UNL     1     -34.774  12.836  -5.227  1.00 20.00    -0.203 F 
HETATM   11  F12 UNL     1     -34.038  14.778  -6.996  1.00 20.00    -0.203 F 
ENDROOT
BRANCH   9  12
HETATM   12  O10 UNL     1     -34.355  19.062  -3.887  1.00 20.00    -0.391 OA
HETATM   13  H20 UNL     1     -35.222  19.249  -3.486  1.00 20.00     0.210 HD
ENDBRANCH   9  12
TORSDOF 1
ENDMDL
MODEL 6
REMARK VINA RESULT:      -4.8      1.767      2.190
REMARK  1 active torsions:
REMARK  status: ('A' for Active; 'I' for Inactive)
REMARK    1  A    between atoms: C9_9  and  O10_10 
ROOT
HETATM    1  C1  UNL     1     -36.212  16.289  -2.607  1.00 20.00     0.053 A 
HETATM    2  C2  UNL     1     -33.404  15.962  -2.701  1.00 20.00     0.055 A 
HETATM    3  C3  UNL     1     -35.635  15.280  -3.361  1.00 20.00    -0.046 A 
HETATM    4  C4  UNL     1     -34.244  15.117  -3.408  1.00 20.00    -0.020 A 
HETATM    5  C5  UNL     1     -35.372  17.136  -1.881  1.00 20.00     0.155 A 
HETATM    6  C6  UNL     1     -33.979  16.974  -1.928  1.00 20.00     0.155 A 
HETATM    7  C7  UNL     1     -36.322  14.284  -4.241  1.00 20.00     0.042 C 
HETATM    8  C8  UNL     1     -35.215  13.236  -4.419  1.00 20.00     0.041 C 
HETATM    9  C9  UNL     1     -33.879  13.995  -4.332  1.00 20.00     0.152 C 
HETATM   10  F11 UNL     1     -35.900  18.118  -1.139  1.00 20.00    -0.203 F 
HETATM   11  F12 UNL     1     -33.192  17.803  -1.229  1.00 20.00    -0.203 F 
ENDROOT
BRANCH   9  12
HETATM   12  O10 UNL     1     -32.864  13.172  -3.793  1.00 20.00    -0.391 OA
HETATM   13  H20 UNL     1     -32.322  13.731  -3.209  1.00 20.00     0.210 HD
ENDBRANCH   9  12
TORSDOF 1
ENDMDL
MODEL 7
REMARK VINA RESULT:      -4.8      2.743      3.607
REMARK  1 active torsions:
REMARK  status: ('A' for Active; 'I' for Inactive)
REMARK    1  A    between atoms: C9_9  and  O10_10 
ROOT
HETATM    1  C1  UNL     1     -33.674  16.176  -3.129  1.00 20.00     0.053 A 
HETATM    2  C2  UNL     1     -35.436  14.159  -4.039  1.00 20.00     0.055 A 
HETATM    3  C3  UNL     1     -35.045  16.380  -3.148  1.00 20.00    -0.046 A 
HETATM    4  C4  UNL     1     -35.919  15.381  -3.599  1.00 20.00    -0.020 A 
HETATM    5  C5  UNL     1     -33.182  14.943  -3.558  1.00 20.00     0.155 A 
HETATM    6  C6  UNL     1     -34.056  13.942  -4.010  1.00 20.00     0.155 A 
HETATM    7  C7  UNL     1     -35.795  17.619  -2.773  1.00 20.00     0.042 C 
HETATM    8  C8  UNL     1     -37.215  17.063  -2.603  1.00 20.00     0.041 C 
HETATM    9  C9  UNL     1     -37.335  15.871  -3.569  1.00 20.00     0.152 C 
HETATM   10  F11 UNL     1     -31.863  14.713  -3.548  1.00 20.00    -0.203 F 
HETATM   11  F12 UNL     1     -33.561  12.768  -4.426  1.00 20.00    -0.203 F 
ENDROOT
BRANCH   9  12
HETATM   12  O10 UNL     1     -38.223  14.895  -3.061  1.00 20.00    -0.391 OA
HETATM   13  H20 UNL     1     -39.086  15.043  -3.486  1.00 20.00     0.210 HD
ENDBRANCH   9  12
TORSDOF 1
ENDMDL
MODEL 8
REMARK VINA RESULT:      -4.7     12.102     13.451
REMARK  1 active torsions:
REMARK  status: ('A' for Active; 'I' for Inactive)
REMARK    1  A    between atoms: C9_9  and  O10_10 
ROOT
HETATM    1  C1  UNL     1     -34.882   4.496   4.516  1.00 20.00     0.053 A 
HETATM    2  C2  UNL     1     -33.640   6.823   5.540  1.00 20.00     0.055 A 
HETATM    3  C3  UNL     1     -34.070   5.284   3.716  1.00 20.00    -0.046 A 
HETATM    4  C4  UNL     1     -33.454   6.437   4.223  1.00 20.00    -0.020 A 
HETATM    5  C5  UNL     1     -35.063   4.872   5.848  1.00 20.00     0.155 A 
HETATM    6  C6  UNL     1     -34.447   6.026   6.356  1.00 20.00     0.155 A 
HETATM    7  C7  UNL     1     -33.758   5.104   2.264  1.00 20.00     0.042 C 
HETATM    8  C8  UNL     1     -32.522   6.001   2.115  1.00 20.00     0.041 C 
HETATM    9  C9  UNL     1     -32.678   7.133   3.146  1.00 20.00     0.152 C 
HETATM   10  F11 UNL     1     -35.839   4.129   6.648  1.00 20.00    -0.203 F 
HETATM   11  F12 UNL     1     -34.642   6.372   7.636  1.00 20.00    -0.203 F 
ENDROOT
BRANCH   9  12
HETATM   12  O10 UNL     1     -31.417   7.578   3.603  1.00 20.00    -0.391 OA
HETATM   13  H20 UNL     1     -30.790   7.473   2.866  1.00 20.00     0.210 HD
ENDBRANCH   9  12
TORSDOF 1
ENDMDL
MODEL 9
REMARK VINA RESULT:      -4.7      3.280      4.318
REMARK  1 active torsions:
REMARK  status: ('A' for Active; 'I' for Inactive)
REMARK    1  A    between atoms: C9_9  and  O10_10 
ROOT
HETATM    1  C1  UNL     1     -36.630  15.802  -4.830  1.00 20.00     0.053 A 
HETATM    2  C2  UNL     1     -34.388  14.440  -5.891  1.00 20.00     0.055 A 
HETATM    3  C3  UNL     1     -35.464  15.666  -4.096  1.00 20.00    -0.046 A 
HETATM    4  C4  UNL     1     -34.352  14.991  -4.620  1.00 20.00    -0.020 A 
HETATM    5  C5  UNL     1     -36.669  15.261  -6.117  1.00 20.00     0.155 A 
HETATM    6  C6  UNL     1     -35.557  14.585  -6.643  1.00 20.00     0.155 A 
HETATM    7  C7  UNL     1     -35.200  16.126  -2.697  1.00 20.00     0.042 C 
HETATM    8  C8  UNL     1     -33.667  16.066  -2.651  1.00 20.00     0.041 C 
HETATM    9  C9  UNL     1     -33.247  14.939  -3.610  1.00 20.00     0.152 C 
HETATM   10  F11 UNL     1     -37.781  15.379  -6.854  1.00 20.00    -0.203 F 
HETATM   11  F12 UNL     1     -35.620  14.066  -7.877  1.00 20.00    -0.203 F 
ENDROOT
BRANCH   9  12
HETATM   12  O10 UNL     1     -31.986  15.210  -4.188  1.00 20.00    -0.391 OA
HETATM   13  H20 UNL     1     -31.309  14.897  -3.563  1.00 20.00     0.210 HD
ENDBRANCH   9  12
TORSDOF 1
ENDMDL
