MODEL 1
REMARK VINA RESULT:      -4.6      0.000      0.000
REMARK  2 active torsions:
REMARK  status: ('A' for Active; 'I' for Inactive)
REMARK    1  A    between atoms: C7_7  and  C9_9 
REMARK    2  A    between atoms: C8_8  and  C10_10 
ROOT
HETATM    1  C1  UNL     1     -35.476  15.128  -3.269  1.00 20.00     0.005 C 
HETATM    2  C2  UNL     1     -34.256  14.246  -3.559  1.00 20.00     0.005 C 
HETATM    3  C3  UNL     1     -34.370  17.045  -4.422  1.00 20.00     0.005 C 
HETATM    4  C4  UNL     1     -33.141  16.159  -4.710  1.00 20.00     0.005 C 
HETATM    5  C7  UNL     1     -35.057  16.598  -3.114  1.00 20.00    -0.010 C 
HETATM    6  C8  UNL     1     -32.975  15.095  -3.604  1.00 20.00    -0.010 C 
ENDROOT
BRANCH   5   7
HETATM    7  C9  UNL     1     -34.013  16.749  -1.991  1.00 20.00    -0.006 A 
HETATM    8  C5  UNL     1     -33.462  18.128  -1.568  1.00 20.00     0.006 A 
HETATM    9  C6  UNL     1     -34.138  17.983  -0.195  1.00 20.00     0.006 A 
HETATM   10  C10 UNL     1     -34.690  16.601  -0.608  1.00 20.00    -0.006 A 
ENDBRANCH   5   7
TORSDOF 2
ENDMDL
MODEL 2
REMARK VINA RESULT:      -4.5      1.945      4.232
REMARK  2 active torsions:
REMARK  status: ('A' for Active; 'I' for Inactive)
REMARK    1  A    between atoms: C7_7  and  C9_9 
REMARK    2  A    between atoms: C8_8  and  C10_10 
ROOT
HETATM    1  C1  UNL     1     -35.822  15.217  -3.399  1.00 20.00     0.005 C 
HETATM    2  C2  UNL     1     -34.513  15.597  -2.697  1.00 20.00     0.005 C 
HETATM    3  C3  UNL     1     -34.690  13.264  -4.462  1.00 20.00     0.005 C 
HETATM    4  C4  UNL     1     -33.372  13.648  -3.758  1.00 20.00     0.005 C 
HETATM    5  C7  UNL     1     -35.535  14.526  -4.740  1.00 20.00    -0.010 C 
HETATM    6  C8  UNL     1     -33.303  15.175  -3.545  1.00 20.00    -0.010 C 
ENDROOT
BRANCH   5   7
HETATM    7  C9  UNL     1     -34.687  15.435  -5.651  1.00 20.00    -0.006 A 
HETATM    8  C5  UNL     1     -34.359  15.053  -7.110  1.00 20.00     0.006 A 
HETATM    9  C6  UNL     1     -35.205  16.232  -7.615  1.00 20.00     0.006 A 
HETATM   10  C10 UNL     1     -35.536  16.624  -6.159  1.00 20.00    -0.006 A 
ENDBRANCH   5   7
TORSDOF 2
ENDMDL
MODEL 3
REMARK VINA RESULT:      -4.4      1.280      2.362
REMARK  2 active torsions:
REMARK  status: ('A' for Active; 'I' for Inactive)
REMARK    1  A    between atoms: C7_7  and  C9_9 
REMARK    2  A    between atoms: C8_8  and  C10_10 
ROOT
HETATM    1  C1  UNL     1     -34.131  15.693  -5.440  1.00 20.00     0.005 C 
HETATM    2  C2  UNL     1     -34.791  14.310  -5.507  1.00 20.00     0.005 C 
HETATM    3  C3  UNL     1     -32.608  14.884  -3.637  1.00 20.00     0.005 C 
HETATM    4  C4  UNL     1     -33.274  13.494  -3.701  1.00 20.00     0.005 C 
HETATM    5  C7  UNL     1     -33.624  15.981  -4.019  1.00 20.00    -0.010 C 
HETATM    6  C8  UNL     1     -34.751  13.626  -4.131  1.00 20.00    -0.010 C 
ENDROOT
BRANCH   5   7
HETATM    7  C9  UNL     1     -34.777  15.893  -3.001  1.00 20.00    -0.006 A 
HETATM    8  C5  UNL     1     -34.588  16.275  -1.518  1.00 20.00     0.006 A 
HETATM    9  C6  UNL     1     -35.544  17.465  -1.696  1.00 20.00     0.006 A 
HETATM   10  C10 UNL     1     -35.741  17.089  -3.181  1.00 20.00    -0.006 A 
ENDBRANCH   5   7
TORSDOF 2
ENDMDL
MODEL 4
REMARK VINA RESULT:      -4.4      0.934      2.425
REMARK  2 active torsions:
REMARK  status: ('A' for Active; 'I' for Inactive)
REMARK    1  A    between atoms: C7_7  and  C9_9 
REMARK    2  A    between atoms: C8_8  and  C10_10 
ROOT
HETATM    1  C1  UNL     1     -33.282  16.022  -4.841  1.00 20.00     0.005 C 
HETATM    2  C2  UNL     1     -34.645  16.069  -5.542  1.00 20.00     0.005 C 
HETATM    3  C3  UNL     1     -34.093  14.171  -3.378  1.00 20.00     0.005 C 
HETATM    4  C4  UNL     1     -35.465  14.220  -4.081  1.00 20.00     0.005 C 
HETATM    5  C7  UNL     1     -33.440  15.569  -3.382  1.00 20.00    -0.010 C 
HETATM    6  C8  UNL     1     -35.764  15.652  -4.575  1.00 20.00    -0.010 C 
ENDROOT
BRANCH   5   7
HETATM    7  C9  UNL     1     -34.397  16.507  -2.622  1.00 20.00    -0.006 A 
HETATM    8  C5  UNL     1     -34.630  16.381  -1.101  1.00 20.00     0.006 A 
HETATM    9  C6  UNL     1     -33.964  17.748  -0.879  1.00 20.00     0.006 A 
HETATM   10  C10 UNL     1     -33.731  17.885  -2.399  1.00 20.00    -0.006 A 
ENDBRANCH   5   7
TORSDOF 2
ENDMDL
MODEL 5
REMARK VINA RESULT:      -4.4     11.827     13.168
REMARK  2 active torsions:
REMARK  status: ('A' for Active; 'I' for Inactive)
REMARK    1  A    between atoms: C7_7  and  C9_9 
REMARK    2  A    between atoms: C8_8  and  C10_10 
ROOT
HETATM    1  C1  UNL     1     -34.412   6.383   6.193  1.00 20.00     0.005 C 
HETATM    2  C2  UNL     1     -34.122   4.935   6.608  1.00 20.00     0.005 C 
HETATM    3  C3  UNL     1     -35.595   5.566   4.154  1.00 20.00     0.005 C 
HETATM    4  C4  UNL     1     -35.300   4.110   4.569  1.00 20.00     0.005 C 
HETATM    5  C7  UNL     1     -34.480   6.504   4.663  1.00 20.00    -0.010 C 
HETATM    6  C8  UNL     1     -33.982   4.037   5.369  1.00 20.00    -0.010 C 
ENDROOT
BRANCH   5   7
HETATM    7  C9  UNL     1     -33.166   6.020   4.021  1.00 20.00    -0.006 A 
HETATM    8  C5  UNL     1     -32.987   5.936   2.490  1.00 20.00     0.006 A 
HETATM    9  C6  UNL     1     -31.930   7.050   2.546  1.00 20.00     0.006 A 
HETATM   10  C10 UNL     1     -32.099   7.139   4.078  1.00 20.00    -0.006 A 
ENDBRANCH   5   7
TORSDOF 2
ENDMDL
MODEL 6
REMARK VINA RESULT:      -4.1      2.185      4.556
REMARK  2 active torsions:
REMARK  status: ('A' for Active; 'I' for Inactive)
REMARK    1  A    between atoms: C7_7  and  C9_9 
REMARK    2  A    between atoms: C8_8  and  C10_10 
ROOT
HETATM    1  C1  UNL     1     -33.160  16.279  -4.684  1.00 20.00     0.005 C 
HETATM    2  C2  UNL     1     -33.005  15.111  -3.703  1.00 20.00     0.005 C 
HETATM    3  C3  UNL     1     -35.508  16.623  -3.909  1.00 20.00     0.005 C 
HETATM    4  C4  UNL     1     -35.352  15.445  -2.925  1.00 20.00     0.005 C 
HETATM    5  C7  UNL     1     -34.619  16.401  -5.152  1.00 20.00    -0.010 C 
HETATM    6  C8  UNL     1     -34.354  14.408  -3.482  1.00 20.00    -0.010 C 
ENDROOT
BRANCH   5   7
HETATM    7  C9  UNL     1     -35.092  15.090  -5.807  1.00 20.00    -0.006 A 
HETATM    8  C5  UNL     1     -36.471  14.968  -6.489  1.00 20.00     0.006 A 
HETATM    9  C6  UNL     1     -35.787  14.782  -7.853  1.00 20.00     0.006 A 
HETATM   10  C10 UNL     1     -34.403  14.899  -7.179  1.00 20.00    -0.006 A 
ENDBRANCH   5   7
TORSDOF 2
ENDMDL
MODEL 7
REMARK VINA RESULT:      -4.1      1.727      2.923
REMARK  2 active torsions:
REMARK  status: ('A' for Active; 'I' for Inactive)
REMARK    1  A    between atoms: C7_7  and  C9_9 
REMARK    2  A    between atoms: C8_8  and  C10_10 
ROOT
HETATM    1  C1  UNL     1     -34.651  13.623  -4.919  1.00 20.00     0.005 C 
HETATM    2  C2  UNL     1     -34.812  14.424  -6.216  1.00 20.00     0.005 C 
HETATM    3  C3  UNL     1     -36.892  14.406  -4.151  1.00 20.00     0.005 C 
HETATM    4  C4  UNL     1     -37.053  15.214  -5.455  1.00 20.00     0.005 C 
HETATM    5  C7  UNL     1     -35.401  14.306  -3.765  1.00 20.00    -0.010 C 
HETATM    6  C8  UNL     1     -35.675  15.673  -5.975  1.00 20.00    -0.010 C 
ENDROOT
BRANCH   5   7
HETATM    7  C9  UNL     1     -34.897  15.748  -3.566  1.00 20.00    -0.006 A 
HETATM    8  C5  UNL     1     -35.370  16.623  -2.386  1.00 20.00     0.006 A 
HETATM    9  C6  UNL     1     -33.950  16.610  -1.799  1.00 20.00     0.006 A 
HETATM   10  C10 UNL     1     -33.467  15.738  -2.977  1.00 20.00    -0.006 A 
ENDBRANCH   5   7
TORSDOF 2
ENDMDL
MODEL 8
REMARK VINA RESULT:      -4.1      1.285      1.429
REMARK  2 active torsions:
REMARK  status: ('A' for Active; 'I' for Inactive)
REMARK    1  A    between atoms: C7_7  and  C9_9 
REMARK    2  A    between atoms: C8_8  and  C10_10 
ROOT
HETATM    1  C1  UNL     1     -36.388  14.701  -3.734  1.00 20.00     0.005 C 
HETATM    2  C2  UNL     1     -35.411  13.610  -4.190  1.00 20.00     0.005 C 
HETATM    3  C3  UNL     1     -35.364  16.299  -5.354  1.00 20.00     0.005 C 
HETATM    4  C4  UNL     1     -34.380  15.202  -5.810  1.00 20.00     0.005 C 
HETATM    5  C7  UNL     1     -35.748  16.091  -3.874  1.00 20.00    -0.010 C 
HETATM    6  C8  UNL     1     -34.083  14.231  -4.647  1.00 20.00    -0.010 C 
ENDROOT
BRANCH   5   7
HETATM    7  C9  UNL     1     -34.442  16.173  -3.061  1.00 20.00    -0.006 A 
HETATM    8  C5  UNL     1     -33.667  17.496  -2.890  1.00 20.00     0.006 A 
HETATM    9  C6  UNL     1     -33.979  17.492  -1.385  1.00 20.00     0.006 A 
HETATM   10  C10 UNL     1     -34.753  16.166  -1.546  1.00 20.00    -0.006 A 
ENDBRANCH   5   7
TORSDOF 2
ENDMDL
MODEL 9
REMARK VINA RESULT:      -4.1      1.253      3.769
REMARK  2 active torsions:
REMARK  status: ('A' for Active; 'I' for Inactive)
REMARK    1  A    between atoms: C7_7  and  C9_9 
REMARK    2  A    between atoms: C8_8  and  C10_10 
ROOT
HETATM    1  C1  UNL     1     -36.310  17.007  -3.279  1.00 20.00     0.005 C 
HETATM    2  C2  UNL     1     -35.313  18.094  -3.697  1.00 20.00     0.005 C 
HETATM    3  C3  UNL     1     -34.713  16.207  -1.536  1.00 20.00     0.005 C 
HETATM    4  C4  UNL     1     -33.709  17.298  -1.959  1.00 20.00     0.005 C 
HETATM    5  C7  UNL     1     -35.570  15.771  -2.744  1.00 20.00    -0.010 C 
HETATM    6  C8  UNL     1     -33.870  17.623  -3.460  1.00 20.00    -0.010 C 
ENDROOT
BRANCH   5   7
HETATM    7  C9  UNL     1     -34.596  15.220  -3.803  1.00 20.00    -0.006 A 
HETATM    8  C5  UNL     1     -33.842  13.888  -3.606  1.00 20.00     0.006 A 
HETATM    9  C6  UNL     1     -34.626  13.266  -4.772  1.00 20.00     0.006 A 
HETATM   10  C10 UNL     1     -35.382  14.596  -4.979  1.00 20.00    -0.006 A 
ENDBRANCH   5   7
TORSDOF 2
ENDMDL
