MODEL 1
REMARK VINA RESULT:      -4.8      0.000      0.000
REMARK  2 active torsions:
REMARK  status: ('A' for Active; 'I' for Inactive)
REMARK    1  A    between atoms: C1_1  and  C2_2 
REMARK    2  A    between atoms: C2_2  and  C3_3 
ROOT
HETATM    1  C2  UNL     1     -34.070   6.445   4.273  1.00 20.00     0.218 C 
HETATM    2 CL8  UNL     1     -34.048   6.231   6.048  1.00 20.00    -0.113 Cl
ENDROOT
BRANCH   1   3
HETATM    3  C1  UNL     1     -32.642   6.477   3.746  1.00 20.00     0.251 C 
HETATM    4  F4  UNL     1     -32.565   7.299   2.667  1.00 20.00    -0.254 F 
ENDBRANCH   1   3
BRANCH   1   5
HETATM    5  C3  UNL     1     -34.892   5.339   3.640  1.00 20.00     0.406 C 
HETATM    6  F5  UNL     1     -36.152   5.761   3.391  1.00 20.00    -0.169 F 
HETATM    7  F6  UNL     1     -34.975   4.251   4.434  1.00 20.00    -0.169 F 
HETATM    8  F7  UNL     1     -34.361   4.951   2.459  1.00 20.00    -0.169 F 
ENDBRANCH   1   5
TORSDOF 2
ENDMDL
MODEL 2
REMARK VINA RESULT:      -4.8      0.021      1.333
REMARK  2 active torsions:
REMARK  status: ('A' for Active; 'I' for Inactive)
REMARK    1  A    between atoms: C1_1  and  C2_2 
REMARK    2  A    between atoms: C2_2  and  C3_3 
ROOT
HETATM    1  C2  UNL     1     -34.060   6.443   4.267  1.00 20.00     0.218 C 
HETATM    2 CL8  UNL     1     -34.041   6.237   6.043  1.00 20.00    -0.113 Cl
ENDROOT
BRANCH   1   3
HETATM    3  C1  UNL     1     -32.632   6.448   3.739  1.00 20.00     0.251 C 
HETATM    4  F4  UNL     1     -32.538   7.274   2.664  1.00 20.00    -0.254 F 
ENDBRANCH   1   3
BRANCH   1   5
HETATM    5  C3  UNL     1     -34.902   5.350   3.639  1.00 20.00     0.406 C 
HETATM    6  F5  UNL     1     -34.371   4.953   2.461  1.00 20.00    -0.169 F 
HETATM    7  F6  UNL     1     -36.167   5.758   3.401  1.00 20.00    -0.169 F 
HETATM    8  F7  UNL     1     -34.962   4.260   4.438  1.00 20.00    -0.169 F 
ENDBRANCH   1   5
TORSDOF 2
ENDMDL
MODEL 3
REMARK VINA RESULT:      -4.8      1.507      2.501
REMARK  2 active torsions:
REMARK  status: ('A' for Active; 'I' for Inactive)
REMARK    1  A    between atoms: C1_1  and  C2_2 
REMARK    2  A    between atoms: C2_2  and  C3_3 
ROOT
HETATM    1  C2  UNL     1     -34.489   5.856   5.154  1.00 20.00     0.218 C 
HETATM    2 CL8  UNL     1     -33.865   6.808   6.533  1.00 20.00    -0.113 Cl
ENDROOT
BRANCH   1   3
HETATM    3  C1  UNL     1     -33.488   5.904   4.007  1.00 20.00     0.251 C 
HETATM    4  F4  UNL     1     -34.093   5.532   2.848  1.00 20.00    -0.254 F 
ENDBRANCH   1   3
BRANCH   1   5
HETATM    5  C3  UNL     1     -34.776   4.438   5.607  1.00 20.00     0.406 C 
HETATM    6  F5  UNL     1     -33.651   3.844   6.067  1.00 20.00    -0.169 F 
HETATM    7  F6  UNL     1     -35.261   3.673   4.606  1.00 20.00    -0.169 F 
HETATM    8  F7  UNL     1     -35.677   4.420   6.615  1.00 20.00    -0.169 F 
ENDBRANCH   1   5
TORSDOF 2
ENDMDL
MODEL 4
REMARK VINA RESULT:      -4.8      1.515      2.785
REMARK  2 active torsions:
REMARK  status: ('A' for Active; 'I' for Inactive)
REMARK    1  A    between atoms: C1_1  and  C2_2 
REMARK    2  A    between atoms: C2_2  and  C3_3 
ROOT
HETATM    1  C2  UNL     1     -34.078   5.192   5.079  1.00 20.00     0.218 C 
HETATM    2 CL8  UNL     1     -34.056   6.474   6.326  1.00 20.00    -0.113 Cl
ENDROOT
BRANCH   1   3
HETATM    3  C1  UNL     1     -34.898   4.010   5.577  1.00 20.00     0.251 C 
HETATM    4  F4  UNL     1     -35.638   4.381   6.655  1.00 20.00    -0.254 F 
ENDBRANCH   1   3
BRANCH   1   5
HETATM    5  C3  UNL     1     -34.616   5.760   3.780  1.00 20.00     0.406 C 
HETATM    6  F5  UNL     1     -35.953   5.572   3.692  1.00 20.00    -0.169 F 
HETATM    7  F6  UNL     1     -34.051   5.180   2.700  1.00 20.00    -0.169 F 
HETATM    8  F7  UNL     1     -34.394   7.091   3.699  1.00 20.00    -0.169 F 
ENDBRANCH   1   5
TORSDOF 2
ENDMDL
MODEL 5
REMARK VINA RESULT:      -4.8      1.514      2.728
REMARK  2 active torsions:
REMARK  status: ('A' for Active; 'I' for Inactive)
REMARK    1  A    between atoms: C1_1  and  C2_2 
REMARK    2  A    between atoms: C2_2  and  C3_3 
ROOT
HETATM    1  C2  UNL     1     -34.083   5.191   5.075  1.00 20.00     0.218 C 
HETATM    2 CL8  UNL     1     -34.056   6.471   6.323  1.00 20.00    -0.113 Cl
ENDROOT
BRANCH   1   3
HETATM    3  C1  UNL     1     -34.897   4.007   5.578  1.00 20.00     0.251 C 
HETATM    4  F4  UNL     1     -35.639   4.378   6.655  1.00 20.00    -0.254 F 
ENDBRANCH   1   3
BRANCH   1   5
HETATM    5  C3  UNL     1     -34.632   5.758   3.781  1.00 20.00     0.406 C 
HETATM    6  F5  UNL     1     -34.389   7.085   3.698  1.00 20.00    -0.169 F 
HETATM    7  F6  UNL     1     -35.966   5.580   3.674  1.00 20.00    -0.169 F 
HETATM    8  F7  UNL     1     -34.049   5.178   2.707  1.00 20.00    -0.169 F 
ENDBRANCH   1   5
TORSDOF 2
ENDMDL
MODEL 6
REMARK VINA RESULT:      -4.7      1.509      2.952
REMARK  2 active torsions:
REMARK  status: ('A' for Active; 'I' for Inactive)
REMARK    1  A    between atoms: C1_1  and  C2_2 
REMARK    2  A    between atoms: C2_2  and  C3_3 
ROOT
HETATM    1  C2  UNL     1     -34.083   5.193   5.073  1.00 20.00     0.218 C 
HETATM    2 CL8  UNL     1     -34.058   6.462   6.333  1.00 20.00    -0.113 Cl
ENDROOT
BRANCH   1   3
HETATM    3  C1  UNL     1     -34.906   4.009   5.559  1.00 20.00     0.251 C 
HETATM    4  F4  UNL     1     -35.633   4.367   6.651  1.00 20.00    -0.254 F 
ENDBRANCH   1   3
BRANCH   1   5
HETATM    5  C3  UNL     1     -34.618   5.774   3.779  1.00 20.00     0.406 C 
HETATM    6  F5  UNL     1     -34.039   5.180   2.711  1.00 20.00    -0.169 F 
HETATM    7  F6  UNL     1     -34.386   7.101   3.685  1.00 20.00    -0.169 F 
HETATM    8  F7  UNL     1     -35.952   5.578   3.671  1.00 20.00    -0.169 F 
ENDBRANCH   1   5
TORSDOF 2
ENDMDL
MODEL 7
REMARK VINA RESULT:      -4.6      2.266      2.737
REMARK  2 active torsions:
REMARK  status: ('A' for Active; 'I' for Inactive)
REMARK    1  A    between atoms: C1_1  and  C2_2 
REMARK    2  A    between atoms: C2_2  and  C3_3 
ROOT
HETATM    1  C2  UNL     1     -34.195   5.302   4.642  1.00 20.00     0.218 C 
HETATM    2 CL8  UNL     1     -35.737   5.471   3.753  1.00 20.00    -0.113 Cl
ENDROOT
BRANCH   1   3
HETATM    3  C1  UNL     1     -33.248   6.423   4.237  1.00 20.00     0.251 C 
HETATM    4  F4  UNL     1     -32.237   5.924   3.478  1.00 20.00    -0.254 F 
ENDBRANCH   1   3
BRANCH   1   5
HETATM    5  C3  UNL     1     -34.469   5.292   6.133  1.00 20.00     0.406 C 
HETATM    6  F5  UNL     1     -35.715   4.832   6.388  1.00 20.00    -0.169 F 
HETATM    7  F6  UNL     1     -34.369   6.524   6.676  1.00 20.00    -0.169 F 
HETATM    8  F7  UNL     1     -33.604   4.481   6.784  1.00 20.00    -0.169 F 
ENDBRANCH   1   5
TORSDOF 2
ENDMDL
MODEL 8
REMARK VINA RESULT:      -4.6      2.263      2.715
REMARK  2 active torsions:
REMARK  status: ('A' for Active; 'I' for Inactive)
REMARK    1  A    between atoms: C1_1  and  C2_2 
REMARK    2  A    between atoms: C2_2  and  C3_3 
ROOT
HETATM    1  C2  UNL     1     -34.208   5.294   4.632  1.00 20.00     0.218 C 
HETATM    2 CL8  UNL     1     -35.756   5.480   3.756  1.00 20.00    -0.113 Cl
ENDROOT
BRANCH   1   3
HETATM    3  C1  UNL     1     -33.259   6.416   4.236  1.00 20.00     0.251 C 
HETATM    4  F4  UNL     1     -32.245   5.919   3.480  1.00 20.00    -0.254 F 
ENDBRANCH   1   3
BRANCH   1   5
HETATM    5  C3  UNL     1     -34.473   5.264   6.125  1.00 20.00     0.406 C 
HETATM    6  F5  UNL     1     -34.376   6.505   6.653  1.00 20.00    -0.169 F 
HETATM    7  F6  UNL     1     -33.597   4.472   6.780  1.00 20.00    -0.169 F 
HETATM    8  F7  UNL     1     -35.719   4.813   6.391  1.00 20.00    -0.169 F 
ENDBRANCH   1   5
TORSDOF 2
ENDMDL
MODEL 9
REMARK VINA RESULT:      -4.6      2.258      2.621
REMARK  2 active torsions:
REMARK  status: ('A' for Active; 'I' for Inactive)
REMARK    1  A    between atoms: C1_1  and  C2_2 
REMARK    2  A    between atoms: C2_2  and  C3_3 
ROOT
HETATM    1  C2  UNL     1     -33.891   5.608   5.366  1.00 20.00     0.218 C 
HETATM    2 CL8  UNL     1     -33.714   6.437   3.791  1.00 20.00    -0.113 Cl
ENDROOT
BRANCH   1   3
HETATM    3  C1  UNL     1     -34.050   6.643   6.471  1.00 20.00     0.251 C 
HETATM    4  F4  UNL     1     -32.858   7.250   6.712  1.00 20.00    -0.254 F 
ENDBRANCH   1   3
BRANCH   1   5
HETATM    5  C3  UNL     1     -35.064   4.649   5.304  1.00 20.00     0.406 C 
HETATM    6  F5  UNL     1     -35.704   4.596   6.493  1.00 20.00    -0.169 F 
HETATM    7  F6  UNL     1     -34.676   3.393   4.992  1.00 20.00    -0.169 F 
HETATM    8  F7  UNL     1     -35.969   5.043   4.380  1.00 20.00    -0.169 F 
ENDBRANCH   1   5
TORSDOF 2
ENDMDL
