MODEL 1
REMARK VINA RESULT:      -4.3      0.000      0.000
REMARK  1 active torsions:
REMARK  status: ('A' for Active; 'I' for Inactive)
REMARK    1  A    between atoms: C1_1  and  C8_8 
ROOT
HETATM    1  C1  UNL     1     -34.397  16.228  -2.976  1.00 20.00     0.069 C 
HETATM    2  C2  UNL     1     -35.865  15.217  -4.371  1.00 20.00     0.169 C 
HETATM    3  C3  UNL     1     -34.549  14.749  -5.011  1.00 20.00     0.025 C 
HETATM    4  C4  UNL     1     -34.595  14.823  -6.534  1.00 20.00     0.029 C 
HETATM    5  C5  UNL     1     -34.161  13.343  -4.545  1.00 20.00     0.029 C 
HETATM    6  N9  UNL     1     -35.611  15.792  -3.031  1.00 20.00    -0.285 NA
HETATM    7  S10 UNL     1     -33.357  15.955  -4.348  1.00 20.00    -0.104 SA
ENDROOT
BRANCH   1   8
HETATM    8  C8  UNL     1     -33.824  16.916  -1.784  1.00 20.00     0.036 C 
HETATM    9  C6  UNL     1     -33.606  18.401  -2.074  1.00 20.00     0.016 C 
HETATM   10  C7  UNL     1     -34.721  16.732  -0.560  1.00 20.00     0.016 C 
ENDBRANCH   1   8
TORSDOF 1
ENDMDL
MODEL 2
REMARK VINA RESULT:      -4.0      1.666      4.384
REMARK  1 active torsions:
REMARK  status: ('A' for Active; 'I' for Inactive)
REMARK    1  A    between atoms: C1_1  and  C8_8 
ROOT
HETATM    1  C1  UNL     1     -34.426  15.144  -5.632  1.00 20.00     0.069 C 
HETATM    2  C2  UNL     1     -34.382  14.158  -3.595  1.00 20.00     0.169 C 
HETATM    3  C3  UNL     1     -35.144  15.442  -3.235  1.00 20.00     0.025 C 
HETATM    4  C4  UNL     1     -34.665  16.040  -1.915  1.00 20.00     0.029 C 
HETATM    5  C5  UNL     1     -36.658  15.216  -3.212  1.00 20.00     0.029 C 
HETATM    6  N9  UNL     1     -34.322  13.989  -5.064  1.00 20.00    -0.285 NA
HETATM    7  S10 UNL     1     -34.718  16.536  -4.626  1.00 20.00    -0.104 SA
ENDROOT
BRANCH   1   8
HETATM    8  C8  UNL     1     -34.352  15.344  -7.107  1.00 20.00     0.036 C 
HETATM    9  C6  UNL     1     -35.398  14.486  -7.818  1.00 20.00     0.016 C 
HETATM   10  C7  UNL     1     -34.527  16.818  -7.472  1.00 20.00     0.016 C 
ENDBRANCH   1   8
TORSDOF 1
ENDMDL
MODEL 3
REMARK VINA RESULT:      -3.9      1.636      4.328
REMARK  1 active torsions:
REMARK  status: ('A' for Active; 'I' for Inactive)
REMARK    1  A    between atoms: C1_1  and  C8_8 
ROOT
HETATM    1  C1  UNL     1     -34.400  15.692  -4.114  1.00 20.00     0.069 C 
HETATM    2  C2  UNL     1     -34.002  17.702  -3.153  1.00 20.00     0.169 C 
HETATM    3  C3  UNL     1     -35.134  17.207  -2.240  1.00 20.00     0.025 C 
HETATM    4  C4  UNL     1     -36.140  18.311  -1.926  1.00 20.00     0.029 C 
HETATM    5  C5  UNL     1     -34.591  16.585  -0.950  1.00 20.00     0.029 C 
HETATM    6  N9  UNL     1     -33.481  16.589  -3.977  1.00 20.00    -0.285 NA
HETATM    7  S10 UNL     1     -35.903  15.911  -3.259  1.00 20.00    -0.104 SA
ENDROOT
BRANCH   1   8
HETATM    8  C8  UNL     1     -34.227  14.457  -4.931  1.00 20.00     0.036 C 
HETATM    9  C6  UNL     1     -35.050  13.309  -4.349  1.00 20.00     0.016 C 
HETATM   10  C7  UNL     1     -34.608  14.706  -6.391  1.00 20.00     0.016 C 
ENDBRANCH   1   8
TORSDOF 1
ENDMDL
MODEL 4
REMARK VINA RESULT:      -3.9      1.240      1.534
REMARK  1 active torsions:
REMARK  status: ('A' for Active; 'I' for Inactive)
REMARK    1  A    between atoms: C1_1  and  C8_8 
ROOT
HETATM    1  C1  UNL     1     -34.579  15.866  -3.106  1.00 20.00     0.069 C 
HETATM    2  C2  UNL     1     -35.349  14.114  -4.315  1.00 20.00     0.169 C 
HETATM    3  C3  UNL     1     -35.515  15.230  -5.357  1.00 20.00     0.025 C 
HETATM    4  C4  UNL     1     -36.839  15.119  -6.108  1.00 20.00     0.029 C 
HETATM    5  C5  UNL     1     -34.337  15.271  -6.336  1.00 20.00     0.029 C 
HETATM    6  N9  UNL     1     -34.505  14.580  -3.191  1.00 20.00    -0.285 NA
HETATM    7  S10 UNL     1     -35.490  16.724  -4.319  1.00 20.00    -0.104 SA
ENDROOT
BRANCH   1   8
HETATM    8  C8  UNL     1     -33.891  16.660  -2.049  1.00 20.00     0.036 C 
HETATM    9  C6  UNL     1     -33.693  18.105  -2.505  1.00 20.00     0.016 C 
HETATM   10  C7  UNL     1     -34.667  16.613  -0.732  1.00 20.00     0.016 C 
ENDBRANCH   1   8
TORSDOF 1
ENDMDL
MODEL 5
REMARK VINA RESULT:      -3.9      1.462      2.169
REMARK  1 active torsions:
REMARK  status: ('A' for Active; 'I' for Inactive)
REMARK    1  A    between atoms: C1_1  and  C8_8 
ROOT
HETATM    1  C1  UNL     1     -34.671  16.213  -2.581  1.00 20.00     0.069 C 
HETATM    2  C2  UNL     1     -33.199  14.906  -3.697  1.00 20.00     0.169 C 
HETATM    3  C3  UNL     1     -34.443  14.681  -4.569  1.00 20.00     0.025 C 
HETATM    4  C4  UNL     1     -34.606  13.217  -4.968  1.00 20.00     0.029 C 
HETATM    5  C5  UNL     1     -34.440  15.584  -5.805  1.00 20.00     0.029 C 
HETATM    6  N9  UNL     1     -33.406  16.055  -2.788  1.00 20.00    -0.285 NA
HETATM    7  S10 UNL     1     -35.785  15.193  -3.451  1.00 20.00    -0.104 SA
ENDROOT
BRANCH   1   8
HETATM    8  C8  UNL     1     -35.231  17.251  -1.670  1.00 20.00     0.036 C 
HETATM    9  C6  UNL     1     -34.758  17.018  -0.236  1.00 20.00     0.016 C 
HETATM   10  C7  UNL     1     -34.854  18.656  -2.140  1.00 20.00     0.016 C 
ENDBRANCH   1   8
TORSDOF 1
ENDMDL
MODEL 6
REMARK VINA RESULT:      -3.9     12.648     14.267
REMARK  1 active torsions:
REMARK  status: ('A' for Active; 'I' for Inactive)
REMARK    1  A    between atoms: C1_1  and  C8_8 
ROOT
HETATM    1  C1  UNL     1     -41.925   4.061  -2.313  1.00 20.00     0.069 C 
HETATM    2  C2  UNL     1     -40.701   5.318  -0.884  1.00 20.00     0.169 C 
HETATM    3  C3  UNL     1     -41.989   6.154  -0.913  1.00 20.00     0.025 C 
HETATM    4  C4  UNL     1     -41.699   7.650  -0.995  1.00 20.00     0.029 C 
HETATM    5  C5  UNL     1     -42.895   5.841   0.281  1.00 20.00     0.029 C 
HETATM    6  N9  UNL     1     -40.937   3.987  -1.485  1.00 20.00    -0.285 NA
HETATM    7  S10 UNL     1     -42.784   5.572  -2.443  1.00 20.00    -0.104 SA
ENDROOT
BRANCH   1   8
HETATM    8  C8  UNL     1     -42.398   2.909  -3.134  1.00 20.00     0.036 C 
HETATM    9  C6  UNL     1     -41.213   2.088  -3.640  1.00 20.00     0.016 C 
HETATM   10  C7  UNL     1     -43.363   2.028  -2.340  1.00 20.00     0.016 C 
ENDBRANCH   1   8
TORSDOF 1
ENDMDL
MODEL 7
REMARK VINA RESULT:      -3.7      1.114      4.147
REMARK  1 active torsions:
REMARK  status: ('A' for Active; 'I' for Inactive)
REMARK    1  A    between atoms: C1_1  and  C8_8 
ROOT
HETATM    1  C1  UNL     1     -35.375  15.502  -4.234  1.00 20.00     0.069 C 
HETATM    2  C2  UNL     1     -36.143  16.998  -2.719  1.00 20.00     0.169 C 
HETATM    3  C3  UNL     1     -34.700  16.849  -2.215  1.00 20.00     0.025 C 
HETATM    4  C4  UNL     1     -34.632  16.759  -0.693  1.00 20.00     0.029 C 
HETATM    5  C5  UNL     1     -33.800  17.974  -2.734  1.00 20.00     0.029 C 
HETATM    6  N9  UNL     1     -36.281  16.407  -4.070  1.00 20.00    -0.285 NA
HETATM    7  S10 UNL     1     -34.195  15.274  -2.973  1.00 20.00    -0.104 SA
ENDROOT
BRANCH   1   8
HETATM    8  C8  UNL     1     -35.259  14.671  -5.467  1.00 20.00     0.036 C 
HETATM    9  C6  UNL     1     -34.349  15.350  -6.489  1.00 20.00     0.016 C 
HETATM   10  C7  UNL     1     -34.747  13.268  -5.138  1.00 20.00     0.016 C 
ENDBRANCH   1   8
TORSDOF 1
ENDMDL
MODEL 8
REMARK VINA RESULT:      -3.7      2.035      4.395
REMARK  1 active torsions:
REMARK  status: ('A' for Active; 'I' for Inactive)
REMARK    1  A    between atoms: C1_1  and  C8_8 
ROOT
HETATM    1  C1  UNL     1     -34.504  16.128  -5.947  1.00 20.00     0.069 C 
HETATM    2  C2  UNL     1     -33.278  16.239  -4.048  1.00 20.00     0.169 C 
HETATM    3  C3  UNL     1     -34.463  15.408  -3.533  1.00 20.00     0.025 C 
HETATM    4  C4  UNL     1     -34.919  15.860  -2.148  1.00 20.00     0.029 C 
HETATM    5  C5  UNL     1     -34.150  13.909  -3.540  1.00 20.00     0.029 C 
HETATM    6  N9  UNL     1     -33.296  16.300  -5.526  1.00 20.00    -0.285 NA
HETATM    7  S10 UNL     1     -35.743  15.764  -4.776  1.00 20.00    -0.104 SA
ENDROOT
BRANCH   1   8
HETATM    8  C8  UNL     1     -34.889  16.182  -7.386  1.00 20.00     0.036 C 
HETATM    9  C6  UNL     1     -35.178  14.779  -7.918  1.00 20.00     0.016 C 
HETATM   10  C7  UNL     1     -36.095  17.097  -7.599  1.00 20.00     0.016 C 
ENDBRANCH   1   8
TORSDOF 1
ENDMDL
MODEL 9
REMARK VINA RESULT:      -3.6      1.753      2.903
REMARK  1 active torsions:
REMARK  status: ('A' for Active; 'I' for Inactive)
REMARK    1  A    between atoms: C1_1  and  C8_8 
ROOT
HETATM    1  C1  UNL     1     -35.294  15.552  -4.680  1.00 20.00     0.069 C 
HETATM    2  C2  UNL     1     -36.393  16.455  -6.441  1.00 20.00     0.169 C 
HETATM    3  C3  UNL     1     -35.007  16.270  -7.078  1.00 20.00     0.025 C 
HETATM    4  C4  UNL     1     -34.598  17.476  -7.918  1.00 20.00     0.029 C 
HETATM    5  C5  UNL     1     -34.930  14.982  -7.903  1.00 20.00     0.029 C 
HETATM    6  N9  UNL     1     -36.480  15.703  -5.170  1.00 20.00    -0.285 NA
HETATM    7  S10 UNL     1     -33.936  16.115  -5.615  1.00 20.00    -0.104 SA
ENDROOT
BRANCH   1   8
HETATM    8  C8  UNL     1     -35.023  14.881  -3.377  1.00 20.00     0.036 C 
HETATM    9  C6  UNL     1     -34.046  13.721  -3.562  1.00 20.00     0.016 C 
HETATM   10  C7  UNL     1     -34.488  15.877  -2.347  1.00 20.00     0.016 C 
ENDBRANCH   1   8
TORSDOF 1
ENDMDL
