MODEL 1
REMARK VINA RESULT:      -5.7      0.000      0.000
REMARK  4 active torsions:
REMARK  status: ('A' for Active; 'I' for Inactive)
REMARK    1  A    between atoms: C1_1  and  C6_6 
REMARK    2  A    between atoms: C2_2  and  C7_7 
REMARK    3  A    between atoms: C6_6  and  C8_8 
REMARK    4  A    between atoms: C7_7  and  C9_9 
ROOT
HETATM    1  C1  UNL     1     -32.790   6.863   3.128  1.00 20.00    -0.107 C 
HETATM    2  C2  UNL     1     -33.721   6.182   3.468  1.00 20.00    -0.106 C 
ENDROOT
BRANCH   2   3
HETATM    3  C7  UNL     1     -34.864   5.361   3.890  1.00 20.00     0.097 C 
BRANCH   3   4
HETATM    4  C9  UNL     1     -35.007   5.240   5.417  1.00 20.00    -0.012 C 
HETATM    5  C4  UNL     1     -34.139   6.256   6.164  1.00 20.00     0.010 C 
HETATM    6  C5  UNL     1     -34.726   3.821   5.917  1.00 20.00     0.010 C 
ENDBRANCH   3   4
ENDBRANCH   2   3
BRANCH   1   7
HETATM    7  C6  UNL     1     -31.660   7.706   2.719  1.00 20.00     0.093 C 
BRANCH   7   8
HETATM    8  C8  UNL     1     -31.922   8.416   1.390  1.00 20.00     0.007 C 
HETATM    9  C3  UNL     1     -32.503   9.813   1.565  1.00 20.00     0.006 C 
ENDBRANCH   7   8
ENDBRANCH   1   7
TORSDOF 4
ENDMDL
MODEL 2
REMARK VINA RESULT:      -5.6      0.434      1.247
REMARK  4 active torsions:
REMARK  status: ('A' for Active; 'I' for Inactive)
REMARK    1  A    between atoms: C1_1  and  C6_6 
REMARK    2  A    between atoms: C2_2  and  C7_7 
REMARK    3  A    between atoms: C6_6  and  C8_8 
REMARK    4  A    between atoms: C7_7  and  C9_9 
ROOT
HETATM    1  C1  UNL     1     -32.588   7.029   3.017  1.00 20.00    -0.107 C 
HETATM    2  C2  UNL     1     -33.456   6.341   3.482  1.00 20.00    -0.106 C 
ENDROOT
BRANCH   2   3
HETATM    3  C7  UNL     1     -34.515   5.504   4.063  1.00 20.00     0.097 C 
BRANCH   3   4
HETATM    4  C9  UNL     1     -34.259   5.114   5.529  1.00 20.00    -0.012 C 
HETATM    5  C4  UNL     1     -35.299   4.124   6.058  1.00 20.00     0.010 C 
HETATM    6  C5  UNL     1     -34.162   6.336   6.447  1.00 20.00     0.010 C 
ENDBRANCH   3   4
ENDBRANCH   2   3
BRANCH   1   7
HETATM    7  C6  UNL     1     -31.525   7.877   2.463  1.00 20.00     0.093 C 
BRANCH   7   8
HETATM    8  C8  UNL     1     -31.958   8.577   1.175  1.00 20.00     0.007 C 
HETATM    9  C3  UNL     1     -32.546   9.961   1.417  1.00 20.00     0.006 C 
ENDBRANCH   7   8
ENDBRANCH   1   7
TORSDOF 4
ENDMDL
MODEL 3
REMARK VINA RESULT:      -5.3      0.574      5.309
REMARK  4 active torsions:
REMARK  status: ('A' for Active; 'I' for Inactive)
REMARK    1  A    between atoms: C1_1  and  C6_6 
REMARK    2  A    between atoms: C2_2  and  C7_7 
REMARK    3  A    between atoms: C6_6  and  C8_8 
REMARK    4  A    between atoms: C7_7  and  C9_9 
ROOT
HETATM    1  C1  UNL     1     -33.899   5.963   3.642  1.00 20.00    -0.107 C 
HETATM    2  C2  UNL     1     -33.036   6.716   3.280  1.00 20.00    -0.106 C 
ENDROOT
BRANCH   2   3
HETATM    3  C7  UNL     1     -31.988   7.643   2.829  1.00 20.00     0.097 C 
BRANCH   3   4
HETATM    4  C9  UNL     1     -32.421   8.539   1.654  1.00 20.00    -0.012 C 
HETATM    5  C4  UNL     1     -31.410   8.520   0.506  1.00 20.00     0.010 C 
HETATM    6  C5  UNL     1     -32.709   9.976   2.095  1.00 20.00     0.010 C 
ENDBRANCH   3   4
ENDBRANCH   2   3
BRANCH   1   7
HETATM    7  C6  UNL     1     -34.965   5.053   4.079  1.00 20.00     0.093 C 
BRANCH   7   8
HETATM    8  C8  UNL     1     -34.821   4.659   5.549  1.00 20.00     0.007 C 
HETATM    9  C3  UNL     1     -34.450   5.833   6.447  1.00 20.00     0.006 C 
ENDBRANCH   7   8
ENDBRANCH   1   7
TORSDOF 4
ENDMDL
MODEL 4
REMARK VINA RESULT:      -5.0      0.762      1.594
REMARK  4 active torsions:
REMARK  status: ('A' for Active; 'I' for Inactive)
REMARK    1  A    between atoms: C1_1  and  C6_6 
REMARK    2  A    between atoms: C2_2  and  C7_7 
REMARK    3  A    between atoms: C6_6  and  C8_8 
REMARK    4  A    between atoms: C7_7  and  C9_9 
ROOT
HETATM    1  C1  UNL     1     -32.568   7.038   3.397  1.00 20.00    -0.107 C 
HETATM    2  C2  UNL     1     -33.156   6.654   4.372  1.00 20.00    -0.106 C 
ENDROOT
BRANCH   2   3
HETATM    3  C7  UNL     1     -33.878   6.198   5.568  1.00 20.00     0.097 C 
BRANCH   3   4
HETATM    4  C9  UNL     1     -35.071   5.278   5.255  1.00 20.00    -0.012 C 
HETATM    5  C4  UNL     1     -34.812   3.828   5.672  1.00 20.00     0.010 C 
HETATM    6  C5  UNL     1     -35.490   5.349   3.784  1.00 20.00     0.010 C 
ENDBRANCH   3   4
ENDBRANCH   2   3
BRANCH   1   7
HETATM    7  C6  UNL     1     -31.855   7.521   2.208  1.00 20.00     0.093 C 
BRANCH   7   8
HETATM    8  C8  UNL     1     -32.225   8.963   1.860  1.00 20.00     0.007 C 
HETATM    9  C3  UNL     1     -32.431   9.181   0.367  1.00 20.00     0.006 C 
ENDBRANCH   7   8
ENDBRANCH   1   7
TORSDOF 4
ENDMDL
MODEL 5
REMARK VINA RESULT:      -4.9      0.855      4.917
REMARK  4 active torsions:
REMARK  status: ('A' for Active; 'I' for Inactive)
REMARK    1  A    between atoms: C1_1  and  C6_6 
REMARK    2  A    between atoms: C2_2  and  C7_7 
REMARK    3  A    between atoms: C6_6  and  C8_8 
REMARK    4  A    between atoms: C7_7  and  C9_9 
ROOT
HETATM    1  C1  UNL     1     -34.358   5.274   3.934  1.00 20.00    -0.107 C 
HETATM    2  C2  UNL     1     -33.570   5.759   3.168  1.00 20.00    -0.106 C 
ENDROOT
BRANCH   2   3
HETATM    3  C7  UNL     1     -32.597   6.353   2.240  1.00 20.00     0.097 C 
BRANCH   3   4
HETATM    4  C9  UNL     1     -32.251   7.817   2.561  1.00 20.00    -0.012 C 
HETATM    5  C4  UNL     1     -31.764   8.583   1.329  1.00 20.00     0.010 C 
HETATM    6  C5  UNL     1     -31.242   7.939   3.706  1.00 20.00     0.010 C 
ENDBRANCH   3   4
ENDBRANCH   2   3
BRANCH   1   7
HETATM    7  C6  UNL     1     -35.310   4.679   4.880  1.00 20.00     0.093 C 
BRANCH   7   8
HETATM    8  C8  UNL     1     -34.947   4.985   6.333  1.00 20.00     0.007 C 
HETATM    9  C3  UNL     1     -34.161   6.279   6.491  1.00 20.00     0.006 C 
ENDBRANCH   7   8
ENDBRANCH   1   7
TORSDOF 4
ENDMDL
MODEL 6
REMARK VINA RESULT:      -4.8      0.665      5.132
REMARK  4 active torsions:
REMARK  status: ('A' for Active; 'I' for Inactive)
REMARK    1  A    between atoms: C1_1  and  C6_6 
REMARK    2  A    between atoms: C2_2  and  C7_7 
REMARK    3  A    between atoms: C6_6  and  C8_8 
REMARK    4  A    between atoms: C7_7  and  C9_9 
ROOT
HETATM    1  C1  UNL     1     -33.841   6.186   3.483  1.00 20.00    -0.107 C 
HETATM    2  C2  UNL     1     -32.843   6.815   3.258  1.00 20.00    -0.106 C 
ENDROOT
BRANCH   2   3
HETATM    3  C7  UNL     1     -31.614   7.574   2.984  1.00 20.00     0.097 C 
BRANCH   3   4
HETATM    4  C9  UNL     1     -31.796   8.688   1.939  1.00 20.00    -0.012 C 
HETATM    5  C4  UNL     1     -33.034   9.545   2.213  1.00 20.00     0.010 C 
HETATM    6  C5  UNL     1     -31.824   8.144   0.508  1.00 20.00     0.010 C 
ENDBRANCH   3   4
ENDBRANCH   2   3
BRANCH   1   7
HETATM    7  C6  UNL     1     -35.053   5.404   3.757  1.00 20.00     0.093 C 
BRANCH   7   8
HETATM    8  C8  UNL     1     -34.959   4.636   5.076  1.00 20.00     0.007 C 
HETATM    9  C3  UNL     1     -34.552   5.517   6.250  1.00 20.00     0.006 C 
ENDBRANCH   7   8
ENDBRANCH   1   7
TORSDOF 4
ENDMDL
MODEL 7
REMARK VINA RESULT:      -4.6      0.926      5.093
REMARK  4 active torsions:
REMARK  status: ('A' for Active; 'I' for Inactive)
REMARK    1  A    between atoms: C1_1  and  C6_6 
REMARK    2  A    between atoms: C2_2  and  C7_7 
REMARK    3  A    between atoms: C6_6  and  C8_8 
REMARK    4  A    between atoms: C7_7  and  C9_9 
ROOT
HETATM    1  C1  UNL     1     -33.811   6.191   5.015  1.00 20.00    -0.107 C 
HETATM    2  C2  UNL     1     -33.342   6.341   3.919  1.00 20.00    -0.106 C 
ENDROOT
BRANCH   2   3
HETATM    3  C7  UNL     1     -32.772   6.513   2.575  1.00 20.00     0.097 C 
BRANCH   3   4
HETATM    4  C9  UNL     1     -31.718   7.631   2.490  1.00 20.00    -0.012 C 
HETATM    5  C4  UNL     1     -31.166   8.015   3.865  1.00 20.00     0.010 C 
HETATM    6  C5  UNL     1     -32.240   8.867   1.754  1.00 20.00     0.010 C 
ENDBRANCH   3   4
ENDBRANCH   2   3
BRANCH   1   7
HETATM    7  C6  UNL     1     -34.392   5.994   6.349  1.00 20.00     0.093 C 
BRANCH   7   8
HETATM    8  C8  UNL     1     -35.063   4.628   6.490  1.00 20.00     0.007 C 
HETATM    9  C3  UNL     1     -35.080   3.835   5.190  1.00 20.00     0.006 C 
ENDBRANCH   7   8
ENDBRANCH   1   7
TORSDOF 4
ENDMDL
MODEL 8
REMARK VINA RESULT:      -4.3     10.779     11.719
REMARK  4 active torsions:
REMARK  status: ('A' for Active; 'I' for Inactive)
REMARK    1  A    between atoms: C1_1  and  C6_6 
REMARK    2  A    between atoms: C2_2  and  C7_7 
REMARK    3  A    between atoms: C6_6  and  C8_8 
REMARK    4  A    between atoms: C7_7  and  C9_9 
ROOT
HETATM    1  C1  UNL     1     -34.447  16.836  -1.065  1.00 20.00    -0.107 C 
HETATM    2  C2  UNL     1     -34.793  16.083  -1.935  1.00 20.00    -0.106 C 
ENDROOT
BRANCH   2   3
HETATM    3  C7  UNL     1     -35.229  15.168  -3.000  1.00 20.00     0.097 C 
BRANCH   3   4
HETATM    4  C9  UNL     1     -34.141  14.175  -3.443  1.00 20.00    -0.012 C 
HETATM    5  C4  UNL     1     -32.804  14.863  -3.723  1.00 20.00     0.010 C 
HETATM    6  C5  UNL     1     -34.577  13.335  -4.647  1.00 20.00     0.010 C 
ENDBRANCH   3   4
ENDBRANCH   2   3
BRANCH   1   7
HETATM    7  C6  UNL     1     -34.038  17.763  -0.002  1.00 20.00     0.093 C 
BRANCH   7   8
HETATM    8  C8  UNL     1     -32.937  18.719  -0.464  1.00 20.00     0.007 C 
HETATM    9  C3  UNL     1     -31.848  18.922   0.580  1.00 20.00     0.006 C 
ENDBRANCH   7   8
ENDBRANCH   1   7
TORSDOF 4
ENDMDL
MODEL 9
REMARK VINA RESULT:      -4.2     10.752     11.568
REMARK  4 active torsions:
REMARK  status: ('A' for Active; 'I' for Inactive)
REMARK    1  A    between atoms: C1_1  and  C6_6 
REMARK    2  A    between atoms: C2_2  and  C7_7 
REMARK    3  A    between atoms: C6_6  and  C8_8 
REMARK    4  A    between atoms: C7_7  and  C9_9 
ROOT
HETATM    1  C1  UNL     1     -34.607  16.700  -1.070  1.00 20.00    -0.107 C 
HETATM    2  C2  UNL     1     -34.880  15.991  -2.001  1.00 20.00    -0.106 C 
ENDROOT
BRANCH   2   3
HETATM    3  C7  UNL     1     -35.224  15.133  -3.144  1.00 20.00     0.097 C 
BRANCH   3   4
HETATM    4  C9  UNL     1     -34.125  14.118  -3.505  1.00 20.00    -0.012 C 
HETATM    5  C4  UNL     1     -32.760  14.782  -3.698  1.00 20.00     0.010 C 
HETATM    6  C5  UNL     1     -34.492  13.276  -4.730  1.00 20.00     0.010 C 
ENDBRANCH   3   4
ENDBRANCH   2   3
BRANCH   1   7
HETATM    7  C6  UNL     1     -34.284  17.577   0.062  1.00 20.00     0.093 C 
BRANCH   7   8
HETATM    8  C8  UNL     1     -35.399  17.602   1.109  1.00 20.00     0.007 C 
HETATM    9  C3  UNL     1     -34.893  17.914   2.510  1.00 20.00     0.006 C 
ENDBRANCH   7   8
ENDBRANCH   1   7
TORSDOF 4
ENDMDL
