MODEL 1
REMARK VINA RESULT:      -5.2      0.000      0.000
REMARK  0 active torsions:
REMARK  status: ('A' for Active; 'I' for Inactive)
ROOT
HETATM    1  C1  UNL     1     -34.651  14.530  -4.553  1.00 20.00    -0.081 C 
HETATM    2  C2  UNL     1     -34.448  13.217  -4.763  1.00 20.00     0.015 C 
HETATM    3  C3  UNL     1     -34.787  15.019  -3.124  1.00 20.00     0.034 C 
HETATM    4  C4  UNL     1     -33.695  16.033  -2.794  1.00 20.00     0.004 C 
HETATM    5  C5  UNL     1     -33.635  17.166  -3.814  1.00 20.00     0.001 C 
HETATM    6  C6  UNL     1     -36.819  15.149  -7.706  1.00 20.00     0.000 C 
HETATM    7  C7  UNL     1     -37.155  15.555  -6.278  1.00 20.00     0.001 C 
HETATM    8  C8  UNL     1     -35.504  14.387  -7.769  1.00 20.00     0.001 C 
HETATM    9  C9  UNL     1     -33.532  16.633  -5.246  1.00 20.00     0.014 C 
HETATM   10  C10 UNL     1     -36.025  16.382  -5.667  1.00 20.00     0.014 C 
HETATM   11  C11 UNL     1     -34.359  15.143  -7.086  1.00 20.00     0.014 C 
HETATM   12  C12 UNL     1     -34.661  15.630  -5.634  1.00 20.00    -0.018 C 
ENDROOT
TORSDOF 0
ENDMDL
MODEL 2
REMARK VINA RESULT:      -4.9      2.032      4.253
REMARK  0 active torsions:
REMARK  status: ('A' for Active; 'I' for Inactive)
ROOT
HETATM    1  C1  UNL     1     -35.553  15.806  -4.073  1.00 20.00    -0.081 C 
HETATM    2  C2  UNL     1     -36.313  16.579  -4.867  1.00 20.00     0.015 C 
HETATM    3  C3  UNL     1     -35.950  14.355  -3.884  1.00 20.00     0.034 C 
HETATM    4  C4  UNL     1     -34.842  13.424  -4.367  1.00 20.00     0.004 C 
HETATM    5  C5  UNL     1     -33.492  13.764  -3.742  1.00 20.00     0.001 C 
HETATM    6  C6  UNL     1     -34.624  18.576  -1.525  1.00 20.00     0.000 C 
HETATM    7  C7  UNL     1     -35.177  17.195  -1.204  1.00 20.00     0.001 C 
HETATM    8  C8  UNL     1     -34.516  18.794  -3.027  1.00 20.00     0.001 C 
HETATM    9  C9  UNL     1     -33.141  15.243  -3.924  1.00 20.00     0.014 C 
HETATM   10  C10 UNL     1     -34.323  16.103  -1.846  1.00 20.00     0.014 C 
HETATM   11  C11 UNL     1     -33.741  17.670  -3.725  1.00 20.00     0.014 C 
HETATM   12  C12 UNL     1     -34.231  16.225  -3.396  1.00 20.00    -0.018 C 
ENDROOT
TORSDOF 0
ENDMDL
MODEL 3
REMARK VINA RESULT:      -4.9      1.833      3.448
REMARK  0 active torsions:
REMARK  status: ('A' for Active; 'I' for Inactive)
ROOT
HETATM    1  C1  UNL     1     -34.558  15.649  -2.947  1.00 20.00    -0.081 C 
HETATM    2  C2  UNL     1     -34.674  16.187  -1.721  1.00 20.00     0.015 C 
HETATM    3  C3  UNL     1     -33.183  15.213  -3.416  1.00 20.00     0.034 C 
HETATM    4  C4  UNL     1     -33.165  13.717  -3.720  1.00 20.00     0.004 C 
HETATM    5  C5  UNL     1     -34.283  13.311  -4.675  1.00 20.00     0.001 C 
HETATM    6  C6  UNL     1     -37.288  17.819  -4.638  1.00 20.00     0.000 C 
HETATM    7  C7  UNL     1     -35.870  17.593  -5.139  1.00 20.00     0.001 C 
HETATM    8  C8  UNL     1     -37.525  17.117  -3.309  1.00 20.00     0.001 C 
HETATM    9  C9  UNL     1     -35.650  13.797  -4.186  1.00 20.00     0.014 C 
HETATM   10  C10 UNL     1     -35.566  16.100  -5.257  1.00 20.00     0.014 C 
HETATM   11  C11 UNL     1     -37.148  15.632  -3.359  1.00 20.00     0.014 C 
HETATM   12  C12 UNL     1     -35.719  15.331  -3.912  1.00 20.00    -0.018 C 
ENDROOT
TORSDOF 0
ENDMDL
MODEL 4
REMARK VINA RESULT:      -4.9      2.123      3.620
REMARK  0 active torsions:
REMARK  status: ('A' for Active; 'I' for Inactive)
ROOT
HETATM    1  C1  UNL     1     -34.834  17.231  -3.831  1.00 20.00    -0.081 C 
HETATM    2  C2  UNL     1     -35.743  17.609  -4.748  1.00 20.00     0.015 C 
HETATM    3  C3  UNL     1     -33.630  18.122  -3.599  1.00 20.00     0.034 C 
HETATM    4  C4  UNL     1     -33.588  18.609  -2.153  1.00 20.00     0.004 C 
HETATM    5  C5  UNL     1     -33.685  17.458  -1.156  1.00 20.00     0.001 C 
HETATM    6  C6  UNL     1     -35.135  13.419  -4.464  1.00 20.00     0.000 C 
HETATM    7  C7  UNL     1     -33.851  14.233  -4.417  1.00 20.00     0.001 C 
HETATM    8  C8  UNL     1     -36.359  14.305  -4.282  1.00 20.00     0.001 C 
HETATM    9  C9  UNL     1     -34.894  16.562  -1.443  1.00 20.00     0.014 C 
HETATM   10  C10 UNL     1     -33.754  15.024  -3.113  1.00 20.00     0.014 C 
HETATM   11  C11 UNL     1     -36.262  15.183  -3.029  1.00 20.00     0.014 C 
HETATM   12  C12 UNL     1     -34.942  16.007  -2.899  1.00 20.00    -0.018 C 
ENDROOT
TORSDOF 0
ENDMDL
MODEL 5
REMARK VINA RESULT:      -4.9      1.419      2.163
REMARK  0 active torsions:
REMARK  status: ('A' for Active; 'I' for Inactive)
ROOT
HETATM    1  C1  UNL     1     -35.999  15.635  -3.701  1.00 20.00    -0.081 C 
HETATM    2  C2  UNL     1     -37.057  14.816  -3.843  1.00 20.00     0.015 C 
HETATM    3  C3  UNL     1     -36.142  16.847  -2.801  1.00 20.00     0.034 C 
HETATM    4  C4  UNL     1     -35.136  16.790  -1.654  1.00 20.00     0.004 C 
HETATM    5  C5  UNL     1     -33.710  16.573  -2.150  1.00 20.00     0.001 C 
HETATM    6  C6  UNL     1     -34.661  15.255  -7.319  1.00 20.00     0.000 C 
HETATM    7  C7  UNL     1     -34.918  16.559  -6.578  1.00 20.00     0.001 C 
HETATM    8  C8  UNL     1     -35.054  14.052  -6.474  1.00 20.00     0.001 C 
HETATM    9  C9  UNL     1     -33.612  15.362  -3.082  1.00 20.00     0.014 C 
HETATM   10  C10 UNL     1     -34.182  16.578  -5.238  1.00 20.00     0.014 C 
HETATM   11  C11 UNL     1     -34.406  14.078  -5.085  1.00 20.00     0.014 C 
HETATM   12  C12 UNL     1     -34.593  15.410  -4.293  1.00 20.00    -0.018 C 
ENDROOT
TORSDOF 0
ENDMDL
MODEL 6
REMARK VINA RESULT:      -4.9      1.120      2.648
REMARK  0 active torsions:
REMARK  status: ('A' for Active; 'I' for Inactive)
ROOT
HETATM    1  C1  UNL     1     -34.718  16.214  -4.891  1.00 20.00    -0.081 C 
HETATM    2  C2  UNL     1     -35.283  17.420  -4.702  1.00 20.00     0.015 C 
HETATM    3  C3  UNL     1     -33.214  16.092  -4.742  1.00 20.00     0.034 C 
HETATM    4  C4  UNL     1     -32.860  15.105  -3.632  1.00 20.00     0.004 C 
HETATM    5  C5  UNL     1     -33.558  13.761  -3.814  1.00 20.00     0.001 C 
HETATM    6  C6  UNL     1     -37.137  15.030  -7.678  1.00 20.00     0.000 C 
HETATM    7  C7  UNL     1     -35.616  15.002  -7.724  1.00 20.00     0.001 C 
HETATM    8  C8  UNL     1     -37.641  15.653  -6.385  1.00 20.00     0.001 C 
HETATM    9  C9  UNL     1     -35.070  13.928  -3.994  1.00 20.00     0.014 C 
HETATM   10  C10 UNL     1     -35.049  14.261  -6.513  1.00 20.00     0.014 C 
HETATM   11  C11 UNL     1     -37.027  14.996  -5.144  1.00 20.00     0.014 C 
HETATM   12  C12 UNL     1     -35.469  14.892  -5.152  1.00 20.00    -0.018 C 
ENDROOT
TORSDOF 0
ENDMDL
MODEL 7
REMARK VINA RESULT:      -4.8      1.511      4.233
REMARK  0 active torsions:
REMARK  status: ('A' for Active; 'I' for Inactive)
ROOT
HETATM    1  C1  UNL     1     -34.334  16.103  -4.881  1.00 20.00    -0.081 C 
HETATM    2  C2  UNL     1     -33.448  17.057  -5.217  1.00 20.00     0.015 C 
HETATM    3  C3  UNL     1     -35.080  15.388  -5.991  1.00 20.00     0.034 C 
HETATM    4  C4  UNL     1     -34.786  13.890  -5.962  1.00 20.00     0.004 C 
HETATM    5  C5  UNL     1     -35.032  13.283  -4.584  1.00 20.00     0.001 C 
HETATM    6  C6  UNL     1     -35.569  17.783  -1.614  1.00 20.00     0.000 C 
HETATM    7  C7  UNL     1     -36.436  17.245  -2.742  1.00 20.00     0.001 C 
HETATM    8  C8  UNL     1     -34.089  17.637  -1.936  1.00 20.00     0.001 C 
HETATM    9  C9  UNL     1     -34.290  14.051  -3.486  1.00 20.00     0.014 C 
HETATM   10  C10 UNL     1     -36.093  15.788  -3.047  1.00 20.00     0.014 C 
HETATM   11  C11 UNL     1     -33.717  16.205  -2.334  1.00 20.00     0.014 C 
HETATM   12  C12 UNL     1     -34.604  15.578  -3.456  1.00 20.00    -0.018 C 
ENDROOT
TORSDOF 0
ENDMDL
MODEL 8
REMARK VINA RESULT:      -4.8      0.999      4.023
REMARK  0 active torsions:
REMARK  status: ('A' for Active; 'I' for Inactive)
ROOT
HETATM    1  C1  UNL     1     -36.066  15.877  -5.273  1.00 20.00    -0.081 C 
HETATM    2  C2  UNL     1     -36.128  16.971  -4.493  1.00 20.00     0.015 C 
HETATM    3  C3  UNL     1     -37.363  15.280  -5.782  1.00 20.00     0.034 C 
HETATM    4  C4  UNL     1     -37.398  15.287  -7.309  1.00 20.00     0.004 C 
HETATM    5  C5  UNL     1     -36.157  14.638  -7.915  1.00 20.00     0.001 C 
HETATM    6  C6  UNL     1     -32.999  14.272  -3.528  1.00 20.00     0.000 C 
HETATM    7  C7  UNL     1     -34.325  13.593  -3.839  1.00 20.00     0.001 C 
HETATM    8  C8  UNL     1     -33.016  15.736  -3.942  1.00 20.00     0.001 C 
HETATM    9  C9  UNL     1     -34.869  15.244  -7.352  1.00 20.00     0.014 C 
HETATM   10  C10 UNL     1     -34.672  13.730  -5.321  1.00 20.00     0.014 C 
HETATM   11  C11 UNL     1     -33.446  15.924  -5.401  1.00 20.00     0.014 C 
HETATM   12  C12 UNL     1     -34.777  15.209  -5.796  1.00 20.00    -0.018 C 
ENDROOT
TORSDOF 0
ENDMDL
MODEL 9
REMARK VINA RESULT:      -4.8      0.944      4.013
REMARK  0 active torsions:
REMARK  status: ('A' for Active; 'I' for Inactive)
ROOT
HETATM    1  C1  UNL     1     -34.782  14.505  -5.292  1.00 20.00    -0.081 C 
HETATM    2  C2  UNL     1     -34.312  13.420  -4.651  1.00 20.00     0.015 C 
HETATM    3  C3  UNL     1     -34.628  14.575  -6.799  1.00 20.00     0.034 C 
HETATM    4  C4  UNL     1     -35.993  14.671  -7.477  1.00 20.00     0.004 C 
HETATM    5  C5  UNL     1     -36.840  15.804  -6.906  1.00 20.00     0.001 C 
HETATM    6  C6  UNL     1     -33.952  17.059  -2.497  1.00 20.00     0.000 C 
HETATM    7  C7  UNL     1     -33.590  17.176  -3.970  1.00 20.00     0.001 C 
HETATM    8  C8  UNL     1     -34.661  15.745  -2.204  1.00 20.00     0.001 C 
HETATM    9  C9  UNL     1     -36.944  15.719  -5.380  1.00 20.00     0.014 C 
HETATM   10  C10 UNL     1     -34.832  17.027  -4.849  1.00 20.00     0.014 C 
HETATM   11  C11 UNL     1     -35.863  15.513  -3.126  1.00 20.00     0.014 C 
HETATM   12  C12 UNL     1     -35.567  15.668  -4.651  1.00 20.00    -0.018 C 
ENDROOT
TORSDOF 0
ENDMDL
