MODEL 1
REMARK VINA RESULT:      -4.4      0.000      0.000
REMARK  2 active torsions:
REMARK  status: ('A' for Active; 'I' for Inactive)
REMARK    1  A    between atoms: C1_1  and  C2_2 
REMARK    2  A    between atoms: C1_1  and  C3_3 
ROOT
HETATM    1  C2  UNL     1     -35.165  15.512  -2.447  1.00 20.00     0.043 A 
HETATM    2  C4  UNL     1     -35.525  15.852  -3.806  1.00 20.00     0.013 A 
HETATM    3  C5  UNL     1     -34.310  14.982  -3.504  1.00 20.00    -0.023 A 
HETATM    4  C8  UNL     1     -35.417  17.226  -4.372  1.00 20.00     0.012 C 
HETATM    5  C9  UNL     1     -34.429  13.505  -3.793  1.00 20.00     0.017 C 
HETATM    6  C10 UNL     1     -32.916  15.523  -3.720  1.00 20.00     0.017 C 
ENDROOT
BRANCH   1   7
HETATM    7  C1  UNL     1     -34.793  16.360  -1.543  1.00 20.00    -0.159 C 
BRANCH   7   8
HETATM    8  C3  UNL     1     -34.419  17.215  -0.630  1.00 20.00     0.022 C 
HETATM    9  C6  UNL     1     -33.213  18.095  -0.802  1.00 20.00     0.029 C 
HETATM   10  C7  UNL     1     -35.165  17.389   0.661  1.00 20.00     0.029 C 
ENDBRANCH   7   8
ENDBRANCH   1   7
TORSDOF 2
ENDMDL
MODEL 2
REMARK VINA RESULT:      -4.2      0.986      4.316
REMARK  2 active torsions:
REMARK  status: ('A' for Active; 'I' for Inactive)
REMARK    1  A    between atoms: C1_1  and  C2_2 
REMARK    2  A    between atoms: C1_1  and  C3_3 
ROOT
HETATM    1  C2  UNL     1     -34.436  16.641  -0.778  1.00 20.00     0.043 A 
HETATM    2  C4  UNL     1     -33.766  17.915  -0.638  1.00 20.00     0.013 A 
HETATM    3  C5  UNL     1     -35.190  17.711  -0.134  1.00 20.00    -0.023 A 
HETATM    4  C8  UNL     1     -33.433  18.806  -1.786  1.00 20.00     0.012 C 
HETATM    5  C9  UNL     1     -35.384  17.597   1.360  1.00 20.00     0.017 C 
HETATM    6  C10 UNL     1     -36.348  18.378  -0.837  1.00 20.00     0.017 C 
ENDROOT
BRANCH   1   7
HETATM    7  C1  UNL     1     -34.747  16.085  -1.905  1.00 20.00    -0.159 C 
BRANCH   7   8
HETATM    8  C3  UNL     1     -35.061  15.522  -3.041  1.00 20.00     0.022 C 
HETATM    9  C6  UNL     1     -36.061  16.126  -3.985  1.00 20.00     0.029 C 
HETATM   10  C7  UNL     1     -34.445  14.230  -3.494  1.00 20.00     0.029 C 
ENDBRANCH   7   8
ENDBRANCH   1   7
TORSDOF 2
ENDMDL
MODEL 3
REMARK VINA RESULT:      -4.2      1.386      4.072
REMARK  2 active torsions:
REMARK  status: ('A' for Active; 'I' for Inactive)
REMARK    1  A    between atoms: C1_1  and  C2_2 
REMARK    2  A    between atoms: C1_1  and  C3_3 
ROOT
HETATM    1  C2  UNL     1     -34.424  15.919  -2.050  1.00 20.00     0.043 A 
HETATM    2  C4  UNL     1     -33.758  17.166  -2.353  1.00 20.00     0.013 A 
HETATM    3  C5  UNL     1     -34.969  17.121  -1.429  1.00 20.00    -0.023 A 
HETATM    4  C8  UNL     1     -33.786  17.816  -3.694  1.00 20.00     0.012 C 
HETATM    5  C9  UNL     1     -34.716  17.292   0.050  1.00 20.00     0.017 C 
HETATM    6  C10 UNL     1     -36.291  17.698  -1.879  1.00 20.00     0.017 C 
ENDROOT
BRANCH   1   7
HETATM    7  C1  UNL     1     -35.045  15.179  -2.912  1.00 20.00    -0.159 C 
BRANCH   7   8
HETATM    8  C3  UNL     1     -35.670  14.432  -3.782  1.00 20.00     0.022 C 
HETATM    9  C6  UNL     1     -34.979  13.335  -4.540  1.00 20.00     0.029 C 
HETATM   10  C7  UNL     1     -37.128  14.610  -4.090  1.00 20.00     0.029 C 
ENDBRANCH   7   8
ENDBRANCH   1   7
TORSDOF 2
ENDMDL
MODEL 4
REMARK VINA RESULT:      -4.1      1.282      1.728
REMARK  2 active torsions:
REMARK  status: ('A' for Active; 'I' for Inactive)
REMARK    1  A    between atoms: C1_1  and  C2_2 
REMARK    2  A    between atoms: C1_1  and  C3_3 
ROOT
HETATM    1  C2  UNL     1     -35.110  14.832  -2.988  1.00 20.00     0.043 A 
HETATM    2  C4  UNL     1     -36.241  14.769  -3.887  1.00 20.00     0.013 A 
HETATM    3  C5  UNL     1     -34.813  14.625  -4.402  1.00 20.00    -0.023 A 
HETATM    4  C8  UNL     1     -37.106  15.937  -4.213  1.00 20.00     0.012 C 
HETATM    5  C9  UNL     1     -34.359  13.242  -4.802  1.00 20.00     0.017 C 
HETATM    6  C10 UNL     1     -34.192  15.723  -5.233  1.00 20.00     0.017 C 
ENDROOT
BRANCH   1   7
HETATM    7  C1  UNL     1     -34.766  15.873  -2.299  1.00 20.00    -0.159 C 
BRANCH   7   8
HETATM    8  C3  UNL     1     -34.419  16.922  -1.603  1.00 20.00     0.022 C 
HETATM    9  C6  UNL     1     -34.743  17.058  -0.142  1.00 20.00     0.029 C 
HETATM   10  C7  UNL     1     -33.668  18.073  -2.207  1.00 20.00     0.029 C 
ENDBRANCH   7   8
ENDBRANCH   1   7
TORSDOF 2
ENDMDL
MODEL 5
REMARK VINA RESULT:      -4.1      2.005      4.568
REMARK  2 active torsions:
REMARK  status: ('A' for Active; 'I' for Inactive)
REMARK    1  A    between atoms: C1_1  and  C2_2 
REMARK    2  A    between atoms: C1_1  and  C3_3 
ROOT
HETATM    1  C2  UNL     1     -35.219  15.879  -4.235  1.00 20.00     0.043 A 
HETATM    2  C4  UNL     1     -35.378  14.609  -3.563  1.00 20.00     0.013 A 
HETATM    3  C5  UNL     1     -34.221  15.543  -3.226  1.00 20.00    -0.023 A 
HETATM    4  C8  UNL     1     -35.185  13.290  -4.229  1.00 20.00     0.012 C 
HETATM    5  C9  UNL     1     -34.300  16.297  -1.919  1.00 20.00     0.017 C 
HETATM    6  C10 UNL     1     -32.810  15.178  -3.621  1.00 20.00     0.017 C 
ENDROOT
BRANCH   1   7
HETATM    7  C1  UNL     1     -34.981  16.027  -5.499  1.00 20.00    -0.159 C 
BRANCH   7   8
HETATM    8  C3  UNL     1     -34.740  16.176  -6.774  1.00 20.00     0.022 C 
HETATM    9  C6  UNL     1     -34.499  17.524  -7.392  1.00 20.00     0.029 C 
HETATM   10  C7  UNL     1     -34.683  15.013  -7.721  1.00 20.00     0.029 C 
ENDBRANCH   7   8
ENDBRANCH   1   7
TORSDOF 2
ENDMDL
MODEL 6
REMARK VINA RESULT:      -4.0      1.406      2.706
REMARK  2 active torsions:
REMARK  status: ('A' for Active; 'I' for Inactive)
REMARK    1  A    between atoms: C1_1  and  C2_2 
REMARK    2  A    between atoms: C1_1  and  C3_3 
ROOT
HETATM    1  C2  UNL     1     -33.470  16.125  -4.156  1.00 20.00     0.043 A 
HETATM    2  C4  UNL     1     -33.732  14.735  -4.455  1.00 20.00     0.013 A 
HETATM    3  C5  UNL     1     -34.497  15.852  -5.156  1.00 20.00    -0.023 A 
HETATM    4  C8  UNL     1     -34.374  13.789  -3.499  1.00 20.00     0.012 C 
HETATM    5  C9  UNL     1     -34.135  16.141  -6.593  1.00 20.00     0.017 C 
HETATM    6  C10 UNL     1     -35.958  16.079  -4.850  1.00 20.00     0.017 C 
ENDROOT
BRANCH   1   7
HETATM    7  C1  UNL     1     -33.677  16.691  -3.010  1.00 20.00    -0.159 C 
BRANCH   7   8
HETATM    8  C3  UNL     1     -33.886  17.263  -1.855  1.00 20.00     0.022 C 
HETATM    9  C6  UNL     1     -34.667  16.594  -0.759  1.00 20.00     0.029 C 
HETATM   10  C7  UNL     1     -33.361  18.631  -1.530  1.00 20.00     0.029 C 
ENDBRANCH   7   8
ENDBRANCH   1   7
TORSDOF 2
ENDMDL
MODEL 7
REMARK VINA RESULT:      -4.0      1.326      3.986
REMARK  2 active torsions:
REMARK  status: ('A' for Active; 'I' for Inactive)
REMARK    1  A    between atoms: C1_1  and  C2_2 
REMARK    2  A    between atoms: C1_1  and  C3_3 
ROOT
HETATM    1  C2  UNL     1     -33.643  17.231  -2.405  1.00 20.00     0.043 A 
HETATM    2  C4  UNL     1     -34.475  18.410  -2.306  1.00 20.00     0.013 A 
HETATM    3  C5  UNL     1     -33.933  17.718  -1.061  1.00 20.00    -0.023 A 
HETATM    4  C8  UNL     1     -35.924  18.431  -2.655  1.00 20.00     0.012 C 
HETATM    5  C9  UNL     1     -32.802  18.400  -0.329  1.00 20.00     0.017 C 
HETATM    6  C10 UNL     1     -34.866  16.961  -0.145  1.00 20.00     0.017 C 
ENDROOT
BRANCH   1   7
HETATM    7  C1  UNL     1     -34.023  16.090  -2.883  1.00 20.00    -0.159 C 
BRANCH   7   8
HETATM    8  C3  UNL     1     -34.407  14.939  -3.365  1.00 20.00     0.022 C 
HETATM    9  C6  UNL     1     -33.435  13.839  -3.685  1.00 20.00     0.029 C 
HETATM   10  C7  UNL     1     -35.850  14.623  -3.636  1.00 20.00     0.029 C 
ENDBRANCH   7   8
ENDBRANCH   1   7
TORSDOF 2
ENDMDL
MODEL 8
REMARK VINA RESULT:      -4.0      1.632      2.702
REMARK  2 active torsions:
REMARK  status: ('A' for Active; 'I' for Inactive)
REMARK    1  A    between atoms: C1_1  and  C2_2 
REMARK    2  A    between atoms: C1_1  and  C3_3 
ROOT
HETATM    1  C2  UNL     1     -33.631  15.694  -4.537  1.00 20.00     0.043 A 
HETATM    2  C4  UNL     1     -34.043  14.325  -4.752  1.00 20.00     0.013 A 
HETATM    3  C5  UNL     1     -34.643  15.467  -5.563  1.00 20.00    -0.023 A 
HETATM    4  C8  UNL     1     -34.829  13.532  -3.764  1.00 20.00     0.012 C 
HETATM    5  C9  UNL     1     -34.194  15.605  -6.998  1.00 20.00     0.017 C 
HETATM    6  C10 UNL     1     -36.078  15.883  -5.343  1.00 20.00     0.017 C 
ENDROOT
BRANCH   1   7
HETATM    7  C1  UNL     1     -33.814  16.363  -3.444  1.00 20.00    -0.159 C 
BRANCH   7   8
HETATM    8  C3  UNL     1     -33.999  17.038  -2.342  1.00 20.00     0.022 C 
HETATM    9  C6  UNL     1     -33.612  18.484  -2.212  1.00 20.00     0.029 C 
HETATM   10  C7  UNL     1     -34.616  16.423  -1.119  1.00 20.00     0.029 C 
ENDBRANCH   7   8
ENDBRANCH   1   7
TORSDOF 2
ENDMDL
MODEL 9
REMARK VINA RESULT:      -4.0      1.484      4.109
REMARK  2 active torsions:
REMARK  status: ('A' for Active; 'I' for Inactive)
REMARK    1  A    between atoms: C1_1  and  C2_2 
REMARK    2  A    between atoms: C1_1  and  C3_3 
ROOT
HETATM    1  C2  UNL     1     -33.908  16.128  -2.503  1.00 20.00     0.043 A 
HETATM    2  C4  UNL     1     -33.659  17.551  -2.557  1.00 20.00     0.013 A 
HETATM    3  C5  UNL     1     -34.851  16.986  -1.793  1.00 20.00    -0.023 A 
HETATM    4  C8  UNL     1     -33.804  18.372  -3.793  1.00 20.00     0.012 C 
HETATM    5  C9  UNL     1     -34.767  16.981  -0.286  1.00 20.00     0.017 C 
HETATM    6  C10 UNL     1     -36.254  17.194  -2.313  1.00 20.00     0.017 C 
ENDROOT
BRANCH   1   7
HETATM    7  C1  UNL     1     -34.198  15.385  -3.523  1.00 20.00    -0.159 C 
BRANCH   7   8
HETATM    8  C3  UNL     1     -34.490  14.636  -4.552  1.00 20.00     0.022 C 
HETATM    9  C6  UNL     1     -34.346  15.123  -5.965  1.00 20.00     0.029 C 
HETATM   10  C7  UNL     1     -34.989  13.228  -4.403  1.00 20.00     0.029 C 
ENDBRANCH   7   8
ENDBRANCH   1   7
TORSDOF 2
ENDMDL
