MODEL 1
REMARK VINA RESULT:      -4.2      0.000      0.000
REMARK  1 active torsions:
REMARK  status: ('A' for Active; 'I' for Inactive)
REMARK    1  A    between atoms: C2_2  and  C4_4 
ROOT
HETATM    1  C1  UNL     1     -33.238   6.158   3.358  1.00 20.00    -0.010 C 
HETATM    2  C2  UNL     1     -34.032   5.902   4.410  1.00 20.00     0.021 C 
HETATM    3  C3  UNL     1     -32.095   7.121   3.308  1.00 20.00     0.037 C 
HETATM    4 CL5  UNL     1     -33.703   6.709   5.918  1.00 20.00    -0.088 Cl
ENDROOT
BRANCH   2   5
HETATM    5  C4  UNL     1     -35.175   4.938   4.459  1.00 20.00     0.165 C 
HETATM    6 CL6  UNL     1     -35.188   4.070   6.011  1.00 20.00    -0.125 Cl
ENDBRANCH   2   5
TORSDOF 1
ENDMDL
MODEL 2
REMARK VINA RESULT:      -4.1      1.635      3.217
REMARK  1 active torsions:
REMARK  status: ('A' for Active; 'I' for Inactive)
REMARK    1  A    between atoms: C2_2  and  C4_4 
ROOT
HETATM    1  C1  UNL     1     -34.711   4.897   4.887  1.00 20.00    -0.010 C 
HETATM    2  C2  UNL     1     -34.042   6.060   4.913  1.00 20.00     0.021 C 
HETATM    3  C3  UNL     1     -35.221   4.127   6.063  1.00 20.00     0.037 C 
HETATM    4 CL5  UNL     1     -33.760   6.825   6.452  1.00 20.00    -0.088 Cl
ENDROOT
BRANCH   2   5
HETATM    5  C4  UNL     1     -33.532   6.830   3.735  1.00 20.00     0.165 C 
HETATM    6 CL6  UNL     1     -32.072   6.060   3.077  1.00 20.00    -0.125 Cl
ENDBRANCH   2   5
TORSDOF 1
ENDMDL
MODEL 3
REMARK VINA RESULT:      -4.0      1.480      1.590
REMARK  1 active torsions:
REMARK  status: ('A' for Active; 'I' for Inactive)
REMARK    1  A    between atoms: C2_2  and  C4_4 
ROOT
HETATM    1  C1  UNL     1     -32.823   6.668   4.175  1.00 20.00    -0.010 C 
HETATM    2  C2  UNL     1     -33.934   6.045   4.600  1.00 20.00     0.021 C 
HETATM    3  C3  UNL     1     -32.421   6.921   2.758  1.00 20.00     0.037 C 
HETATM    4 CL5  UNL     1     -35.091   5.504   3.416  1.00 20.00    -0.088 Cl
ENDROOT
BRANCH   2   5
HETATM    5  C4  UNL     1     -34.336   5.793   6.019  1.00 20.00     0.165 C 
HETATM    6 CL6  UNL     1     -35.130   4.210   6.167  1.00 20.00    -0.125 Cl
ENDBRANCH   2   5
TORSDOF 1
ENDMDL
MODEL 4
REMARK VINA RESULT:      -3.8      2.041      3.487
REMARK  1 active torsions:
REMARK  status: ('A' for Active; 'I' for Inactive)
REMARK    1  A    between atoms: C2_2  and  C4_4 
ROOT
HETATM    1  C1  UNL     1     -33.585   6.232   5.407  1.00 20.00    -0.010 C 
HETATM    2  C2  UNL     1     -33.807   6.121   4.088  1.00 20.00     0.021 C 
HETATM    3  C3  UNL     1     -34.518   5.853   6.511  1.00 20.00     0.037 C 
HETATM    4 CL5  UNL     1     -35.305   5.412   3.553  1.00 20.00    -0.088 Cl
ENDROOT
BRANCH   2   5
HETATM    5  C4  UNL     1     -32.872   6.501   2.984  1.00 20.00     0.165 C 
HETATM    6 CL6  UNL     1     -31.570   7.541   3.605  1.00 20.00    -0.125 Cl
ENDBRANCH   2   5
TORSDOF 1
ENDMDL
MODEL 5
REMARK VINA RESULT:      -3.7      1.521      2.239
REMARK  1 active torsions:
REMARK  status: ('A' for Active; 'I' for Inactive)
REMARK    1  A    between atoms: C2_2  and  C4_4 
ROOT
HETATM    1  C1  UNL     1     -32.880   6.507   4.151  1.00 20.00    -0.010 C 
HETATM    2  C2  UNL     1     -33.996   6.007   4.707  1.00 20.00     0.021 C 
HETATM    3  C3  UNL     1     -32.538   6.542   2.697  1.00 20.00     0.037 C 
HETATM    4 CL5  UNL     1     -35.234   5.372   3.660  1.00 20.00    -0.088 Cl
ENDROOT
BRANCH   2   5
HETATM    5  C4  UNL     1     -34.337   5.972   6.163  1.00 20.00     0.165 C 
HETATM    6 CL6  UNL     1     -33.589   7.347   7.007  1.00 20.00    -0.125 Cl
ENDBRANCH   2   5
TORSDOF 1
ENDMDL
MODEL 6
REMARK VINA RESULT:      -3.7      1.813      1.848
REMARK  1 active torsions:
REMARK  status: ('A' for Active; 'I' for Inactive)
REMARK    1  A    between atoms: C2_2  and  C4_4 
ROOT
HETATM    1  C1  UNL     1     -33.196   6.475   4.116  1.00 20.00    -0.010 C 
HETATM    2  C2  UNL     1     -34.169   5.593   3.836  1.00 20.00     0.021 C 
HETATM    3  C3  UNL     1     -32.196   7.044   3.162  1.00 20.00     0.037 C 
HETATM    4 CL5  UNL     1     -34.365   5.065   2.189  1.00 20.00    -0.088 Cl
ENDROOT
BRANCH   2   5
HETATM    5  C4  UNL     1     -35.169   5.024   4.793  1.00 20.00     0.165 C 
HETATM    6 CL6  UNL     1     -34.693   5.378   6.469  1.00 20.00    -0.125 Cl
ENDBRANCH   2   5
TORSDOF 1
ENDMDL
MODEL 7
REMARK VINA RESULT:      -3.7      2.154      3.550
REMARK  1 active torsions:
REMARK  status: ('A' for Active; 'I' for Inactive)
REMARK    1  A    between atoms: C2_2  and  C4_4 
ROOT
HETATM    1  C1  UNL     1     -34.175   5.287   5.818  1.00 20.00    -0.010 C 
HETATM    2  C2  UNL     1     -34.168   5.884   4.616  1.00 20.00     0.021 C 
HETATM    3  C3  UNL     1     -35.199   4.332   6.342  1.00 20.00     0.037 C 
HETATM    4 CL5  UNL     1     -35.435   5.496   3.486  1.00 20.00    -0.088 Cl
ENDROOT
BRANCH   2   5
HETATM    5  C4  UNL     1     -33.142   6.840   4.093  1.00 20.00     0.165 C 
HETATM    6 CL6  UNL     1     -32.056   6.019   2.951  1.00 20.00    -0.125 Cl
ENDBRANCH   2   5
TORSDOF 1
ENDMDL
MODEL 8
REMARK VINA RESULT:      -3.6      1.767      2.199
REMARK  1 active torsions:
REMARK  status: ('A' for Active; 'I' for Inactive)
REMARK    1  A    between atoms: C2_2  and  C4_4 
ROOT
HETATM    1  C1  UNL     1     -34.109   6.462   6.133  1.00 20.00    -0.010 C 
HETATM    2  C2  UNL     1     -33.995   6.066   4.855  1.00 20.00     0.021 C 
HETATM    3  C3  UNL     1     -33.225   7.424   6.858  1.00 20.00     0.037 C 
HETATM    4 CL5  UNL     1     -32.733   6.761   3.878  1.00 20.00    -0.088 Cl
ENDROOT
BRANCH   2   5
HETATM    5  C4  UNL     1     -34.881   5.103   4.131  1.00 20.00     0.165 C 
HETATM    6 CL6  UNL     1     -35.181   3.664   5.131  1.00 20.00    -0.125 Cl
ENDBRANCH   2   5
TORSDOF 1
ENDMDL
MODEL 9
REMARK VINA RESULT:      -3.5      1.984      2.818
REMARK  1 active torsions:
REMARK  status: ('A' for Active; 'I' for Inactive)
REMARK    1  A    between atoms: C2_2  and  C4_4 
ROOT
HETATM    1  C1  UNL     1     -33.843   6.656   5.455  1.00 20.00    -0.010 C 
HETATM    2  C2  UNL     1     -34.487   5.586   4.961  1.00 20.00     0.021 C 
HETATM    3  C3  UNL     1     -33.632   6.991   6.896  1.00 20.00     0.037 C 
HETATM    4 CL5  UNL     1     -35.113   4.403   6.076  1.00 20.00    -0.088 Cl
ENDROOT
BRANCH   2   5
HETATM    5  C4  UNL     1     -34.697   5.251   3.518  1.00 20.00     0.165 C 
HETATM    6 CL6  UNL     1     -33.267   5.701   2.563  1.00 20.00    -0.125 Cl
ENDBRANCH   2   5
TORSDOF 1
ENDMDL
