MODEL 1
REMARK VINA RESULT:      -5.5      0.000      0.000
REMARK  3 active torsions:
REMARK  status: ('A' for Active; 'I' for Inactive)
REMARK    1  A    between atoms: C1_1  and  C3_3 
REMARK    2  A    between atoms: C2_2  and  C4_4 
REMARK    3  A    between atoms: C5_5  and  C6_6 
ROOT
HETATM    1  C3  UNL     1     -32.898   6.546   4.040  1.00 20.00     0.010 C 
HETATM    2  C5  UNL     1     -34.089   5.975   4.296  1.00 20.00    -0.017 C 
HETATM    3  C7  UNL     1     -35.149   5.584   3.313  1.00 20.00     0.052 C 
ENDROOT
BRANCH   1   4
HETATM    4  C1  UNL     1     -32.410   6.947   2.737  1.00 20.00     0.004 C 
HETATM    5  C2  UNL     1     -32.228   8.231   2.401  1.00 20.00     0.041 C 
BRANCH   5   6
HETATM    6  C4  UNL     1     -31.732   8.555   1.049  1.00 20.00     0.258 C 
HETATM    7  O9  UNL     1     -32.462   9.031   0.188  1.00 20.00    -0.302 OA
ENDBRANCH   5   6
ENDBRANCH   1   4
BRANCH   2   8
HETATM    8  C6  UNL     1     -34.356   5.661   5.734  1.00 20.00     0.151 C 
HETATM    9  C8  UNL     1     -34.901   4.294   6.056  1.00 20.00     0.096 C 
HETATM   10  O10 UNL     1     -34.121   6.481   6.620  1.00 20.00    -0.293 OA
ENDBRANCH   2   8
TORSDOF 3
ENDMDL
MODEL 2
REMARK VINA RESULT:      -4.7     10.838     11.520
REMARK  3 active torsions:
REMARK  status: ('A' for Active; 'I' for Inactive)
REMARK    1  A    between atoms: C1_1  and  C3_3 
REMARK    2  A    between atoms: C2_2  and  C4_4 
REMARK    3  A    between atoms: C5_5  and  C6_6 
ROOT
HETATM    1  C3  UNL     1     -34.863  15.647  -2.300  1.00 20.00     0.010 C 
HETATM    2  C5  UNL     1     -34.322  14.857  -3.245  1.00 20.00    -0.017 C 
HETATM    3  C7  UNL     1     -32.886  14.781  -3.665  1.00 20.00     0.052 C 
ENDROOT
BRANCH   1   4
HETATM    4  C1  UNL     1     -34.157  16.635  -1.511  1.00 20.00     0.004 C 
HETATM    5  C2  UNL     1     -34.653  17.133  -0.371  1.00 20.00     0.041 C 
BRANCH   5   6
HETATM    6  C4  UNL     1     -33.872  18.143   0.371  1.00 20.00     0.258 C 
HETATM    7  O9  UNL     1     -32.749  18.481   0.017  1.00 20.00    -0.302 OA
ENDBRANCH   5   6
ENDBRANCH   1   4
BRANCH   2   8
HETATM    8  C6  UNL     1     -35.272  13.920  -3.922  1.00 20.00     0.151 C 
HETATM    9  C8  UNL     1     -36.668  14.419  -4.187  1.00 20.00     0.096 C 
HETATM   10  O10 UNL     1     -34.919  12.793  -4.264  1.00 20.00    -0.293 OA
ENDBRANCH   2   8
TORSDOF 3
ENDMDL
MODEL 3
REMARK VINA RESULT:      -4.6     10.749     11.890
REMARK  3 active torsions:
REMARK  status: ('A' for Active; 'I' for Inactive)
REMARK    1  A    between atoms: C1_1  and  C3_3 
REMARK    2  A    between atoms: C2_2  and  C4_4 
REMARK    3  A    between atoms: C5_5  and  C6_6 
ROOT
HETATM    1  C3  UNL     1     -33.818  16.882  -1.863  1.00 20.00     0.010 C 
HETATM    2  C5  UNL     1     -33.987  17.517  -0.689  1.00 20.00    -0.017 C 
HETATM    3  C7  UNL     1     -35.033  17.260   0.352  1.00 20.00     0.052 C 
ENDROOT
BRANCH   1   4
HETATM    4  C1  UNL     1     -34.661  15.827  -2.388  1.00 20.00     0.004 C 
HETATM    5  C2  UNL     1     -34.232  14.956  -3.310  1.00 20.00     0.041 C 
BRANCH   5   6
HETATM    6  C4  UNL     1     -35.158  13.914  -3.797  1.00 20.00     0.258 C 
HETATM    7  O9  UNL     1     -34.766  12.798  -4.116  1.00 20.00    -0.302 OA
ENDBRANCH   5   6
ENDBRANCH   1   4
BRANCH   2   8
HETATM    8  C6  UNL     1     -32.977  18.578  -0.381  1.00 20.00     0.151 C 
HETATM    9  C8  UNL     1     -32.580  18.759   1.060  1.00 20.00     0.096 C 
HETATM   10  O10 UNL     1     -32.478  19.261  -1.273  1.00 20.00    -0.293 OA
ENDBRANCH   2   8
TORSDOF 3
ENDMDL
MODEL 4
REMARK VINA RESULT:      -4.6      1.566      5.377
REMARK  3 active torsions:
REMARK  status: ('A' for Active; 'I' for Inactive)
REMARK    1  A    between atoms: C1_1  and  C3_3 
REMARK    2  A    between atoms: C2_2  and  C4_4 
REMARK    3  A    between atoms: C5_5  and  C6_6 
ROOT
HETATM    1  C3  UNL     1     -33.133   6.797   2.821  1.00 20.00     0.010 C 
HETATM    2  C5  UNL     1     -32.125   7.685   2.879  1.00 20.00    -0.017 C 
HETATM    3  C7  UNL     1     -31.094   7.835   3.956  1.00 20.00     0.052 C 
ENDROOT
BRANCH   1   4
HETATM    4  C1  UNL     1     -33.458   5.812   3.832  1.00 20.00     0.004 C 
HETATM    5  C2  UNL     1     -34.675   5.722   4.384  1.00 20.00     0.041 C 
BRANCH   5   6
HETATM    6  C4  UNL     1     -34.922   4.693   5.413  1.00 20.00     0.258 C 
HETATM    7  O9  UNL     1     -35.096   3.516   5.123  1.00 20.00    -0.302 OA
ENDBRANCH   5   6
ENDBRANCH   1   4
BRANCH   2   8
HETATM    8  C6  UNL     1     -32.006   8.601   1.702  1.00 20.00     0.151 C 
HETATM    9  C8  UNL     1     -32.707   9.932   1.785  1.00 20.00     0.096 C 
HETATM   10  O10 UNL     1     -31.346   8.286   0.713  1.00 20.00    -0.293 OA
ENDBRANCH   2   8
TORSDOF 3
ENDMDL
MODEL 5
REMARK VINA RESULT:      -4.5     10.993     11.739
REMARK  3 active torsions:
REMARK  status: ('A' for Active; 'I' for Inactive)
REMARK    1  A    between atoms: C1_1  and  C3_3 
REMARK    2  A    between atoms: C2_2  and  C4_4 
REMARK    3  A    between atoms: C5_5  and  C6_6 
ROOT
HETATM    1  C3  UNL     1     -34.530  15.140  -2.979  1.00 20.00     0.010 C 
HETATM    2  C5  UNL     1     -35.487  14.642  -3.783  1.00 20.00    -0.017 C 
HETATM    3  C7  UNL     1     -36.966  14.867  -3.697  1.00 20.00     0.052 C 
ENDROOT
BRANCH   1   4
HETATM    4  C1  UNL     1     -34.746  15.978  -1.818  1.00 20.00     0.004 C 
HETATM    5  C2  UNL     1     -33.878  16.926  -1.443  1.00 20.00     0.041 C 
BRANCH   5   6
HETATM    6  C4  UNL     1     -34.170  17.733  -0.242  1.00 20.00     0.258 C 
HETATM    7  O9  UNL     1     -34.987  17.374   0.597  1.00 20.00    -0.302 OA
ENDBRANCH   5   6
ENDBRANCH   1   4
BRANCH   2   8
HETATM    8  C6  UNL     1     -34.999  13.796  -4.916  1.00 20.00     0.151 C 
HETATM    9  C8  UNL     1     -34.777  14.475  -6.242  1.00 20.00     0.096 C 
HETATM   10  O10 UNL     1     -34.772  12.597  -4.765  1.00 20.00    -0.293 OA
ENDBRANCH   2   8
TORSDOF 3
ENDMDL
MODEL 6
REMARK VINA RESULT:      -4.3     10.472     11.482
REMARK  3 active torsions:
REMARK  status: ('A' for Active; 'I' for Inactive)
REMARK    1  A    between atoms: C1_1  and  C3_3 
REMARK    2  A    between atoms: C2_2  and  C4_4 
REMARK    3  A    between atoms: C5_5  and  C6_6 
ROOT
HETATM    1  C3  UNL     1     -34.382  15.639  -2.397  1.00 20.00     0.010 C 
HETATM    2  C5  UNL     1     -35.162  14.861  -3.169  1.00 20.00    -0.017 C 
HETATM    3  C7  UNL     1     -36.608  15.059  -3.506  1.00 20.00     0.052 C 
ENDROOT
BRANCH   1   4
HETATM    4  C1  UNL     1     -34.805  16.827  -1.685  1.00 20.00     0.004 C 
HETATM    5  C2  UNL     1     -34.737  16.929  -0.351  1.00 20.00     0.041 C 
BRANCH   5   6
HETATM    6  C4  UNL     1     -35.194  18.174   0.298  1.00 20.00     0.258 C 
HETATM    7  O9  UNL     1     -34.622  18.644   1.273  1.00 20.00    -0.302 OA
ENDBRANCH   5   6
ENDBRANCH   1   4
BRANCH   2   8
HETATM    8  C6  UNL     1     -34.481  13.683  -3.791  1.00 20.00     0.151 C 
HETATM    9  C8  UNL     1     -32.978  13.630  -3.712  1.00 20.00     0.096 C 
HETATM   10  O10 UNL     1     -35.126  12.786  -4.330  1.00 20.00    -0.293 OA
ENDBRANCH   2   8
TORSDOF 3
ENDMDL
MODEL 7
REMARK VINA RESULT:      -4.2     10.878     11.445
REMARK  3 active torsions:
REMARK  status: ('A' for Active; 'I' for Inactive)
REMARK    1  A    between atoms: C1_1  and  C3_3 
REMARK    2  A    between atoms: C2_2  and  C4_4 
REMARK    3  A    between atoms: C5_5  and  C6_6 
ROOT
HETATM    1  C3  UNL     1     -34.822  16.503  -1.108  1.00 20.00     0.010 C 
HETATM    2  C5  UNL     1     -34.367  17.487  -0.312  1.00 20.00    -0.017 C 
HETATM    3  C7  UNL     1     -33.067  18.223  -0.414  1.00 20.00     0.052 C 
ENDROOT
BRANCH   1   4
HETATM    4  C1  UNL     1     -34.111  15.915  -2.225  1.00 20.00     0.004 C 
HETATM    5  C2  UNL     1     -34.629  14.930  -2.969  1.00 20.00     0.041 C 
BRANCH   5   6
HETATM    6  C4  UNL     1     -33.835  14.381  -4.086  1.00 20.00     0.258 C 
HETATM    7  O9  UNL     1     -33.537  13.195  -4.148  1.00 20.00    -0.302 OA
ENDBRANCH   5   6
ENDBRANCH   1   4
BRANCH   2   8
HETATM    8  C6  UNL     1     -35.298  17.914   0.779  1.00 20.00     0.151 C 
HETATM    9  C8  UNL     1     -34.719  18.084   2.158  1.00 20.00     0.096 C 
HETATM   10  O10 UNL     1     -36.486  18.136   0.552  1.00 20.00    -0.293 OA
ENDBRANCH   2   8
TORSDOF 3
ENDMDL
MODEL 8
REMARK VINA RESULT:      -4.1     10.848     11.700
REMARK  3 active torsions:
REMARK  status: ('A' for Active; 'I' for Inactive)
REMARK    1  A    between atoms: C1_1  and  C3_3 
REMARK    2  A    between atoms: C2_2  and  C4_4 
REMARK    3  A    between atoms: C5_5  and  C6_6 
ROOT
HETATM    1  C3  UNL     1     -34.598  16.131  -1.660  1.00 20.00     0.010 C 
HETATM    2  C5  UNL     1     -34.357  17.425  -1.384  1.00 20.00    -0.017 C 
HETATM    3  C7  UNL     1     -33.650  18.429  -2.242  1.00 20.00     0.052 C 
ENDROOT
BRANCH   1   4
HETATM    4  C1  UNL     1     -34.174  15.421  -2.849  1.00 20.00     0.004 C 
HETATM    5  C2  UNL     1     -34.868  14.396  -3.361  1.00 20.00     0.041 C 
BRANCH   5   6
HETATM    6  C4  UNL     1     -34.363  13.723  -4.574  1.00 20.00     0.258 C 
HETATM    7  O9  UNL     1     -34.723  12.594  -4.886  1.00 20.00    -0.302 OA
ENDBRANCH   5   6
ENDBRANCH   1   4
BRANCH   2   8
HETATM    8  C6  UNL     1     -34.901  17.917  -0.081  1.00 20.00     0.151 C 
HETATM    9  C8  UNL     1     -33.908  18.303   0.984  1.00 20.00     0.096 C 
HETATM   10  O10 UNL     1     -36.112  18.020   0.107  1.00 20.00    -0.293 OA
ENDBRANCH   2   8
TORSDOF 3
ENDMDL
MODEL 9
REMARK VINA RESULT:      -4.1      9.792     11.384
REMARK  3 active torsions:
REMARK  status: ('A' for Active; 'I' for Inactive)
REMARK    1  A    between atoms: C1_1  and  C3_3 
REMARK    2  A    between atoms: C2_2  and  C4_4 
REMARK    3  A    between atoms: C5_5  and  C6_6 
ROOT
HETATM    1  C3  UNL     1     -41.634   4.004  -2.074  1.00 20.00     0.010 C 
HETATM    2  C5  UNL     1     -41.901   5.321  -2.120  1.00 20.00    -0.017 C 
HETATM    3  C7  UNL     1     -42.837   6.035  -3.046  1.00 20.00     0.052 C 
ENDROOT
BRANCH   1   4
HETATM    4  C1  UNL     1     -42.176   2.994  -2.960  1.00 20.00     0.004 C 
HETATM    5  C2  UNL     1     -41.403   2.107  -3.599  1.00 20.00     0.041 C 
BRANCH   5   6
HETATM    6  C4  UNL     1     -42.035   1.114  -4.489  1.00 20.00     0.258 C 
HETATM    7  O9  UNL     1     -42.582   1.438  -5.536  1.00 20.00    -0.302 OA
ENDBRANCH   5   6
ENDBRANCH   1   4
BRANCH   2   8
HETATM    8  C6  UNL     1     -41.205   6.155  -1.091  1.00 20.00     0.151 C 
HETATM    9  C8  UNL     1     -41.572   7.613  -1.016  1.00 20.00     0.096 C 
HETATM   10  O10 UNL     1     -40.378   5.663  -0.325  1.00 20.00    -0.293 OA
ENDBRANCH   2   8
TORSDOF 3
ENDMDL
