MODEL 1
REMARK VINA RESULT:      -4.2      0.000      0.000
REMARK  0 active torsions:
REMARK  status: ('A' for Active; 'I' for Inactive)
ROOT
HETATM    1  C1  UNL     1     -34.534   5.530   6.647  1.00 20.00     0.043 C 
HETATM    2  C2  UNL     1     -34.606   5.953   3.477  1.00 20.00     0.019 C 
HETATM    3  C3  UNL     1     -35.493   5.026   3.864  1.00 20.00     0.114 C 
HETATM    4  C4  UNL     1     -33.816   6.597   6.266  1.00 20.00     0.136 C 
HETATM    5  C5  UNL     1     -34.817   4.259   5.923  1.00 20.00     0.118 C 
HETATM    6  C6  UNL     1     -33.215   6.011   4.020  1.00 20.00     0.203 C 
HETATM    7  N7  UNL     1     -35.250   4.000   4.731  1.00 20.00    -0.273 NA
HETATM    8  O8  UNL     1     -33.156   6.917   5.115  1.00 20.00    -0.359 OA
ENDROOT
TORSDOF 0
ENDMDL
MODEL 2
REMARK VINA RESULT:      -4.1      1.866      2.577
REMARK  0 active torsions:
REMARK  status: ('A' for Active; 'I' for Inactive)
ROOT
HETATM    1  C1  UNL     1     -34.326   4.811   6.497  1.00 20.00     0.043 C 
HETATM    2  C2  UNL     1     -33.970   5.633   3.426  1.00 20.00     0.019 C 
HETATM    3  C3  UNL     1     -33.195   6.382   4.223  1.00 20.00     0.114 C 
HETATM    4  C4  UNL     1     -34.922   3.939   5.671  1.00 20.00     0.136 C 
HETATM    5  C5  UNL     1     -34.091   6.273   6.337  1.00 20.00     0.118 C 
HETATM    6  C6  UNL     1     -35.391   5.309   3.760  1.00 20.00     0.203 C 
HETATM    7  N7  UNL     1     -33.589   6.987   5.381  1.00 20.00    -0.273 NA
HETATM    8  O8  UNL     1     -35.462   4.052   4.422  1.00 20.00    -0.359 OA
ENDROOT
TORSDOF 0
ENDMDL
MODEL 3
REMARK VINA RESULT:      -4.1      0.608      2.339
REMARK  0 active torsions:
REMARK  status: ('A' for Active; 'I' for Inactive)
ROOT
HETATM    1  C1  UNL     1     -33.736   5.902   3.377  1.00 20.00     0.043 C 
HETATM    2  C2  UNL     1     -34.210   5.008   6.411  1.00 20.00     0.019 C 
HETATM    3  C3  UNL     1     -34.875   4.214   5.561  1.00 20.00     0.114 C 
HETATM    4  C4  UNL     1     -32.915   6.541   4.223  1.00 20.00     0.136 C 
HETATM    5  C5  UNL     1     -35.113   5.377   3.593  1.00 20.00     0.118 C 
HETATM    6  C6  UNL     1     -34.175   6.495   6.263  1.00 20.00     0.203 C 
HETATM    7  N7  UNL     1     -35.640   4.631   4.510  1.00 20.00    -0.273 NA
HETATM    8  O8  UNL     1     -33.013   6.885   5.540  1.00 20.00    -0.359 OA
ENDROOT
TORSDOF 0
ENDMDL
MODEL 4
REMARK VINA RESULT:      -3.9      1.830      3.298
REMARK  0 active torsions:
REMARK  status: ('A' for Active; 'I' for Inactive)
ROOT
HETATM    1  C1  UNL     1     -34.622   5.730   3.459  1.00 20.00     0.043 C 
HETATM    2  C2  UNL     1     -34.618   5.440   6.645  1.00 20.00     0.019 C 
HETATM    3  C3  UNL     1     -34.041   6.587   6.260  1.00 20.00     0.114 C 
HETATM    4  C4  UNL     1     -35.381   4.704   3.871  1.00 20.00     0.136 C 
HETATM    5  C5  UNL     1     -33.398   6.320   4.070  1.00 20.00     0.118 C 
HETATM    6  C6  UNL     1     -34.353   4.138   5.962  1.00 20.00     0.203 C 
HETATM    7  N7  UNL     1     -33.114   6.721   5.267  1.00 20.00    -0.273 NA
HETATM    8  O8  UNL     1     -35.344   3.896   4.970  1.00 20.00    -0.359 OA
ENDROOT
TORSDOF 0
ENDMDL
MODEL 5
REMARK VINA RESULT:      -3.9     12.446     13.433
REMARK  0 active torsions:
REMARK  status: ('A' for Active; 'I' for Inactive)
ROOT
HETATM    1  C1  UNL     1     -33.073  15.036  -3.711  1.00 20.00     0.043 C 
HETATM    2  C2  UNL     1     -35.714  14.622  -5.467  1.00 20.00     0.019 C 
HETATM    3  C3  UNL     1     -35.669  13.756  -4.445  1.00 20.00     0.114 C 
HETATM    4  C4  UNL     1     -33.245  16.025  -4.601  1.00 20.00     0.136 C 
HETATM    5  C5  UNL     1     -33.473  13.603  -3.783  1.00 20.00     0.118 C 
HETATM    6  C6  UNL     1     -34.521  14.932  -6.312  1.00 20.00     0.203 C 
HETATM    7  N7  UNL     1     -34.586  13.011  -4.076  1.00 20.00    -0.273 NA
HETATM    8  O8  UNL     1     -33.861  16.092  -5.817  1.00 20.00    -0.359 OA
ENDROOT
TORSDOF 0
ENDMDL
MODEL 6
REMARK VINA RESULT:      -3.7     12.682     13.653
REMARK  0 active torsions:
REMARK  status: ('A' for Active; 'I' for Inactive)
ROOT
HETATM    1  C1  UNL     1     -35.157  14.077  -5.601  1.00 20.00     0.043 C 
HETATM    2  C2  UNL     1     -33.412  15.558  -3.367  1.00 20.00     0.019 C 
HETATM    3  C3  UNL     1     -33.755  16.399  -4.353  1.00 20.00     0.114 C 
HETATM    4  C4  UNL     1     -34.988  13.317  -4.509  1.00 20.00     0.136 C 
HETATM    5  C5  UNL     1     -34.267  15.117  -6.190  1.00 20.00     0.118 C 
HETATM    6  C6  UNL     1     -32.928  14.169  -3.628  1.00 20.00     0.203 C 
HETATM    7  N7  UNL     1     -33.659  16.144  -5.690  1.00 20.00    -0.273 NA
HETATM    8  O8  UNL     1     -34.014  13.252  -3.556  1.00 20.00    -0.359 OA
ENDROOT
TORSDOF 0
ENDMDL
MODEL 7
REMARK VINA RESULT:      -3.7     12.521     13.645
REMARK  0 active torsions:
REMARK  status: ('A' for Active; 'I' for Inactive)
ROOT
HETATM    1  C1  UNL     1     -34.731  14.399  -6.160  1.00 20.00     0.043 C 
HETATM    2  C2  UNL     1     -32.815  15.011  -3.673  1.00 20.00     0.019 C 
HETATM    3  C3  UNL     1     -33.208  13.730  -3.680  1.00 20.00     0.114 C 
HETATM    4  C4  UNL     1     -34.156  15.607  -6.254  1.00 20.00     0.136 C 
HETATM    5  C5  UNL     1     -35.117  13.614  -4.954  1.00 20.00     0.118 C 
HETATM    6  C6  UNL     1     -33.752  16.141  -3.952  1.00 20.00     0.203 C 
HETATM    7  N7  UNL     1     -34.485  13.287  -3.874  1.00 20.00    -0.273 NA
HETATM    8  O8  UNL     1     -33.692  16.496  -5.328  1.00 20.00    -0.359 OA
ENDROOT
TORSDOF 0
ENDMDL
MODEL 8
REMARK VINA RESULT:      -3.6     12.355     12.934
REMARK  0 active torsions:
REMARK  status: ('A' for Active; 'I' for Inactive)
ROOT
HETATM    1  C1  UNL     1     -34.807  13.536  -3.923  1.00 20.00     0.043 C 
HETATM    2  C2  UNL     1     -34.028  16.260  -2.439  1.00 20.00     0.019 C 
HETATM    3  C3  UNL     1     -35.333  15.989  -2.304  1.00 20.00     0.114 C 
HETATM    4  C4  UNL     1     -33.479  13.712  -3.860  1.00 20.00     0.136 C 
HETATM    5  C5  UNL     1     -35.903  14.542  -3.995  1.00 20.00     0.118 C 
HETATM    6  C6  UNL     1     -33.303  16.100  -3.736  1.00 20.00     0.203 C 
HETATM    7  N7  UNL     1     -36.177  15.601  -3.304  1.00 20.00    -0.273 NA
HETATM    8  O8  UNL     1     -32.685  14.820  -3.795  1.00 20.00    -0.359 OA
ENDROOT
TORSDOF 0
ENDMDL
MODEL 9
REMARK VINA RESULT:      -3.6     12.439     13.593
REMARK  0 active torsions:
REMARK  status: ('A' for Active; 'I' for Inactive)
ROOT
HETATM    1  C1  UNL     1     -34.579  14.712  -6.288  1.00 20.00     0.043 C 
HETATM    2  C2  UNL     1     -34.399  14.957  -3.104  1.00 20.00     0.019 C 
HETATM    3  C3  UNL     1     -34.061  13.727  -3.517  1.00 20.00     0.114 C 
HETATM    4  C4  UNL     1     -34.701  15.982  -5.874  1.00 20.00     0.136 C 
HETATM    5  C5  UNL     1     -34.966  13.443  -5.610  1.00 20.00     0.118 C 
HETATM    6  C6  UNL     1     -35.573  15.697  -3.658  1.00 20.00     0.203 C 
HETATM    7  N7  UNL     1     -34.746  12.973  -4.425  1.00 20.00    -0.273 NA
HETATM    8  O8  UNL     1     -35.156  16.549  -4.719  1.00 20.00    -0.359 OA
ENDROOT
TORSDOF 0
ENDMDL
