MODEL 1
REMARK VINA RESULT:      -3.5      0.000      0.000
REMARK  0 active torsions:
REMARK  status: ('A' for Active; 'I' for Inactive)
ROOT
HETATM    1  C1  UNL     1     -33.747  15.568  -3.447  1.00 20.00     0.175 C 
HETATM    2  C2  UNL     1     -36.420  16.348  -3.643  1.00 20.00     0.175 C 
HETATM    3  C3  UNL     1     -35.580  13.943  -4.785  1.00 20.00     0.175 C 
HETATM    4  C4  UNL     1     -34.789  16.373  -5.908  1.00 20.00     0.175 C 
HETATM    5  S5  UNL     1     -35.024  16.426  -2.488  1.00 20.00    -0.117 SA
HETATM    6  S6  UNL     1     -34.113  13.814  -3.728  1.00 20.00    -0.117 SA
HETATM    7  S7  UNL     1     -37.016  14.662  -3.943  1.00 20.00    -0.117 SA
HETATM    8  S8  UNL     1     -33.252  16.454  -4.949  1.00 20.00    -0.117 SA
HETATM    9  S9  UNL     1     -36.155  17.302  -5.162  1.00 20.00    -0.117 SA
HETATM   10  S10 UNL     1     -35.244  14.689  -6.402  1.00 20.00    -0.117 SA
ENDROOT
TORSDOF 0
ENDMDL
MODEL 2
REMARK VINA RESULT:      -3.5      0.040      2.808
REMARK  0 active torsions:
REMARK  status: ('A' for Active; 'I' for Inactive)
ROOT
HETATM    1  C1  UNL     1     -35.598  13.942  -4.797  1.00 20.00     0.175 C 
HETATM    2  C2  UNL     1     -36.459  16.349  -3.680  1.00 20.00     0.175 C 
HETATM    3  C3  UNL     1     -34.786  16.367  -5.914  1.00 20.00     0.175 C 
HETATM    4  C4  UNL     1     -33.789  15.571  -3.431  1.00 20.00     0.175 C 
HETATM    5  S5  UNL     1     -37.048  14.662  -3.985  1.00 20.00    -0.117 SA
HETATM    6  S6  UNL     1     -35.232  14.682  -6.412  1.00 20.00    -0.117 SA
HETATM    7  S7  UNL     1     -36.166  17.298  -5.197  1.00 20.00    -0.117 SA
HETATM    8  S8  UNL     1     -34.149  13.817  -3.714  1.00 20.00    -0.117 SA
HETATM    9  S9  UNL     1     -35.084  16.432  -2.500  1.00 20.00    -0.117 SA
HETATM   10  S10 UNL     1     -33.268  16.452  -4.927  1.00 20.00    -0.117 SA
ENDROOT
TORSDOF 0
ENDMDL
MODEL 3
REMARK VINA RESULT:      -3.5      0.021      2.808
REMARK  0 active torsions:
REMARK  status: ('A' for Active; 'I' for Inactive)
ROOT
HETATM    1  C1  UNL     1     -33.762  15.585  -3.443  1.00 20.00     0.175 C 
HETATM    2  C2  UNL     1     -35.572  13.944  -4.791  1.00 20.00     0.175 C 
HETATM    3  C3  UNL     1     -34.799  16.382  -5.908  1.00 20.00     0.175 C 
HETATM    4  C4  UNL     1     -36.440  16.340  -3.652  1.00 20.00     0.175 C 
HETATM    5  S5  UNL     1     -34.107  13.830  -3.729  1.00 20.00    -0.117 SA
HETATM    6  S6  UNL     1     -33.268  16.477  -4.943  1.00 20.00    -0.117 SA
HETATM    7  S7  UNL     1     -35.236  14.695  -6.407  1.00 20.00    -0.117 SA
HETATM    8  S8  UNL     1     -35.052  16.431  -2.490  1.00 20.00    -0.117 SA
HETATM    9  S9  UNL     1     -37.018  14.648  -3.954  1.00 20.00    -0.117 SA
HETATM   10  S10 UNL     1     -36.178  17.297  -5.169  1.00 20.00    -0.117 SA
ENDROOT
TORSDOF 0
ENDMDL
MODEL 4
REMARK VINA RESULT:      -3.5      0.016      2.798
REMARK  0 active torsions:
REMARK  status: ('A' for Active; 'I' for Inactive)
ROOT
HETATM    1  C1  UNL     1     -33.756  15.582  -3.445  1.00 20.00     0.175 C 
HETATM    2  C2  UNL     1     -34.795  16.382  -5.909  1.00 20.00     0.175 C 
HETATM    3  C3  UNL     1     -36.434  16.342  -3.650  1.00 20.00     0.175 C 
HETATM    4  C4  UNL     1     -35.572  13.945  -4.791  1.00 20.00     0.175 C 
HETATM    5  S5  UNL     1     -33.263  16.474  -4.943  1.00 20.00    -0.117 SA
HETATM    6  S6  UNL     1     -35.044  16.431  -2.491  1.00 20.00    -0.117 SA
HETATM    7  S7  UNL     1     -36.173  17.299  -5.168  1.00 20.00    -0.117 SA
HETATM    8  S8  UNL     1     -34.107  13.826  -3.730  1.00 20.00    -0.117 SA
HETATM    9  S9  UNL     1     -35.235  14.695  -6.406  1.00 20.00    -0.117 SA
HETATM   10  S10 UNL     1     -37.016  14.653  -3.953  1.00 20.00    -0.117 SA
ENDROOT
TORSDOF 0
ENDMDL
MODEL 5
REMARK VINA RESULT:      -3.5      0.075      2.774
REMARK  0 active torsions:
REMARK  status: ('A' for Active; 'I' for Inactive)
ROOT
HETATM    1  C1  UNL     1     -35.559  13.944  -4.782  1.00 20.00     0.175 C 
HETATM    2  C2  UNL     1     -33.792  15.640  -3.445  1.00 20.00     0.175 C 
HETATM    3  C3  UNL     1     -36.476  16.355  -3.717  1.00 20.00     0.175 C 
HETATM    4  C4  UNL     1     -34.798  16.362  -5.947  1.00 20.00     0.175 C 
HETATM    5  S5  UNL     1     -34.113  13.873  -3.692  1.00 20.00    -0.117 SA
HETATM    6  S6  UNL     1     -37.028  14.650  -3.986  1.00 20.00    -0.117 SA
HETATM    7  S7  UNL     1     -35.108  16.494  -2.535  1.00 20.00    -0.117 SA
HETATM    8  S8  UNL     1     -35.204  14.658  -6.410  1.00 20.00    -0.117 SA
HETATM    9  S9  UNL     1     -33.284  16.500  -4.958  1.00 20.00    -0.117 SA
HETATM   10  S10 UNL     1     -36.200  17.278  -5.253  1.00 20.00    -0.117 SA
ENDROOT
TORSDOF 0
ENDMDL
MODEL 6
REMARK VINA RESULT:      -3.5      0.059      3.236
REMARK  0 active torsions:
REMARK  status: ('A' for Active; 'I' for Inactive)
ROOT
HETATM    1  C1  UNL     1     -35.597  13.963  -4.796  1.00 20.00     0.175 C 
HETATM    2  C2  UNL     1     -34.807  16.390  -5.924  1.00 20.00     0.175 C 
HETATM    3  C3  UNL     1     -33.802  15.613  -3.439  1.00 20.00     0.175 C 
HETATM    4  C4  UNL     1     -36.478  16.368  -3.687  1.00 20.00     0.175 C 
HETATM    5  S5  UNL     1     -35.238  14.698  -6.413  1.00 20.00    -0.117 SA
HETATM    6  S6  UNL     1     -34.146  13.855  -3.714  1.00 20.00    -0.117 SA
HETATM    7  S7  UNL     1     -33.289  16.493  -4.939  1.00 20.00    -0.117 SA
HETATM    8  S8  UNL     1     -37.053  14.675  -3.984  1.00 20.00    -0.117 SA
HETATM    9  S9  UNL     1     -36.196  17.311  -5.210  1.00 20.00    -0.117 SA
HETATM   10  S10 UNL     1     -35.103  16.468  -2.510  1.00 20.00    -0.117 SA
ENDROOT
TORSDOF 0
ENDMDL
MODEL 7
REMARK VINA RESULT:      -3.5      0.130      2.759
REMARK  0 active torsions:
REMARK  status: ('A' for Active; 'I' for Inactive)
ROOT
HETATM    1  C1  UNL     1     -34.789  16.471  -5.777  1.00 20.00     0.175 C 
HETATM    2  C2  UNL     1     -36.433  16.344  -3.526  1.00 20.00     0.175 C 
HETATM    3  C3  UNL     1     -33.775  15.509  -3.361  1.00 20.00     0.175 C 
HETATM    4  C4  UNL     1     -35.627  13.995  -4.800  1.00 20.00     0.175 C 
HETATM    5  S5  UNL     1     -36.143  17.379  -4.986  1.00 20.00    -0.117 SA
HETATM    6  S6  UNL     1     -33.257  16.472  -4.807  1.00 20.00    -0.117 SA
HETATM    7  S7  UNL     1     -35.044  16.332  -2.361  1.00 20.00    -0.117 SA
HETATM    8  S8  UNL     1     -35.269  14.827  -6.370  1.00 20.00    -0.117 SA
HETATM    9  S9  UNL     1     -37.055  14.688  -3.925  1.00 20.00    -0.117 SA
HETATM   10  S10 UNL     1     -34.167  13.782  -3.745  1.00 20.00    -0.117 SA
ENDROOT
TORSDOF 0
ENDMDL
MODEL 8
REMARK VINA RESULT:      -3.5      0.134      2.812
REMARK  0 active torsions:
REMARK  status: ('A' for Active; 'I' for Inactive)
ROOT
HETATM    1  C1  UNL     1     -34.788  16.476  -5.775  1.00 20.00     0.175 C 
HETATM    2  C2  UNL     1     -33.771  15.495  -3.369  1.00 20.00     0.175 C 
HETATM    3  C3  UNL     1     -35.625  13.992  -4.815  1.00 20.00     0.175 C 
HETATM    4  C4  UNL     1     -36.429  16.332  -3.522  1.00 20.00     0.175 C 
HETATM    5  S5  UNL     1     -33.255  16.468  -4.809  1.00 20.00    -0.117 SA
HETATM    6  S6  UNL     1     -35.269  14.835  -6.380  1.00 20.00    -0.117 SA
HETATM    7  S7  UNL     1     -34.164  13.770  -3.764  1.00 20.00    -0.117 SA
HETATM    8  S8  UNL     1     -36.143  17.377  -4.975  1.00 20.00    -0.117 SA
HETATM    9  S9  UNL     1     -35.037  16.313  -2.361  1.00 20.00    -0.117 SA
HETATM   10  S10 UNL     1     -37.052  14.679  -3.932  1.00 20.00    -0.117 SA
ENDROOT
TORSDOF 0
ENDMDL
MODEL 9
REMARK VINA RESULT:      -3.5      0.129      3.236
REMARK  0 active torsions:
REMARK  status: ('A' for Active; 'I' for Inactive)
ROOT
HETATM    1  C1  UNL     1     -34.788  16.471  -5.777  1.00 20.00     0.175 C 
HETATM    2  C2  UNL     1     -35.628  13.996  -4.800  1.00 20.00     0.175 C 
HETATM    3  C3  UNL     1     -36.434  16.345  -3.528  1.00 20.00     0.175 C 
HETATM    4  C4  UNL     1     -33.776  15.510  -3.360  1.00 20.00     0.175 C 
HETATM    5  S5  UNL     1     -35.268  14.828  -6.371  1.00 20.00    -0.117 SA
HETATM    6  S6  UNL     1     -36.145  17.379  -4.988  1.00 20.00    -0.117 SA
HETATM    7  S7  UNL     1     -37.056  14.689  -3.925  1.00 20.00    -0.117 SA
HETATM    8  S8  UNL     1     -33.256  16.471  -4.807  1.00 20.00    -0.117 SA
HETATM    9  S9  UNL     1     -34.168  13.782  -3.746  1.00 20.00    -0.117 SA
HETATM   10  S10 UNL     1     -35.046  16.334  -2.362  1.00 20.00    -0.117 SA
ENDROOT
TORSDOF 0
ENDMDL
