MODEL 1
REMARK VINA RESULT:      -5.5      0.000      0.000
REMARK  0 active torsions:
REMARK  status: ('A' for Active; 'I' for Inactive)
ROOT
HETATM    1  C1  UNL     1     -33.692   6.231   4.133  1.00 20.00    -0.064 A 
HETATM    2  C2  UNL     1     -32.606   6.489   3.438  1.00 20.00    -0.084 C 
HETATM    3  C3  UNL     1     -35.006   4.460   6.384  1.00 20.00     0.002 C 
HETATM    4  C4  UNL     1     -34.231   5.772   6.576  1.00 20.00     0.010 C 
HETATM    5  C5  UNL     1     -34.894   4.132   4.887  1.00 20.00     0.014 C 
HETATM    6  C6  UNL     1     -34.439   6.516   5.292  1.00 20.00     0.028 A 
HETATM    7  C7  UNL     1     -34.890   5.483   4.212  1.00 20.00    -0.013 A 
HETATM    8  C8  UNL     1     -32.294   5.809   2.122  1.00 20.00     0.043 C 
HETATM    9  C9  UNL     1     -31.564   7.492   3.888  1.00 20.00     0.043 C 
HETATM   10  C10 UNL     1     -36.043   5.811   3.320  1.00 20.00     0.021 C 
ENDROOT
TORSDOF 0
ENDMDL
MODEL 2
REMARK VINA RESULT:      -4.7     11.741     13.415
REMARK  0 active torsions:
REMARK  status: ('A' for Active; 'I' for Inactive)
ROOT
HETATM    1  C1  UNL     1     -33.692  16.138  -3.433  1.00 20.00    -0.064 A 
HETATM    2  C2  UNL     1     -33.968  16.897  -2.396  1.00 20.00    -0.084 C 
HETATM    3  C3  UNL     1     -34.671  15.057  -6.226  1.00 20.00     0.002 C 
HETATM    4  C4  UNL     1     -33.893  16.354  -5.960  1.00 20.00     0.010 C 
HETATM    5  C5  UNL     1     -34.978  14.469  -4.840  1.00 20.00     0.014 C 
HETATM    6  C6  UNL     1     -33.111  16.068  -4.714  1.00 20.00     0.028 A 
HETATM    7  C7  UNL     1     -33.778  14.847  -4.005  1.00 20.00    -0.013 A 
HETATM    8  C8  UNL     1     -34.685  16.377  -1.168  1.00 20.00     0.043 C 
HETATM    9  C9  UNL     1     -33.597  18.364  -2.331  1.00 20.00     0.043 C 
HETATM   10  C10 UNL     1     -32.918  13.737  -3.492  1.00 20.00     0.021 C 
ENDROOT
TORSDOF 0
ENDMDL
MODEL 3
REMARK VINA RESULT:      -4.6     11.596     13.001
REMARK  0 active torsions:
REMARK  status: ('A' for Active; 'I' for Inactive)
ROOT
HETATM    1  C1  UNL     1     -34.156  16.696  -2.230  1.00 20.00    -0.064 A 
HETATM    2  C2  UNL     1     -34.011  17.272  -1.057  1.00 20.00    -0.084 C 
HETATM    3  C3  UNL     1     -33.604  14.134  -3.979  1.00 20.00     0.002 C 
HETATM    4  C4  UNL     1     -34.809  14.382  -3.060  1.00 20.00     0.010 C 
HETATM    5  C5  UNL     1     -32.670  15.336  -3.767  1.00 20.00     0.014 C 
HETATM    6  C6  UNL     1     -34.960  15.873  -3.041  1.00 20.00     0.028 A 
HETATM    7  C7  UNL     1     -33.609  16.493  -3.519  1.00 20.00    -0.013 A 
HETATM    8  C8  UNL     1     -32.819  18.138  -0.710  1.00 20.00     0.043 C 
HETATM    9  C9  UNL     1     -35.023  17.123   0.060  1.00 20.00     0.043 C 
HETATM   10  C10 UNL     1     -33.623  17.597  -4.525  1.00 20.00     0.021 C 
ENDROOT
TORSDOF 0
ENDMDL
MODEL 4
REMARK VINA RESULT:      -4.5     11.738     13.149
REMARK  0 active torsions:
REMARK  status: ('A' for Active; 'I' for Inactive)
ROOT
HETATM    1  C1  UNL     1     -35.115  14.891  -4.834  1.00 20.00    -0.064 A 
HETATM    2  C2  UNL     1     -35.430  15.057  -6.100  1.00 20.00    -0.084 C 
HETATM    3  C3  UNL     1     -34.323  16.291  -2.124  1.00 20.00     0.002 C 
HETATM    4  C4  UNL     1     -35.743  16.006  -2.635  1.00 20.00     0.010 C 
HETATM    5  C5  UNL     1     -33.383  15.869  -3.264  1.00 20.00     0.014 C 
HETATM    6  C6  UNL     1     -35.586  14.799  -3.511  1.00 20.00     0.028 A 
HETATM    7  C7  UNL     1     -34.077  14.685  -3.895  1.00 20.00    -0.013 A 
HETATM    8  C8  UNL     1     -34.397  15.068  -7.207  1.00 20.00     0.043 C 
HETATM    9  C9  UNL     1     -36.855  15.254  -6.571  1.00 20.00     0.043 C 
HETATM   10  C10 UNL     1     -33.396  13.358  -3.805  1.00 20.00     0.021 C 
ENDROOT
TORSDOF 0
ENDMDL
MODEL 5
REMARK VINA RESULT:      -4.3     11.658     13.125
REMARK  0 active torsions:
REMARK  status: ('A' for Active; 'I' for Inactive)
ROOT
HETATM    1  C1  UNL     1     -34.903  15.354  -3.150  1.00 20.00    -0.064 A 
HETATM    2  C2  UNL     1     -34.326  14.273  -3.626  1.00 20.00    -0.084 C 
HETATM    3  C3  UNL     1     -35.714  18.349  -3.698  1.00 20.00     0.002 C 
HETATM    4  C4  UNL     1     -36.533  17.095  -4.036  1.00 20.00     0.010 C 
HETATM    5  C5  UNL     1     -34.371  17.832  -3.159  1.00 20.00     0.014 C 
HETATM    6  C6  UNL     1     -36.099  16.085  -3.017  1.00 20.00     0.028 A 
HETATM    7  C7  UNL     1     -34.733  16.560  -2.429  1.00 20.00    -0.013 A 
HETATM    8  C8  UNL     1     -32.852  13.982  -3.444  1.00 20.00     0.043 C 
HETATM    9  C9  UNL     1     -35.083  13.214  -4.401  1.00 20.00     0.043 C 
HETATM   10  C10 UNL     1     -34.521  16.529  -0.950  1.00 20.00     0.021 C 
ENDROOT
TORSDOF 0
ENDMDL
MODEL 6
REMARK VINA RESULT:      -4.2     12.062     13.613
REMARK  0 active torsions:
REMARK  status: ('A' for Active; 'I' for Inactive)
ROOT
HETATM    1  C1  UNL     1     -35.852  14.979  -5.003  1.00 20.00    -0.064 A 
HETATM    2  C2  UNL     1     -37.067  15.458  -4.858  1.00 20.00    -0.084 C 
HETATM    3  C3  UNL     1     -32.942  14.805  -3.805  1.00 20.00     0.002 C 
HETATM    4  C4  UNL     1     -34.128  13.884  -3.486  1.00 20.00     0.010 C 
HETATM    5  C5  UNL     1     -33.506  15.898  -4.727  1.00 20.00     0.014 C 
HETATM    6  C6  UNL     1     -34.968  13.918  -4.726  1.00 20.00     0.028 A 
HETATM    7  C7  UNL     1     -34.560  15.185  -5.542  1.00 20.00    -0.013 A 
HETATM    8  C8  UNL     1     -37.496  16.792  -5.432  1.00 20.00     0.043 C 
HETATM    9  C9  UNL     1     -38.154  14.723  -4.102  1.00 20.00     0.043 C 
HETATM   10  C10 UNL     1     -34.331  15.068  -7.014  1.00 20.00     0.021 C 
ENDROOT
TORSDOF 0
ENDMDL
MODEL 7
REMARK VINA RESULT:      -4.2     11.792     13.215
REMARK  0 active torsions:
REMARK  status: ('A' for Active; 'I' for Inactive)
ROOT
HETATM    1  C1  UNL     1     -33.981  15.965  -3.437  1.00 20.00    -0.064 A 
HETATM    2  C2  UNL     1     -33.915  14.870  -4.160  1.00 20.00    -0.084 C 
HETATM    3  C3  UNL     1     -35.627  17.605  -1.308  1.00 20.00     0.002 C 
HETATM    4  C4  UNL     1     -34.568  16.529  -1.026  1.00 20.00     0.010 C 
HETATM    5  C5  UNL     1     -35.803  17.621  -2.834  1.00 20.00     0.014 C 
HETATM    6  C6  UNL     1     -33.657  16.586  -2.215  1.00 20.00     0.028 A 
HETATM    7  C7  UNL     1     -34.425  17.307  -3.367  1.00 20.00    -0.013 A 
HETATM    8  C8  UNL     1     -34.499  14.771  -5.554  1.00 20.00     0.043 C 
HETATM    9  C9  UNL     1     -33.248  13.602  -3.669  1.00 20.00     0.043 C 
HETATM   10  C10 UNL     1     -33.733  18.371  -4.157  1.00 20.00     0.021 C 
ENDROOT
TORSDOF 0
ENDMDL
MODEL 8
REMARK VINA RESULT:      -4.2     11.869     13.244
REMARK  0 active torsions:
REMARK  status: ('A' for Active; 'I' for Inactive)
ROOT
HETATM    1  C1  UNL     1     -35.094  16.034  -3.409  1.00 20.00    -0.064 A 
HETATM    2  C2  UNL     1     -34.561  16.822  -2.501  1.00 20.00    -0.084 C 
HETATM    3  C3  UNL     1     -34.630  13.627  -5.389  1.00 20.00     0.002 C 
HETATM    4  C4  UNL     1     -35.053  13.542  -3.916  1.00 20.00     0.010 C 
HETATM    5  C5  UNL     1     -34.360  15.117  -5.655  1.00 20.00     0.014 C 
HETATM    6  C6  UNL     1     -35.776  14.830  -3.663  1.00 20.00     0.028 A 
HETATM    7  C7  UNL     1     -35.364  15.834  -4.784  1.00 20.00    -0.013 A 
HETATM    8  C8  UNL     1     -33.891  18.135  -2.846  1.00 20.00     0.043 C 
HETATM    9  C9  UNL     1     -34.567  16.490  -1.024  1.00 20.00     0.043 C 
HETATM   10  C10 UNL     1     -36.418  16.642  -5.469  1.00 20.00     0.021 C 
ENDROOT
TORSDOF 0
ENDMDL
MODEL 9
REMARK VINA RESULT:      -4.1     12.085     13.452
REMARK  0 active torsions:
REMARK  status: ('A' for Active; 'I' for Inactive)
ROOT
HETATM    1  C1  UNL     1     -35.362  15.942  -3.497  1.00 20.00    -0.064 A 
HETATM    2  C2  UNL     1     -36.495  15.809  -4.150  1.00 20.00    -0.084 C 
HETATM    3  C3  UNL     1     -33.732  17.626  -1.390  1.00 20.00     0.002 C 
HETATM    4  C4  UNL     1     -34.686  16.458  -1.099  1.00 20.00     0.010 C 
HETATM    5  C5  UNL     1     -33.840  17.879  -2.902  1.00 20.00     0.014 C 
HETATM    6  C6  UNL     1     -34.630  15.617  -2.339  1.00 20.00     0.028 A 
HETATM    7  C7  UNL     1     -34.064  16.506  -3.491  1.00 20.00    -0.013 A 
HETATM    8  C8  UNL     1     -36.744  16.450  -5.499  1.00 20.00     0.043 C 
HETATM    9  C9  UNL     1     -37.660  15.002  -3.615  1.00 20.00     0.043 C 
HETATM   10  C10 UNL     1     -33.001  15.957  -4.385  1.00 20.00     0.021 C 
ENDROOT
TORSDOF 0
ENDMDL
