MODEL 1
REMARK VINA RESULT:      -4.4      0.000      0.000
REMARK  5 active torsions:
REMARK  status: ('A' for Active; 'I' for Inactive)
REMARK    1  A    between atoms: C1_1  and  C5_5 
REMARK    2  A    between atoms: C1_1  and  S10_10 
REMARK    3  A    between atoms: C5_5  and  C8_8 
REMARK    4  A    between atoms: C6_6  and  C7_7 
REMARK    5  A    between atoms: C7_7  and  S10_10 
ROOT
HETATM    1  C1  UNL     1     -33.806   5.730   3.115  1.00 20.00     0.186 C 
HETATM    2  O9  UNL     1     -34.306   5.017   2.254  1.00 20.00    -0.286 OA
ENDROOT
BRANCH   1   3
HETATM    3  C5  UNL     1     -34.562   6.282   4.310  1.00 20.00     0.094 C 
BRANCH   3   4
HETATM    4  C8  UNL     1     -34.091   5.690   5.649  1.00 20.00    -0.015 C 
HETATM    5  C3  UNL     1     -33.924   6.804   6.685  1.00 20.00     0.010 C 
HETATM    6  C4  UNL     1     -35.074   4.641   6.173  1.00 20.00     0.010 C 
ENDBRANCH   3   4
ENDBRANCH   1   3
BRANCH   1   7
HETATM    7  S10 UNL     1     -32.094   6.170   3.108  1.00 20.00    -0.093 SA
BRANCH   7   8
HETATM    8  C7  UNL     1     -32.214   7.958   2.889  1.00 20.00     0.082 C 
BRANCH   8   9
HETATM    9  C6  UNL     1     -31.879   8.345   1.454  1.00 20.00     0.006 C 
HETATM   10  C2  UNL     1     -32.393   9.740   1.128  1.00 20.00     0.006 C 
ENDBRANCH   8   9
ENDBRANCH   7   8
ENDBRANCH   1   7
TORSDOF 5
ENDMDL
MODEL 2
REMARK VINA RESULT:      -4.3      1.471      5.039
REMARK  5 active torsions:
REMARK  status: ('A' for Active; 'I' for Inactive)
REMARK    1  A    between atoms: C1_1  and  C5_5 
REMARK    2  A    between atoms: C1_1  and  S10_10 
REMARK    3  A    between atoms: C5_5  and  C8_8 
REMARK    4  A    between atoms: C6_6  and  C7_7 
REMARK    5  A    between atoms: C7_7  and  S10_10 
ROOT
HETATM    1  C1  UNL     1     -32.433   6.538   3.260  1.00 20.00     0.186 C 
HETATM    2  O9  UNL     1     -32.100   5.508   2.687  1.00 20.00    -0.286 OA
ENDROOT
BRANCH   1   3
HETATM    3  C5  UNL     1     -31.826   7.901   2.982  1.00 20.00     0.094 C 
BRANCH   3   4
HETATM    4  C8  UNL     1     -32.426   8.588   1.743  1.00 20.00    -0.015 C 
HETATM    5  C3  UNL     1     -32.742  10.052   2.056  1.00 20.00     0.010 C 
HETATM    6  C4  UNL     1     -31.476   8.510   0.546  1.00 20.00     0.010 C 
ENDBRANCH   3   4
ENDBRANCH   1   3
BRANCH   1   7
HETATM    7  S10 UNL     1     -33.724   6.581   4.466  1.00 20.00    -0.093 SA
BRANCH   7   8
HETATM    8  C7  UNL     1     -34.851   5.344   3.787  1.00 20.00     0.082 C 
BRANCH   8   9
HETATM    9  C6  UNL     1     -35.151   4.267   4.823  1.00 20.00     0.006 C 
HETATM   10  C2  UNL     1     -34.837   4.757   6.229  1.00 20.00     0.006 C 
ENDBRANCH   8   9
ENDBRANCH   7   8
ENDBRANCH   1   7
TORSDOF 5
ENDMDL
MODEL 3
REMARK VINA RESULT:      -4.1     10.998     12.016
REMARK  5 active torsions:
REMARK  status: ('A' for Active; 'I' for Inactive)
REMARK    1  A    between atoms: C1_1  and  C5_5 
REMARK    2  A    between atoms: C1_1  and  S10_10 
REMARK    3  A    between atoms: C5_5  and  C8_8 
REMARK    4  A    between atoms: C6_6  and  C7_7 
REMARK    5  A    between atoms: C7_7  and  S10_10 
ROOT
HETATM    1  C1  UNL     1     -33.802  14.409  -3.667  1.00 20.00     0.186 C 
HETATM    2  O9  UNL     1     -32.579  14.449  -3.627  1.00 20.00    -0.286 OA
ENDROOT
BRANCH   1   3
HETATM    3  C5  UNL     1     -34.712  15.298  -2.838  1.00 20.00     0.094 C 
BRANCH   3   4
HETATM    4  C8  UNL     1     -33.958  16.427  -2.115  1.00 20.00    -0.015 C 
HETATM    5  C3  UNL     1     -33.958  17.692  -2.975  1.00 20.00     0.010 C 
HETATM    6  C4  UNL     1     -34.582  16.730  -0.750  1.00 20.00     0.010 C 
ENDBRANCH   3   4
ENDBRANCH   1   3
BRANCH   1   7
HETATM    7  S10 UNL     1     -34.683  13.332  -4.757  1.00 20.00    -0.093 SA
BRANCH   7   8
HETATM    8  C7  UNL     1     -35.425  14.534  -5.880  1.00 20.00     0.082 C 
BRANCH   8   9
HETATM    9  C6  UNL     1     -34.363  15.145  -6.787  1.00 20.00     0.006 C 
HETATM   10  C2  UNL     1     -34.294  16.655  -6.612  1.00 20.00     0.006 C 
ENDBRANCH   8   9
ENDBRANCH   7   8
ENDBRANCH   1   7
TORSDOF 5
ENDMDL
MODEL 4
REMARK VINA RESULT:      -4.1     11.065     12.641
REMARK  5 active torsions:
REMARK  status: ('A' for Active; 'I' for Inactive)
REMARK    1  A    between atoms: C1_1  and  C5_5 
REMARK    2  A    between atoms: C1_1  and  S10_10 
REMARK    3  A    between atoms: C5_5  and  C8_8 
REMARK    4  A    between atoms: C6_6  and  C7_7 
REMARK    5  A    between atoms: C7_7  and  S10_10 
ROOT
HETATM    1  C1  UNL     1     -34.550  13.747  -4.680  1.00 20.00     0.186 C 
HETATM    2  O9  UNL     1     -34.896  12.572  -4.701  1.00 20.00    -0.286 OA
ENDROOT
BRANCH   1   3
HETATM    3  C5  UNL     1     -35.240  14.853  -5.457  1.00 20.00     0.094 C 
BRANCH   3   4
HETATM    4  C8  UNL     1     -34.646  15.069  -6.859  1.00 20.00    -0.015 C 
HETATM    5  C3  UNL     1     -35.561  14.452  -7.918  1.00 20.00     0.010 C 
HETATM    6  C4  UNL     1     -34.442  16.557  -7.156  1.00 20.00     0.010 C 
ENDBRANCH   3   4
ENDBRANCH   1   3
BRANCH   1   7
HETATM    7  S10 UNL     1     -33.213  14.325  -3.679  1.00 20.00    -0.093 SA
BRANCH   7   8
HETATM    8  C7  UNL     1     -33.787  15.993  -3.293  1.00 20.00     0.082 C 
BRANCH   8   9
HETATM    9  C6  UNL     1     -34.641  15.985  -2.030  1.00 20.00     0.006 C 
HETATM   10  C2  UNL     1     -34.158  17.032  -1.036  1.00 20.00     0.006 C 
ENDBRANCH   8   9
ENDBRANCH   7   8
ENDBRANCH   1   7
TORSDOF 5
ENDMDL
MODEL 5
REMARK VINA RESULT:      -4.1     11.082     12.254
REMARK  5 active torsions:
REMARK  status: ('A' for Active; 'I' for Inactive)
REMARK    1  A    between atoms: C1_1  and  C5_5 
REMARK    2  A    between atoms: C1_1  and  S10_10 
REMARK    3  A    between atoms: C5_5  and  C8_8 
REMARK    4  A    between atoms: C6_6  and  C7_7 
REMARK    5  A    between atoms: C7_7  and  S10_10 
ROOT
HETATM    1  C1  UNL     1     -35.037  13.884  -4.199  1.00 20.00     0.186 C 
HETATM    2  O9  UNL     1     -35.007  12.664  -4.304  1.00 20.00    -0.286 OA
ENDROOT
BRANCH   1   3
HETATM    3  C5  UNL     1     -34.064  14.692  -3.359  1.00 20.00     0.094 C 
BRANCH   3   4
HETATM    4  C8  UNL     1     -34.590  16.092  -3.004  1.00 20.00    -0.015 C 
HETATM    5  C3  UNL     1     -34.681  16.250  -1.485  1.00 20.00     0.010 C 
HETATM    6  C4  UNL     1     -33.693  17.189  -3.584  1.00 20.00     0.010 C 
ENDBRANCH   3   4
ENDBRANCH   1   3
BRANCH   1   7
HETATM    7  S10 UNL     1     -36.203  14.885  -5.072  1.00 20.00    -0.093 SA
BRANCH   7   8
HETATM    8  C7  UNL     1     -35.747  14.510  -6.778  1.00 20.00     0.082 C 
BRANCH   8   9
HETATM    9  C6  UNL     1     -34.381  15.101  -7.108  1.00 20.00     0.006 C 
HETATM   10  C2  UNL     1     -34.436  16.621  -7.149  1.00 20.00     0.006 C 
ENDBRANCH   8   9
ENDBRANCH   7   8
ENDBRANCH   1   7
TORSDOF 5
ENDMDL
MODEL 6
REMARK VINA RESULT:      -4.0     11.371     12.346
REMARK  5 active torsions:
REMARK  status: ('A' for Active; 'I' for Inactive)
REMARK    1  A    between atoms: C1_1  and  C5_5 
REMARK    2  A    between atoms: C1_1  and  S10_10 
REMARK    3  A    between atoms: C5_5  and  C8_8 
REMARK    4  A    between atoms: C6_6  and  C7_7 
REMARK    5  A    between atoms: C7_7  and  S10_10 
ROOT
HETATM    1  C1  UNL     1     -36.663  14.537  -4.254  1.00 20.00     0.186 C 
HETATM    2  O9  UNL     1     -37.710  14.233  -3.696  1.00 20.00    -0.286 OA
ENDROOT
BRANCH   1   3
HETATM    3  C5  UNL     1     -35.283  14.233  -3.700  1.00 20.00     0.094 C 
BRANCH   3   4
HETATM    4  C8  UNL     1     -34.454  15.497  -3.418  1.00 20.00    -0.015 C 
HETATM    5  C3  UNL     1     -34.692  15.972  -1.983  1.00 20.00     0.010 C 
HETATM    6  C4  UNL     1     -32.960  15.246  -3.637  1.00 20.00     0.010 C 
ENDBRANCH   3   4
ENDBRANCH   1   3
BRANCH   1   7
HETATM    7  S10 UNL     1     -36.623  15.331  -5.833  1.00 20.00    -0.093 SA
BRANCH   7   8
HETATM    8  C7  UNL     1     -35.428  14.289  -6.696  1.00 20.00     0.082 C 
BRANCH   8   9
HETATM    9  C6  UNL     1     -34.336  15.142  -7.332  1.00 20.00     0.006 C 
HETATM   10  C2  UNL     1     -34.493  16.607  -6.951  1.00 20.00     0.006 C 
ENDBRANCH   8   9
ENDBRANCH   7   8
ENDBRANCH   1   7
TORSDOF 5
ENDMDL
MODEL 7
REMARK VINA RESULT:      -4.0     11.155     12.349
REMARK  5 active torsions:
REMARK  status: ('A' for Active; 'I' for Inactive)
REMARK    1  A    between atoms: C1_1  and  C5_5 
REMARK    2  A    between atoms: C1_1  and  S10_10 
REMARK    3  A    between atoms: C5_5  and  C8_8 
REMARK    4  A    between atoms: C6_6  and  C7_7 
REMARK    5  A    between atoms: C7_7  and  S10_10 
ROOT
HETATM    1  C1  UNL     1     -35.139  13.777  -4.981  1.00 20.00     0.186 C 
HETATM    2  O9  UNL     1     -34.844  12.616  -4.729  1.00 20.00    -0.286 OA
ENDROOT
BRANCH   1   3
HETATM    3  C5  UNL     1     -35.431  14.830  -3.927  1.00 20.00     0.094 C 
BRANCH   3   4
HETATM    4  C8  UNL     1     -34.289  15.002  -2.912  1.00 20.00    -0.015 C 
HETATM    5  C3  UNL     1     -32.970  15.255  -3.644  1.00 20.00     0.010 C 
HETATM    6  C4  UNL     1     -34.572  16.153  -1.943  1.00 20.00     0.010 C 
ENDBRANCH   3   4
ENDBRANCH   1   3
BRANCH   1   7
HETATM    7  S10 UNL     1     -35.208  14.404  -6.632  1.00 20.00    -0.093 SA
BRANCH   7   8
HETATM    8  C7  UNL     1     -35.510  16.154  -6.309  1.00 20.00     0.082 C 
BRANCH   8   9
HETATM    9  C6  UNL     1     -34.411  17.010  -6.929  1.00 20.00     0.006 C 
HETATM   10  C2  UNL     1     -33.846  17.995  -5.917  1.00 20.00     0.006 C 
ENDBRANCH   8   9
ENDBRANCH   7   8
ENDBRANCH   1   7
TORSDOF 5
ENDMDL
MODEL 8
REMARK VINA RESULT:      -3.9      1.118      1.588
REMARK  5 active torsions:
REMARK  status: ('A' for Active; 'I' for Inactive)
REMARK    1  A    between atoms: C1_1  and  C5_5 
REMARK    2  A    between atoms: C1_1  and  S10_10 
REMARK    3  A    between atoms: C5_5  and  C8_8 
REMARK    4  A    between atoms: C6_6  and  C7_7 
REMARK    5  A    between atoms: C7_7  and  S10_10 
ROOT
HETATM    1  C1  UNL     1     -33.919   6.454   3.588  1.00 20.00     0.186 C 
HETATM    2  O9  UNL     1     -34.474   7.545   3.536  1.00 20.00    -0.286 OA
ENDROOT
BRANCH   1   3
HETATM    3  C5  UNL     1     -34.597   5.174   4.043  1.00 20.00     0.094 C 
BRANCH   3   4
HETATM    4  C8  UNL     1     -35.042   5.216   5.514  1.00 20.00    -0.015 C 
HETATM    5  C3  UNL     1     -35.025   3.806   6.108  1.00 20.00     0.010 C 
HETATM    6  C4  UNL     1     -34.142   6.136   6.344  1.00 20.00     0.010 C 
ENDBRANCH   3   4
ENDBRANCH   1   3
BRANCH   1   7
HETATM    7  S10 UNL     1     -32.244   6.215   3.077  1.00 20.00    -0.093 SA
BRANCH   7   8
HETATM    8  C7  UNL     1     -31.719   7.928   2.855  1.00 20.00     0.082 C 
BRANCH   8   9
HETATM    9  C6  UNL     1     -31.850   8.342   1.394  1.00 20.00     0.006 C 
HETATM   10  C2  UNL     1     -32.413   9.751   1.272  1.00 20.00     0.006 C 
ENDBRANCH   8   9
ENDBRANCH   7   8
ENDBRANCH   1   7
TORSDOF 5
ENDMDL
MODEL 9
REMARK VINA RESULT:      -3.8      1.816      5.260
REMARK  5 active torsions:
REMARK  status: ('A' for Active; 'I' for Inactive)
REMARK    1  A    between atoms: C1_1  and  C5_5 
REMARK    2  A    between atoms: C1_1  and  S10_10 
REMARK    3  A    between atoms: C5_5  and  C8_8 
REMARK    4  A    between atoms: C6_6  and  C7_7 
REMARK    5  A    between atoms: C7_7  and  S10_10 
ROOT
HETATM    1  C1  UNL     1     -32.261   7.127   3.308  1.00 20.00     0.186 C 
HETATM    2  O9  UNL     1     -31.405   7.537   4.081  1.00 20.00    -0.286 OA
ENDROOT
BRANCH   1   3
HETATM    3  C5  UNL     1     -32.217   7.323   1.803  1.00 20.00     0.094 C 
BRANCH   3   4
HETATM    4  C8  UNL     1     -31.944   8.779   1.391  1.00 20.00    -0.015 C 
HETATM    5  C3  UNL     1     -32.170   8.951  -0.112  1.00 20.00     0.010 C 
HETATM    6  C4  UNL     1     -32.837   9.754   2.162  1.00 20.00     0.010 C 
ENDBRANCH   3   4
ENDBRANCH   1   3
BRANCH   1   7
HETATM    7  S10 UNL     1     -33.658   6.188   3.849  1.00 20.00    -0.093 SA
BRANCH   7   8
HETATM    8  C7  UNL     1     -33.624   6.537   5.620  1.00 20.00     0.082 C 
BRANCH   8   9
HETATM    9  C6  UNL     1     -34.563   5.597   6.368  1.00 20.00     0.006 C 
HETATM   10  C2  UNL     1     -34.874   4.359   5.540  1.00 20.00     0.006 C 
ENDBRANCH   8   9
ENDBRANCH   7   8
ENDBRANCH   1   7
TORSDOF 5
ENDMDL
