MODEL 1
REMARK VINA RESULT:      -4.9      0.000      0.000
REMARK  0 active torsions:
REMARK  status: ('A' for Active; 'I' for Inactive)
ROOT
HETATM    1  C1  UNL     1     -33.896   6.490   6.224  1.00 20.00     0.023 C 
HETATM    2  C2  UNL     1     -31.675   7.201   3.436  1.00 20.00     0.017 A 
HETATM    3  C3  UNL     1     -33.603   5.729   2.741  1.00 20.00     0.012 C 
HETATM    4  C4  UNL     1     -34.757   5.373   6.670  1.00 20.00     0.110 C 
HETATM    5  C5  UNL     1     -32.780   7.310   4.142  1.00 20.00     0.010 A 
HETATM    6  C6  UNL     1     -32.842   6.840   2.704  1.00 20.00    -0.008 A 
HETATM    7  C7  UNL     1     -33.444   6.335   4.981  1.00 20.00    -0.061 C 
HETATM    8  C8  UNL     1     -35.229   4.731   4.462  1.00 20.00     0.158 C 
HETATM    9  C9  UNL     1     -33.806   5.167   4.117  1.00 20.00     0.040 C 
HETATM   10  N10 UNL     1     -35.385   4.532   5.919  1.00 20.00    -0.301 NA
ENDROOT
TORSDOF 0
ENDMDL
MODEL 2
REMARK VINA RESULT:      -4.8      1.721      3.912
REMARK  0 active torsions:
REMARK  status: ('A' for Active; 'I' for Inactive)
ROOT
HETATM    1  C1  UNL     1     -33.917   5.444   2.783  1.00 20.00     0.023 C 
HETATM    2  C2  UNL     1     -35.162   4.012   5.882  1.00 20.00     0.017 A 
HETATM    3  C3  UNL     1     -34.012   6.224   6.272  1.00 20.00     0.012 C 
HETATM    4  C4  UNL     1     -32.773   6.278   2.353  1.00 20.00     0.110 C 
HETATM    5  C5  UNL     1     -35.157   4.856   4.873  1.00 20.00     0.010 A 
HETATM    6  C6  UNL     1     -35.055   5.371   6.293  1.00 20.00    -0.008 A 
HETATM    7  C7  UNL     1     -34.044   5.377   4.106  1.00 20.00    -0.061 C 
HETATM    8  C8  UNL     1     -32.715   7.419   4.404  1.00 20.00     0.158 C 
HETATM    9  C9  UNL     1     -33.143   6.105   5.054  1.00 20.00     0.040 C 
HETATM   10  N10 UNL     1     -32.176   7.189   3.046  1.00 20.00    -0.301 NA
ENDROOT
TORSDOF 0
ENDMDL
MODEL 3
REMARK VINA RESULT:      -4.6      0.744      2.075
REMARK  0 active torsions:
REMARK  status: ('A' for Active; 'I' for Inactive)
ROOT
HETATM    1  C1  UNL     1     -34.515   5.076   3.351  1.00 20.00     0.023 C 
HETATM    2  C2  UNL     1     -32.234   7.736   2.389  1.00 20.00     0.017 A 
HETATM    3  C3  UNL     1     -32.254   7.382   4.887  1.00 20.00     0.012 C 
HETATM    4  C4  UNL     1     -35.395   4.760   4.498  1.00 20.00     0.110 C 
HETATM    5  C5  UNL     1     -32.556   6.531   2.807  1.00 20.00     0.010 A 
HETATM    6  C6  UNL     1     -31.686   7.425   3.665  1.00 20.00    -0.008 A 
HETATM    7  C7  UNL     1     -33.693   6.095   3.591  1.00 20.00    -0.061 C 
HETATM    8  C8  UNL     1     -33.953   5.821   6.016  1.00 20.00     0.158 C 
HETATM    9  C9  UNL     1     -33.643   6.818   4.901  1.00 20.00     0.040 C 
HETATM   10  N10 UNL     1     -35.199   5.078   5.734  1.00 20.00    -0.301 NA
ENDROOT
TORSDOF 0
ENDMDL
MODEL 4
REMARK VINA RESULT:      -4.5      1.691      3.464
REMARK  0 active torsions:
REMARK  status: ('A' for Active; 'I' for Inactive)
ROOT
HETATM    1  C1  UNL     1     -32.732   6.842   4.700  1.00 20.00     0.023 C 
HETATM    2  C2  UNL     1     -35.228   5.233   6.796  1.00 20.00     0.017 A 
HETATM    3  C3  UNL     1     -35.175   4.239   4.478  1.00 20.00     0.012 C 
HETATM    4  C4  UNL     1     -32.567   7.177   3.268  1.00 20.00     0.110 C 
HETATM    5  C5  UNL     1     -34.086   5.318   6.148  1.00 20.00     0.010 A 
HETATM    6  C6  UNL     1     -35.064   4.210   5.820  1.00 20.00    -0.008 A 
HETATM    7  C7  UNL     1     -33.762   6.030   4.929  1.00 20.00    -0.061 C 
HETATM    8  C8  UNL     1     -33.783   5.287   2.590  1.00 20.00     0.158 C 
HETATM    9  C9  UNL     1     -34.635   5.485   3.842  1.00 20.00     0.040 C 
HETATM   10  N10 UNL     1     -33.028   6.515   2.260  1.00 20.00    -0.301 NA
ENDROOT
TORSDOF 0
ENDMDL
MODEL 5
REMARK VINA RESULT:      -4.4     11.685     13.174
REMARK  0 active torsions:
REMARK  status: ('A' for Active; 'I' for Inactive)
ROOT
HETATM    1  C1  UNL     1     -34.475  15.016  -5.932  1.00 20.00     0.023 C 
HETATM    2  C2  UNL     1     -34.479  18.053  -3.935  1.00 20.00     0.017 A 
HETATM    3  C3  UNL     1     -34.023  16.010  -2.526  1.00 20.00     0.012 C 
HETATM    4  C4  UNL     1     -34.841  13.595  -5.750  1.00 20.00     0.110 C 
HETATM    5  C5  UNL     1     -33.930  17.028  -4.550  1.00 20.00     0.010 A 
HETATM    6  C6  UNL     1     -33.734  17.213  -3.060  1.00 20.00    -0.008 A 
HETATM    7  C7  UNL     1     -34.456  15.700  -4.790  1.00 20.00    -0.061 C 
HETATM    8  C8  UNL     1     -34.243  13.635  -3.480  1.00 20.00     0.158 C 
HETATM    9  C9  UNL     1     -34.741  15.079  -3.458  1.00 20.00     0.040 C 
HETATM   10  N10 UNL     1     -34.767  12.910  -4.657  1.00 20.00    -0.301 NA
ENDROOT
TORSDOF 0
ENDMDL
MODEL 6
REMARK VINA RESULT:      -4.4     12.109     13.407
REMARK  0 active torsions:
REMARK  status: ('A' for Active; 'I' for Inactive)
ROOT
HETATM    1  C1  UNL     1     -34.003  16.272  -2.365  1.00 20.00     0.023 C 
HETATM    2  C2  UNL     1     -35.277  13.371  -4.146  1.00 20.00     0.017 A 
HETATM    3  C3  UNL     1     -34.294  15.077  -5.723  1.00 20.00     0.012 C 
HETATM    4  C4  UNL     1     -33.870  17.725  -2.608  1.00 20.00     0.110 C 
HETATM    5  C5  UNL     1     -34.343  14.156  -3.652  1.00 20.00     0.010 A 
HETATM    6  C6  UNL     1     -34.385  13.867  -5.138  1.00 20.00    -0.008 A 
HETATM    7  C7  UNL     1     -34.346  15.590  -3.456  1.00 20.00    -0.061 C 
HETATM    8  C8  UNL     1     -33.571  17.405  -4.914  1.00 20.00     0.158 C 
HETATM    9  C9  UNL     1     -34.538  16.230  -4.796  1.00 20.00     0.040 C 
HETATM   10  N10 UNL     1     -33.681  18.305  -3.746  1.00 20.00    -0.301 NA
ENDROOT
TORSDOF 0
ENDMDL
MODEL 7
REMARK VINA RESULT:      -4.4     12.447     13.978
REMARK  0 active torsions:
REMARK  status: ('A' for Active; 'I' for Inactive)
ROOT
HETATM    1  C1  UNL     1     -34.428  13.471  -4.890  1.00 20.00     0.023 C 
HETATM    2  C2  UNL     1     -36.191  14.796  -7.779  1.00 20.00     0.017 A 
HETATM    3  C3  UNL     1     -34.440  16.404  -6.936  1.00 20.00     0.012 C 
HETATM    4  C4  UNL     1     -33.800  14.003  -3.661  1.00 20.00     0.110 C 
HETATM    5  C5  UNL     1     -35.169  14.267  -7.141  1.00 20.00     0.010 A 
HETATM    6  C6  UNL     1     -35.017  15.598  -7.848  1.00 20.00    -0.008 A 
HETATM    7  C7  UNL     1     -34.756  14.422  -5.762  1.00 20.00    -0.061 C 
HETATM    8  C8  UNL     1     -33.185  16.001  -4.730  1.00 20.00     0.158 C 
HETATM    9  C9  UNL     1     -34.479  15.875  -5.533  1.00 20.00     0.040 C 
HETATM   10  N10 UNL     1     -33.225  15.151  -3.521  1.00 20.00    -0.301 NA
ENDROOT
TORSDOF 0
ENDMDL
MODEL 8
REMARK VINA RESULT:      -4.3     12.195     13.122
REMARK  0 active torsions:
REMARK  status: ('A' for Active; 'I' for Inactive)
ROOT
HETATM    1  C1  UNL     1     -35.598  14.311  -3.789  1.00 20.00     0.023 C 
HETATM    2  C2  UNL     1     -34.503  16.509  -1.110  1.00 20.00     0.017 A 
HETATM    3  C3  UNL     1     -33.697  17.310  -3.363  1.00 20.00     0.012 C 
HETATM    4  C4  UNL     1     -35.083  13.850  -5.098  1.00 20.00     0.110 C 
HETATM    5  C5  UNL     1     -35.230  16.162  -2.150  1.00 20.00     0.010 A 
HETATM    6  C6  UNL     1     -34.376  17.411  -2.204  1.00 20.00    -0.008 A 
HETATM    7  C7  UNL     1     -34.894  15.318  -3.277  1.00 20.00    -0.061 C 
HETATM    8  C8  UNL     1     -33.978  15.886  -5.482  1.00 20.00     0.158 C 
HETATM    9  C9  UNL     1     -33.726  15.942  -3.977  1.00 20.00     0.040 C 
HETATM   10  N10 UNL     1     -34.333  14.516  -5.912  1.00 20.00    -0.301 NA
ENDROOT
TORSDOF 0
ENDMDL
MODEL 9
REMARK VINA RESULT:      -4.3     12.293     13.674
REMARK  0 active torsions:
REMARK  status: ('A' for Active; 'I' for Inactive)
ROOT
HETATM    1  C1  UNL     1     -33.385  15.022  -3.640  1.00 20.00     0.023 C 
HETATM    2  C2  UNL     1     -33.535  17.978  -5.749  1.00 20.00     0.017 A 
HETATM    3  C3  UNL     1     -35.112  16.179  -6.551  1.00 20.00     0.012 C 
HETATM    4  C4  UNL     1     -33.530  13.560  -3.807  1.00 20.00     0.110 C 
HETATM    5  C5  UNL     1     -33.974  17.136  -4.839  1.00 20.00     0.010 A 
HETATM    6  C6  UNL     1     -34.793  17.402  -6.085  1.00 20.00    -0.008 A 
HETATM    7  C7  UNL     1     -33.762  15.709  -4.717  1.00 20.00    -0.061 C 
HETATM    8  C8  UNL     1     -35.093  13.818  -5.539  1.00 20.00     0.158 C 
HETATM    9  C9  UNL     1     -34.310  15.063  -5.952  1.00 20.00     0.040 C 
HETATM   10  N10 UNL     1     -34.284  12.948  -4.659  1.00 20.00    -0.301 NA
ENDROOT
TORSDOF 0
ENDMDL
