MODEL 1
REMARK VINA RESULT:      -2.9      0.000      0.000
REMARK  0 active torsions:
REMARK  status: ('A' for Active; 'I' for Inactive)
ROOT
HETATM    1  C1  UNL     1     -35.204   4.693   5.168  1.00 20.00     0.128 C 
HETATM    2  C2  UNL     1     -34.560   5.432   6.291  1.00 20.00     0.234 C 
HETATM    3  N3  UNL     1     -34.904   5.018   3.958  1.00 20.00    -0.203 NA
HETATM    4  O4  UNL     1     -33.847   6.487   5.669  1.00 20.00    -0.295 OA
HETATM    5  S5  UNL     1     -33.790   6.269   4.017  1.00 20.00     0.137 SA
ENDROOT
TORSDOF 0
ENDMDL
MODEL 2
REMARK VINA RESULT:      -2.9      1.693      1.877
REMARK  0 active torsions:
REMARK  status: ('A' for Active; 'I' for Inactive)
ROOT
HETATM    1  C1  UNL     1     -34.334   5.629   6.235  1.00 20.00     0.128 C 
HETATM    2  C2  UNL     1     -35.091   4.359   6.044  1.00 20.00     0.234 C 
HETATM    3  N3  UNL     1     -34.023   6.329   5.199  1.00 20.00    -0.203 NA
HETATM    4  O4  UNL     1     -35.131   4.170   4.640  1.00 20.00    -0.295 OA
HETATM    5  S5  UNL     1     -34.612   5.539   3.843  1.00 20.00     0.137 SA
ENDROOT
TORSDOF 0
ENDMDL
MODEL 3
REMARK VINA RESULT:      -2.9      1.675      1.838
REMARK  0 active torsions:
REMARK  status: ('A' for Active; 'I' for Inactive)
ROOT
HETATM    1  C1  UNL     1     -35.177   4.561   4.791  1.00 20.00     0.128 C 
HETATM    2  C2  UNL     1     -34.606   5.510   3.793  1.00 20.00     0.234 C 
HETATM    3  N3  UNL     1     -35.005   4.799   6.046  1.00 20.00    -0.203 NA
HETATM    4  O4  UNL     1     -33.828   6.414   4.559  1.00 20.00    -0.295 OA
HETATM    5  S5  UNL     1     -34.125   6.219   6.187  1.00 20.00     0.137 SA
ENDROOT
TORSDOF 0
ENDMDL
MODEL 4
REMARK VINA RESULT:      -2.8      1.821      1.821
REMARK  0 active torsions:
REMARK  status: ('A' for Active; 'I' for Inactive)
ROOT
HETATM    1  C1  UNL     1     -34.791   5.299   3.665  1.00 20.00     0.128 C 
HETATM    2  C2  UNL     1     -33.921   6.466   3.984  1.00 20.00     0.234 C 
HETATM    3  N3  UNL     1     -35.240   4.576   4.631  1.00 20.00    -0.203 NA
HETATM    4  O4  UNL     1     -33.674   6.364   5.376  1.00 20.00    -0.295 OA
HETATM    5  S5  UNL     1     -34.667   5.219   6.070  1.00 20.00     0.137 SA
ENDROOT
TORSDOF 0
ENDMDL
MODEL 5
REMARK VINA RESULT:      -2.8      2.384      2.561
REMARK  0 active torsions:
REMARK  status: ('A' for Active; 'I' for Inactive)
ROOT
HETATM    1  C1  UNL     1     -33.960   6.341   4.522  1.00 20.00     0.128 C 
HETATM    2  C2  UNL     1     -34.619   5.396   3.576  1.00 20.00     0.234 C 
HETATM    3  N3  UNL     1     -34.017   6.097   5.786  1.00 20.00    -0.203 NA
HETATM    4  O4  UNL     1     -35.324   4.488   4.405  1.00 20.00    -0.295 OA
HETATM    5  S5  UNL     1     -34.879   4.676   6.001  1.00 20.00     0.137 SA
ENDROOT
TORSDOF 0
ENDMDL
MODEL 6
REMARK VINA RESULT:      -2.5     12.998     13.091
REMARK  0 active torsions:
REMARK  status: ('A' for Active; 'I' for Inactive)
ROOT
HETATM    1  C1  UNL     1     -34.683  13.160  -4.805  1.00 20.00     0.128 C 
HETATM    2  C2  UNL     1     -34.816  14.290  -5.769  1.00 20.00     0.234 C 
HETATM    3  N3  UNL     1     -33.990  13.335  -3.733  1.00 20.00    -0.203 NA
HETATM    4  O4  UNL     1     -33.939  15.289  -5.277  1.00 20.00    -0.295 OA
HETATM    5  S5  UNL     1     -33.405  14.906  -3.745  1.00 20.00     0.137 SA
ENDROOT
TORSDOF 0
ENDMDL
MODEL 7
REMARK VINA RESULT:      -2.5     12.934     12.975
REMARK  0 active torsions:
REMARK  status: ('A' for Active; 'I' for Inactive)
ROOT
HETATM    1  C1  UNL     1     -33.817  13.462  -3.772  1.00 20.00     0.128 C 
HETATM    2  C2  UNL     1     -33.441  14.896  -3.935  1.00 20.00     0.234 C 
HETATM    3  N3  UNL     1     -34.609  12.925  -4.634  1.00 20.00    -0.203 NA
HETATM    4  O4  UNL     1     -34.251  15.362  -5.001  1.00 20.00    -0.295 OA
HETATM    5  S5  UNL     1     -35.006  14.091  -5.771  1.00 20.00     0.137 SA
ENDROOT
TORSDOF 0
ENDMDL
MODEL 8
REMARK VINA RESULT:      -2.4     12.365     12.438
REMARK  0 active torsions:
REMARK  status: ('A' for Active; 'I' for Inactive)
ROOT
HETATM    1  C1  UNL     1     -35.477  15.043  -3.464  1.00 20.00     0.128 C 
HETATM    2  C2  UNL     1     -36.049  13.876  -4.194  1.00 20.00     0.234 C 
HETATM    3  N3  UNL     1     -34.220  15.047  -3.184  1.00 20.00    -0.203 NA
HETATM    4  O4  UNL     1     -34.992  12.933  -4.253  1.00 20.00    -0.295 OA
HETATM    5  S5  UNL     1     -33.553  13.628  -3.778  1.00 20.00     0.137 SA
ENDROOT
TORSDOF 0
ENDMDL
MODEL 9
REMARK VINA RESULT:      -2.4     12.947     13.036
REMARK  0 active torsions:
REMARK  status: ('A' for Active; 'I' for Inactive)
ROOT
HETATM    1  C1  UNL     1     -34.667  14.412  -5.561  1.00 20.00     0.128 C 
HETATM    2  C2  UNL     1     -34.706  13.128  -4.803  1.00 20.00     0.234 C 
HETATM    3  N3  UNL     1     -33.961  15.385  -5.099  1.00 20.00    -0.203 NA
HETATM    4  O4  UNL     1     -34.021  13.402  -3.593  1.00 20.00    -0.295 OA
HETATM    5  S5  UNL     1     -33.241  14.873  -3.674  1.00 20.00     0.137 SA
ENDROOT
TORSDOF 0
ENDMDL
