MODEL 1
REMARK VINA RESULT:      -5.2      0.000      0.000
REMARK  4 active torsions:
REMARK  status: ('A' for Active; 'I' for Inactive)
REMARK    1  A    between atoms: C3_3  and  C5_5 
REMARK    2  A    between atoms: C5_5  and  N8_8 
REMARK    3  A    between atoms: C6_6  and  C7_7 
REMARK    4  A    between atoms: C6_6  and  N8_8 
ROOT
HETATM    1  N8  UNL     1     -32.453   7.866   2.926  1.00 20.00     0.089 N 
HETATM    2  H23 UNL     1     -31.769   8.150   3.635  1.00 20.00     0.316 HD
ENDROOT
BRANCH   1   3
HETATM    3  C5  UNL     1     -32.834   6.494   3.122  1.00 20.00     0.274 C 
BRANCH   3   4
HETATM    4  C3  UNL     1     -34.017   6.385   4.019  1.00 20.00     0.018 A 
HETATM    5  C1  UNL     1     -35.100   5.381   3.726  1.00 20.00     0.011 A 
HETATM    6  C2  UNL     1     -34.187   5.178   4.905  1.00 20.00    -0.013 A 
HETATM    7  C4  UNL     1     -34.707   5.336   6.292  1.00 20.00     0.010 C 
ENDBRANCH   3   4
ENDBRANCH   1   3
BRANCH   1   8
HETATM    8  C6  UNL     1     -31.862   8.079   1.604  1.00 20.00     0.340 C 
BRANCH   8   9
HETATM    9  C7  UNL     1     -32.232   9.447   1.071  1.00 20.00     0.381 C 
HETATM   10  F9  UNL     1     -33.102  10.055   1.916  1.00 20.00    -0.213 F 
HETATM   11  F10 UNL     1     -32.882   9.302  -0.112  1.00 20.00    -0.213 F 
ENDBRANCH   8   9
ENDBRANCH   1   8
TORSDOF 4
ENDMDL
MODEL 2
REMARK VINA RESULT:      -5.1      0.946      1.257
REMARK  4 active torsions:
REMARK  status: ('A' for Active; 'I' for Inactive)
REMARK    1  A    between atoms: C3_3  and  C5_5 
REMARK    2  A    between atoms: C5_5  and  N8_8 
REMARK    3  A    between atoms: C6_6  and  C7_7 
REMARK    4  A    between atoms: C6_6  and  N8_8 
ROOT
HETATM    1  N8  UNL     1     -32.809   7.006   2.535  1.00 20.00     0.089 N 
HETATM    2  H23 UNL     1     -33.788   7.267   2.377  1.00 20.00     0.316 HD
ENDROOT
BRANCH   1   3
HETATM    3  C5  UNL     1     -32.661   6.385   3.823  1.00 20.00     0.274 C 
BRANCH   3   4
HETATM    4  C3  UNL     1     -33.980   6.199   4.487  1.00 20.00     0.018 A 
HETATM    5  C1  UNL     1     -35.077   5.437   3.792  1.00 20.00     0.011 A 
HETATM    6  C2  UNL     1     -34.389   4.839   4.990  1.00 20.00    -0.013 A 
HETATM    7  C4  UNL     1     -35.116   4.708   6.283  1.00 20.00     0.010 C 
ENDBRANCH   3   4
ENDBRANCH   1   3
BRANCH   1   8
HETATM    8  C6  UNL     1     -31.986   8.210   2.417  1.00 20.00     0.340 C 
BRANCH   8   9
HETATM    9  C7  UNL     1     -32.167   8.847   1.056  1.00 20.00     0.381 C 
HETATM   10  F9  UNL     1     -31.150   8.483   0.235  1.00 20.00    -0.213 F 
HETATM   11  F10 UNL     1     -32.095  10.197   1.183  1.00 20.00    -0.213 F 
ENDBRANCH   8   9
ENDBRANCH   1   8
TORSDOF 4
ENDMDL
MODEL 3
REMARK VINA RESULT:      -4.9      3.347      5.325
REMARK  4 active torsions:
REMARK  status: ('A' for Active; 'I' for Inactive)
REMARK    1  A    between atoms: C3_3  and  C5_5 
REMARK    2  A    between atoms: C5_5  and  N8_8 
REMARK    3  A    between atoms: C6_6  and  C7_7 
REMARK    4  A    between atoms: C6_6  and  N8_8 
ROOT
HETATM    1  N8  UNL     1     -34.966   5.670   3.817  1.00 20.00     0.089 N 
HETATM    2  H23 UNL     1     -35.694   5.627   3.095  1.00 20.00     0.316 HD
ENDROOT
BRANCH   1   3
HETATM    3  C5  UNL     1     -33.666   5.731   3.209  1.00 20.00     0.274 C 
BRANCH   3   4
HETATM    4  C3  UNL     1     -33.102   7.107   3.276  1.00 20.00     0.018 A 
HETATM    5  C1  UNL     1     -31.650   7.315   3.617  1.00 20.00     0.011 A 
HETATM    6  C2  UNL     1     -32.140   7.585   2.219  1.00 20.00    -0.013 A 
HETATM    7  C4  UNL     1     -32.222   8.982   1.710  1.00 20.00     0.010 C 
ENDBRANCH   3   4
ENDBRANCH   1   3
BRANCH   1   8
HETATM    8  C6  UNL     1     -35.104   4.497   4.682  1.00 20.00     0.340 C 
BRANCH   8   9
HETATM    9  C7  UNL     1     -34.920   4.883   6.134  1.00 20.00     0.381 C 
HETATM   10  F9  UNL     1     -34.589   6.195   6.226  1.00 20.00    -0.213 F 
HETATM   11  F10 UNL     1     -33.875   4.185   6.649  1.00 20.00    -0.213 F 
ENDBRANCH   8   9
ENDBRANCH   1   8
TORSDOF 4
ENDMDL
MODEL 4
REMARK VINA RESULT:      -4.9      3.690      5.405
REMARK  4 active torsions:
REMARK  status: ('A' for Active; 'I' for Inactive)
REMARK    1  A    between atoms: C3_3  and  C5_5 
REMARK    2  A    between atoms: C5_5  and  N8_8 
REMARK    3  A    between atoms: C6_6  and  C7_7 
REMARK    4  A    between atoms: C6_6  and  N8_8 
ROOT
HETATM    1  N8  UNL     1     -34.458   5.428   3.516  1.00 20.00     0.089 N 
HETATM    2  H23 UNL     1     -34.634   4.421   3.432  1.00 20.00     0.316 HD
ENDROOT
BRANCH   1   3
HETATM    3  C5  UNL     1     -33.190   5.762   2.927  1.00 20.00     0.274 C 
BRANCH   3   4
HETATM    4  C3  UNL     1     -32.887   7.210   3.086  1.00 20.00     0.018 A 
HETATM    5  C1  UNL     1     -31.498   7.656   3.460  1.00 20.00     0.011 A 
HETATM    6  C2  UNL     1     -32.022   7.918   2.074  1.00 20.00    -0.013 A 
HETATM    7  C4  UNL     1     -32.354   9.307   1.649  1.00 20.00     0.010 C 
ENDBRANCH   3   4
ENDBRANCH   1   3
BRANCH   1   8
HETATM    8  C6  UNL     1     -34.506   5.788   4.934  1.00 20.00     0.340 C 
BRANCH   8   9
HETATM    9  C7  UNL     1     -34.955   4.607   5.768  1.00 20.00     0.381 C 
HETATM   10  F9  UNL     1     -33.989   4.276   6.661  1.00 20.00    -0.213 F 
HETATM   11  F10 UNL     1     -35.118   3.528   4.959  1.00 20.00    -0.213 F 
ENDBRANCH   8   9
ENDBRANCH   1   8
TORSDOF 4
ENDMDL
MODEL 5
REMARK VINA RESULT:      -4.6      1.830      2.574
REMARK  4 active torsions:
REMARK  status: ('A' for Active; 'I' for Inactive)
REMARK    1  A    between atoms: C3_3  and  C5_5 
REMARK    2  A    between atoms: C5_5  and  N8_8 
REMARK    3  A    between atoms: C6_6  and  C7_7 
REMARK    4  A    between atoms: C6_6  and  N8_8 
ROOT
HETATM    1  N8  UNL     1     -33.865   5.831   2.702  1.00 20.00     0.089 N 
HETATM    2  H23 UNL     1     -34.367   6.725   2.733  1.00 20.00     0.316 HD
ENDROOT
BRANCH   1   3
HETATM    3  C5  UNL     1     -34.447   4.901   3.630  1.00 20.00     0.274 C 
BRANCH   3   4
HETATM    4  C3  UNL     1     -34.876   5.585   4.881  1.00 20.00     0.018 A 
HETATM    5  C1  UNL     1     -35.067   4.794   6.149  1.00 20.00     0.011 A 
HETATM    6  C2  UNL     1     -33.908   5.747   6.026  1.00 20.00    -0.013 A 
HETATM    7  C4  UNL     1     -33.889   7.009   6.815  1.00 20.00     0.010 C 
ENDBRANCH   3   4
ENDBRANCH   1   3
BRANCH   1   8
HETATM    8  C6  UNL     1     -32.455   6.083   3.002  1.00 20.00     0.340 C 
BRANCH   8   9
HETATM    9  C7  UNL     1     -32.164   7.568   2.975  1.00 20.00     0.381 C 
HETATM   10  F9  UNL     1     -31.678   7.923   1.759  1.00 20.00    -0.213 F 
HETATM   11  F10 UNL     1     -31.187   7.846   3.876  1.00 20.00    -0.213 F 
ENDBRANCH   8   9
ENDBRANCH   1   8
TORSDOF 4
ENDMDL
MODEL 6
REMARK VINA RESULT:      -4.3      3.101      5.281
REMARK  4 active torsions:
REMARK  status: ('A' for Active; 'I' for Inactive)
REMARK    1  A    between atoms: C3_3  and  C5_5 
REMARK    2  A    between atoms: C5_5  and  N8_8 
REMARK    3  A    between atoms: C6_6  and  C7_7 
REMARK    4  A    between atoms: C6_6  and  N8_8 
ROOT
HETATM    1  N8  UNL     1     -32.587   6.166   3.547  1.00 20.00     0.089 N 
HETATM    2  H23 UNL     1     -32.081   5.674   4.291  1.00 20.00     0.316 HD
ENDROOT
BRANCH   1   3
HETATM    3  C5  UNL     1     -31.875   7.353   3.162  1.00 20.00     0.274 C 
BRANCH   3   4
HETATM    4  C3  UNL     1     -32.610   8.105   2.108  1.00 20.00     0.018 A 
HETATM    5  C1  UNL     1     -32.495   9.605   2.028  1.00 20.00     0.011 A 
HETATM    6  C2  UNL     1     -31.858   8.745   0.969  1.00 20.00    -0.013 A 
HETATM    7  C4  UNL     1     -32.420   8.714  -0.409  1.00 20.00     0.010 C 
ENDBRANCH   3   4
ENDBRANCH   1   3
BRANCH   1   8
HETATM    8  C6  UNL     1     -33.933   6.475   4.030  1.00 20.00     0.340 C 
BRANCH   8   9
HETATM    9  C7  UNL     1     -34.474   5.335   4.866  1.00 20.00     0.381 C 
HETATM   10  F9  UNL     1     -35.696   4.964   4.409  1.00 20.00    -0.213 F 
HETATM   11  F10 UNL     1     -34.653   5.765   6.141  1.00 20.00    -0.213 F 
ENDBRANCH   8   9
ENDBRANCH   1   8
TORSDOF 4
ENDMDL
MODEL 7
REMARK VINA RESULT:      -4.2     10.305     10.824
REMARK  4 active torsions:
REMARK  status: ('A' for Active; 'I' for Inactive)
REMARK    1  A    between atoms: C3_3  and  C5_5 
REMARK    2  A    between atoms: C5_5  and  N8_8 
REMARK    3  A    between atoms: C6_6  and  C7_7 
REMARK    4  A    between atoms: C6_6  and  N8_8 
ROOT
HETATM    1  N8  UNL     1     -33.371  15.585  -4.868  1.00 20.00     0.089 N 
HETATM    2  H23 UNL     1     -32.497  15.380  -5.364  1.00 20.00     0.316 HD
ENDROOT
BRANCH   1   3
HETATM    3  C5  UNL     1     -33.211  15.349  -3.459  1.00 20.00     0.274 C 
BRANCH   3   4
HETATM    4  C3  UNL     1     -33.716  16.499  -2.659  1.00 20.00     0.018 A 
HETATM    5  C1  UNL     1     -35.138  16.967  -2.821  1.00 20.00     0.011 A 
HETATM    6  C2  UNL     1     -34.716  16.271  -1.555  1.00 20.00    -0.013 A 
HETATM    7  C4  UNL     1     -34.609  17.034  -0.281  1.00 20.00     0.010 C 
ENDBRANCH   3   4
ENDBRANCH   1   3
BRANCH   1   8
HETATM    8  C6  UNL     1     -34.431  14.753  -5.438  1.00 20.00     0.340 C 
BRANCH   8   9
HETATM    9  C7  UNL     1     -34.730  13.577  -4.533  1.00 20.00     0.381 C 
HETATM   10  F9  UNL     1     -34.637  12.418  -5.232  1.00 20.00    -0.213 F 
HETATM   11  F10 UNL     1     -36.014  13.664  -4.100  1.00 20.00    -0.213 F 
ENDBRANCH   8   9
ENDBRANCH   1   8
TORSDOF 4
ENDMDL
MODEL 8
REMARK VINA RESULT:      -4.1      9.827     10.654
REMARK  4 active torsions:
REMARK  status: ('A' for Active; 'I' for Inactive)
REMARK    1  A    between atoms: C3_3  and  C5_5 
REMARK    2  A    between atoms: C5_5  and  N8_8 
REMARK    3  A    between atoms: C6_6  and  C7_7 
REMARK    4  A    between atoms: C6_6  and  N8_8 
ROOT
HETATM    1  N8  UNL     1     -36.261  15.279  -2.953  1.00 20.00     0.089 N 
HETATM    2  H23 UNL     1     -37.271  15.458  -2.916  1.00 20.00     0.316 HD
ENDROOT
BRANCH   1   3
HETATM    3  C5  UNL     1     -35.531  16.495  -2.721  1.00 20.00     0.274 C 
BRANCH   3   4
HETATM    4  C3  UNL     1     -34.850  16.470  -1.398  1.00 20.00     0.018 A 
HETATM    5  C1  UNL     1     -33.658  17.356  -1.143  1.00 20.00     0.011 A 
HETATM    6  C2  UNL     1     -34.969  17.647  -0.462  1.00 20.00    -0.013 A 
HETATM    7  C4  UNL     1     -35.118  17.424   1.002  1.00 20.00     0.010 C 
ENDBRANCH   3   4
ENDBRANCH   1   3
BRANCH   1   8
HETATM    8  C6  UNL     1     -35.945  14.700  -4.260  1.00 20.00     0.340 C 
BRANCH   8   9
HETATM    9  C7  UNL     1     -35.195  13.395  -4.095  1.00 20.00     0.381 C 
HETATM   10  F9  UNL     1     -34.178  13.553  -3.212  1.00 20.00    -0.213 F 
HETATM   11  F10 UNL     1     -34.627  13.056  -5.281  1.00 20.00    -0.213 F 
ENDBRANCH   8   9
ENDBRANCH   1   8
TORSDOF 4
ENDMDL
MODEL 9
REMARK VINA RESULT:      -4.1      9.748     12.087
REMARK  4 active torsions:
REMARK  status: ('A' for Active; 'I' for Inactive)
REMARK    1  A    between atoms: C3_3  and  C5_5 
REMARK    2  A    between atoms: C5_5  and  N8_8 
REMARK    3  A    between atoms: C6_6  and  C7_7 
REMARK    4  A    between atoms: C6_6  and  N8_8 
ROOT
HETATM    1  N8  UNL     1     -32.952  15.314  -4.181  1.00 20.00     0.089 N 
HETATM    2  H23 UNL     1     -32.251  15.580  -3.481  1.00 20.00     0.316 HD
ENDROOT
BRANCH   1   3
HETATM    3  C5  UNL     1     -33.174  16.395  -5.101  1.00 20.00     0.274 C 
BRANCH   3   4
HETATM    4  C3  UNL     1     -34.404  16.172  -5.910  1.00 20.00     0.018 A 
HETATM    5  C1  UNL     1     -34.562  16.844  -7.249  1.00 20.00     0.011 A 
HETATM    6  C2  UNL     1     -34.340  15.357  -7.177  1.00 20.00    -0.013 A 
HETATM    7  C4  UNL     1     -35.443  14.417  -7.517  1.00 20.00     0.010 C 
ENDBRANCH   3   4
ENDBRANCH   1   3
BRANCH   1   8
HETATM    8  C6  UNL     1     -34.182  14.939  -3.482  1.00 20.00     0.340 C 
BRANCH   8   9
HETATM    9  C7  UNL     1     -34.525  13.489  -3.749  1.00 20.00     0.381 C 
HETATM   10  F9  UNL     1     -33.787  13.022  -4.788  1.00 20.00    -0.213 F 
HETATM   11  F10 UNL     1     -35.825  13.403  -4.131  1.00 20.00    -0.213 F 
ENDBRANCH   8   9
ENDBRANCH   1   8
TORSDOF 4
ENDMDL
