MODEL 1
REMARK VINA RESULT:      -4.3      0.000      0.000
REMARK  3 active torsions:
REMARK  status: ('A' for Active; 'I' for Inactive)
REMARK       I    between atoms: C1_1  and  N10_10 
REMARK    1  A    between atoms: C7_7  and  C8_8 
REMARK    2  A    between atoms: C7_7  and  N10_10 
REMARK    3  A    between atoms: C8_8  and  C9_9 
ROOT
HETATM    1  C7  UNL     1     -35.516  16.574  -3.018  1.00 20.00     0.127 C 
ENDROOT
BRANCH   1   2
HETATM    2  C8  UNL     1     -35.347  15.074  -3.342  1.00 20.00     0.007 C 
HETATM    3  C3  UNL     1     -36.666  14.528  -3.922  1.00 20.00     0.012 C 
BRANCH   2   4
HETATM    4  C9  UNL     1     -34.096  14.770  -4.249  1.00 20.00    -0.047 C 
HETATM    5  C4  UNL     1     -34.551  14.380  -5.674  1.00 20.00     0.015 C 
HETATM    6  C5  UNL     1     -33.231  13.625  -3.690  1.00 20.00     0.015 C 
HETATM    7  C6  UNL     1     -33.206  16.025  -4.388  1.00 20.00     0.015 C 
ENDBRANCH   2   4
ENDBRANCH   1   2
BRANCH   1   8
HETATM    8  N10 UNL     1     -35.682  16.816  -1.608  1.00 20.00    -0.361 N 
HETATM    9  C1  UNL     1     -34.636  17.155  -0.766  1.00 20.00     0.213 C 
HETATM   10  C2  UNL     1     -35.037  17.361   0.657  1.00 20.00     0.117 C 
HETATM   11  O11 UNL     1     -33.461  17.291  -1.088  1.00 20.00    -0.274 OA
HETATM   12  H30 UNL     1     -36.615  16.734  -1.210  1.00 20.00     0.162 HD
ENDBRANCH   1   8
TORSDOF 3
ENDMDL
MODEL 2
REMARK VINA RESULT:      -4.3      0.040      1.307
REMARK  3 active torsions:
REMARK  status: ('A' for Active; 'I' for Inactive)
REMARK       I    between atoms: C1_1  and  N10_10 
REMARK    1  A    between atoms: C7_7  and  C8_8 
REMARK    2  A    between atoms: C7_7  and  N10_10 
REMARK    3  A    between atoms: C8_8  and  C9_9 
ROOT
HETATM    1  C7  UNL     1     -35.530  16.591  -3.029  1.00 20.00     0.127 C 
ENDROOT
BRANCH   1   2
HETATM    2  C8  UNL     1     -35.372  15.093  -3.365  1.00 20.00     0.007 C 
HETATM    3  C3  UNL     1     -36.702  14.554  -3.925  1.00 20.00     0.012 C 
BRANCH   2   4
HETATM    4  C9  UNL     1     -34.139  14.791  -4.298  1.00 20.00    -0.047 C 
HETATM    5  C4  UNL     1     -33.223  16.032  -4.393  1.00 20.00     0.015 C 
HETATM    6  C5  UNL     1     -34.566  14.397  -5.725  1.00 20.00     0.015 C 
HETATM    7  C6  UNL     1     -33.284  13.643  -3.716  1.00 20.00     0.015 C 
ENDBRANCH   2   4
ENDBRANCH   1   2
BRANCH   1   8
HETATM    8  N10 UNL     1     -35.698  16.821  -1.617  1.00 20.00    -0.361 N 
HETATM    9  C1  UNL     1     -34.653  17.151  -0.770  1.00 20.00     0.213 C 
HETATM   10  C2  UNL     1     -35.057  17.346   0.653  1.00 20.00     0.117 C 
HETATM   11  O11 UNL     1     -33.478  17.287  -1.089  1.00 20.00    -0.274 OA
HETATM   12  H30 UNL     1     -36.632  16.739  -1.222  1.00 20.00     0.162 HD
ENDBRANCH   1   8
TORSDOF 3
ENDMDL
MODEL 3
REMARK VINA RESULT:      -4.2      1.603      2.356
REMARK  3 active torsions:
REMARK  status: ('A' for Active; 'I' for Inactive)
REMARK       I    between atoms: C1_1  and  N10_10 
REMARK    1  A    between atoms: C7_7  and  C8_8 
REMARK    2  A    between atoms: C7_7  and  N10_10 
REMARK    3  A    between atoms: C8_8  and  C9_9 
ROOT
HETATM    1  C7  UNL     1     -33.208  15.178  -3.960  1.00 20.00     0.127 C 
ENDROOT
BRANCH   1   2
HETATM    2  C8  UNL     1     -34.121  14.390  -4.923  1.00 20.00     0.007 C 
HETATM    3  C3  UNL     1     -35.079  13.504  -4.104  1.00 20.00     0.012 C 
BRANCH   2   4
HETATM    4  C9  UNL     1     -34.864  15.307  -5.967  1.00 20.00    -0.047 C 
HETATM    5  C4  UNL     1     -36.292  15.630  -5.475  1.00 20.00     0.015 C 
HETATM    6  C5  UNL     1     -34.970  14.648  -7.355  1.00 20.00     0.015 C 
HETATM    7  C6  UNL     1     -34.127  16.656  -6.128  1.00 20.00     0.015 C 
ENDBRANCH   2   4
ENDBRANCH   1   2
BRANCH   1   8
HETATM    8  N10 UNL     1     -33.835  15.423  -2.686  1.00 20.00    -0.361 N 
HETATM    9  C1  UNL     1     -34.009  16.691  -2.156  1.00 20.00     0.213 C 
HETATM   10  C2  UNL     1     -34.684  16.709  -0.825  1.00 20.00     0.117 C 
HETATM   11  O11 UNL     1     -33.667  17.747  -2.674  1.00 20.00    -0.274 OA
HETATM   12  H30 UNL     1     -34.167  14.625  -2.149  1.00 20.00     0.162 HD
ENDBRANCH   1   8
TORSDOF 3
ENDMDL
MODEL 4
REMARK VINA RESULT:      -4.1      1.014      2.191
REMARK  3 active torsions:
REMARK  status: ('A' for Active; 'I' for Inactive)
REMARK       I    between atoms: C1_1  and  N10_10 
REMARK    1  A    between atoms: C7_7  and  C8_8 
REMARK    2  A    between atoms: C7_7  and  N10_10 
REMARK    3  A    between atoms: C8_8  and  C9_9 
ROOT
HETATM    1  C7  UNL     1     -33.555  15.977  -2.803  1.00 20.00     0.127 C 
ENDROOT
BRANCH   1   2
HETATM    2  C8  UNL     1     -34.317  16.047  -4.144  1.00 20.00     0.007 C 
HETATM    3  C3  UNL     1     -33.476  16.835  -5.166  1.00 20.00     0.012 C 
BRANCH   2   4
HETATM    4  C9  UNL     1     -34.775  14.636  -4.674  1.00 20.00    -0.047 C 
HETATM    5  C4  UNL     1     -33.853  13.529  -4.116  1.00 20.00     0.015 C 
HETATM    6  C5  UNL     1     -34.752  14.552  -6.211  1.00 20.00     0.015 C 
HETATM    7  C6  UNL     1     -36.208  14.313  -4.194  1.00 20.00     0.015 C 
ENDBRANCH   2   4
ENDBRANCH   1   2
BRANCH   1   8
HETATM    8  N10 UNL     1     -34.399  16.277  -1.676  1.00 20.00    -0.361 N 
HETATM    9  C1  UNL     1     -34.093  17.241  -0.731  1.00 20.00     0.213 C 
HETATM   10  C2  UNL     1     -35.111  17.384   0.351  1.00 20.00     0.117 C 
HETATM   11  O11 UNL     1     -33.094  17.952  -0.718  1.00 20.00    -0.274 OA
HETATM   12  H30 UNL     1     -35.266  15.754  -1.568  1.00 20.00     0.162 HD
ENDBRANCH   1   8
TORSDOF 3
ENDMDL
MODEL 5
REMARK VINA RESULT:      -4.1      2.745      4.774
REMARK  3 active torsions:
REMARK  status: ('A' for Active; 'I' for Inactive)
REMARK       I    between atoms: C1_1  and  N10_10 
REMARK    1  A    between atoms: C7_7  and  C8_8 
REMARK    2  A    between atoms: C7_7  and  N10_10 
REMARK    3  A    between atoms: C8_8  and  C9_9 
ROOT
HETATM    1  C7  UNL     1     -35.273  13.877  -4.154  1.00 20.00     0.127 C 
ENDROOT
BRANCH   1   2
HETATM    2  C8  UNL     1     -34.339  14.608  -3.166  1.00 20.00     0.007 C 
HETATM    3  C3  UNL     1     -32.895  14.556  -3.699  1.00 20.00     0.012 C 
BRANCH   2   4
HETATM    4  C9  UNL     1     -34.821  16.067  -2.818  1.00 20.00    -0.047 C 
HETATM    5  C4  UNL     1     -36.339  16.204  -3.069  1.00 20.00     0.015 C 
HETATM    6  C5  UNL     1     -34.096  17.138  -3.654  1.00 20.00     0.015 C 
HETATM    7  C6  UNL     1     -34.581  16.378  -1.324  1.00 20.00     0.015 C 
ENDBRANCH   2   4
ENDBRANCH   1   2
BRANCH   1   8
HETATM    8  N10 UNL     1     -34.848  14.025  -5.522  1.00 20.00    -0.361 N 
HETATM    9  C1  UNL     1     -35.593  14.689  -6.483  1.00 20.00     0.213 C 
HETATM   10  C2  UNL     1     -34.959  14.722  -7.834  1.00 20.00     0.117 C 
HETATM   11  O11 UNL     1     -36.682  15.225  -6.313  1.00 20.00    -0.274 OA
HETATM   12  H30 UNL     1     -33.955  13.622  -5.797  1.00 20.00     0.162 HD
ENDBRANCH   1   8
TORSDOF 3
ENDMDL
MODEL 6
REMARK VINA RESULT:      -4.0      2.680      3.687
REMARK  3 active torsions:
REMARK  status: ('A' for Active; 'I' for Inactive)
REMARK       I    between atoms: C1_1  and  N10_10 
REMARK    1  A    between atoms: C7_7  and  C8_8 
REMARK    2  A    between atoms: C7_7  and  N10_10 
REMARK    3  A    between atoms: C8_8  and  C9_9 
ROOT
HETATM    1  C7  UNL     1     -36.026  15.439  -4.847  1.00 20.00     0.127 C 
ENDROOT
BRANCH   1   2
HETATM    2  C8  UNL     1     -35.061  14.766  -3.846  1.00 20.00     0.007 C 
HETATM    3  C3  UNL     1     -34.848  13.297  -4.256  1.00 20.00     0.012 C 
BRANCH   2   4
HETATM    4  C9  UNL     1     -33.714  15.558  -3.652  1.00 20.00    -0.047 C 
HETATM    5  C4  UNL     1     -33.761  16.384  -2.347  1.00 20.00     0.015 C 
HETATM    6  C5  UNL     1     -33.426  16.520  -4.820  1.00 20.00     0.015 C 
HETATM    7  C6  UNL     1     -32.522  14.583  -3.525  1.00 20.00     0.015 C 
ENDBRANCH   2   4
ENDBRANCH   1   2
BRANCH   1   8
HETATM    8  N10 UNL     1     -37.143  16.069  -4.192  1.00 20.00    -0.361 N 
HETATM    9  C1  UNL     1     -38.245  15.371  -3.728  1.00 20.00     0.213 C 
HETATM   10  C2  UNL     1     -39.284  16.226  -3.082  1.00 20.00     0.117 C 
HETATM   11  O11 UNL     1     -38.422  14.161  -3.806  1.00 20.00    -0.274 OA
HETATM   12  H30 UNL     1     -37.122  17.079  -4.063  1.00 20.00     0.162 HD
ENDBRANCH   1   8
TORSDOF 3
ENDMDL
MODEL 7
REMARK VINA RESULT:      -4.0      2.670      3.474
REMARK  3 active torsions:
REMARK  status: ('A' for Active; 'I' for Inactive)
REMARK       I    between atoms: C1_1  and  N10_10 
REMARK    1  A    between atoms: C7_7  and  C8_8 
REMARK    2  A    between atoms: C7_7  and  N10_10 
REMARK    3  A    between atoms: C8_8  and  C9_9 
ROOT
HETATM    1  C7  UNL     1     -35.966  15.456  -4.882  1.00 20.00     0.127 C 
ENDROOT
BRANCH   1   2
HETATM    2  C8  UNL     1     -35.019  14.753  -3.885  1.00 20.00     0.007 C 
HETATM    3  C3  UNL     1     -34.798  13.296  -4.336  1.00 20.00     0.012 C 
BRANCH   2   4
HETATM    4  C9  UNL     1     -33.675  15.538  -3.643  1.00 20.00    -0.047 C 
HETATM    5  C4  UNL     1     -33.414  16.523  -4.805  1.00 20.00     0.015 C 
HETATM    6  C5  UNL     1     -32.460  14.599  -3.525  1.00 20.00     0.015 C 
HETATM    7  C6  UNL     1     -33.762  16.380  -2.350  1.00 20.00     0.015 C 
ENDBRANCH   2   4
ENDBRANCH   1   2
BRANCH   1   8
HETATM    8  N10 UNL     1     -37.087  16.079  -4.227  1.00 20.00    -0.361 N 
HETATM    9  C1  UNL     1     -38.180  15.373  -3.754  1.00 20.00     0.213 C 
HETATM   10  C2  UNL     1     -39.224  16.222  -3.109  1.00 20.00     0.117 C 
HETATM   11  O11 UNL     1     -38.345  14.161  -3.823  1.00 20.00    -0.274 OA
HETATM   12  H30 UNL     1     -37.075  17.089  -4.106  1.00 20.00     0.162 HD
ENDBRANCH   1   8
TORSDOF 3
ENDMDL
MODEL 8
REMARK VINA RESULT:      -4.0      2.421      4.735
REMARK  3 active torsions:
REMARK  status: ('A' for Active; 'I' for Inactive)
REMARK       I    between atoms: C1_1  and  N10_10 
REMARK    1  A    between atoms: C7_7  and  C8_8 
REMARK    2  A    between atoms: C7_7  and  N10_10 
REMARK    3  A    between atoms: C8_8  and  C9_9 
ROOT
HETATM    1  C7  UNL     1     -35.644  15.057  -3.365  1.00 20.00     0.127 C 
ENDROOT
BRANCH   1   2
HETATM    2  C8  UNL     1     -34.462  15.616  -2.544  1.00 20.00     0.007 C 
HETATM    3  C3  UNL     1     -33.194  15.620  -3.418  1.00 20.00     0.012 C 
BRANCH   2   4
HETATM    4  C9  UNL     1     -34.767  17.015  -1.887  1.00 20.00    -0.047 C 
HETATM    5  C4  UNL     1     -36.195  17.478  -2.253  1.00 20.00     0.015 C 
HETATM    6  C5  UNL     1     -33.777  18.104  -2.341  1.00 20.00     0.015 C 
HETATM    7  C6  UNL     1     -34.705  16.918  -0.346  1.00 20.00     0.015 C 
ENDBRANCH   2   4
ENDBRANCH   1   2
BRANCH   1   8
HETATM    8  N10 UNL     1     -35.415  15.140  -4.784  1.00 20.00    -0.361 N 
HETATM    9  C1  UNL     1     -35.107  14.042  -5.571  1.00 20.00     0.213 C 
HETATM   10  C2  UNL     1     -34.912  14.360  -7.016  1.00 20.00     0.117 C 
HETATM   11  O11 UNL     1     -34.990  12.884  -5.185  1.00 20.00    -0.274 OA
HETATM   12  H30 UNL     1     -35.482  16.051  -5.233  1.00 20.00     0.162 HD
ENDBRANCH   1   8
TORSDOF 3
ENDMDL
MODEL 9
REMARK VINA RESULT:      -4.0      1.540      2.441
REMARK  3 active torsions:
REMARK  status: ('A' for Active; 'I' for Inactive)
REMARK       I    between atoms: C1_1  and  N10_10 
REMARK    1  A    between atoms: C7_7  and  C8_8 
REMARK    2  A    between atoms: C7_7  and  N10_10 
REMARK    3  A    between atoms: C8_8  and  C9_9 
ROOT
HETATM    1  C7  UNL     1     -33.940  16.982  -3.991  1.00 20.00     0.127 C 
ENDROOT
BRANCH   1   2
HETATM    2  C8  UNL     1     -33.472  15.675  -4.667  1.00 20.00     0.007 C 
HETATM    3  C3  UNL     1     -32.733  14.805  -3.634  1.00 20.00     0.012 C 
BRANCH   2   4
HETATM    4  C9  UNL     1     -34.632  14.909  -5.408  1.00 20.00    -0.047 C 
HETATM    5  C4  UNL     1     -34.410  14.951  -6.937  1.00 20.00     0.015 C 
HETATM    6  C5  UNL     1     -36.018  15.509  -5.106  1.00 20.00     0.015 C 
HETATM    7  C6  UNL     1     -34.651  13.420  -4.997  1.00 20.00     0.015 C 
ENDBRANCH   2   4
ENDBRANCH   1   2
BRANCH   1   8
HETATM    8  N10 UNL     1     -33.889  16.905  -2.554  1.00 20.00    -0.361 N 
HETATM    9  C1  UNL     1     -34.992  17.107  -1.741  1.00 20.00     0.213 C 
HETATM   10  C2  UNL     1     -34.709  16.977  -0.282  1.00 20.00     0.117 C 
HETATM   11  O11 UNL     1     -36.129  17.372  -2.115  1.00 20.00    -0.274 OA
HETATM   12  H30 UNL     1     -32.997  16.690  -2.112  1.00 20.00     0.162 HD
ENDBRANCH   1   8
TORSDOF 3
ENDMDL
