MODEL 1
REMARK VINA RESULT:      -4.3      0.000      0.000
REMARK  2 active torsions:
REMARK  status: ('A' for Active; 'I' for Inactive)
REMARK    1  A    between atoms: C5_5  and  C7_7 
REMARK    2  A    between atoms: C6_6  and  C7_7 
ROOT
HETATM    1  C1  UNL     1     -34.632   4.206   4.622  1.00 20.00     0.033 C 
HETATM    2  C2  UNL     1     -35.256   4.279   6.001  1.00 20.00     0.168 C 
HETATM    3  C3  UNL     1     -34.065   6.246   5.631  1.00 20.00     0.172 C 
HETATM    4  C5  UNL     1     -34.466   5.671   4.284  1.00 20.00     0.014 C 
HETATM    5  O8  UNL     1     -34.747   5.466   6.625  1.00 20.00    -0.391 OA
ENDROOT
BRANCH   4   6
HETATM    6  C7  UNL     1     -33.464   5.944   3.179  1.00 20.00     0.041 C 
BRANCH   6   7
HETATM    7  C6  UNL     1     -32.892   7.325   3.266  1.00 20.00     0.145 A 
HETATM    8  C4  UNL     1     -31.986   7.861   2.194  1.00 20.00     0.200 A 
HETATM    9  O9  UNL     1     -31.472   7.370   3.442  1.00 20.00    -0.381 OA
ENDBRANCH   6   7
ENDBRANCH   4   6
TORSDOF 2
ENDMDL
MODEL 2
REMARK VINA RESULT:      -3.9     11.711     13.258
REMARK  2 active torsions:
REMARK  status: ('A' for Active; 'I' for Inactive)
REMARK    1  A    between atoms: C5_5  and  C7_7 
REMARK    2  A    between atoms: C6_6  and  C7_7 
ROOT
HETATM    1  C1  UNL     1     -33.436  16.417  -5.204  1.00 20.00     0.033 C 
HETATM    2  C2  UNL     1     -33.506  17.880  -4.819  1.00 20.00     0.168 C 
HETATM    3  C3  UNL     1     -33.830  16.601  -2.899  1.00 20.00     0.172 C 
HETATM    4  C5  UNL     1     -33.034  15.774  -3.895  1.00 20.00     0.014 C 
HETATM    5  O8  UNL     1     -33.904  17.928  -3.441  1.00 20.00    -0.391 OA
ENDROOT
BRANCH   4   6
HETATM    6  C7  UNL     1     -33.318  14.287  -3.820  1.00 20.00     0.041 C 
BRANCH   6   7
HETATM    7  C6  UNL     1     -34.424  13.877  -4.743  1.00 20.00     0.145 A 
HETATM    8  C4  UNL     1     -35.842  13.765  -4.257  1.00 20.00     0.200 A 
HETATM    9  O9  UNL     1     -35.012  12.607  -4.439  1.00 20.00    -0.381 OA
ENDBRANCH   6   7
ENDBRANCH   4   6
TORSDOF 2
ENDMDL
MODEL 3
REMARK VINA RESULT:      -3.9     11.426     12.119
REMARK  2 active torsions:
REMARK  status: ('A' for Active; 'I' for Inactive)
REMARK    1  A    between atoms: C5_5  and  C7_7 
REMARK    2  A    between atoms: C6_6  and  C7_7 
ROOT
HETATM    1  C1  UNL     1     -35.527  14.918  -4.015  1.00 20.00     0.033 C 
HETATM    2  C2  UNL     1     -35.729  13.485  -4.461  1.00 20.00     0.168 C 
HETATM    3  C3  UNL     1     -33.514  13.736  -3.786  1.00 20.00     0.172 C 
HETATM    4  C5  UNL     1     -34.352  14.782  -3.072  1.00 20.00     0.014 C 
HETATM    5  O8  UNL     1     -34.438  12.859  -4.450  1.00 20.00    -0.391 OA
ENDROOT
BRANCH   4   6
HETATM    6  C7  UNL     1     -33.615  16.080  -2.807  1.00 20.00     0.041 C 
BRANCH   6   7
HETATM    7  C6  UNL     1     -34.388  16.994  -1.907  1.00 20.00     0.145 A 
HETATM    8  C4  UNL     1     -33.738  17.653  -0.723  1.00 20.00     0.200 A 
HETATM    9  O9  UNL     1     -34.579  16.498  -0.578  1.00 20.00    -0.381 OA
ENDBRANCH   6   7
ENDBRANCH   4   6
TORSDOF 2
ENDMDL
MODEL 4
REMARK VINA RESULT:      -3.8      1.584      2.194
REMARK  2 active torsions:
REMARK  status: ('A' for Active; 'I' for Inactive)
REMARK    1  A    between atoms: C5_5  and  C7_7 
REMARK    2  A    between atoms: C6_6  and  C7_7 
ROOT
HETATM    1  C1  UNL     1     -33.663   6.461   5.080  1.00 20.00     0.033 C 
HETATM    2  C2  UNL     1     -34.699   5.357   5.036  1.00 20.00     0.168 C 
HETATM    3  C3  UNL     1     -33.908   5.705   2.873  1.00 20.00     0.172 C 
HETATM    4  C5  UNL     1     -32.836   6.153   3.851  1.00 20.00     0.014 C 
HETATM    5  O8  UNL     1     -34.920   5.049   3.652  1.00 20.00    -0.391 OA
ENDROOT
BRANCH   4   6
HETATM    6  C7  UNL     1     -32.004   7.319   3.354  1.00 20.00     0.041 C 
BRANCH   6   7
HETATM    7  C6  UNL     1     -32.564   7.917   2.099  1.00 20.00     0.145 A 
HETATM    8  C4  UNL     1     -31.676   8.609   1.104  1.00 20.00     0.200 A 
HETATM    9  O9  UNL     1     -32.486   9.345   2.035  1.00 20.00    -0.381 OA
ENDBRANCH   6   7
ENDBRANCH   4   6
TORSDOF 2
ENDMDL
MODEL 5
REMARK VINA RESULT:      -3.8     11.521     12.601
REMARK  2 active torsions:
REMARK  status: ('A' for Active; 'I' for Inactive)
REMARK    1  A    between atoms: C5_5  and  C7_7 
REMARK    2  A    between atoms: C6_6  and  C7_7 
ROOT
HETATM    1  C1  UNL     1     -34.182  17.376  -3.214  1.00 20.00     0.033 C 
HETATM    2  C2  UNL     1     -33.657  18.332  -2.163  1.00 20.00     0.168 C 
HETATM    3  C3  UNL     1     -34.615  16.508  -1.078  1.00 20.00     0.172 C 
HETATM    4  C5  UNL     1     -34.175  16.063  -2.462  1.00 20.00     0.014 C 
HETATM    5  O8  UNL     1     -34.089  17.830  -0.890  1.00 20.00    -0.391 OA
ENDROOT
BRANCH   4   6
HETATM    6  C7  UNL     1     -35.061  14.994  -3.071  1.00 20.00     0.041 C 
BRANCH   6   7
HETATM    7  C6  UNL     1     -34.268  13.949  -3.794  1.00 20.00     0.145 A 
HETATM    8  C4  UNL     1     -34.556  13.609  -5.229  1.00 20.00     0.200 A 
HETATM    9  O9  UNL     1     -35.012  12.778  -4.150  1.00 20.00    -0.381 OA
ENDBRANCH   6   7
ENDBRANCH   4   6
TORSDOF 2
ENDMDL
MODEL 6
REMARK VINA RESULT:      -3.7     11.591     12.619
REMARK  2 active torsions:
REMARK  status: ('A' for Active; 'I' for Inactive)
REMARK    1  A    between atoms: C5_5  and  C7_7 
REMARK    2  A    between atoms: C6_6  and  C7_7 
ROOT
HETATM    1  C1  UNL     1     -34.590  16.358  -1.259  1.00 20.00     0.033 C 
HETATM    2  C2  UNL     1     -33.888  17.695  -1.139  1.00 20.00     0.168 C 
HETATM    3  C3  UNL     1     -34.123  17.191  -3.401  1.00 20.00     0.172 C 
HETATM    4  C5  UNL     1     -35.212  16.462  -2.635  1.00 20.00     0.014 C 
HETATM    5  O8  UNL     1     -33.488  18.075  -2.464  1.00 20.00    -0.391 OA
ENDROOT
BRANCH   4   6
HETATM    6  C7  UNL     1     -35.599  15.128  -3.243  1.00 20.00     0.041 C 
BRANCH   6   7
HETATM    7  C6  UNL     1     -34.454  14.482  -3.960  1.00 20.00     0.145 A 
HETATM    8  C4  UNL     1     -34.648  13.228  -4.765  1.00 20.00     0.200 A 
HETATM    9  O9  UNL     1     -34.079  13.199  -3.447  1.00 20.00    -0.381 OA
ENDBRANCH   6   7
ENDBRANCH   4   6
TORSDOF 2
ENDMDL
MODEL 7
REMARK VINA RESULT:      -3.7     11.469     12.557
REMARK  2 active torsions:
REMARK  status: ('A' for Active; 'I' for Inactive)
REMARK    1  A    between atoms: C5_5  and  C7_7 
REMARK    2  A    between atoms: C6_6  and  C7_7 
ROOT
HETATM    1  C1  UNL     1     -34.583  13.722  -3.768  1.00 20.00     0.033 C 
HETATM    2  C2  UNL     1     -33.074  13.653  -3.660  1.00 20.00     0.168 C 
HETATM    3  C3  UNL     1     -33.723  15.875  -3.411  1.00 20.00     0.172 C 
HETATM    4  C5  UNL     1     -34.886  14.989  -2.999  1.00 20.00     0.014 C 
HETATM    5  O8  UNL     1     -32.598  15.005  -3.604  1.00 20.00    -0.391 OA
ENDROOT
BRANCH   4   6
HETATM    6  C7  UNL     1     -36.247  15.587  -3.298  1.00 20.00     0.041 C 
BRANCH   6   7
HETATM    7  C6  UNL     1     -37.039  14.739  -4.245  1.00 20.00     0.145 A 
HETATM    8  C4  UNL     1     -38.389  15.177  -4.739  1.00 20.00     0.200 A 
HETATM    9  O9  UNL     1     -38.247  14.203  -3.694  1.00 20.00    -0.381 OA
ENDBRANCH   6   7
ENDBRANCH   4   6
TORSDOF 2
ENDMDL
MODEL 8
REMARK VINA RESULT:      -3.5     11.557     12.795
REMARK  2 active torsions:
REMARK  status: ('A' for Active; 'I' for Inactive)
REMARK    1  A    between atoms: C5_5  and  C7_7 
REMARK    2  A    between atoms: C6_6  and  C7_7 
ROOT
HETATM    1  C1  UNL     1     -35.429  14.796  -3.975  1.00 20.00     0.033 C 
HETATM    2  C2  UNL     1     -35.327  13.352  -4.420  1.00 20.00     0.168 C 
HETATM    3  C3  UNL     1     -33.219  14.054  -3.721  1.00 20.00     0.172 C 
HETATM    4  C5  UNL     1     -34.262  14.904  -3.018  1.00 20.00     0.014 C 
HETATM    5  O8  UNL     1     -33.935  13.006  -4.394  1.00 20.00    -0.391 OA
ENDROOT
BRANCH   4   6
HETATM    6  C7  UNL     1     -33.811  16.326  -2.747  1.00 20.00     0.041 C 
BRANCH   6   7
HETATM    7  C6  UNL     1     -34.399  17.300  -3.721  1.00 20.00     0.145 A 
HETATM    8  C4  UNL     1     -33.542  17.991  -4.743  1.00 20.00     0.200 A 
HETATM    9  O9  UNL     1     -33.969  18.653  -3.542  1.00 20.00    -0.381 OA
ENDBRANCH   6   7
ENDBRANCH   4   6
TORSDOF 2
ENDMDL
MODEL 9
REMARK VINA RESULT:      -3.5     12.298     13.232
REMARK  2 active torsions:
REMARK  status: ('A' for Active; 'I' for Inactive)
REMARK    1  A    between atoms: C5_5  and  C7_7 
REMARK    2  A    between atoms: C6_6  and  C7_7 
ROOT
HETATM    1  C1  UNL     1     -33.982  15.440  -3.171  1.00 20.00     0.033 C 
HETATM    2  C2  UNL     1     -33.313  16.026  -4.398  1.00 20.00     0.168 C 
HETATM    3  C3  UNL     1     -34.028  17.781  -3.044  1.00 20.00     0.172 C 
HETATM    4  C5  UNL     1     -33.815  16.559  -2.168  1.00 20.00     0.014 C 
HETATM    5  O8  UNL     1     -33.512  17.445  -4.341  1.00 20.00    -0.391 OA
ENDROOT
BRANCH   4   6
HETATM    6  C7  UNL     1     -34.762  16.482  -0.986  1.00 20.00     0.041 C 
BRANCH   6   7
HETATM    7  C6  UNL     1     -34.483  17.546   0.031  1.00 20.00     0.145 A 
HETATM    8  C4  UNL     1     -35.248  17.607   1.322  1.00 20.00     0.200 A 
HETATM    9  O9  UNL     1     -35.551  18.479   0.222  1.00 20.00    -0.381 OA
ENDBRANCH   6   7
ENDBRANCH   4   6
TORSDOF 2
ENDMDL
