MODEL 1
REMARK VINA RESULT:      -4.2      0.000      0.000
REMARK  1 active torsions:
REMARK  status: ('A' for Active; 'I' for Inactive)
REMARK    1  A    between atoms: C4_4  and  C8_8 
ROOT
HETATM    1  C1  UNL     1     -34.759  13.800  -4.581  1.00 20.00     0.137 C 
HETATM    2  C2  UNL     1     -34.964  14.592  -3.313  1.00 20.00     0.095 C 
HETATM    3  C3  UNL     1     -34.445  14.622  -5.803  1.00 20.00     0.152 C 
HETATM    4  C4  UNL     1     -34.165  15.879  -3.469  1.00 20.00     0.062 C 
HETATM    5  O9  UNL     1     -34.889  12.580  -4.625  1.00 20.00    -0.297 OA
HETATM    6  S10 UNL     1     -34.370  16.330  -5.215  1.00 20.00    -0.156 SA
ENDROOT
BRANCH   4   7
HETATM    7  C8  UNL     1     -34.650  16.986  -2.549  1.00 20.00    -0.038 C 
HETATM    8  C5  UNL     1     -33.762  18.226  -2.728  1.00 20.00     0.015 C 
HETATM    9  C6  UNL     1     -34.577  16.509  -1.092  1.00 20.00     0.015 C 
HETATM   10  C7  UNL     1     -36.103  17.342  -2.899  1.00 20.00     0.015 C 
ENDBRANCH   4   7
TORSDOF 1
ENDMDL
MODEL 2
REMARK VINA RESULT:      -4.2      0.017      1.374
REMARK  1 active torsions:
REMARK  status: ('A' for Active; 'I' for Inactive)
REMARK    1  A    between atoms: C4_4  and  C8_8 
ROOT
HETATM    1  C1  UNL     1     -34.760  13.799  -4.599  1.00 20.00     0.137 C 
HETATM    2  C2  UNL     1     -34.966  14.589  -3.330  1.00 20.00     0.095 C 
HETATM    3  C3  UNL     1     -34.449  14.622  -5.820  1.00 20.00     0.152 C 
HETATM    4  C4  UNL     1     -34.169  15.877  -3.486  1.00 20.00     0.062 C 
HETATM    5  O9  UNL     1     -34.889  12.578  -4.644  1.00 20.00    -0.297 OA
HETATM    6  S10 UNL     1     -34.376  16.330  -5.231  1.00 20.00    -0.156 SA
ENDROOT
BRANCH   4   7
HETATM    7  C8  UNL     1     -34.654  16.983  -2.565  1.00 20.00    -0.038 C 
HETATM    8  C5  UNL     1     -36.108  17.337  -2.912  1.00 20.00     0.015 C 
HETATM    9  C6  UNL     1     -33.768  18.223  -2.742  1.00 20.00     0.015 C 
HETATM   10  C7  UNL     1     -34.579  16.503  -1.107  1.00 20.00     0.015 C 
ENDBRANCH   4   7
TORSDOF 1
ENDMDL
MODEL 3
REMARK VINA RESULT:      -4.1      2.084      2.560
REMARK  1 active torsions:
REMARK  status: ('A' for Active; 'I' for Inactive)
REMARK    1  A    between atoms: C4_4  and  C8_8 
ROOT
HETATM    1  C1  UNL     1     -37.367  14.757  -4.179  1.00 20.00     0.137 C 
HETATM    2  C2  UNL     1     -36.138  14.995  -3.335  1.00 20.00     0.095 C 
HETATM    3  C3  UNL     1     -37.272  15.249  -5.598  1.00 20.00     0.152 C 
HETATM    4  C4  UNL     1     -34.957  15.048  -4.294  1.00 20.00     0.062 C 
HETATM    5  O9  UNL     1     -38.389  14.248  -3.727  1.00 20.00    -0.297 OA
HETATM    6  S10 UNL     1     -35.596  15.911  -5.756  1.00 20.00    -0.156 SA
ENDROOT
BRANCH   4   7
HETATM    7  C8  UNL     1     -33.756  15.768  -3.706  1.00 20.00    -0.038 C 
HETATM    8  C5  UNL     1     -33.401  16.976  -4.586  1.00 20.00     0.015 C 
HETATM    9  C6  UNL     1     -32.560  14.807  -3.648  1.00 20.00     0.015 C 
HETATM   10  C7  UNL     1     -34.094  16.251  -2.287  1.00 20.00     0.015 C 
ENDBRANCH   4   7
TORSDOF 1
ENDMDL
MODEL 4
REMARK VINA RESULT:      -4.1      2.113      2.842
REMARK  1 active torsions:
REMARK  status: ('A' for Active; 'I' for Inactive)
REMARK    1  A    between atoms: C4_4  and  C8_8 
ROOT
HETATM    1  C1  UNL     1     -37.408  14.783  -4.167  1.00 20.00     0.137 C 
HETATM    2  C2  UNL     1     -36.161  14.983  -3.340  1.00 20.00     0.095 C 
HETATM    3  C3  UNL     1     -37.327  15.300  -5.578  1.00 20.00     0.152 C 
HETATM    4  C4  UNL     1     -34.994  15.034  -4.317  1.00 20.00     0.062 C 
HETATM    5  O9  UNL     1     -38.430  14.282  -3.707  1.00 20.00    -0.297 OA
HETATM    6  S10 UNL     1     -35.643  15.936  -5.752  1.00 20.00    -0.156 SA
ENDROOT
BRANCH   4   7
HETATM    7  C8  UNL     1     -33.772  15.722  -3.735  1.00 20.00    -0.038 C 
HETATM    8  C5  UNL     1     -34.106  16.265  -2.338  1.00 20.00     0.015 C 
HETATM    9  C6  UNL     1     -33.353  16.881  -4.650  1.00 20.00     0.015 C 
HETATM   10  C7  UNL     1     -32.619  14.712  -3.629  1.00 20.00     0.015 C 
ENDBRANCH   4   7
TORSDOF 1
ENDMDL
MODEL 5
REMARK VINA RESULT:      -3.9      2.216      3.807
REMARK  1 active torsions:
REMARK  status: ('A' for Active; 'I' for Inactive)
REMARK    1  A    between atoms: C4_4  and  C8_8 
ROOT
HETATM    1  C1  UNL     1     -33.806  14.061  -4.146  1.00 20.00     0.137 C 
HETATM    2  C2  UNL     1     -34.679  14.126  -5.375  1.00 20.00     0.095 C 
HETATM    3  C3  UNL     1     -33.030  15.316  -3.846  1.00 20.00     0.152 C 
HETATM    4  C4  UNL     1     -35.040  15.592  -5.575  1.00 20.00     0.062 C 
HETATM    5  O9  UNL     1     -33.696  13.042  -3.469  1.00 20.00    -0.297 OA
HETATM    6  S10 UNL     1     -33.534  16.497  -5.120  1.00 20.00    -0.156 SA
ENDROOT
BRANCH   4   7
HETATM    7  C8  UNL     1     -35.465  15.903  -6.999  1.00 20.00    -0.038 C 
HETATM    8  C5  UNL     1     -35.306  14.646  -7.867  1.00 20.00     0.015 C 
HETATM    9  C6  UNL     1     -34.587  17.029  -7.562  1.00 20.00     0.015 C 
HETATM   10  C7  UNL     1     -36.935  16.348  -7.008  1.00 20.00     0.015 C 
ENDBRANCH   4   7
TORSDOF 1
ENDMDL
MODEL 6
REMARK VINA RESULT:      -3.9      2.191      3.041
REMARK  1 active torsions:
REMARK  status: ('A' for Active; 'I' for Inactive)
REMARK    1  A    between atoms: C4_4  and  C8_8 
ROOT
HETATM    1  C1  UNL     1     -34.472  13.659  -4.792  1.00 20.00     0.137 C 
HETATM    2  C2  UNL     1     -34.976  14.677  -5.785  1.00 20.00     0.095 C 
HETATM    3  C3  UNL     1     -33.457  14.175  -3.807  1.00 20.00     0.152 C 
HETATM    4  C4  UNL     1     -34.839  16.039  -5.118  1.00 20.00     0.062 C 
HETATM    5  O9  UNL     1     -34.824  12.483  -4.817  1.00 20.00    -0.297 OA
HETATM    6  S10 UNL     1     -33.284  15.935  -4.188  1.00 20.00    -0.156 SA
ENDROOT
BRANCH   4   7
HETATM    7  C8  UNL     1     -34.810  17.182  -6.119  1.00 20.00    -0.038 C 
HETATM    8  C5  UNL     1     -33.640  18.120  -5.791  1.00 20.00     0.015 C 
HETATM    9  C6  UNL     1     -36.130  17.962  -6.042  1.00 20.00     0.015 C 
HETATM   10  C7  UNL     1     -34.632  16.616  -7.535  1.00 20.00     0.015 C 
ENDBRANCH   4   7
TORSDOF 1
ENDMDL
MODEL 7
REMARK VINA RESULT:      -3.8      2.327      4.002
REMARK  1 active torsions:
REMARK  status: ('A' for Active; 'I' for Inactive)
REMARK    1  A    between atoms: C4_4  and  C8_8 
ROOT
HETATM    1  C1  UNL     1     -34.084  17.200  -1.548  1.00 20.00     0.137 C 
HETATM    2  C2  UNL     1     -34.370  15.821  -2.092  1.00 20.00     0.095 C 
HETATM    3  C3  UNL     1     -33.708  18.229  -2.581  1.00 20.00     0.152 C 
HETATM    4  C4  UNL     1     -34.841  16.010  -3.528  1.00 20.00     0.062 C 
HETATM    5  O9  UNL     1     -34.105  17.451  -0.346  1.00 20.00    -0.297 OA
HETATM    6  S10 UNL     1     -33.819  17.367  -4.167  1.00 20.00    -0.156 SA
ENDROOT
BRANCH   4   7
HETATM    7  C8  UNL     1     -34.683  14.754  -4.367  1.00 20.00    -0.038 C 
HETATM    8  C5  UNL     1     -33.530  13.907  -3.809  1.00 20.00     0.015 C 
HETATM    9  C6  UNL     1     -34.376  15.144  -5.820  1.00 20.00     0.015 C 
HETATM   10  C7  UNL     1     -35.985  13.940  -4.320  1.00 20.00     0.015 C 
ENDBRANCH   4   7
TORSDOF 1
ENDMDL
MODEL 8
REMARK VINA RESULT:      -3.8      2.010      3.899
REMARK  1 active torsions:
REMARK  status: ('A' for Active; 'I' for Inactive)
REMARK    1  A    between atoms: C4_4  and  C8_8 
ROOT
HETATM    1  C1  UNL     1     -34.495  16.410  -2.053  1.00 20.00     0.137 C 
HETATM    2  C2  UNL     1     -34.937  15.345  -3.027  1.00 20.00     0.095 C 
HETATM    3  C3  UNL     1     -33.778  17.582  -2.669  1.00 20.00     0.152 C 
HETATM    4  C4  UNL     1     -35.131  16.038  -4.369  1.00 20.00     0.062 C 
HETATM    5  O9  UNL     1     -34.661  16.304  -0.841  1.00 20.00    -0.297 OA
HETATM    6  S10 UNL     1     -33.790  17.258  -4.448  1.00 20.00    -0.156 SA
ENDROOT
BRANCH   4   7
HETATM    7  C8  UNL     1     -35.073  15.073  -5.541  1.00 20.00    -0.038 C 
HETATM    8  C5  UNL     1     -34.614  13.694  -5.046  1.00 20.00     0.015 C 
HETATM    9  C6  UNL     1     -34.081  15.599  -6.588  1.00 20.00     0.015 C 
HETATM   10  C7  UNL     1     -36.467  14.952  -6.173  1.00 20.00     0.015 C 
ENDBRANCH   4   7
TORSDOF 1
ENDMDL
MODEL 9
REMARK VINA RESULT:      -3.8      2.012      3.895
REMARK  1 active torsions:
REMARK  status: ('A' for Active; 'I' for Inactive)
REMARK    1  A    between atoms: C4_4  and  C8_8 
ROOT
HETATM    1  C1  UNL     1     -34.494  16.416  -2.045  1.00 20.00     0.137 C 
HETATM    2  C2  UNL     1     -34.930  15.347  -3.018  1.00 20.00     0.095 C 
HETATM    3  C3  UNL     1     -33.789  17.593  -2.664  1.00 20.00     0.152 C 
HETATM    4  C4  UNL     1     -35.135  16.038  -4.359  1.00 20.00     0.062 C 
HETATM    5  O9  UNL     1     -34.654  16.309  -0.833  1.00 20.00    -0.297 OA
HETATM    6  S10 UNL     1     -33.806  17.270  -4.444  1.00 20.00    -0.156 SA
ENDROOT
BRANCH   4   7
HETATM    7  C8  UNL     1     -35.073  15.074  -5.531  1.00 20.00    -0.038 C 
HETATM    8  C5  UNL     1     -36.462  14.963  -6.177  1.00 20.00     0.015 C 
HETATM    9  C6  UNL     1     -34.627  13.692  -5.034  1.00 20.00     0.015 C 
HETATM   10  C7  UNL     1     -34.067  15.594  -6.568  1.00 20.00     0.015 C 
ENDBRANCH   4   7
TORSDOF 1
ENDMDL
