MODEL 1
REMARK VINA RESULT:      -5.3      0.000      0.000
REMARK  1 active torsions:
REMARK  status: ('A' for Active; 'I' for Inactive)
REMARK    1  A    between atoms: C2_2  and  C6_6 
ROOT
HETATM    1  C1  UNL     1     -34.469   5.485   3.683  1.00 20.00     0.011 C 
HETATM    2  C2  UNL     1     -33.463   6.214   4.194  1.00 20.00     0.026 C 
HETATM    3  C3  UNL     1     -35.464   4.774   4.552  1.00 20.00     0.195 C 
HETATM    4  C4  UNL     1     -33.323   6.371   5.685  1.00 20.00     0.069 C 
HETATM    5  C5  UNL     1     -34.598   5.954   6.414  1.00 20.00     0.172 C 
HETATM    6  O7  UNL     1     -35.044   4.692   5.919  1.00 20.00    -0.387 OA
ENDROOT
BRANCH   2   7
HETATM    7  C6  UNL     1     -32.440   6.896   3.340  1.00 20.00     0.413 C 
HETATM    8  F8  UNL     1     -31.813   6.012   2.537  1.00 20.00    -0.166 F 
HETATM    9  F9  UNL     1     -33.010   7.834   2.557  1.00 20.00    -0.166 F 
HETATM   10  F10 UNL     1     -31.502   7.504   4.096  1.00 20.00    -0.166 F 
ENDBRANCH   2   7
TORSDOF 1
ENDMDL
MODEL 2
REMARK VINA RESULT:      -5.3      0.007      1.192
REMARK  1 active torsions:
REMARK  status: ('A' for Active; 'I' for Inactive)
REMARK    1  A    between atoms: C2_2  and  C6_6 
ROOT
HETATM    1  C1  UNL     1     -34.467   5.484   3.681  1.00 20.00     0.011 C 
HETATM    2  C2  UNL     1     -33.462   6.214   4.190  1.00 20.00     0.026 C 
HETATM    3  C3  UNL     1     -35.461   4.771   4.552  1.00 20.00     0.195 C 
HETATM    4  C4  UNL     1     -33.321   6.373   5.682  1.00 20.00     0.069 C 
HETATM    5  C5  UNL     1     -34.595   5.954   6.412  1.00 20.00     0.172 C 
HETATM    6  O7  UNL     1     -35.038   4.691   5.918  1.00 20.00    -0.387 OA
ENDROOT
BRANCH   2   7
HETATM    7  C6  UNL     1     -32.441   6.897   3.335  1.00 20.00     0.413 C 
HETATM    8  F8  UNL     1     -31.500   7.498   4.091  1.00 20.00    -0.166 F 
HETATM    9  F9  UNL     1     -31.820   6.017   2.525  1.00 20.00    -0.166 F 
HETATM   10  F10 UNL     1     -33.011   7.842   2.558  1.00 20.00    -0.166 F 
ENDBRANCH   2   7
TORSDOF 1
ENDMDL
MODEL 3
REMARK VINA RESULT:      -5.2      0.318      1.558
REMARK  1 active torsions:
REMARK  status: ('A' for Active; 'I' for Inactive)
REMARK    1  A    between atoms: C2_2  and  C6_6 
ROOT
HETATM    1  C1  UNL     1     -33.433   6.417   5.537  1.00 20.00     0.011 C 
HETATM    2  C2  UNL     1     -33.421   6.237   4.207  1.00 20.00     0.026 C 
HETATM    3  C3  UNL     1     -34.432   5.737   6.428  1.00 20.00     0.195 C 
HETATM    4  C4  UNL     1     -34.406   5.299   3.561  1.00 20.00     0.069 C 
HETATM    5  C5  UNL     1     -35.070   4.388   4.590  1.00 20.00     0.172 C 
HETATM    6  O7  UNL     1     -35.523   5.165   5.698  1.00 20.00    -0.387 OA
ENDROOT
BRANCH   2   7
HETATM    7  C6  UNL     1     -32.457   6.939   3.302  1.00 20.00     0.413 C 
HETATM    8  F8  UNL     1     -31.874   6.071   2.450  1.00 20.00    -0.166 F 
HETATM    9  F9  UNL     1     -33.080   7.883   2.569  1.00 20.00    -0.166 F 
HETATM   10  F10 UNL     1     -31.479   7.544   4.008  1.00 20.00    -0.166 F 
ENDBRANCH   2   7
TORSDOF 1
ENDMDL
MODEL 4
REMARK VINA RESULT:      -5.1      1.078      1.918
REMARK  1 active torsions:
REMARK  status: ('A' for Active; 'I' for Inactive)
REMARK    1  A    between atoms: C2_2  and  C6_6 
ROOT
HETATM    1  C1  UNL     1     -33.587   6.513   5.408  1.00 20.00     0.011 C 
HETATM    2  C2  UNL     1     -33.819   5.762   4.319  1.00 20.00     0.026 C 
HETATM    3  C3  UNL     1     -34.239   6.229   6.729  1.00 20.00     0.195 C 
HETATM    4  C4  UNL     1     -34.731   4.567   4.403  1.00 20.00     0.069 C 
HETATM    5  C5  UNL     1     -34.992   4.162   5.852  1.00 20.00     0.172 C 
HETATM    6  O7  UNL     1     -35.336   5.316   6.618  1.00 20.00    -0.387 OA
ENDROOT
BRANCH   2   7
HETATM    7  C6  UNL     1     -33.206   6.057   2.985  1.00 20.00     0.413 C 
HETATM    8  F8  UNL     1     -33.897   5.459   1.993  1.00 20.00    -0.166 F 
HETATM    9  F9  UNL     1     -33.193   7.382   2.740  1.00 20.00    -0.166 F 
HETATM   10  F10 UNL     1     -31.933   5.614   2.926  1.00 20.00    -0.166 F 
ENDBRANCH   2   7
TORSDOF 1
ENDMDL
MODEL 5
REMARK VINA RESULT:      -4.7      3.027      3.937
REMARK  1 active torsions:
REMARK  status: ('A' for Active; 'I' for Inactive)
REMARK    1  A    between atoms: C2_2  and  C6_6 
ROOT
HETATM    1  C1  UNL     1     -33.128   6.518   4.611  1.00 20.00     0.011 C 
HETATM    2  C2  UNL     1     -34.107   5.676   4.979  1.00 20.00     0.026 C 
HETATM    3  C3  UNL     1     -32.717   6.693   3.178  1.00 20.00     0.195 C 
HETATM    4  C4  UNL     1     -34.862   4.892   3.937  1.00 20.00     0.069 C 
HETATM    5  C5  UNL     1     -34.631   5.455   2.537  1.00 20.00     0.172 C 
HETATM    6  O7  UNL     1     -33.236   5.664   2.327  1.00 20.00    -0.387 OA
ENDROOT
BRANCH   2   7
HETATM    7  C6  UNL     1     -34.499   5.463   6.407  1.00 20.00     0.413 C 
HETATM    8  F8  UNL     1     -34.485   6.625   7.091  1.00 20.00    -0.166 F 
HETATM    9  F9  UNL     1     -35.741   4.946   6.496  1.00 20.00    -0.166 F 
HETATM   10  F10 UNL     1     -33.653   4.611   7.023  1.00 20.00    -0.166 F 
ENDBRANCH   2   7
TORSDOF 1
ENDMDL
MODEL 6
REMARK VINA RESULT:      -4.5     11.407     12.016
REMARK  1 active torsions:
REMARK  status: ('A' for Active; 'I' for Inactive)
REMARK    1  A    between atoms: C2_2  and  C6_6 
ROOT
HETATM    1  C1  UNL     1     -33.607  14.616  -3.286  1.00 20.00     0.011 C 
HETATM    2  C2  UNL     1     -34.660  15.323  -2.846  1.00 20.00     0.026 C 
HETATM    3  C3  UNL     1     -33.762  13.425  -4.187  1.00 20.00     0.195 C 
HETATM    4  C4  UNL     1     -36.055  14.955  -3.281  1.00 20.00     0.069 C 
HETATM    5  C5  UNL     1     -36.036  14.014  -4.484  1.00 20.00     0.172 C 
HETATM    6  O7  UNL     1     -35.112  12.952  -4.249  1.00 20.00    -0.387 OA
ENDROOT
BRANCH   2   7
HETATM    7  C6  UNL     1     -34.524  16.488  -1.916  1.00 20.00     0.413 C 
HETATM    8  F8  UNL     1     -34.768  16.121  -0.642  1.00 20.00    -0.166 F 
HETATM    9  F9  UNL     1     -33.280  17.006  -1.967  1.00 20.00    -0.166 F 
HETATM   10  F10 UNL     1     -35.393  17.470  -2.236  1.00 20.00    -0.166 F 
ENDBRANCH   2   7
TORSDOF 1
ENDMDL
MODEL 7
REMARK VINA RESULT:      -4.5      3.150      3.781
REMARK  1 active torsions:
REMARK  status: ('A' for Active; 'I' for Inactive)
REMARK    1  A    between atoms: C2_2  and  C6_6 
ROOT
HETATM    1  C1  UNL     1     -34.694   5.023   3.866  1.00 20.00     0.011 C 
HETATM    2  C2  UNL     1     -34.150   5.535   4.981  1.00 20.00     0.026 C 
HETATM    3  C3  UNL     1     -34.260   5.449   2.494  1.00 20.00     0.195 C 
HETATM    4  C4  UNL     1     -33.039   6.548   4.885  1.00 20.00     0.069 C 
HETATM    5  C5  UNL     1     -32.432   6.582   3.485  1.00 20.00     0.172 C 
HETATM    6  O7  UNL     1     -33.474   6.645   2.512  1.00 20.00    -0.387 OA
ENDROOT
BRANCH   2   7
HETATM    7  C6  UNL     1     -34.600   5.148   6.356  1.00 20.00     0.413 C 
HETATM    8  F8  UNL     1     -34.863   6.240   7.103  1.00 20.00    -0.166 F 
HETATM    9  F9  UNL     1     -35.721   4.401   6.307  1.00 20.00    -0.166 F 
HETATM   10  F10 UNL     1     -33.652   4.430   6.994  1.00 20.00    -0.166 F 
ENDBRANCH   2   7
TORSDOF 1
ENDMDL
MODEL 8
REMARK VINA RESULT:      -4.4      3.056      3.987
REMARK  1 active torsions:
REMARK  status: ('A' for Active; 'I' for Inactive)
REMARK    1  A    between atoms: C2_2  and  C6_6 
ROOT
HETATM    1  C1  UNL     1     -33.567   6.584   5.341  1.00 20.00     0.011 C 
HETATM    2  C2  UNL     1     -34.101   5.748   4.437  1.00 20.00     0.026 C 
HETATM    3  C3  UNL     1     -32.397   7.468   5.021  1.00 20.00     0.195 C 
HETATM    4  C4  UNL     1     -33.553   5.697   3.035  1.00 20.00     0.069 C 
HETATM    5  C5  UNL     1     -32.665   6.903   2.737  1.00 20.00     0.172 C 
HETATM    6  O7  UNL     1     -31.739   7.093   3.806  1.00 20.00    -0.387 OA
ENDROOT
BRANCH   2   7
HETATM    7  C6  UNL     1     -35.243   4.833   4.754  1.00 20.00     0.413 C 
HETATM    8  F8  UNL     1     -35.533   4.859   6.071  1.00 20.00    -0.166 F 
HETATM    9  F9  UNL     1     -36.353   5.191   4.079  1.00 20.00    -0.166 F 
HETATM   10  F10 UNL     1     -34.951   3.558   4.421  1.00 20.00    -0.166 F 
ENDBRANCH   2   7
TORSDOF 1
ENDMDL
MODEL 9
REMARK VINA RESULT:      -4.4     11.622     12.160
REMARK  1 active torsions:
REMARK  status: ('A' for Active; 'I' for Inactive)
REMARK    1  A    between atoms: C2_2  and  C6_6 
ROOT
HETATM    1  C1  UNL     1     -35.863  15.221  -3.120  1.00 20.00     0.011 C 
HETATM    2  C2  UNL     1     -34.653  15.621  -2.699  1.00 20.00     0.026 C 
HETATM    3  C3  UNL     1     -36.037  14.201  -4.207  1.00 20.00     0.195 C 
HETATM    4  C4  UNL     1     -33.407  15.018  -3.294  1.00 20.00     0.069 C 
HETATM    5  C5  UNL     1     -33.719  13.739  -4.068  1.00 20.00     0.172 C 
HETATM    6  O7  UNL     1     -34.828  13.962  -4.937  1.00 20.00    -0.387 OA
ENDROOT
BRANCH   2   7
HETATM    7  C6  UNL     1     -34.465  16.665  -1.644  1.00 20.00     0.413 C 
HETATM    8  F8  UNL     1     -35.208  17.759  -1.908  1.00 20.00    -0.166 F 
HETATM    9  F9  UNL     1     -34.829  16.201  -0.432  1.00 20.00    -0.166 F 
HETATM   10  F10 UNL     1     -33.174  17.052  -1.566  1.00 20.00    -0.166 F 
ENDBRANCH   2   7
TORSDOF 1
ENDMDL
