MODEL 1
REMARK VINA RESULT:      -4.6      0.000      0.000
REMARK  1 active torsions:
REMARK  status: ('A' for Active; 'I' for Inactive)
REMARK    1  A    between atoms: C2_2  and  C4_4 
ROOT
HETATM    1  C1  UNL     1     -34.524   5.834   6.068  1.00 20.00     0.092 A 
HETATM    2  C2  UNL     1     -33.662   5.505   4.869  1.00 20.00     0.092 A 
HETATM    3  C3  UNL     1     -34.985   4.853   5.050  1.00 20.00     0.250 A 
HETATM    4  F5  UNL     1     -35.069   3.514   5.361  1.00 20.00    -0.206 F 
HETATM    5  F6  UNL     1     -36.047   5.151   4.226  1.00 20.00    -0.206 F 
ENDROOT
BRANCH   2   6
HETATM    6  C4  UNL     1     -33.460   6.513   3.793  1.00 20.00     0.232 C 
HETATM    7  F7  UNL     1     -32.319   6.225   3.100  1.00 20.00    -0.255 F 
ENDBRANCH   2   6
TORSDOF 1
ENDMDL
MODEL 2
REMARK VINA RESULT:      -4.6      1.784      2.571
REMARK  1 active torsions:
REMARK  status: ('A' for Active; 'I' for Inactive)
REMARK    1  A    between atoms: C2_2  and  C4_4 
ROOT
HETATM    1  C1  UNL     1     -33.657   5.734   3.730  1.00 20.00     0.092 A 
HETATM    2  C2  UNL     1     -34.386   6.383   4.886  1.00 20.00     0.092 A 
HETATM    3  C3  UNL     1     -35.044   5.324   4.075  1.00 20.00     0.250 A 
HETATM    4  F5  UNL     1     -36.090   5.635   3.236  1.00 20.00    -0.206 F 
HETATM    5  F6  UNL     1     -35.292   4.076   4.598  1.00 20.00    -0.206 F 
ENDROOT
BRANCH   2   6
HETATM    6  C4  UNL     1     -33.966   6.105   6.286  1.00 20.00     0.232 C 
HETATM    7  F7  UNL     1     -33.956   7.268   7.002  1.00 20.00    -0.255 F 
ENDBRANCH   2   6
TORSDOF 1
ENDMDL
MODEL 3
REMARK VINA RESULT:      -4.5      1.381      1.802
REMARK  1 active torsions:
REMARK  status: ('A' for Active; 'I' for Inactive)
REMARK    1  A    between atoms: C2_2  and  C4_4 
ROOT
HETATM    1  C1  UNL     1     -35.421   5.191   4.265  1.00 20.00     0.092 A 
HETATM    2  C2  UNL     1     -34.244   6.135   4.371  1.00 20.00     0.092 A 
HETATM    3  C3  UNL     1     -34.573   5.209   5.487  1.00 20.00     0.250 A 
HETATM    4  F5  UNL     1     -35.073   5.695   6.674  1.00 20.00    -0.206 F 
HETATM    5  F6  UNL     1     -33.763   4.139   5.788  1.00 20.00    -0.206 F 
ENDROOT
BRANCH   2   6
HETATM    6  C4  UNL     1     -33.028   5.912   3.542  1.00 20.00     0.232 C 
HETATM    7  F7  UNL     1     -32.073   6.832   3.870  1.00 20.00    -0.255 F 
ENDBRANCH   2   6
TORSDOF 1
ENDMDL
MODEL 4
REMARK VINA RESULT:      -4.5      1.614      3.038
REMARK  1 active torsions:
REMARK  status: ('A' for Active; 'I' for Inactive)
REMARK    1  A    between atoms: C2_2  and  C4_4 
ROOT
HETATM    1  C1  UNL     1     -35.588   5.575   3.742  1.00 20.00     0.092 A 
HETATM    2  C2  UNL     1     -34.838   4.530   4.539  1.00 20.00     0.092 A 
HETATM    3  C3  UNL     1     -34.147   5.757   4.063  1.00 20.00     0.250 A 
HETATM    4  F5  UNL     1     -33.198   5.684   3.069  1.00 20.00    -0.206 F 
HETATM    5  F6  UNL     1     -33.748   6.738   4.942  1.00 20.00    -0.206 F 
ENDROOT
BRANCH   2   6
HETATM    6  C4  UNL     1     -35.127   4.343   5.987  1.00 20.00     0.232 C 
HETATM    7  F7  UNL     1     -33.964   4.404   6.700  1.00 20.00    -0.255 F 
ENDBRANCH   2   6
TORSDOF 1
ENDMDL
MODEL 5
REMARK VINA RESULT:      -4.5      1.834      2.823
REMARK  1 active torsions:
REMARK  status: ('A' for Active; 'I' for Inactive)
REMARK    1  A    between atoms: C2_2  and  C4_4 
ROOT
HETATM    1  C1  UNL     1     -34.059   4.678   6.282  1.00 20.00     0.092 A 
HETATM    2  C2  UNL     1     -35.137   5.295   5.418  1.00 20.00     0.092 A 
HETATM    3  C3  UNL     1     -34.025   6.127   5.950  1.00 20.00     0.250 A 
HETATM    4  F5  UNL     1     -34.262   7.070   6.924  1.00 20.00    -0.206 F 
HETATM    5  F6  UNL     1     -33.049   6.629   5.119  1.00 20.00    -0.206 F 
ENDROOT
BRANCH   2   6
HETATM    6  C4  UNL     1     -35.209   4.974   3.967  1.00 20.00     0.232 C 
HETATM    7  F7  UNL     1     -36.174   5.738   3.374  1.00 20.00    -0.255 F 
ENDBRANCH   2   6
TORSDOF 1
ENDMDL
MODEL 6
REMARK VINA RESULT:      -4.4      1.263      2.994
REMARK  1 active torsions:
REMARK  status: ('A' for Active; 'I' for Inactive)
REMARK    1  A    between atoms: C2_2  and  C4_4 
ROOT
HETATM    1  C1  UNL     1     -33.824   6.473   6.162  1.00 20.00     0.092 A 
HETATM    2  C2  UNL     1     -34.866   5.521   5.616  1.00 20.00     0.092 A 
HETATM    3  C3  UNL     1     -33.922   6.216   4.701  1.00 20.00     0.250 A 
HETATM    4  F5  UNL     1     -34.371   7.201   3.850  1.00 20.00    -0.206 F 
HETATM    5  F6  UNL     1     -32.926   5.528   4.046  1.00 20.00    -0.206 F 
ENDROOT
BRANCH   2   6
HETATM    6  C4  UNL     1     -34.741   4.058   5.855  1.00 20.00     0.232 C 
HETATM    7  F7  UNL     1     -35.103   3.375   4.729  1.00 20.00    -0.255 F 
ENDBRANCH   2   6
TORSDOF 1
ENDMDL
MODEL 7
REMARK VINA RESULT:      -4.1      2.026      2.299
REMARK  1 active torsions:
REMARK  status: ('A' for Active; 'I' for Inactive)
REMARK    1  A    between atoms: C2_2  and  C4_4 
ROOT
HETATM    1  C1  UNL     1     -35.153   4.776   4.445  1.00 20.00     0.092 A 
HETATM    2  C2  UNL     1     -34.806   5.822   5.482  1.00 20.00     0.092 A 
HETATM    3  C3  UNL     1     -34.825   4.380   5.840  1.00 20.00     0.250 A 
HETATM    4  F5  UNL     1     -35.802   3.878   6.669  1.00 20.00    -0.206 F 
HETATM    5  F6  UNL     1     -33.661   3.697   6.115  1.00 20.00    -0.206 F 
ENDROOT
BRANCH   2   6
HETATM    6  C4  UNL     1     -33.516   6.560   5.399  1.00 20.00     0.232 C 
HETATM    7  F7  UNL     1     -33.170   7.023   6.636  1.00 20.00    -0.255 F 
ENDBRANCH   2   6
TORSDOF 1
ENDMDL
MODEL 8
REMARK VINA RESULT:      -3.9      1.414      3.576
REMARK  1 active torsions:
REMARK  status: ('A' for Active; 'I' for Inactive)
REMARK    1  A    between atoms: C2_2  and  C4_4 
ROOT
HETATM    1  C1  UNL     1     -33.068   6.668   4.792  1.00 20.00     0.092 A 
HETATM    2  C2  UNL     1     -34.138   6.476   3.740  1.00 20.00     0.092 A 
HETATM    3  C3  UNL     1     -32.715   6.651   3.347  1.00 20.00     0.250 A 
HETATM    4  F5  UNL     1     -32.300   7.803   2.719  1.00 20.00    -0.206 F 
HETATM    5  F6  UNL     1     -31.987   5.609   2.820  1.00 20.00    -0.206 F 
ENDROOT
BRANCH   2   6
HETATM    6  C4  UNL     1     -34.805   5.154   3.583  1.00 20.00     0.232 C 
HETATM    7  F7  UNL     1     -35.960   5.132   4.312  1.00 20.00    -0.255 F 
ENDBRANCH   2   6
TORSDOF 1
ENDMDL
MODEL 9
REMARK VINA RESULT:      -3.7      1.774      3.120
REMARK  1 active torsions:
REMARK  status: ('A' for Active; 'I' for Inactive)
REMARK    1  A    between atoms: C2_2  and  C4_4 
ROOT
HETATM    1  C1  UNL     1     -34.727   6.488   4.233  1.00 20.00     0.092 A 
HETATM    2  C2  UNL     1     -34.168   5.142   4.641  1.00 20.00     0.092 A 
HETATM    3  C3  UNL     1     -34.027   6.322   5.535  1.00 20.00     0.250 A 
HETATM    4  F5  UNL     1     -32.795   6.899   5.741  1.00 20.00    -0.206 F 
HETATM    5  F6  UNL     1     -34.726   6.409   6.717  1.00 20.00    -0.206 F 
ENDROOT
BRANCH   2   6
HETATM    6  C4  UNL     1     -35.087   4.029   5.004  1.00 20.00     0.232 C 
HETATM    7  F7  UNL     1     -35.121   3.885   6.362  1.00 20.00    -0.255 F 
ENDBRANCH   2   6
TORSDOF 1
ENDMDL
