MODEL 1
REMARK VINA RESULT:      -5.2      0.000      0.000
REMARK  0 active torsions:
REMARK  status: ('A' for Active; 'I' for Inactive)
ROOT
HETATM    1  C1  UNL     1     -34.574  13.710  -4.436  1.00 20.00     0.102 C 
HETATM    2  C2  UNL     1     -34.541  15.299  -2.580  1.00 20.00     0.050 A 
HETATM    3  C3  UNL     1     -33.820  17.578  -2.929  1.00 20.00     0.069 A 
HETATM    4  C4  UNL     1     -34.318  15.021  -3.928  1.00 20.00     0.087 A 
HETATM    5  C5  UNL     1     -33.595  17.300  -4.277  1.00 20.00     0.158 A 
HETATM    6  C6  UNL     1     -33.844  16.021  -4.777  1.00 20.00     0.175 A 
HETATM    7  C7  UNL     1     -34.292  16.578  -2.080  1.00 20.00     0.038 A 
HETATM    8  N8  UNL     1     -34.782  12.646  -4.848  1.00 20.00    -0.191 NA
HETATM    9  F9  UNL     1     -33.142  18.262  -5.093  1.00 20.00    -0.203 F 
HETATM   10  F10 UNL     1     -33.625  15.770  -6.076  1.00 20.00    -0.201 F 
HETATM   11 CL11 UNL     1     -34.567  16.920  -0.415  1.00 20.00    -0.084 Cl
ENDROOT
TORSDOF 0
ENDMDL
MODEL 2
REMARK VINA RESULT:      -5.0      2.575      3.039
REMARK  0 active torsions:
REMARK  status: ('A' for Active; 'I' for Inactive)
ROOT
HETATM    1  C1  UNL     1     -37.380  14.650  -3.769  1.00 20.00     0.102 C 
HETATM    2  C2  UNL     1     -35.627  16.254  -3.199  1.00 20.00     0.050 A 
HETATM    3  C3  UNL     1     -33.304  15.592  -3.228  1.00 20.00     0.069 A 
HETATM    4  C4  UNL     1     -35.998  14.967  -3.587  1.00 20.00     0.087 A 
HETATM    5  C5  UNL     1     -33.675  14.305  -3.614  1.00 20.00     0.158 A 
HETATM    6  C6  UNL     1     -35.022  13.992  -3.793  1.00 20.00     0.175 A 
HETATM    7  C7  UNL     1     -34.279  16.568  -3.020  1.00 20.00     0.038 A 
HETATM    8  N8  UNL     1     -38.502  14.393  -3.919  1.00 20.00    -0.191 NA
HETATM    9  F9  UNL     1     -32.737  13.369  -3.814  1.00 20.00    -0.203 F 
HETATM   10  F10 UNL     1     -35.364  12.750  -4.167  1.00 20.00    -0.201 F 
HETATM   11 CL11 UNL     1     -33.821  18.156  -2.542  1.00 20.00    -0.084 Cl
ENDROOT
TORSDOF 0
ENDMDL
MODEL 3
REMARK VINA RESULT:      -4.9     12.221     13.053
REMARK  0 active torsions:
REMARK  status: ('A' for Active; 'I' for Inactive)
ROOT
HETATM    1  C1  UNL     1     -42.718   7.880  -3.120  1.00 20.00     0.102 C 
HETATM    2  C2  UNL     1     -42.338   5.485  -2.816  1.00 20.00     0.050 A 
HETATM    3  C3  UNL     1     -41.031   4.678  -0.952  1.00 20.00     0.069 A 
HETATM    4  C4  UNL     1     -42.145   6.797  -2.384  1.00 20.00     0.087 A 
HETATM    5  C5  UNL     1     -40.836   5.990  -0.520  1.00 20.00     0.158 A 
HETATM    6  C6  UNL     1     -41.394   7.050  -1.236  1.00 20.00     0.175 A 
HETATM    7  C7  UNL     1     -41.781   4.425  -2.100  1.00 20.00     0.038 A 
HETATM    8  N8  UNL     1     -43.183   8.759  -3.718  1.00 20.00    -0.191 NA
HETATM    9  F9  UNL     1     -40.116   6.232   0.583  1.00 20.00    -0.203 F 
HETATM   10  F10 UNL     1     -41.200   8.306  -0.808  1.00 20.00    -0.201 F 
HETATM   11 CL11 UNL     1     -42.019   2.806  -2.633  1.00 20.00    -0.084 Cl
ENDROOT
TORSDOF 0
ENDMDL
MODEL 4
REMARK VINA RESULT:      -4.8      3.135      4.022
REMARK  0 active torsions:
REMARK  status: ('A' for Active; 'I' for Inactive)
ROOT
HETATM    1  C1  UNL     1     -34.009  16.647  -1.904  1.00 20.00     0.102 C 
HETATM    2  C2  UNL     1     -36.020  15.677  -2.897  1.00 20.00     0.050 A 
HETATM    3  C3  UNL     1     -35.862  13.769  -4.370  1.00 20.00     0.069 A 
HETATM    4  C4  UNL     1     -34.634  15.671  -2.740  1.00 20.00     0.087 A 
HETATM    5  C5  UNL     1     -34.476  13.764  -4.215  1.00 20.00     0.158 A 
HETATM    6  C6  UNL     1     -33.862  14.715  -3.400  1.00 20.00     0.175 A 
HETATM    7  C7  UNL     1     -36.634  14.726  -3.711  1.00 20.00     0.038 A 
HETATM    8  N8  UNL     1     -33.501  17.439  -1.225  1.00 20.00    -0.191 NA
HETATM    9  F9  UNL     1     -33.735  12.844  -4.847  1.00 20.00    -0.203 F 
HETATM   10  F10 UNL     1     -32.528  14.696  -3.258  1.00 20.00    -0.201 F 
HETATM   11 CL11 UNL     1     -38.345  14.734  -3.905  1.00 20.00    -0.084 Cl
ENDROOT
TORSDOF 0
ENDMDL
MODEL 5
REMARK VINA RESULT:      -4.7      2.764      3.549
REMARK  0 active torsions:
REMARK  status: ('A' for Active; 'I' for Inactive)
ROOT
HETATM    1  C1  UNL     1     -34.541  16.698  -1.123  1.00 20.00     0.102 C 
HETATM    2  C2  UNL     1     -34.519  15.070  -2.945  1.00 20.00     0.050 A 
HETATM    3  C3  UNL     1     -33.783  15.711  -5.154  1.00 20.00     0.069 A 
HETATM    4  C4  UNL     1     -34.283  16.366  -2.489  1.00 20.00     0.087 A 
HETATM    5  C5  UNL     1     -33.548  17.008  -4.700  1.00 20.00     0.158 A 
HETATM    6  C6  UNL     1     -33.799  17.336  -3.367  1.00 20.00     0.175 A 
HETATM    7  C7  UNL     1     -34.269  14.741  -4.277  1.00 20.00     0.038 A 
HETATM    8  N8  UNL     1     -34.749  16.968  -0.014  1.00 20.00    -0.191 NA
HETATM    9  F9  UNL     1     -33.081  17.939  -5.543  1.00 20.00    -0.203 F 
HETATM   10  F10 UNL     1     -33.566  18.587  -2.943  1.00 20.00    -0.201 F 
HETATM   11 CL11 UNL     1     -34.561  13.141  -4.839  1.00 20.00    -0.084 Cl
ENDROOT
TORSDOF 0
ENDMDL
MODEL 6
REMARK VINA RESULT:      -4.7     12.363     13.261
REMARK  0 active torsions:
REMARK  status: ('A' for Active; 'I' for Inactive)
ROOT
HETATM    1  C1  UNL     1     -41.907   3.418  -2.673  1.00 20.00     0.102 C 
HETATM    2  C2  UNL     1     -42.570   5.770  -2.668  1.00 20.00     0.050 A 
HETATM    3  C3  UNL     1     -41.624   7.307  -1.063  1.00 20.00     0.069 A 
HETATM    4  C4  UNL     1     -41.810   4.734  -2.126  1.00 20.00     0.087 A 
HETATM    5  C5  UNL     1     -40.864   6.272  -0.519  1.00 20.00     0.158 A 
HETATM    6  C6  UNL     1     -40.957   4.985  -1.051  1.00 20.00     0.175 A 
HETATM    7  C7  UNL     1     -42.478   7.056  -2.137  1.00 20.00     0.038 A 
HETATM    8  N8  UNL     1     -41.986   2.349  -3.117  1.00 20.00    -0.191 NA
HETATM    9  F9  UNL     1     -40.044   6.513   0.512  1.00 20.00    -0.203 F 
HETATM   10  F10 UNL     1     -40.218   4.000  -0.519  1.00 20.00    -0.201 F 
HETATM   11 CL11 UNL     1     -43.417   8.334  -2.806  1.00 20.00    -0.084 Cl
ENDROOT
TORSDOF 0
ENDMDL
MODEL 7
REMARK VINA RESULT:      -4.6      2.434      3.344
REMARK  0 active torsions:
REMARK  status: ('A' for Active; 'I' for Inactive)
ROOT
HETATM    1  C1  UNL     1     -34.289  17.325  -6.389  1.00 20.00     0.102 C 
HETATM    2  C2  UNL     1     -34.440  16.719  -4.026  1.00 20.00     0.050 A 
HETATM    3  C3  UNL     1     -34.451  14.399  -3.353  1.00 20.00     0.069 A 
HETATM    4  C4  UNL     1     -34.343  16.332  -5.362  1.00 20.00     0.087 A 
HETATM    5  C5  UNL     1     -34.356  14.011  -4.689  1.00 20.00     0.158 A 
HETATM    6  C6  UNL     1     -34.303  14.978  -5.694  1.00 20.00     0.175 A 
HETATM    7  C7  UNL     1     -34.493  15.754  -3.021  1.00 20.00     0.038 A 
HETATM    8  N8  UNL     1     -34.243  18.131  -7.222  1.00 20.00    -0.191 NA
HETATM    9  F9  UNL     1     -34.315  12.710  -5.007  1.00 20.00    -0.203 F 
HETATM   10  F10 UNL     1     -34.209  14.589  -6.974  1.00 20.00    -0.201 F 
HETATM   11 CL11 UNL     1     -34.613  16.232  -1.372  1.00 20.00    -0.084 Cl
ENDROOT
TORSDOF 0
ENDMDL
MODEL 8
REMARK VINA RESULT:      -4.5      1.954      2.181
REMARK  0 active torsions:
REMARK  status: ('A' for Active; 'I' for Inactive)
ROOT
HETATM    1  C1  UNL     1     -37.371  14.761  -3.831  1.00 20.00     0.102 C 
HETATM    2  C2  UNL     1     -35.537  15.891  -2.676  1.00 20.00     0.050 A 
HETATM    3  C3  UNL     1     -33.528  16.500  -3.870  1.00 20.00     0.069 A 
HETATM    4  C4  UNL     1     -36.069  15.350  -3.846  1.00 20.00     0.087 A 
HETATM    5  C5  UNL     1     -34.058  15.959  -5.040  1.00 20.00     0.158 A 
HETATM    6  C6  UNL     1     -35.329  15.383  -5.029  1.00 20.00     0.175 A 
HETATM    7  C7  UNL     1     -34.267  16.466  -2.687  1.00 20.00     0.038 A 
HETATM    8  N8  UNL     1     -38.429  14.284  -3.818  1.00 20.00    -0.191 NA
HETATM    9  F9  UNL     1     -33.348  15.993  -6.176  1.00 20.00    -0.203 F 
HETATM   10  F10 UNL     1     -35.827  14.868  -6.163  1.00 20.00    -0.201 F 
HETATM   11 CL11 UNL     1     -33.611  17.133  -1.242  1.00 20.00    -0.084 Cl
ENDROOT
TORSDOF 0
ENDMDL
MODEL 9
REMARK VINA RESULT:      -4.5      3.589      4.611
REMARK  0 active torsions:
REMARK  status: ('A' for Active; 'I' for Inactive)
ROOT
HETATM    1  C1  UNL     1     -33.619  17.886  -4.631  1.00 20.00     0.102 C 
HETATM    2  C2  UNL     1     -34.481  16.140  -6.107  1.00 20.00     0.050 A 
HETATM    3  C3  UNL     1     -34.658  13.858  -5.334  1.00 20.00     0.069 A 
HETATM    4  C4  UNL     1     -33.970  16.521  -4.867  1.00 20.00     0.087 A 
HETATM    5  C5  UNL     1     -34.147  14.239  -4.093  1.00 20.00     0.158 A 
HETATM    6  C6  UNL     1     -33.803  15.571  -3.860  1.00 20.00     0.175 A 
HETATM    7  C7  UNL     1     -34.825  14.808  -6.342  1.00 20.00     0.038 A 
HETATM    8  N8  UNL     1     -33.335  18.995  -4.439  1.00 20.00    -0.191 NA
HETATM    9  F9  UNL     1     -33.987  13.326  -3.126  1.00 20.00    -0.203 F 
HETATM   10  F10 UNL     1     -33.314  15.922  -2.661  1.00 20.00    -0.201 F 
HETATM   11 CL11 UNL     1     -35.454  14.338  -7.873  1.00 20.00    -0.084 Cl
ENDROOT
TORSDOF 0
ENDMDL
