MODEL 1
REMARK VINA RESULT:      -4.3      0.000      0.000
REMARK  0 active torsions:
REMARK  status: ('A' for Active; 'I' for Inactive)
ROOT
HETATM    1  C1  UNL     1     -34.382  13.554  -4.799  1.00 20.00     0.221 C 
HETATM    2  C2  UNL     1     -34.350  15.457  -3.012  1.00 20.00     0.020 C 
HETATM    3  C3  UNL     1     -32.432  14.780  -3.571  1.00 20.00     0.020 C 
HETATM    4  C4  UNL     1     -33.765  15.883  -5.499  1.00 20.00     0.127 C 
HETATM    5  C5  UNL     1     -33.807  14.052  -3.431  1.00 20.00     0.078 C 
HETATM    6  C6  UNL     1     -33.305  15.982  -4.043  1.00 20.00     0.005 C 
HETATM    7  N7  UNL     1     -34.311  14.552  -5.763  1.00 20.00    -0.360 N 
HETATM    8  O8  UNL     1     -34.842  12.434  -5.022  1.00 20.00    -0.273 OA
HETATM    9  H17 UNL     1     -34.656  14.347  -6.695  1.00 20.00     0.162 HD
ENDROOT
TORSDOF 0
ENDMDL
MODEL 2
REMARK VINA RESULT:      -4.2      1.209      1.797
REMARK  0 active torsions:
REMARK  status: ('A' for Active; 'I' for Inactive)
ROOT
HETATM    1  C1  UNL     1     -34.603  13.676  -4.017  1.00 20.00     0.221 C 
HETATM    2  C2  UNL     1     -34.833  16.256  -4.341  1.00 20.00     0.020 C 
HETATM    3  C3  UNL     1     -34.769  15.653  -2.321  1.00 20.00     0.020 C 
HETATM    4  C4  UNL     1     -32.601  15.142  -3.644  1.00 20.00     0.127 C 
HETATM    5  C5  UNL     1     -35.359  14.982  -3.604  1.00 20.00     0.078 C 
HETATM    6  C6  UNL     1     -33.676  16.176  -3.300  1.00 20.00     0.005 C 
HETATM    7  N7  UNL     1     -33.227  13.869  -4.003  1.00 20.00    -0.360 N 
HETATM    8  O8  UNL     1     -35.129  12.605  -4.321  1.00 20.00    -0.273 OA
HETATM    9  H17 UNL     1     -32.628  13.090  -4.255  1.00 20.00     0.162 HD
ENDROOT
TORSDOF 0
ENDMDL
MODEL 3
REMARK VINA RESULT:      -4.1     12.044     12.959
REMARK  0 active torsions:
REMARK  status: ('A' for Active; 'I' for Inactive)
ROOT
HETATM    1  C1  UNL     1     -33.269   6.149   3.915  1.00 20.00     0.221 C 
HETATM    2  C2  UNL     1     -35.798   5.530   4.110  1.00 20.00     0.020 C 
HETATM    3  C3  UNL     1     -34.493   3.950   4.607  1.00 20.00     0.020 C 
HETATM    4  C4  UNL     1     -34.322   5.996   6.188  1.00 20.00     0.127 C 
HETATM    5  C5  UNL     1     -34.391   5.114   3.570  1.00 20.00     0.078 C 
HETATM    6  C6  UNL     1     -35.245   5.007   5.470  1.00 20.00     0.005 C 
HETATM    7  N7  UNL     1     -33.328   6.522   5.253  1.00 20.00    -0.360 N 
HETATM    8  O8  UNL     1     -32.433   6.594   3.129  1.00 20.00    -0.273 OA
HETATM    9  H17 UNL     1     -32.649   7.192   5.597  1.00 20.00     0.162 HD
ENDROOT
TORSDOF 0
ENDMDL
MODEL 4
REMARK VINA RESULT:      -4.0      1.933      2.694
REMARK  0 active torsions:
REMARK  status: ('A' for Active; 'I' for Inactive)
ROOT
HETATM    1  C1  UNL     1     -33.513  15.947  -4.965  1.00 20.00     0.221 C 
HETATM    2  C2  UNL     1     -33.310  13.686  -3.676  1.00 20.00     0.020 C 
HETATM    3  C3  UNL     1     -35.140  14.686  -3.360  1.00 20.00     0.020 C 
HETATM    4  C4  UNL     1     -34.756  13.938  -5.810  1.00 20.00     0.127 C 
HETATM    5  C5  UNL     1     -33.685  15.202  -3.600  1.00 20.00     0.078 C 
HETATM    6  C6  UNL     1     -34.717  13.544  -4.332  1.00 20.00     0.005 C 
HETATM    7  N7  UNL     1     -34.087  15.224  -6.004  1.00 20.00    -0.360 N 
HETATM    8  O8  UNL     1     -32.950  17.029  -5.130  1.00 20.00    -0.273 OA
HETATM    9  H17 UNL     1     -34.039  15.607  -6.942  1.00 20.00     0.162 HD
ENDROOT
TORSDOF 0
ENDMDL
MODEL 5
REMARK VINA RESULT:      -4.0     12.715     13.479
REMARK  0 active torsions:
REMARK  status: ('A' for Active; 'I' for Inactive)
ROOT
HETATM    1  C1  UNL     1     -34.089   6.339   6.027  1.00 20.00     0.221 C 
HETATM    2  C2  UNL     1     -35.592   5.850   3.950  1.00 20.00     0.020 C 
HETATM    3  C3  UNL     1     -33.592   5.222   3.720  1.00 20.00     0.020 C 
HETATM    4  C4  UNL     1     -34.874   3.993   5.606  1.00 20.00     0.127 C 
HETATM    5  C5  UNL     1     -34.238   6.430   4.472  1.00 20.00     0.078 C 
HETATM    6  C6  UNL     1     -34.889   4.474   4.154  1.00 20.00     0.005 C 
HETATM    7  N7  UNL     1     -34.433   5.074   6.488  1.00 20.00    -0.360 N 
HETATM    8  O8  UNL     1     -33.719   7.248   6.770  1.00 20.00    -0.273 OA
HETATM    9  H17 UNL     1     -34.377   4.892   7.485  1.00 20.00     0.162 HD
ENDROOT
TORSDOF 0
ENDMDL
MODEL 6
REMARK VINA RESULT:      -4.0      1.637      2.221
REMARK  0 active torsions:
REMARK  status: ('A' for Active; 'I' for Inactive)
ROOT
HETATM    1  C1  UNL     1     -33.720  13.658  -3.698  1.00 20.00     0.221 C 
HETATM    2  C2  UNL     1     -34.821  15.683  -2.472  1.00 20.00     0.020 C 
HETATM    3  C3  UNL     1     -34.486  16.012  -4.528  1.00 20.00     0.020 C 
HETATM    4  C4  UNL     1     -36.167  14.106  -4.024  1.00 20.00     0.127 C 
HETATM    5  C5  UNL     1     -33.698  15.203  -3.447  1.00 20.00     0.078 C 
HETATM    6  C6  UNL     1     -35.737  15.544  -3.725  1.00 20.00     0.005 C 
HETATM    7  N7  UNL     1     -35.008  13.216  -3.978  1.00 20.00    -0.360 N 
HETATM    8  O8  UNL     1     -32.745  12.908  -3.658  1.00 20.00    -0.273 OA
HETATM    9  H17 UNL     1     -35.149  12.228  -4.158  1.00 20.00     0.162 HD
ENDROOT
TORSDOF 0
ENDMDL
MODEL 7
REMARK VINA RESULT:      -4.0      2.104      2.650
REMARK  0 active torsions:
REMARK  status: ('A' for Active; 'I' for Inactive)
ROOT
HETATM    1  C1  UNL     1     -36.521  14.542  -3.722  1.00 20.00     0.221 C 
HETATM    2  C2  UNL     1     -34.091  13.591  -3.649  1.00 20.00     0.020 C 
HETATM    3  C3  UNL     1     -34.364  15.122  -5.074  1.00 20.00     0.020 C 
HETATM    4  C4  UNL     1     -34.710  15.887  -2.622  1.00 20.00     0.127 C 
HETATM    5  C5  UNL     1     -35.307  13.994  -4.544  1.00 20.00     0.078 C 
HETATM    6  C6  UNL     1     -33.824  15.126  -3.612  1.00 20.00     0.005 C 
HETATM    7  N7  UNL     1     -36.106  15.484  -2.788  1.00 20.00    -0.360 N 
HETATM    8  O8  UNL     1     -37.696  14.203  -3.860  1.00 20.00    -0.273 OA
HETATM    9  H17 UNL     1     -36.807  15.912  -2.192  1.00 20.00     0.162 HD
ENDROOT
TORSDOF 0
ENDMDL
MODEL 8
REMARK VINA RESULT:      -4.0      1.475      2.660
REMARK  0 active torsions:
REMARK  status: ('A' for Active; 'I' for Inactive)
ROOT
HETATM    1  C1  UNL     1     -34.564  13.758  -5.065  1.00 20.00     0.221 C 
HETATM    2  C2  UNL     1     -34.386  15.059  -7.321  1.00 20.00     0.020 C 
HETATM    3  C3  UNL     1     -35.830  15.842  -5.998  1.00 20.00     0.020 C 
HETATM    4  C4  UNL     1     -33.400  15.980  -5.110  1.00 20.00     0.127 C 
HETATM    5  C5  UNL     1     -35.333  14.386  -6.275  1.00 20.00     0.078 C 
HETATM    6  C6  UNL     1     -34.348  16.225  -6.287  1.00 20.00     0.005 C 
HETATM    7  N7  UNL     1     -33.620  14.644  -4.559  1.00 20.00    -0.360 N 
HETATM    8  O8  UNL     1     -34.748  12.632  -4.601  1.00 20.00    -0.273 OA
HETATM    9  H17 UNL     1     -33.056  14.347  -3.770  1.00 20.00     0.162 HD
ENDROOT
TORSDOF 0
ENDMDL
MODEL 9
REMARK VINA RESULT:      -4.0      2.156      3.000
REMARK  0 active torsions:
REMARK  status: ('A' for Active; 'I' for Inactive)
ROOT
HETATM    1  C1  UNL     1     -33.448  15.926  -4.696  1.00 20.00     0.221 C 
HETATM    2  C2  UNL     1     -35.547  14.735  -3.701  1.00 20.00     0.020 C 
HETATM    3  C3  UNL     1     -34.924  13.952  -5.558  1.00 20.00     0.020 C 
HETATM    4  C4  UNL     1     -33.192  13.658  -3.653  1.00 20.00     0.127 C 
HETATM    5  C5  UNL     1     -34.897  15.396  -4.959  1.00 20.00     0.078 C 
HETATM    6  C6  UNL     1     -34.653  13.518  -4.086  1.00 20.00     0.005 C 
HETATM    7  N7  UNL     1     -32.680  14.974  -4.036  1.00 20.00    -0.360 N 
HETATM    8  O8  UNL     1     -33.017  17.034  -5.017  1.00 20.00    -0.273 OA
HETATM    9  H17 UNL     1     -31.719  15.203  -3.809  1.00 20.00     0.162 HD
ENDROOT
TORSDOF 0
ENDMDL
