MODEL 1
REMARK VINA RESULT:      -4.8      0.000      0.000
REMARK  1 active torsions:
REMARK  status: ('A' for Active; 'I' for Inactive)
REMARK    1  A    between atoms: C2_2  and  C6_6 
ROOT
HETATM    1  C1  UNL     1     -33.752  13.712  -4.019  1.00 20.00     0.139 C 
HETATM    2  C4  UNL     1     -34.784  13.389  -5.108  1.00 20.00     0.081 C 
HETATM    3  C5  UNL     1     -35.357  14.810  -4.910  1.00 20.00     0.028 C 
HETATM    4  C6  UNL     1     -34.200  15.196  -3.934  1.00 20.00     0.035 C 
HETATM    5  C8  UNL     1     -33.186  16.185  -4.490  1.00 20.00     0.027 C 
HETATM    6  O9  UNL     1     -32.904  13.050  -3.457  1.00 20.00    -0.297 OA
ENDROOT
BRANCH   4   7
HETATM    7  C2  UNL     1     -34.650  15.526  -2.560  1.00 20.00    -0.014 C 
HETATM    8  C3  UNL     1     -34.168  16.551  -1.841  1.00 20.00    -0.034 C 
HETATM    9  C7  UNL     1     -34.622  16.883  -0.460  1.00 20.00     0.036 C 
ENDBRANCH   4   7
TORSDOF 1
ENDMDL
MODEL 2
REMARK VINA RESULT:      -4.3      2.027      2.452
REMARK  1 active torsions:
REMARK  status: ('A' for Active; 'I' for Inactive)
REMARK    1  A    between atoms: C2_2  and  C6_6 
ROOT
HETATM    1  C1  UNL     1     -36.821  14.696  -4.319  1.00 20.00     0.139 C 
HETATM    2  C4  UNL     1     -36.578  15.263  -5.724  1.00 20.00     0.081 C 
HETATM    3  C5  UNL     1     -35.227  15.808  -5.213  1.00 20.00     0.028 C 
HETATM    4  C6  UNL     1     -35.395  15.081  -3.841  1.00 20.00     0.035 C 
HETATM    5  C8  UNL     1     -34.472  13.891  -3.619  1.00 20.00     0.027 C 
HETATM    6  O9  UNL     1     -37.769  14.146  -3.798  1.00 20.00    -0.297 OA
ENDROOT
BRANCH   4   7
HETATM    7  C2  UNL     1     -35.465  15.994  -2.674  1.00 20.00    -0.014 C 
HETATM    8  C3  UNL     1     -34.537  16.045  -1.708  1.00 20.00    -0.034 C 
HETATM    9  C7  UNL     1     -34.608  16.965  -0.536  1.00 20.00     0.036 C 
ENDBRANCH   4   7
TORSDOF 1
ENDMDL
MODEL 3
REMARK VINA RESULT:      -4.3     11.727     12.578
REMARK  1 active torsions:
REMARK  status: ('A' for Active; 'I' for Inactive)
REMARK    1  A    between atoms: C2_2  and  C6_6 
ROOT
HETATM    1  C1  UNL     1     -35.335   5.172   4.493  1.00 20.00     0.139 C 
HETATM    2  C4  UNL     1     -35.261   3.823   5.221  1.00 20.00     0.081 C 
HETATM    3  C5  UNL     1     -33.846   4.220   5.698  1.00 20.00     0.028 C 
HETATM    4  C6  UNL     1     -33.995   5.658   5.107  1.00 20.00     0.035 C 
HETATM    5  C8  UNL     1     -34.149   6.769   6.136  1.00 20.00     0.027 C 
HETATM    6  O9  UNL     1     -36.148   5.664   3.737  1.00 20.00    -0.297 OA
ENDROOT
BRANCH   4   7
HETATM    7  C2  UNL     1     -33.018   5.979   4.038  1.00 20.00    -0.014 C 
HETATM    8  C3  UNL     1     -32.856   7.204   3.516  1.00 20.00    -0.034 C 
HETATM    9  C7  UNL     1     -31.873   7.526   2.441  1.00 20.00     0.036 C 
ENDBRANCH   4   7
TORSDOF 1
ENDMDL
MODEL 4
REMARK VINA RESULT:      -4.2     10.355     11.192
REMARK  1 active torsions:
REMARK  status: ('A' for Active; 'I' for Inactive)
REMARK    1  A    between atoms: C2_2  and  C6_6 
ROOT
HETATM    1  C1  UNL     1     -33.889   6.174   4.798  1.00 20.00     0.139 C 
HETATM    2  C4  UNL     1     -34.994   5.200   4.366  1.00 20.00     0.081 C 
HETATM    3  C5  UNL     1     -34.506   5.376   2.911  1.00 20.00     0.028 C 
HETATM    4  C6  UNL     1     -33.277   6.224   3.372  1.00 20.00     0.035 C 
HETATM    5  C8  UNL     1     -31.928   5.529   3.249  1.00 20.00     0.027 C 
HETATM    6  O9  UNL     1     -33.605   6.691   5.859  1.00 20.00    -0.297 OA
ENDROOT
BRANCH   4   7
HETATM    7  C2  UNL     1     -33.271   7.614   2.855  1.00 20.00    -0.014 C 
HETATM    8  C3  UNL     1     -32.293   8.123   2.091  1.00 20.00    -0.034 C 
HETATM    9  C7  UNL     1     -32.288   9.521   1.571  1.00 20.00     0.036 C 
ENDBRANCH   4   7
TORSDOF 1
ENDMDL
MODEL 5
REMARK VINA RESULT:      -4.0      1.750      2.214
REMARK  1 active torsions:
REMARK  status: ('A' for Active; 'I' for Inactive)
REMARK    1  A    between atoms: C2_2  and  C6_6 
ROOT
HETATM    1  C1  UNL     1     -34.743  15.313  -5.042  1.00 20.00     0.139 C 
HETATM    2  C4  UNL     1     -34.427  13.837  -5.319  1.00 20.00     0.081 C 
HETATM    3  C5  UNL     1     -34.757  13.545  -3.839  1.00 20.00     0.028 C 
HETATM    4  C6  UNL     1     -35.247  15.009  -3.606  1.00 20.00     0.035 C 
HETATM    5  C8  UNL     1     -36.750  15.170  -3.427  1.00 20.00     0.027 C 
HETATM    6  O9  UNL     1     -34.644  16.323  -5.709  1.00 20.00    -0.297 OA
ENDROOT
BRANCH   4   7
HETATM    7  C2  UNL     1     -34.453  15.763  -2.605  1.00 20.00    -0.014 C 
HETATM    8  C3  UNL     1     -34.989  16.413  -1.561  1.00 20.00    -0.034 C 
HETATM    9  C7  UNL     1     -34.190  17.169  -0.554  1.00 20.00     0.036 C 
ENDBRANCH   4   7
TORSDOF 1
ENDMDL
MODEL 6
REMARK VINA RESULT:      -3.9      1.902      3.570
REMARK  1 active torsions:
REMARK  status: ('A' for Active; 'I' for Inactive)
REMARK    1  A    between atoms: C2_2  and  C6_6 
ROOT
HETATM    1  C1  UNL     1     -34.282  13.578  -4.275  1.00 20.00     0.139 C 
HETATM    2  C4  UNL     1     -32.983  13.692  -3.466  1.00 20.00     0.081 C 
HETATM    3  C5  UNL     1     -32.955  15.194  -3.824  1.00 20.00     0.028 C 
HETATM    4  C6  UNL     1     -34.364  15.113  -4.495  1.00 20.00     0.035 C 
HETATM    5  C8  UNL     1     -35.488  15.792  -3.726  1.00 20.00     0.027 C 
HETATM    6  O9  UNL     1     -34.978  12.639  -4.601  1.00 20.00    -0.297 OA
ENDROOT
BRANCH   4   7
HETATM    7  C2  UNL     1     -34.366  15.433  -5.943  1.00 20.00    -0.014 C 
HETATM    8  C3  UNL     1     -34.888  16.555  -6.460  1.00 20.00    -0.034 C 
HETATM    9  C7  UNL     1     -34.889  16.877  -7.916  1.00 20.00     0.036 C 
ENDBRANCH   4   7
TORSDOF 1
ENDMDL
MODEL 7
REMARK VINA RESULT:      -3.7     11.058     12.223
REMARK  1 active torsions:
REMARK  status: ('A' for Active; 'I' for Inactive)
REMARK    1  A    between atoms: C2_2  and  C6_6 
ROOT
HETATM    1  C1  UNL     1     -41.815   4.849  -1.983  1.00 20.00     0.139 C 
HETATM    2  C4  UNL     1     -40.729   4.687  -0.911  1.00 20.00     0.081 C 
HETATM    3  C5  UNL     1     -40.849   6.202  -0.637  1.00 20.00     0.028 C 
HETATM    4  C6  UNL     1     -42.073   6.331  -1.599  1.00 20.00     0.035 C 
HETATM    5  C8  UNL     1     -43.412   6.573  -0.917  1.00 20.00     0.027 C 
HETATM    6  O9  UNL     1     -42.292   4.092  -2.804  1.00 20.00    -0.297 OA
ENDROOT
BRANCH   4   7
HETATM    7  C2  UNL     1     -41.839   7.219  -2.764  1.00 20.00    -0.014 C 
HETATM    8  C3  UNL     1     -42.818   7.835  -3.443  1.00 20.00    -0.034 C 
HETATM    9  C7  UNL     1     -42.582   8.729  -4.613  1.00 20.00     0.036 C 
ENDBRANCH   4   7
TORSDOF 1
ENDMDL
MODEL 8
REMARK VINA RESULT:      -3.7      2.254      3.213
REMARK  1 active torsions:
REMARK  status: ('A' for Active; 'I' for Inactive)
REMARK    1  A    between atoms: C2_2  and  C6_6 
ROOT
HETATM    1  C1  UNL     1     -33.540  15.734  -4.115  1.00 20.00     0.139 C 
HETATM    2  C4  UNL     1     -32.505  14.724  -3.604  1.00 20.00     0.081 C 
HETATM    3  C5  UNL     1     -33.557  13.615  -3.825  1.00 20.00     0.028 C 
HETATM    4  C6  UNL     1     -34.543  14.616  -4.508  1.00 20.00     0.035 C 
HETATM    5  C8  UNL     1     -34.714  14.435  -6.010  1.00 20.00     0.027 C 
HETATM    6  O9  UNL     1     -33.552  16.946  -4.189  1.00 20.00    -0.297 OA
ENDROOT
BRANCH   4   7
HETATM    7  C2  UNL     1     -35.827  14.790  -3.788  1.00 20.00    -0.014 C 
HETATM    8  C3  UNL     1     -37.029  14.752  -4.382  1.00 20.00    -0.034 C 
HETATM    9  C7  UNL     1     -38.321  14.926  -3.656  1.00 20.00     0.036 C 
ENDBRANCH   4   7
TORSDOF 1
ENDMDL
MODEL 9
REMARK VINA RESULT:      -3.7     12.100     13.767
REMARK  1 active torsions:
REMARK  status: ('A' for Active; 'I' for Inactive)
REMARK    1  A    between atoms: C2_2  and  C6_6 
ROOT
HETATM    1  C1  UNL     1     -41.278   5.546  -1.318  1.00 20.00     0.139 C 
HETATM    2  C4  UNL     1     -41.783   6.759  -2.111  1.00 20.00     0.081 C 
HETATM    3  C5  UNL     1     -42.702   5.797  -2.894  1.00 20.00     0.028 C 
HETATM    4  C6  UNL     1     -42.319   4.597  -1.971  1.00 20.00     0.035 C 
HETATM    5  C8  UNL     1     -43.415   4.131  -1.023  1.00 20.00     0.027 C 
HETATM    6  O9  UNL     1     -40.403   5.401  -0.489  1.00 20.00    -0.297 OA
ENDROOT
BRANCH   4   7
HETATM    7  C2  UNL     1     -41.639   3.483  -2.675  1.00 20.00    -0.014 C 
HETATM    8  C3  UNL     1     -42.256   2.358  -3.065  1.00 20.00    -0.034 C 
HETATM    9  C7  UNL     1     -41.572   1.238  -3.774  1.00 20.00     0.036 C 
ENDBRANCH   4   7
TORSDOF 1
ENDMDL
