MODEL 1
REMARK VINA RESULT:      -5.6      0.000      0.000
REMARK  5 active torsions:
REMARK  status: ('A' for Active; 'I' for Inactive)
REMARK    1  A    between atoms: C3_3  and  C7_7 
REMARK    2  A    between atoms: C4_4  and  C8_8 
REMARK    3  A    between atoms: C7_7  and  C9_9 
REMARK    4  A    between atoms: C8_8  and  C10_10 
REMARK    5  A    between atoms: C9_9  and  C10_10 
ROOT
HETATM    1  C9  UNL     1     -32.581   5.601   3.226  1.00 20.00     0.004 C 
ENDROOT
BRANCH   1   2
HETATM    2  C7  UNL     1     -32.370   7.092   3.498  1.00 20.00     0.026 C 
BRANCH   2   3
HETATM    3  C3  UNL     1     -32.007   7.827   2.239  1.00 20.00    -0.031 C 
HETATM    4  C1  UNL     1     -32.534   9.010   1.889  1.00 20.00    -0.035 C 
HETATM    5  C5  UNL     1     -32.178   9.739   0.635  1.00 20.00     0.035 C 
ENDBRANCH   2   3
ENDBRANCH   1   2
BRANCH   1   6
HETATM    6  C10 UNL     1     -33.977   5.329   2.663  1.00 20.00     0.004 C 
BRANCH   6   7
HETATM    7  C8  UNL     1     -35.062   5.632   3.699  1.00 20.00     0.026 C 
BRANCH   7   8
HETATM    8  C4  UNL     1     -35.113   4.572   4.761  1.00 20.00    -0.031 C 
HETATM    9  C2  UNL     1     -34.763   4.779   6.038  1.00 20.00    -0.035 C 
HETATM   10  C6  UNL     1     -34.279   6.089   6.566  1.00 20.00     0.035 C 
ENDBRANCH   7   8
ENDBRANCH   6   7
ENDBRANCH   1   6
TORSDOF 5
ENDMDL
MODEL 2
REMARK VINA RESULT:      -5.2      0.871      4.487
REMARK  5 active torsions:
REMARK  status: ('A' for Active; 'I' for Inactive)
REMARK    1  A    between atoms: C3_3  and  C7_7 
REMARK    2  A    between atoms: C4_4  and  C8_8 
REMARK    3  A    between atoms: C7_7  and  C9_9 
REMARK    4  A    between atoms: C8_8  and  C10_10 
REMARK    5  A    between atoms: C9_9  and  C10_10 
ROOT
HETATM    1  C9  UNL     1     -34.864   4.161   4.399  1.00 20.00     0.004 C 
ENDROOT
BRANCH   1   2
HETATM    2  C7  UNL     1     -35.216   4.395   5.870  1.00 20.00     0.026 C 
BRANCH   2   3
HETATM    3  C3  UNL     1     -34.210   5.292   6.533  1.00 20.00    -0.031 C 
HETATM    4  C1  UNL     1     -34.220   6.629   6.426  1.00 20.00    -0.035 C 
HETATM    5  C5  UNL     1     -33.217   7.522   7.080  1.00 20.00     0.035 C 
ENDBRANCH   2   3
ENDBRANCH   1   2
BRANCH   1   6
HETATM    6  C10 UNL     1     -35.001   5.447   3.583  1.00 20.00     0.004 C 
BRANCH   6   7
HETATM    7  C8  UNL     1     -33.794   5.653   2.665  1.00 20.00     0.026 C 
BRANCH   7   8
HETATM    8  C4  UNL     1     -32.580   6.068   3.445  1.00 20.00    -0.031 C 
HETATM    9  C2  UNL     1     -31.884   7.186   3.201  1.00 20.00    -0.035 C 
HETATM   10  C6  UNL     1     -32.226   8.161   2.123  1.00 20.00     0.035 C 
ENDBRANCH   7   8
ENDBRANCH   6   7
ENDBRANCH   1   6
TORSDOF 5
ENDMDL
MODEL 3
REMARK VINA RESULT:      -5.1      0.828      1.116
REMARK  5 active torsions:
REMARK  status: ('A' for Active; 'I' for Inactive)
REMARK    1  A    between atoms: C3_3  and  C7_7 
REMARK    2  A    between atoms: C4_4  and  C8_8 
REMARK    3  A    between atoms: C7_7  and  C9_9 
REMARK    4  A    between atoms: C8_8  and  C10_10 
REMARK    5  A    between atoms: C9_9  and  C10_10 
ROOT
HETATM    1  C9  UNL     1     -32.192   5.967   3.401  1.00 20.00     0.004 C 
ENDROOT
BRANCH   1   2
HETATM    2  C7  UNL     1     -31.602   7.375   3.288  1.00 20.00     0.026 C 
BRANCH   2   3
HETATM    3  C3  UNL     1     -32.330   8.187   2.255  1.00 20.00    -0.031 C 
HETATM    4  C1  UNL     1     -31.776   8.599   1.105  1.00 20.00    -0.035 C 
HETATM    5  C5  UNL     1     -32.497   9.412   0.081  1.00 20.00     0.035 C 
ENDBRANCH   2   3
ENDBRANCH   1   2
BRANCH   1   6
HETATM    6  C10 UNL     1     -33.573   5.889   2.749  1.00 20.00     0.004 C 
BRANCH   6   7
HETATM    7  C8  UNL     1     -34.675   5.733   3.799  1.00 20.00     0.026 C 
BRANCH   7   8
HETATM    8  C4  UNL     1     -34.202   6.175   5.154  1.00 20.00    -0.031 C 
HETATM    9  C2  UNL     1     -34.432   5.491   6.283  1.00 20.00    -0.035 C 
HETATM   10  C6  UNL     1     -35.187   4.204   6.337  1.00 20.00     0.035 C 
ENDBRANCH   7   8
ENDBRANCH   6   7
ENDBRANCH   1   6
TORSDOF 5
ENDMDL
MODEL 4
REMARK VINA RESULT:      -4.7      0.937      5.315
REMARK  5 active torsions:
REMARK  status: ('A' for Active; 'I' for Inactive)
REMARK    1  A    between atoms: C3_3  and  C7_7 
REMARK    2  A    between atoms: C4_4  and  C8_8 
REMARK    3  A    between atoms: C7_7  and  C9_9 
REMARK    4  A    between atoms: C8_8  and  C10_10 
REMARK    5  A    between atoms: C9_9  and  C10_10 
ROOT
HETATM    1  C9  UNL     1     -33.156   5.753   2.543  1.00 20.00     0.004 C 
ENDROOT
BRANCH   1   2
HETATM    2  C7  UNL     1     -34.590   5.382   2.926  1.00 20.00     0.026 C 
BRANCH   2   3
HETATM    3  C3  UNL     1     -34.790   5.445   4.413  1.00 20.00    -0.031 C 
HETATM    4  C1  UNL     1     -34.979   4.366   5.187  1.00 20.00    -0.035 C 
HETATM    5  C5  UNL     1     -35.183   4.429   6.664  1.00 20.00     0.035 C 
ENDBRANCH   2   3
ENDBRANCH   1   2
BRANCH   1   6
HETATM    6  C10 UNL     1     -32.440   6.464   3.693  1.00 20.00     0.004 C 
BRANCH   6   7
HETATM    7  C8  UNL     1     -31.795   7.770   3.223  1.00 20.00     0.026 C 
BRANCH   7   8
HETATM    8  C4  UNL     1     -31.790   7.866   1.725  1.00 20.00    -0.031 C 
HETATM    9  C2  UNL     1     -32.193   8.951   1.047  1.00 20.00    -0.035 C 
HETATM   10  C6  UNL     1     -32.696  10.198   1.695  1.00 20.00     0.035 C 
ENDBRANCH   7   8
ENDBRANCH   6   7
ENDBRANCH   1   6
TORSDOF 5
ENDMDL
MODEL 5
REMARK VINA RESULT:      -4.3     10.536     11.936
REMARK  5 active torsions:
REMARK  status: ('A' for Active; 'I' for Inactive)
REMARK    1  A    between atoms: C3_3  and  C7_7 
REMARK    2  A    between atoms: C4_4  and  C8_8 
REMARK    3  A    between atoms: C7_7  and  C9_9 
REMARK    4  A    between atoms: C8_8  and  C10_10 
REMARK    5  A    between atoms: C9_9  and  C10_10 
ROOT
HETATM    1  C9  UNL     1     -34.166  13.867  -3.542  1.00 20.00     0.004 C 
ENDROOT
BRANCH   1   2
HETATM    2  C7  UNL     1     -34.432  13.271  -4.926  1.00 20.00     0.026 C 
BRANCH   2   3
HETATM    3  C3  UNL     1     -35.096  14.271  -5.829  1.00 20.00    -0.031 C 
HETATM    4  C1  UNL     1     -34.532  14.759  -6.943  1.00 20.00    -0.035 C 
HETATM    5  C5  UNL     1     -35.189  15.757  -7.838  1.00 20.00     0.035 C 
ENDBRANCH   2   3
ENDBRANCH   1   2
BRANCH   1   6
HETATM    6  C10 UNL     1     -33.137  14.997  -3.611  1.00 20.00     0.004 C 
BRANCH   6   7
HETATM    7  C8  UNL     1     -33.710  16.304  -3.058  1.00 20.00     0.026 C 
BRANCH   7   8
HETATM    8  C4  UNL     1     -34.663  16.046  -1.928  1.00 20.00    -0.031 C 
HETATM    9  C2  UNL     1     -34.634  16.709  -0.763  1.00 20.00    -0.035 C 
HETATM   10  C6  UNL     1     -33.651  17.786  -0.443  1.00 20.00     0.035 C 
ENDBRANCH   7   8
ENDBRANCH   6   7
ENDBRANCH   1   6
TORSDOF 5
ENDMDL
MODEL 6
REMARK VINA RESULT:      -4.2     10.951     12.484
REMARK  5 active torsions:
REMARK  status: ('A' for Active; 'I' for Inactive)
REMARK    1  A    between atoms: C3_3  and  C7_7 
REMARK    2  A    between atoms: C4_4  and  C8_8 
REMARK    3  A    between atoms: C7_7  and  C9_9 
REMARK    4  A    between atoms: C8_8  and  C10_10 
REMARK    5  A    between atoms: C9_9  and  C10_10 
ROOT
HETATM    1  C9  UNL     1     -34.384  16.724  -5.978  1.00 20.00     0.004 C 
ENDROOT
BRANCH   1   2
HETATM    2  C7  UNL     1     -33.355  16.922  -4.863  1.00 20.00     0.026 C 
BRANCH   2   3
HETATM    3  C3  UNL     1     -34.026  17.132  -3.536  1.00 20.00    -0.031 C 
HETATM    4  C1  UNL     1     -33.852  16.327  -2.477  1.00 20.00    -0.035 C 
HETATM    5  C5  UNL     1     -34.523  16.532  -1.159  1.00 20.00     0.035 C 
ENDBRANCH   2   3
ENDBRANCH   1   2
BRANCH   1   6
HETATM    6  C10 UNL     1     -34.092  15.459  -6.787  1.00 20.00     0.004 C 
BRANCH   6   7
HETATM    7  C8  UNL     1     -35.151  14.383  -6.536  1.00 20.00     0.026 C 
BRANCH   7   8
HETATM    8  C4  UNL     1     -34.819  13.563  -5.323  1.00 20.00    -0.031 C 
HETATM    9  C2  UNL     1     -35.517  13.608  -4.180  1.00 20.00    -0.035 C 
HETATM   10  C6  UNL     1     -36.712  14.479  -3.968  1.00 20.00     0.035 C 
ENDBRANCH   7   8
ENDBRANCH   6   7
ENDBRANCH   1   6
TORSDOF 5
ENDMDL
MODEL 7
REMARK VINA RESULT:      -4.2     10.503     12.434
REMARK  5 active torsions:
REMARK  status: ('A' for Active; 'I' for Inactive)
REMARK    1  A    between atoms: C3_3  and  C7_7 
REMARK    2  A    between atoms: C4_4  and  C8_8 
REMARK    3  A    between atoms: C7_7  and  C9_9 
REMARK    4  A    between atoms: C8_8  and  C10_10 
REMARK    5  A    between atoms: C9_9  and  C10_10 
ROOT
HETATM    1  C9  UNL     1     -34.022  13.889  -3.481  1.00 20.00     0.004 C 
ENDROOT
BRANCH   1   2
HETATM    2  C7  UNL     1     -34.975  15.005  -3.049  1.00 20.00     0.026 C 
BRANCH   2   3
HETATM    3  C3  UNL     1     -34.241  16.092  -2.317  1.00 20.00    -0.031 C 
HETATM    4  C1  UNL     1     -34.627  16.582  -1.129  1.00 20.00    -0.035 C 
HETATM    5  C5  UNL     1     -33.901  17.666  -0.403  1.00 20.00     0.035 C 
ENDBRANCH   2   3
ENDBRANCH   1   2
BRANCH   1   6
HETATM    6  C10 UNL     1     -34.435  13.295  -4.829  1.00 20.00     0.004 C 
BRANCH   6   7
HETATM    7  C8  UNL     1     -35.430  14.204  -5.554  1.00 20.00     0.026 C 
BRANCH   7   8
HETATM    8  C4  UNL     1     -34.911  14.613  -6.902  1.00 20.00    -0.031 C 
HETATM    9  C2  UNL     1     -34.294  15.779  -7.140  1.00 20.00    -0.035 C 
HETATM   10  C6  UNL     1     -34.044  16.816  -6.096  1.00 20.00     0.035 C 
ENDBRANCH   7   8
ENDBRANCH   6   7
ENDBRANCH   1   6
TORSDOF 5
ENDMDL
MODEL 8
REMARK VINA RESULT:      -4.2     10.480     12.126
REMARK  5 active torsions:
REMARK  status: ('A' for Active; 'I' for Inactive)
REMARK    1  A    between atoms: C3_3  and  C7_7 
REMARK    2  A    between atoms: C4_4  and  C8_8 
REMARK    3  A    between atoms: C7_7  and  C9_9 
REMARK    4  A    between atoms: C8_8  and  C10_10 
REMARK    5  A    between atoms: C9_9  and  C10_10 
ROOT
HETATM    1  C9  UNL     1     -32.985  14.977  -3.683  1.00 20.00     0.004 C 
ENDROOT
BRANCH   1   2
HETATM    2  C7  UNL     1     -33.560  16.346  -3.315  1.00 20.00     0.026 C 
BRANCH   2   3
HETATM    3  C3  UNL     1     -34.280  16.296  -1.998  1.00 20.00    -0.031 C 
HETATM    4  C1  UNL     1     -34.188  17.252  -1.061  1.00 20.00    -0.035 C 
HETATM    5  C5  UNL     1     -34.899  17.201   0.250  1.00 20.00     0.035 C 
ENDBRANCH   2   3
ENDBRANCH   1   2
BRANCH   1   6
HETATM    6  C10 UNL     1     -34.014  13.866  -3.471  1.00 20.00     0.004 C 
BRANCH   6   7
HETATM    7  C8  UNL     1     -34.510  13.306  -4.806  1.00 20.00     0.026 C 
BRANCH   7   8
HETATM    8  C4  UNL     1     -35.681  14.090  -5.324  1.00 20.00    -0.031 C 
HETATM    9  C2  UNL     1     -35.640  14.849  -6.428  1.00 20.00    -0.035 C 
HETATM   10  C6  UNL     1     -34.425  15.012  -7.281  1.00 20.00     0.035 C 
ENDBRANCH   7   8
ENDBRANCH   6   7
ENDBRANCH   1   6
TORSDOF 5
ENDMDL
MODEL 9
REMARK VINA RESULT:      -4.2     10.815     12.053
REMARK  5 active torsions:
REMARK  status: ('A' for Active; 'I' for Inactive)
REMARK    1  A    between atoms: C3_3  and  C7_7 
REMARK    2  A    between atoms: C4_4  and  C8_8 
REMARK    3  A    between atoms: C7_7  and  C9_9 
REMARK    4  A    between atoms: C8_8  and  C10_10 
REMARK    5  A    between atoms: C9_9  and  C10_10 
ROOT
HETATM    1  C9  UNL     1     -34.808  15.870  -2.190  1.00 20.00     0.004 C 
ENDROOT
BRANCH   1   2
HETATM    2  C7  UNL     1     -34.782  16.646  -0.871  1.00 20.00     0.026 C 
BRANCH   2   3
HETATM    3  C3  UNL     1     -33.724  17.712  -0.888  1.00 20.00    -0.031 C 
HETATM    4  C1  UNL     1     -33.140  18.199   0.216  1.00 20.00    -0.035 C 
HETATM    5  C5  UNL     1     -32.092  19.263   0.200  1.00 20.00     0.035 C 
ENDBRANCH   2   3
ENDBRANCH   1   2
BRANCH   1   6
HETATM    6  C10 UNL     1     -33.633  16.261  -3.088  1.00 20.00     0.004 C 
BRANCH   6   7
HETATM    7  C8  UNL     1     -32.968  15.026  -3.701  1.00 20.00     0.026 C 
BRANCH   7   8
HETATM    8  C4  UNL     1     -33.967  13.930  -3.937  1.00 20.00    -0.031 C 
HETATM    9  C2  UNL     1     -34.658  13.785  -5.076  1.00 20.00    -0.035 C 
HETATM   10  C6  UNL     1     -34.524  14.695  -6.252  1.00 20.00     0.035 C 
ENDBRANCH   7   8
ENDBRANCH   6   7
ENDBRANCH   1   6
TORSDOF 5
ENDMDL
