MODEL 1
REMARK VINA RESULT:      -5.6      0.000      0.000
REMARK  1 active torsions:
REMARK  status: ('A' for Active; 'I' for Inactive)
REMARK    1  A    between atoms: C7_7  and  C8_8 
ROOT
HETATM    1  C4  UNL     1     -33.667   6.137   5.832  1.00 20.00     0.038 C 
HETATM    2  C5  UNL     1     -34.929   5.593   6.492  1.00 20.00     0.270 C 
HETATM    3  C6  UNL     1     -34.846   3.973   4.640  1.00 20.00     0.307 C 
HETATM    4  C8  UNL     1     -33.855   6.293   4.316  1.00 20.00     0.027 C 
HETATM    5  C9  UNL     1     -34.769   5.203   3.742  1.00 20.00     0.202 C 
HETATM    6  N10 UNL     1     -35.331   4.280   5.988  1.00 20.00     0.086 N 
HETATM    7  F11 UNL     1     -36.029   5.719   3.626  1.00 20.00    -0.247 F 
HETATM    8  H27 UNL     1     -34.980   3.555   6.636  1.00 20.00     0.315 HD
ENDROOT
BRANCH   4   9
HETATM    9  C7  UNL     1     -32.490   6.264   3.628  1.00 20.00    -0.008 C 
HETATM   10  C2  UNL     1     -31.641   7.555   3.747  1.00 20.00     0.005 C 
HETATM   11  C1  UNL     1     -32.198   7.986   2.377  1.00 20.00     0.001 C 
HETATM   12  C3  UNL     1     -32.494   6.500   2.097  1.00 20.00     0.005 C 
ENDBRANCH   4   9
TORSDOF 1
ENDMDL
MODEL 2
REMARK VINA RESULT:      -4.6     11.650     12.546
REMARK  1 active torsions:
REMARK  status: ('A' for Active; 'I' for Inactive)
REMARK    1  A    between atoms: C7_7  and  C8_8 
ROOT
HETATM    1  C4  UNL     1     -35.530  15.191  -2.883  1.00 20.00     0.038 C 
HETATM    2  C5  UNL     1     -35.764  14.178  -3.998  1.00 20.00     0.270 C 
HETATM    3  C6  UNL     1     -33.341  13.808  -3.772  1.00 20.00     0.307 C 
HETATM    4  C8  UNL     1     -34.316  16.083  -3.187  1.00 20.00     0.027 C 
HETATM    5  C9  UNL     1     -33.226  15.318  -3.948  1.00 20.00     0.202 C 
HETATM    6  N10 UNL     1     -34.632  13.277  -4.215  1.00 20.00     0.086 N 
HETATM    7  F11 UNL     1     -33.359  15.598  -5.279  1.00 20.00    -0.247 F 
HETATM    8  H27 UNL     1     -34.814  12.392  -3.713  1.00 20.00     0.315 HD
ENDROOT
BRANCH   4   9
HETATM    9  C7  UNL     1     -33.760  16.649  -1.879  1.00 20.00    -0.008 C 
HETATM   10  C2  UNL     1     -34.751  16.713  -0.690  1.00 20.00     0.005 C 
HETATM   11  C1  UNL     1     -35.035  18.178  -1.074  1.00 20.00     0.001 C 
HETATM   12  C3  UNL     1     -33.671  18.193  -1.790  1.00 20.00     0.005 C 
ENDBRANCH   4   9
TORSDOF 1
ENDMDL
MODEL 3
REMARK VINA RESULT:      -4.6     11.671     12.812
REMARK  1 active torsions:
REMARK  status: ('A' for Active; 'I' for Inactive)
REMARK    1  A    between atoms: C7_7  and  C8_8 
ROOT
HETATM    1  C4  UNL     1     -34.666  16.048  -5.213  1.00 20.00     0.038 C 
HETATM    2  C5  UNL     1     -34.379  14.865  -6.130  1.00 20.00     0.270 C 
HETATM    3  C6  UNL     1     -35.223  13.557  -4.224  1.00 20.00     0.307 C 
HETATM    4  C8  UNL     1     -34.110  15.804  -3.802  1.00 20.00     0.027 C 
HETATM    5  C9  UNL     1     -34.188  14.324  -3.408  1.00 20.00     0.202 C 
HETATM    6  N10 UNL     1     -34.968  13.610  -5.665  1.00 20.00     0.086 N 
HETATM    7  F11 UNL     1     -32.967  13.756  -3.637  1.00 20.00    -0.247 F 
HETATM    8  H27 UNL     1     -35.861  13.459  -6.163  1.00 20.00     0.315 HD
ENDROOT
BRANCH   4   9
HETATM    9  C7  UNL     1     -34.876  16.667  -2.797  1.00 20.00    -0.008 C 
HETATM   10  C2  UNL     1     -34.258  18.051  -2.479  1.00 20.00     0.005 C 
HETATM   11  C1  UNL     1     -33.586  17.410  -1.249  1.00 20.00     0.001 C 
HETATM   12  C3  UNL     1     -34.669  16.316  -1.302  1.00 20.00     0.005 C 
ENDBRANCH   4   9
TORSDOF 1
ENDMDL
MODEL 4
REMARK VINA RESULT:      -4.6     11.938     13.067
REMARK  1 active torsions:
REMARK  status: ('A' for Active; 'I' for Inactive)
REMARK    1  A    between atoms: C7_7  and  C8_8 
ROOT
HETATM    1  C4  UNL     1     -34.249  14.158  -3.461  1.00 20.00     0.038 C 
HETATM    2  C5  UNL     1     -34.672  13.606  -4.818  1.00 20.00     0.270 C 
HETATM    3  C6  UNL     1     -33.991  15.835  -5.609  1.00 20.00     0.307 C 
HETATM    4  C8  UNL     1     -34.832  15.560  -3.225  1.00 20.00     0.027 C 
HETATM    5  C9  UNL     1     -34.929  16.361  -4.529  1.00 20.00     0.202 C 
HETATM    6  N10 UNL     1     -34.236  14.430  -5.944  1.00 20.00     0.086 N 
HETATM    7  F11 UNL     1     -36.209  16.260  -4.997  1.00 20.00    -0.247 F 
HETATM    8  H27 UNL     1     -33.366  14.028  -6.331  1.00 20.00     0.315 HD
ENDROOT
BRANCH   4   9
HETATM    9  C7  UNL     1     -33.971  16.303  -2.202  1.00 20.00    -0.008 C 
HETATM   10  C2  UNL     1     -34.626  16.561  -0.822  1.00 20.00     0.005 C 
HETATM   11  C1  UNL     1     -35.029  17.958  -1.334  1.00 20.00     0.001 C 
HETATM   12  C3  UNL     1     -33.893  17.841  -2.369  1.00 20.00     0.005 C 
ENDBRANCH   4   9
TORSDOF 1
ENDMDL
MODEL 5
REMARK VINA RESULT:      -4.4     11.625     12.808
REMARK  1 active torsions:
REMARK  status: ('A' for Active; 'I' for Inactive)
REMARK    1  A    between atoms: C7_7  and  C8_8 
ROOT
HETATM    1  C4  UNL     1     -35.943  16.423  -3.569  1.00 20.00     0.038 C 
HETATM    2  C5  UNL     1     -36.625  17.411  -2.630  1.00 20.00     0.270 C 
HETATM    3  C6  UNL     1     -34.309  17.988  -2.028  1.00 20.00     0.307 C 
HETATM    4  C8  UNL     1     -34.839  15.638  -2.844  1.00 20.00     0.027 C 
HETATM    5  C9  UNL     1     -34.140  16.493  -1.779  1.00 20.00     0.202 C 
HETATM    6  N10 UNL     1     -35.712  18.406  -2.067  1.00 20.00     0.086 N 
HETATM    7  F11 UNL     1     -34.697  16.202  -0.566  1.00 20.00    -0.247 F 
HETATM    8  H27 UNL     1     -35.781  19.272  -2.627  1.00 20.00     0.315 HD
ENDROOT
BRANCH   4   9
HETATM    9  C7  UNL     1     -33.825  15.122  -3.867  1.00 20.00    -0.008 C 
HETATM   10  C2  UNL     1     -34.395  14.741  -5.256  1.00 20.00     0.005 C 
HETATM   11  C1  UNL     1     -34.477  13.283  -4.766  1.00 20.00     0.001 C 
HETATM   12  C3  UNL     1     -33.404  13.638  -3.718  1.00 20.00     0.005 C 
ENDBRANCH   4   9
TORSDOF 1
ENDMDL
MODEL 6
REMARK VINA RESULT:      -4.3     12.264     13.196
REMARK  1 active torsions:
REMARK  status: ('A' for Active; 'I' for Inactive)
REMARK    1  A    between atoms: C7_7  and  C8_8 
ROOT
HETATM    1  C4  UNL     1     -34.690  16.582  -0.798  1.00 20.00     0.038 C 
HETATM    2  C5  UNL     1     -34.679  17.606   0.332  1.00 20.00     0.270 C 
HETATM    3  C6  UNL     1     -35.018  19.205  -1.508  1.00 20.00     0.307 C 
HETATM    4  C8  UNL     1     -33.788  17.025  -1.959  1.00 20.00     0.027 C 
HETATM    5  C9  UNL     1     -33.790  18.550  -2.129  1.00 20.00     0.202 C 
HETATM    6  N10 UNL     1     -35.150  18.929  -0.075  1.00 20.00     0.086 N 
HETATM    7  F11 UNL     1     -32.683  19.050  -1.503  1.00 20.00    -0.247 F 
HETATM    8  H27 UNL     1     -36.146  19.020   0.187  1.00 20.00     0.315 HD
ENDROOT
BRANCH   4   9
HETATM    9  C7  UNL     1     -34.245  16.342  -3.249  1.00 20.00    -0.008 C 
HETATM   10  C2  UNL     1     -34.467  14.811  -3.165  1.00 20.00     0.005 C 
HETATM   11  C1  UNL     1     -33.035  14.626  -3.705  1.00 20.00     0.001 C 
HETATM   12  C3  UNL     1     -33.138  16.048  -4.292  1.00 20.00     0.005 C 
ENDBRANCH   4   9
TORSDOF 1
ENDMDL
MODEL 7
REMARK VINA RESULT:      -4.2     11.853     13.435
REMARK  1 active torsions:
REMARK  status: ('A' for Active; 'I' for Inactive)
REMARK    1  A    between atoms: C7_7  and  C8_8 
ROOT
HETATM    1  C4  UNL     1     -34.721  14.148  -3.490  1.00 20.00     0.038 C 
HETATM    2  C5  UNL     1     -33.257  13.847  -3.793  1.00 20.00     0.270 C 
HETATM    3  C6  UNL     1     -33.254  16.164  -4.621  1.00 20.00     0.307 C 
HETATM    4  C8  UNL     1     -35.410  14.817  -4.689  1.00 20.00     0.027 C 
HETATM    5  C9  UNL     1     -34.447  15.727  -5.463  1.00 20.00     0.202 C 
HETATM    6  N10 UNL     1     -32.470  15.037  -4.111  1.00 20.00     0.086 N 
HETATM    7  F11 UNL     1     -33.971  15.029  -6.537  1.00 20.00    -0.247 F 
HETATM    8  H27 UNL     1     -31.972  15.342  -3.258  1.00 20.00     0.315 HD
ENDROOT
BRANCH   4   9
HETATM    9  C7  UNL     1     -36.623  15.611  -4.202  1.00 20.00    -0.008 C 
HETATM   10  C2  UNL     1     -37.938  14.810  -4.033  1.00 20.00     0.005 C 
HETATM   11  C1  UNL     1     -38.341  15.275  -5.446  1.00 20.00     0.001 C 
HETATM   12  C3  UNL     1     -37.361  16.452  -5.273  1.00 20.00     0.005 C 
ENDBRANCH   4   9
TORSDOF 1
ENDMDL
MODEL 8
REMARK VINA RESULT:      -4.2     11.788     13.696
REMARK  1 active torsions:
REMARK  status: ('A' for Active; 'I' for Inactive)
REMARK    1  A    between atoms: C7_7  and  C8_8 
ROOT
HETATM    1  C4  UNL     1     -34.911  14.324  -5.860  1.00 20.00     0.038 C 
HETATM    2  C5  UNL     1     -34.451  13.111  -5.060  1.00 20.00     0.270 C 
HETATM    3  C6  UNL     1     -34.616  14.666  -3.160  1.00 20.00     0.307 C 
HETATM    4  C8  UNL     1     -34.108  15.578  -5.480  1.00 20.00     0.027 C 
HETATM    5  C9  UNL     1     -33.721  15.575  -3.995  1.00 20.00     0.202 C 
HETATM    6  N10 UNL     1     -34.600  13.274  -3.615  1.00 20.00     0.086 N 
HETATM    7  F11 UNL     1     -32.439  15.116  -3.890  1.00 20.00    -0.247 F 
HETATM    8  H27 UNL     1     -35.481  12.822  -3.320  1.00 20.00     0.315 HD
ENDROOT
BRANCH   4   9
HETATM    9  C7  UNL     1     -34.924  16.826  -5.818  1.00 20.00    -0.008 C 
HETATM   10  C2  UNL     1     -34.517  17.573  -7.114  1.00 20.00     0.005 C 
HETATM   11  C1  UNL     1     -33.656  18.507  -6.242  1.00 20.00     0.001 C 
HETATM   12  C3  UNL     1     -34.546  18.116  -5.047  1.00 20.00     0.005 C 
ENDBRANCH   4   9
TORSDOF 1
ENDMDL
MODEL 9
REMARK VINA RESULT:      -4.1     12.021     13.256
REMARK  1 active torsions:
REMARK  status: ('A' for Active; 'I' for Inactive)
REMARK    1  A    between atoms: C7_7  and  C8_8 
ROOT
HETATM    1  C4  UNL     1     -34.458  16.292  -1.514  1.00 20.00     0.038 C 
HETATM    2  C5  UNL     1     -34.018  17.704  -1.143  1.00 20.00     0.270 C 
HETATM    3  C6  UNL     1     -35.355  18.323  -3.115  1.00 20.00     0.307 C 
HETATM    4  C8  UNL     1     -34.268  16.026  -3.014  1.00 20.00     0.027 C 
HETATM    5  C9  UNL     1     -34.509  17.290  -3.850  1.00 20.00     0.202 C 
HETATM    6  N10 UNL     1     -34.761  18.750  -1.846  1.00 20.00     0.086 N 
HETATM    7  F11 UNL     1     -33.297  17.857  -4.126  1.00 20.00    -0.247 F 
HETATM    8  H27 UNL     1     -35.515  19.091  -1.228  1.00 20.00     0.315 HD
ENDROOT
BRANCH   4   9
HETATM    9  C7  UNL     1     -35.209  14.904  -3.456  1.00 20.00    -0.008 C 
HETATM   10  C2  UNL     1     -34.538  13.551  -3.801  1.00 20.00     0.005 C 
HETATM   11  C1  UNL     1     -34.542  13.985  -5.279  1.00 20.00     0.001 C 
HETATM   12  C3  UNL     1     -35.686  14.957  -4.929  1.00 20.00     0.005 C 
ENDBRANCH   4   9
TORSDOF 1
ENDMDL
