MODEL 1
REMARK VINA RESULT:      -4.8      0.000      0.000
REMARK  1 active torsions:
REMARK  status: ('A' for Active; 'I' for Inactive)
REMARK    1  A    between atoms: C5_5  and  C6_6 
ROOT
HETATM    1  C1  UNL     1     -34.854   5.376   6.726  1.00 20.00     0.078 C 
HETATM    2  C2  UNL     1     -35.183   4.339   5.950  1.00 20.00    -0.018 C 
HETATM    3  C3  UNL     1     -33.959   6.435   6.222  1.00 20.00     0.283 C 
HETATM    4  C4  UNL     1     -34.737   4.248   4.530  1.00 20.00     0.061 C 
HETATM    5  C5  UNL     1     -34.511   5.655   3.993  1.00 20.00     0.149 C 
HETATM    6  O7  UNL     1     -33.477   7.264   6.985  1.00 20.00    -0.260 OA
HETATM    7  O8  UNL     1     -33.673   6.413   4.893  1.00 20.00    -0.311 OA
ENDROOT
BRANCH   5   8
HETATM    8  C6  UNL     1     -33.833   5.630   2.631  1.00 20.00     0.147 C 
HETATM    9 CL9  UNL     1     -32.299   6.521   2.691  1.00 20.00    -0.128 Cl
ENDBRANCH   5   8
TORSDOF 1
ENDMDL
MODEL 2
REMARK VINA RESULT:      -4.7      1.502      2.000
REMARK  1 active torsions:
REMARK  status: ('A' for Active; 'I' for Inactive)
REMARK    1  A    between atoms: C5_5  and  C6_6 
ROOT
HETATM    1  C1  UNL     1     -35.258   5.175   4.656  1.00 20.00     0.078 C 
HETATM    2  C2  UNL     1     -34.922   5.023   3.371  1.00 20.00    -0.018 C 
HETATM    3  C3  UNL     1     -34.344   5.854   5.594  1.00 20.00     0.283 C 
HETATM    4  C4  UNL     1     -33.665   5.599   2.815  1.00 20.00     0.061 C 
HETATM    5  C5  UNL     1     -33.271   6.815   3.643  1.00 20.00     0.149 C 
HETATM    6  O7  UNL     1     -34.536   5.804   6.803  1.00 20.00    -0.260 OA
HETATM    7  O8  UNL     1     -33.273   6.491   5.050  1.00 20.00    -0.311 OA
ENDROOT
BRANCH   5   8
HETATM    8  C6  UNL     1     -31.879   7.310   3.278  1.00 20.00     0.147 C 
HETATM    9 CL9  UNL     1     -31.937   8.257   1.778  1.00 20.00    -0.128 Cl
ENDBRANCH   5   8
TORSDOF 1
ENDMDL
MODEL 3
REMARK VINA RESULT:      -4.4      1.673      2.425
REMARK  1 active torsions:
REMARK  status: ('A' for Active; 'I' for Inactive)
REMARK    1  A    between atoms: C5_5  and  C6_6 
ROOT
HETATM    1  C1  UNL     1     -34.606   5.239   6.372  1.00 20.00     0.078 C 
HETATM    2  C2  UNL     1     -34.023   6.441   6.396  1.00 20.00    -0.018 C 
HETATM    3  C3  UNL     1     -34.844   4.548   5.091  1.00 20.00     0.283 C 
HETATM    4  C4  UNL     1     -33.515   7.092   5.155  1.00 20.00     0.061 C 
HETATM    5  C5  UNL     1     -33.162   6.013   4.140  1.00 20.00     0.149 C 
HETATM    6  O7  UNL     1     -35.569   3.560   5.037  1.00 20.00    -0.260 OA
HETATM    7  O8  UNL     1     -34.257   5.084   3.988  1.00 20.00    -0.311 OA
ENDROOT
BRANCH   5   8
HETATM    8  C6  UNL     1     -32.860   6.609   2.773  1.00 20.00     0.147 C 
HETATM    9 CL9  UNL     1     -31.719   7.959   2.929  1.00 20.00    -0.128 Cl
ENDBRANCH   5   8
TORSDOF 1
ENDMDL
MODEL 4
REMARK VINA RESULT:      -4.4     12.461     12.873
REMARK  1 active torsions:
REMARK  status: ('A' for Active; 'I' for Inactive)
REMARK    1  A    between atoms: C5_5  and  C6_6 
ROOT
HETATM    1  C1  UNL     1     -35.367  13.493  -4.493  1.00 20.00     0.078 C 
HETATM    2  C2  UNL     1     -34.048  13.602  -4.305  1.00 20.00    -0.018 C 
HETATM    3  C3  UNL     1     -36.300  14.404  -3.804  1.00 20.00     0.283 C 
HETATM    4  C4  UNL     1     -33.462  14.689  -3.471  1.00 20.00     0.061 C 
HETATM    5  C5  UNL     1     -34.405  15.884  -3.482  1.00 20.00     0.149 C 
HETATM    6  O7  UNL     1     -37.505  14.178  -3.793  1.00 20.00    -0.260 OA
HETATM    7  O8  UNL     1     -35.751  15.469  -3.161  1.00 20.00    -0.311 OA
ENDROOT
BRANCH   5   8
HETATM    8  C6  UNL     1     -33.985  16.936  -2.466  1.00 20.00     0.147 C 
HETATM    9 CL9  UNL     1     -34.568  16.498  -0.849  1.00 20.00    -0.128 Cl
ENDBRANCH   5   8
TORSDOF 1
ENDMDL
MODEL 5
REMARK VINA RESULT:      -4.3     12.651     13.654
REMARK  1 active torsions:
REMARK  status: ('A' for Active; 'I' for Inactive)
REMARK    1  A    between atoms: C5_5  and  C6_6 
ROOT
HETATM    1  C1  UNL     1     -34.624  14.455  -6.090  1.00 20.00     0.078 C 
HETATM    2  C2  UNL     1     -34.084  15.669  -6.225  1.00 20.00    -0.018 C 
HETATM    3  C3  UNL     1     -34.631  13.780  -4.778  1.00 20.00     0.283 C 
HETATM    4  C4  UNL     1     -33.547  16.424  -5.057  1.00 20.00     0.061 C 
HETATM    5  C5  UNL     1     -34.274  15.969  -3.799  1.00 20.00     0.149 C 
HETATM    6  O7  UNL     1     -34.918  12.591  -4.686  1.00 20.00    -0.260 OA
HETATM    7  O8  UNL     1     -34.267  14.528  -3.703  1.00 20.00    -0.311 OA
ENDROOT
BRANCH   5   8
HETATM    8  C6  UNL     1     -33.618  16.525  -2.543  1.00 20.00     0.147 C 
HETATM    9 CL9  UNL     1     -34.703  16.344  -1.151  1.00 20.00    -0.128 Cl
ENDBRANCH   5   8
TORSDOF 1
ENDMDL
MODEL 6
REMARK VINA RESULT:      -4.2      1.998      3.341
REMARK  1 active torsions:
REMARK  status: ('A' for Active; 'I' for Inactive)
REMARK    1  A    between atoms: C5_5  and  C6_6 
ROOT
HETATM    1  C1  UNL     1     -33.606   5.662   2.402  1.00 20.00     0.078 C 
HETATM    2  C2  UNL     1     -34.732   5.085   2.831  1.00 20.00    -0.018 C 
HETATM    3  C3  UNL     1     -32.830   6.545   3.294  1.00 20.00     0.283 C 
HETATM    4  C4  UNL     1     -35.206   5.235   4.237  1.00 20.00     0.061 C 
HETATM    5  C5  UNL     1     -34.005   5.495   5.137  1.00 20.00     0.149 C 
HETATM    6  O7  UNL     1     -31.928   7.248   2.851  1.00 20.00    -0.260 OA
HETATM    7  O8  UNL     1     -33.194   6.564   4.603  1.00 20.00    -0.311 OA
ENDROOT
BRANCH   5   8
HETATM    8  C6  UNL     1     -34.436   5.890   6.542  1.00 20.00     0.147 C 
HETATM    9 CL9  UNL     1     -33.648   7.404   7.024  1.00 20.00    -0.128 Cl
ENDBRANCH   5   8
TORSDOF 1
ENDMDL
MODEL 7
REMARK VINA RESULT:      -4.1     12.678     14.014
REMARK  1 active torsions:
REMARK  status: ('A' for Active; 'I' for Inactive)
REMARK    1  A    between atoms: C5_5  and  C6_6 
ROOT
HETATM    1  C1  UNL     1     -33.354  13.919  -3.728  1.00 20.00     0.078 C 
HETATM    2  C2  UNL     1     -32.839  15.151  -3.672  1.00 20.00    -0.018 C 
HETATM    3  C3  UNL     1     -34.481  13.618  -4.631  1.00 20.00     0.283 C 
HETATM    4  C4  UNL     1     -33.314  16.242  -4.570  1.00 20.00     0.061 C 
HETATM    5  C5  UNL     1     -33.866  15.624  -5.848  1.00 20.00     0.149 C 
HETATM    6  O7  UNL     1     -35.100  12.565  -4.532  1.00 20.00    -0.260 OA
HETATM    7  O8  UNL     1     -34.811  14.577  -5.537  1.00 20.00    -0.311 OA
ENDROOT
BRANCH   5   8
HETATM    8  C6  UNL     1     -34.579  16.660  -6.705  1.00 20.00     0.147 C 
HETATM    9 CL9  UNL     1     -33.889  18.271  -6.425  1.00 20.00    -0.128 Cl
ENDBRANCH   5   8
TORSDOF 1
ENDMDL
MODEL 8
REMARK VINA RESULT:      -4.0     12.454     13.027
REMARK  1 active torsions:
REMARK  status: ('A' for Active; 'I' for Inactive)
REMARK    1  A    between atoms: C5_5  and  C6_6 
ROOT
HETATM    1  C1  UNL     1     -33.803  14.251  -3.720  1.00 20.00     0.078 C 
HETATM    2  C2  UNL     1     -33.950  15.319  -2.931  1.00 20.00    -0.018 C 
HETATM    3  C3  UNL     1     -34.983  13.556  -4.268  1.00 20.00     0.283 C 
HETATM    4  C4  UNL     1     -35.290  15.903  -2.642  1.00 20.00     0.061 C 
HETATM    5  C5  UNL     1     -36.228  15.583  -3.798  1.00 20.00     0.149 C 
HETATM    6  O7  UNL     1     -34.872  12.458  -4.803  1.00 20.00    -0.260 OA
HETATM    7  O8  UNL     1     -36.183  14.174  -4.112  1.00 20.00    -0.311 OA
ENDROOT
BRANCH   5   8
HETATM    8  C6  UNL     1     -37.668  15.944  -3.465  1.00 20.00     0.147 C 
HETATM    9 CL9  UNL     1     -38.762  14.643  -3.974  1.00 20.00    -0.128 Cl
ENDBRANCH   5   8
TORSDOF 1
ENDMDL
MODEL 9
REMARK VINA RESULT:      -4.0     12.166     12.683
REMARK  1 active torsions:
REMARK  status: ('A' for Active; 'I' for Inactive)
REMARK    1  A    between atoms: C5_5  and  C6_6 
ROOT
HETATM    1  C1  UNL     1     -35.708  13.738  -4.187  1.00 20.00     0.078 C 
HETATM    2  C2  UNL     1     -36.509  14.766  -3.895  1.00 20.00    -0.018 C 
HETATM    3  C3  UNL     1     -34.274  13.785  -3.846  1.00 20.00     0.283 C 
HETATM    4  C4  UNL     1     -36.017  15.956  -3.143  1.00 20.00     0.061 C 
HETATM    5  C5  UNL     1     -34.844  15.536  -2.268  1.00 20.00     0.149 C 
HETATM    6  O7  UNL     1     -33.493  12.956  -4.300  1.00 20.00    -0.260 OA
HETATM    7  O8  UNL     1     -33.869  14.806  -3.044  1.00 20.00    -0.311 OA
ENDROOT
BRANCH   5   8
HETATM    8  C6  UNL     1     -34.146  16.741  -1.654  1.00 20.00     0.147 C 
HETATM    9 CL9  UNL     1     -34.810  17.082  -0.044  1.00 20.00    -0.128 Cl
ENDBRANCH   5   8
TORSDOF 1
ENDMDL
