MODEL 1
REMARK VINA RESULT:      -5.6      0.000      0.000
REMARK  2 active torsions:
REMARK  status: ('A' for Active; 'I' for Inactive)
REMARK    1  A    between atoms: C1_1  and  C3_3 
REMARK    2  A    between atoms: C2_2  and  C4_4 
ROOT
HETATM    1  C4  UNL     1     -34.364  15.079  -2.885  1.00 20.00     0.097 C 
HETATM    2  C5  UNL     1     -35.339  15.217  -4.087  1.00 20.00     0.074 C 
HETATM    3  C6  UNL     1     -33.262  14.719  -3.917  1.00 20.00     0.315 C 
HETATM    4  C7  UNL     1     -34.402  14.252  -4.864  1.00 20.00     0.312 C 
HETATM    5  C8  UNL     1     -36.760  14.740  -3.862  1.00 20.00     0.017 C 
HETATM    6  F10 UNL     1     -32.521  15.750  -4.388  1.00 20.00    -0.199 F 
HETATM    7  F11 UNL     1     -32.393  13.757  -3.534  1.00 20.00    -0.199 F 
HETATM    8  F12 UNL     1     -34.227  14.534  -6.173  1.00 20.00    -0.199 F 
HETATM    9  F13 UNL     1     -34.709  12.936  -4.782  1.00 20.00    -0.199 F 
ENDROOT
BRANCH   1  10
HETATM   10  C2  UNL     1     -34.133  16.309  -2.107  1.00 20.00    -0.012 C 
HETATM   11  C1  UNL     1     -34.665  16.528  -0.899  1.00 20.00     0.038 C 
BRANCH  11  12
HETATM   12  C3  UNL     1     -34.372  17.794  -0.202  1.00 20.00     0.258 C 
HETATM   13  O9  UNL     1     -33.229  18.223  -0.092  1.00 20.00    -0.302 OA
ENDBRANCH  11  12
ENDBRANCH   1  10
TORSDOF 2
ENDMDL
MODEL 2
REMARK VINA RESULT:      -5.3     11.739     12.594
REMARK  2 active torsions:
REMARK  status: ('A' for Active; 'I' for Inactive)
REMARK    1  A    between atoms: C1_1  and  C3_3 
REMARK    2  A    between atoms: C2_2  and  C4_4 
ROOT
HETATM    1  C4  UNL     1     -33.488   5.954   4.405  1.00 20.00     0.097 C 
HETATM    2  C5  UNL     1     -34.062   6.535   5.727  1.00 20.00     0.074 C 
HETATM    3  C6  UNL     1     -34.691   4.974   4.400  1.00 20.00     0.315 C 
HETATM    4  C7  UNL     1     -34.759   5.163   5.941  1.00 20.00     0.312 C 
HETATM    5  C8  UNL     1     -33.052   6.948   6.778  1.00 20.00     0.017 C 
HETATM    6  F10 UNL     1     -35.795   5.382   3.731  1.00 20.00    -0.199 F 
HETATM    7  F11 UNL     1     -34.422   3.718   3.980  1.00 20.00    -0.199 F 
HETATM    8  F12 UNL     1     -36.001   5.214   6.470  1.00 20.00    -0.199 F 
HETATM    9  F13 UNL     1     -34.062   4.252   6.660  1.00 20.00    -0.199 F 
ENDROOT
BRANCH   1  10
HETATM   10  C2  UNL     1     -33.424   6.893   3.271  1.00 20.00    -0.012 C 
HETATM   11  C1  UNL     1     -32.285   7.438   2.829  1.00 20.00     0.038 C 
BRANCH  11  12
HETATM   12  C3  UNL     1     -32.328   8.368   1.685  1.00 20.00     0.258 C 
HETATM   13  O9  UNL     1     -32.528   9.568   1.833  1.00 20.00    -0.302 OA
ENDBRANCH  11  12
ENDBRANCH   1  10
TORSDOF 2
ENDMDL
MODEL 3
REMARK VINA RESULT:      -5.3      2.560      4.130
REMARK  2 active torsions:
REMARK  status: ('A' for Active; 'I' for Inactive)
REMARK    1  A    between atoms: C1_1  and  C3_3 
REMARK    2  A    between atoms: C2_2  and  C4_4 
ROOT
HETATM    1  C4  UNL     1     -35.405  15.163  -4.260  1.00 20.00     0.097 C 
HETATM    2  C5  UNL     1     -34.558  14.918  -2.981  1.00 20.00     0.074 C 
HETATM    3  C6  UNL     1     -34.425  14.215  -5.000  1.00 20.00     0.315 C 
HETATM    4  C7  UNL     1     -33.368  14.582  -3.921  1.00 20.00     0.312 C 
HETATM    5  C8  UNL     1     -34.371  16.106  -2.057  1.00 20.00     0.017 C 
HETATM    6  F10 UNL     1     -34.767  12.905  -5.034  1.00 20.00    -0.199 F 
HETATM    7  F11 UNL     1     -34.111  14.569  -6.266  1.00 20.00    -0.199 F 
HETATM    8  F12 UNL     1     -32.570  13.570  -3.515  1.00 20.00    -0.199 F 
HETATM    9  F13 UNL     1     -32.558  15.617  -4.244  1.00 20.00    -0.199 F 
ENDROOT
BRANCH   1  10
HETATM   10  C2  UNL     1     -36.806  14.709  -4.194  1.00 20.00    -0.012 C 
HETATM   11  C1  UNL     1     -37.809  15.477  -3.754  1.00 20.00     0.038 C 
BRANCH  11  12
HETATM   12  C3  UNL     1     -39.178  14.926  -3.727  1.00 20.00     0.258 C 
HETATM   13  O9  UNL     1     -39.541  14.056  -4.509  1.00 20.00    -0.302 OA
ENDBRANCH  11  12
ENDBRANCH   1  10
TORSDOF 2
ENDMDL
MODEL 4
REMARK VINA RESULT:      -5.0      1.457      2.646
REMARK  2 active torsions:
REMARK  status: ('A' for Active; 'I' for Inactive)
REMARK    1  A    between atoms: C1_1  and  C3_3 
REMARK    2  A    between atoms: C2_2  and  C4_4 
ROOT
HETATM    1  C4  UNL     1     -34.884  15.970  -3.487  1.00 20.00     0.097 C 
HETATM    2  C5  UNL     1     -34.119  14.631  -3.300  1.00 20.00     0.074 C 
HETATM    3  C6  UNL     1     -36.058  15.132  -4.061  1.00 20.00     0.315 C 
HETATM    4  C7  UNL     1     -35.008  14.049  -4.433  1.00 20.00     0.312 C 
HETATM    5  C8  UNL     1     -32.627  14.663  -3.565  1.00 20.00     0.017 C 
HETATM    6  F10 UNL     1     -36.998  14.729  -3.174  1.00 20.00    -0.199 F 
HETATM    7  F11 UNL     1     -36.716  15.686  -5.103  1.00 20.00    -0.199 F 
HETATM    8  F12 UNL     1     -35.405  12.768  -4.265  1.00 20.00    -0.199 F 
HETATM    9  F13 UNL     1     -34.507  14.144  -5.686  1.00 20.00    -0.199 F 
ENDROOT
BRANCH   1  10
HETATM   10  C2  UNL     1     -35.176  16.716  -2.250  1.00 20.00    -0.012 C 
HETATM   11  C1  UNL     1     -34.556  16.486  -1.087  1.00 20.00     0.038 C 
BRANCH  11  12
HETATM   12  C3  UNL     1     -34.923  17.289   0.095  1.00 20.00     0.258 C 
HETATM   13  O9  UNL     1     -34.096  17.951   0.710  1.00 20.00    -0.302 OA
ENDBRANCH  11  12
ENDBRANCH   1  10
TORSDOF 2
ENDMDL
MODEL 5
REMARK VINA RESULT:      -4.9     12.123     13.559
REMARK  2 active torsions:
REMARK  status: ('A' for Active; 'I' for Inactive)
REMARK    1  A    between atoms: C1_1  and  C3_3 
REMARK    2  A    between atoms: C2_2  and  C4_4 
ROOT
HETATM    1  C4  UNL     1     -41.298   5.533  -1.691  1.00 20.00     0.097 C 
HETATM    2  C5  UNL     1     -42.575   6.357  -2.014  1.00 20.00     0.074 C 
HETATM    3  C6  UNL     1     -41.512   5.924  -0.205  1.00 20.00     0.315 C 
HETATM    4  C7  UNL     1     -42.291   7.166  -0.719  1.00 20.00     0.312 C 
HETATM    5  C8  UNL     1     -42.564   7.139  -3.312  1.00 20.00     0.017 C 
HETATM    6  F10 UNL     1     -42.244   5.066   0.543  1.00 20.00    -0.199 F 
HETATM    7  F11 UNL     1     -40.388   6.192   0.497  1.00 20.00    -0.199 F 
HETATM    8  F12 UNL     1     -43.379   7.514   0.004  1.00 20.00    -0.199 F 
HETATM    9  F13 UNL     1     -41.546   8.286  -0.872  1.00 20.00    -0.199 F 
ENDROOT
BRANCH   1  10
HETATM   10  C2  UNL     1     -41.377   4.092  -1.990  1.00 20.00    -0.012 C 
HETATM   11  C1  UNL     1     -42.342   3.546  -2.738  1.00 20.00     0.038 C 
BRANCH  11  12
HETATM   12  C3  UNL     1     -42.331   2.091  -2.978  1.00 20.00     0.258 C 
HETATM   13  O9  UNL     1     -41.442   1.547  -3.622  1.00 20.00    -0.302 OA
ENDBRANCH  11  12
ENDBRANCH   1  10
TORSDOF 2
ENDMDL
MODEL 6
REMARK VINA RESULT:      -4.8     11.065     12.292
REMARK  2 active torsions:
REMARK  status: ('A' for Active; 'I' for Inactive)
REMARK    1  A    between atoms: C1_1  and  C3_3 
REMARK    2  A    between atoms: C2_2  and  C4_4 
ROOT
HETATM    1  C4  UNL     1     -42.408   6.450  -2.021  1.00 20.00     0.097 C 
HETATM    2  C5  UNL     1     -41.257   5.500  -1.588  1.00 20.00     0.074 C 
HETATM    3  C6  UNL     1     -42.107   7.276  -0.743  1.00 20.00     0.315 C 
HETATM    4  C7  UNL     1     -41.510   5.978  -0.132  1.00 20.00     0.312 C 
HETATM    5  C8  UNL     1     -41.464   4.023  -1.857  1.00 20.00     0.017 C 
HETATM    6  F10 UNL     1     -41.226   8.295  -0.879  1.00 20.00    -0.199 F 
HETATM    7  F11 UNL     1     -43.186   7.777  -0.102  1.00 20.00    -0.199 F 
HETATM    8  F12 UNL     1     -40.405   6.144   0.629  1.00 20.00    -0.199 F 
HETATM    9  F13 UNL     1     -42.379   5.235   0.593  1.00 20.00    -0.199 F 
ENDROOT
BRANCH   1  10
HETATM   10  C2  UNL     1     -42.205   7.156  -3.300  1.00 20.00    -0.012 C 
HETATM   11  C1  UNL     1     -42.991   8.152  -3.724  1.00 20.00     0.038 C 
BRANCH  11  12
HETATM   12  C3  UNL     1     -42.703   8.793  -5.021  1.00 20.00     0.258 C 
HETATM   13  O9  UNL     1     -41.559   9.041  -5.380  1.00 20.00    -0.302 OA
ENDBRANCH  11  12
ENDBRANCH   1  10
TORSDOF 2
ENDMDL
MODEL 7
REMARK VINA RESULT:      -4.8      1.700      2.338
REMARK  2 active torsions:
REMARK  status: ('A' for Active; 'I' for Inactive)
REMARK    1  A    between atoms: C1_1  and  C3_3 
REMARK    2  A    between atoms: C2_2  and  C4_4 
ROOT
HETATM    1  C4  UNL     1     -33.747  16.107  -3.821  1.00 20.00     0.097 C 
HETATM    2  C5  UNL     1     -34.453  14.731  -3.963  1.00 20.00     0.074 C 
HETATM    3  C6  UNL     1     -34.713  16.631  -4.917  1.00 20.00     0.315 C 
HETATM    4  C7  UNL     1     -34.843  15.161  -5.403  1.00 20.00     0.312 C 
HETATM    5  C8  UNL     1     -33.570  13.504  -3.843  1.00 20.00     0.017 C 
HETATM    6  F10 UNL     1     -35.868  17.188  -4.482  1.00 20.00    -0.199 F 
HETATM    7  F11 UNL     1     -34.175  17.493  -5.808  1.00 20.00    -0.199 F 
HETATM    8  F12 UNL     1     -36.076  14.787  -5.812  1.00 20.00    -0.199 F 
HETATM    9  F13 UNL     1     -33.980  14.805  -6.382  1.00 20.00    -0.199 F 
ENDROOT
BRANCH   1  10
HETATM   10  C2  UNL     1     -33.868  16.753  -2.502  1.00 20.00    -0.012 C 
HETATM   11  C1  UNL     1     -34.646  16.283  -1.520  1.00 20.00     0.038 C 
BRANCH  11  12
HETATM   12  C3  UNL     1     -34.697  17.004  -0.234  1.00 20.00     0.258 C 
HETATM   13  O9  UNL     1     -33.889  17.881   0.049  1.00 20.00    -0.302 OA
ENDBRANCH  11  12
ENDBRANCH   1  10
TORSDOF 2
ENDMDL
MODEL 8
REMARK VINA RESULT:      -4.8      3.466      4.935
REMARK  2 active torsions:
REMARK  status: ('A' for Active; 'I' for Inactive)
REMARK    1  A    between atoms: C1_1  and  C3_3 
REMARK    2  A    between atoms: C2_2  and  C4_4 
ROOT
HETATM    1  C4  UNL     1     -34.359  14.657  -5.915  1.00 20.00     0.097 C 
HETATM    2  C5  UNL     1     -34.413  15.878  -4.956  1.00 20.00     0.074 C 
HETATM    3  C6  UNL     1     -34.433  13.758  -4.652  1.00 20.00     0.315 C 
HETATM    4  C7  UNL     1     -33.830  14.948  -3.856  1.00 20.00     0.312 C 
HETATM    5  C8  UNL     1     -33.568  17.077  -5.340  1.00 20.00     0.017 C 
HETATM    6  F10 UNL     1     -35.671  13.381  -4.256  1.00 20.00    -0.199 F 
HETATM    7  F11 UNL     1     -33.676  12.638  -4.686  1.00 20.00    -0.199 F 
HETATM    8  F12 UNL     1     -34.326  15.131  -2.613  1.00 20.00    -0.199 F 
HETATM    9  F13 UNL     1     -32.482  14.937  -3.745  1.00 20.00    -0.199 F 
ENDROOT
BRANCH   1  10
HETATM   10  C2  UNL     1     -35.487  14.534  -6.854  1.00 20.00    -0.012 C 
HETATM   11  C1  UNL     1     -36.577  15.309  -6.803  1.00 20.00     0.038 C 
BRANCH  11  12
HETATM   12  C3  UNL     1     -37.653  15.103  -7.791  1.00 20.00     0.258 C 
HETATM   13  O9  UNL     1     -38.799  14.832  -7.454  1.00 20.00    -0.302 OA
ENDBRANCH  11  12
ENDBRANCH   1  10
TORSDOF 2
ENDMDL
MODEL 9
REMARK VINA RESULT:      -4.8      3.002      3.972
REMARK  2 active torsions:
REMARK  status: ('A' for Active; 'I' for Inactive)
REMARK    1  A    between atoms: C1_1  and  C3_3 
REMARK    2  A    between atoms: C2_2  and  C4_4 
ROOT
HETATM    1  C4  UNL     1     -35.060  15.011  -3.182  1.00 20.00     0.097 C 
HETATM    2  C5  UNL     1     -34.390  14.678  -4.544  1.00 20.00     0.074 C 
HETATM    3  C6  UNL     1     -34.141  16.260  -3.122  1.00 20.00     0.315 C 
HETATM    4  C7  UNL     1     -33.164  15.498  -4.059  1.00 20.00     0.312 C 
HETATM    5  C8  UNL     1     -34.146  13.210  -4.834  1.00 20.00     0.017 C 
HETATM    6  F10 UNL     1     -34.647  17.404  -3.641  1.00 20.00    -0.199 F 
HETATM    7  F11 UNL     1     -33.652  16.569  -1.900  1.00 20.00    -0.199 F 
HETATM    8  F12 UNL     1     -32.553  16.248  -5.002  1.00 20.00    -0.199 F 
HETATM    9  F13 UNL     1     -32.195  14.796  -3.426  1.00 20.00    -0.199 F 
ENDROOT
BRANCH   1  10
HETATM   10  C2  UNL     1     -36.507  15.285  -3.233  1.00 20.00    -0.012 C 
HETATM   11  C1  UNL     1     -37.374  14.541  -3.929  1.00 20.00     0.038 C 
BRANCH  11  12
HETATM   12  C3  UNL     1     -38.804  14.900  -3.915  1.00 20.00     0.258 C 
HETATM   13  O9  UNL     1     -39.649  14.219  -4.484  1.00 20.00    -0.302 OA
ENDBRANCH  11  12
ENDBRANCH   1  10
TORSDOF 2
ENDMDL
