MODEL 1
REMARK VINA RESULT:      -5.1      0.000      0.000
REMARK  1 active torsions:
REMARK  status: ('A' for Active; 'I' for Inactive)
REMARK    1  A    between atoms: N9_9  and  O10_10 
ROOT
HETATM    1  C1  UNL     1     -34.065  14.473  -4.152  1.00 20.00     0.044 C 
HETATM    2  C2  UNL     1     -33.114  15.559  -3.681  1.00 20.00     0.058 C 
HETATM    3  C3  UNL     1     -33.340  16.662  -4.740  1.00 20.00     0.011 C 
HETATM    4  C4  UNL     1     -35.186  15.127  -7.701  1.00 20.00     0.001 C 
HETATM    5  C5  UNL     1     -35.180  14.079  -6.561  1.00 20.00     0.011 C 
HETATM    6  C6  UNL     1     -34.499  16.398  -7.143  1.00 20.00     0.005 C 
HETATM    7  C7  UNL     1     -34.835  14.910  -5.354  1.00 20.00     0.040 C 
HETATM    8  C8  UNL     1     -33.778  15.847  -5.938  1.00 20.00    -0.004 C 
HETATM    9  N9  UNL     1     -34.199  13.339  -3.556  1.00 20.00    -0.145 NA
ENDROOT
BRANCH   9  10
HETATM   10  O10 UNL     1     -35.149  12.585  -4.249  1.00 20.00    -0.266 OA
HETATM   11  H23 UNL     1     -34.667  11.753  -4.397  1.00 20.00     0.247 HD
ENDBRANCH   9  10
TORSDOF 1
ENDMDL
MODEL 2
REMARK VINA RESULT:      -4.9     12.373     13.813
REMARK  1 active torsions:
REMARK  status: ('A' for Active; 'I' for Inactive)
REMARK    1  A    between atoms: N9_9  and  O10_10 
ROOT
HETATM    1  C1  UNL     1     -34.164   5.989   6.105  1.00 20.00     0.044 C 
HETATM    2  C2  UNL     1     -35.282   4.963   6.116  1.00 20.00     0.058 C 
HETATM    3  C3  UNL     1     -35.129   4.309   4.723  1.00 20.00     0.011 C 
HETATM    4  C4  UNL     1     -32.885   6.537   2.592  1.00 20.00     0.001 C 
HETATM    5  C5  UNL     1     -32.834   7.075   4.044  1.00 20.00     0.011 C 
HETATM    6  C6  UNL     1     -33.773   5.268   2.617  1.00 20.00     0.005 C 
HETATM    7  C7  UNL     1     -33.373   5.918   4.841  1.00 20.00     0.040 C 
HETATM    8  C8  UNL     1     -34.500   5.434   3.928  1.00 20.00    -0.004 C 
HETATM    9  N9  UNL     1     -33.924   6.786   7.088  1.00 20.00    -0.145 NA
ENDROOT
BRANCH   9  10
HETATM   10  O10 UNL     1     -32.835   7.591   6.747  1.00 20.00    -0.266 OA
HETATM   11  H23 UNL     1     -32.865   8.268   7.445  1.00 20.00     0.247 HD
ENDBRANCH   9  10
TORSDOF 1
ENDMDL
MODEL 3
REMARK VINA RESULT:      -4.9      1.047      2.742
REMARK  1 active torsions:
REMARK  status: ('A' for Active; 'I' for Inactive)
REMARK    1  A    between atoms: N9_9  and  O10_10 
ROOT
HETATM    1  C1  UNL     1     -34.521  14.034  -5.294  1.00 20.00     0.044 C 
HETATM    2  C2  UNL     1     -34.794  14.392  -6.743  1.00 20.00     0.058 C 
HETATM    3  C3  UNL     1     -34.235  15.832  -6.826  1.00 20.00     0.011 C 
HETATM    4  C4  UNL     1     -33.725  17.129  -3.278  1.00 20.00     0.001 C 
HETATM    5  C5  UNL     1     -34.053  15.618  -3.180  1.00 20.00     0.011 C 
HETATM    6  C6  UNL     1     -33.669  17.477  -4.786  1.00 20.00     0.005 C 
HETATM    7  C7  UNL     1     -33.809  15.138  -4.586  1.00 20.00     0.040 C 
HETATM    8  C8  UNL     1     -34.388  16.299  -5.395  1.00 20.00    -0.004 C 
HETATM    9  N9  UNL     1     -34.840  12.900  -4.771  1.00 20.00    -0.145 NA
ENDROOT
BRANCH   9  10
HETATM   10  O10 UNL     1     -34.447  12.906  -3.431  1.00 20.00    -0.266 OA
HETATM   11  H23 UNL     1     -35.264  12.624  -2.986  1.00 20.00     0.247 HD
ENDBRANCH   9  10
TORSDOF 1
ENDMDL
MODEL 4
REMARK VINA RESULT:      -4.8      2.303      2.658
REMARK  1 active torsions:
REMARK  status: ('A' for Active; 'I' for Inactive)
REMARK    1  A    between atoms: N9_9  and  O10_10 
ROOT
HETATM    1  C1  UNL     1     -34.182  14.300  -3.733  1.00 20.00     0.044 C 
HETATM    2  C2  UNL     1     -33.010  15.256  -3.609  1.00 20.00     0.058 C 
HETATM    3  C3  UNL     1     -33.694  16.529  -3.059  1.00 20.00     0.011 C 
HETATM    4  C4  UNL     1     -37.460  16.169  -3.529  1.00 20.00     0.001 C 
HETATM    5  C5  UNL     1     -36.815  14.800  -3.862  1.00 20.00     0.011 C 
HETATM    6  C6  UNL     1     -36.313  17.103  -3.072  1.00 20.00     0.005 C 
HETATM    7  C7  UNL     1     -35.447  14.925  -3.246  1.00 20.00     0.040 C 
HETATM    8  C8  UNL     1     -35.101  16.372  -3.594  1.00 20.00    -0.004 C 
HETATM    9  N9  UNL     1     -34.071  13.094  -4.174  1.00 20.00    -0.145 NA
ENDROOT
BRANCH   9  10
HETATM   10  O10 UNL     1     -35.334  12.499  -4.155  1.00 20.00    -0.266 OA
HETATM   11  H23 UNL     1     -35.241  11.821  -4.847  1.00 20.00     0.247 HD
ENDBRANCH   9  10
TORSDOF 1
ENDMDL
MODEL 5
REMARK VINA RESULT:      -4.7     12.156     13.550
REMARK  1 active torsions:
REMARK  status: ('A' for Active; 'I' for Inactive)
REMARK    1  A    between atoms: N9_9  and  O10_10 
ROOT
HETATM    1  C1  UNL     1     -32.558   6.773   3.623  1.00 20.00     0.044 C 
HETATM    2  C2  UNL     1     -32.877   5.974   2.373  1.00 20.00     0.058 C 
HETATM    3  C3  UNL     1     -34.213   5.297   2.759  1.00 20.00     0.011 C 
HETATM    4  C4  UNL     1     -34.668   5.604   6.532  1.00 20.00     0.001 C 
HETATM    5  C5  UNL     1     -33.459   6.486   6.135  1.00 20.00     0.011 C 
HETATM    6  C6  UNL     1     -35.241   5.014   5.219  1.00 20.00     0.005 C 
HETATM    7  C7  UNL     1     -33.636   6.634   4.647  1.00 20.00     0.040 C 
HETATM    8  C8  UNL     1     -34.091   5.225   4.267  1.00 20.00    -0.004 C 
HETATM    9  N9  UNL     1     -31.503   7.501   3.751  1.00 20.00    -0.145 NA
ENDROOT
BRANCH   9  10
HETATM   10  O10 UNL     1     -31.524   8.092   5.016  1.00 20.00    -0.266 OA
HETATM   11  H23 UNL     1     -32.170   8.808   4.886  1.00 20.00     0.247 HD
ENDBRANCH   9  10
TORSDOF 1
ENDMDL
MODEL 6
REMARK VINA RESULT:      -4.6     12.532     13.657
REMARK  1 active torsions:
REMARK  status: ('A' for Active; 'I' for Inactive)
REMARK    1  A    between atoms: N9_9  and  O10_10 
ROOT
HETATM    1  C1  UNL     1     -34.641   5.245   5.675  1.00 20.00     0.044 C 
HETATM    2  C2  UNL     1     -34.156   6.163   6.782  1.00 20.00     0.058 C 
HETATM    3  C3  UNL     1     -33.450   7.282   5.982  1.00 20.00     0.011 C 
HETATM    4  C4  UNL     1     -32.908   6.051   2.415  1.00 20.00     0.001 C 
HETATM    5  C5  UNL     1     -33.820   5.024   3.129  1.00 20.00     0.011 C 
HETATM    6  C6  UNL     1     -32.648   7.196   3.425  1.00 20.00     0.005 C 
HETATM    7  C7  UNL     1     -34.307   5.795   4.328  1.00 20.00     0.040 C 
HETATM    8  C8  UNL     1     -33.035   6.543   4.728  1.00 20.00    -0.004 C 
HETATM    9  N9  UNL     1     -35.288   4.152   5.891  1.00 20.00    -0.145 NA
ENDROOT
BRANCH   9  10
HETATM   10  O10 UNL     1     -35.578   3.560   4.659  1.00 20.00    -0.266 OA
HETATM   11  H23 UNL     1     -35.161   2.687   4.760  1.00 20.00     0.247 HD
ENDBRANCH   9  10
TORSDOF 1
ENDMDL
MODEL 7
REMARK VINA RESULT:      -4.6      2.654      3.727
REMARK  1 active torsions:
REMARK  status: ('A' for Active; 'I' for Inactive)
REMARK    1  A    between atoms: N9_9  and  O10_10 
ROOT
HETATM    1  C1  UNL     1     -36.130  14.239  -3.800  1.00 20.00     0.044 C 
HETATM    2  C2  UNL     1     -35.153  13.391  -4.595  1.00 20.00     0.058 C 
HETATM    3  C3  UNL     1     -33.790  13.919  -4.091  1.00 20.00     0.011 C 
HETATM    4  C4  UNL     1     -34.376  17.214  -2.265  1.00 20.00     0.001 C 
HETATM    5  C5  UNL     1     -35.763  16.585  -2.550  1.00 20.00     0.011 C 
HETATM    6  C6  UNL     1     -33.316  16.208  -2.778  1.00 20.00     0.005 C 
HETATM    7  C7  UNL     1     -35.416  15.153  -2.860  1.00 20.00     0.040 C 
HETATM    8  C8  UNL     1     -34.143  15.335  -3.688  1.00 20.00    -0.004 C 
HETATM    9  N9  UNL     1     -37.409  14.140  -3.911  1.00 20.00    -0.145 NA
ENDROOT
BRANCH   9  10
HETATM   10  O10 UNL     1     -38.000  15.060  -3.042  1.00 20.00    -0.266 OA
HETATM   11  H23 UNL     1     -37.890  14.615  -2.183  1.00 20.00     0.247 HD
ENDBRANCH   9  10
TORSDOF 1
ENDMDL
MODEL 8
REMARK VINA RESULT:      -4.4      2.320      3.635
REMARK  1 active torsions:
REMARK  status: ('A' for Active; 'I' for Inactive)
REMARK    1  A    between atoms: N9_9  and  O10_10 
ROOT
HETATM    1  C1  UNL     1     -35.586  14.109  -4.074  1.00 20.00     0.044 C 
HETATM    2  C2  UNL     1     -37.076  14.395  -4.120  1.00 20.00     0.058 C 
HETATM    3  C3  UNL     1     -37.126  15.888  -3.719  1.00 20.00     0.011 C 
HETATM    4  C4  UNL     1     -33.756  16.841  -2.213  1.00 20.00     0.001 C 
HETATM    5  C5  UNL     1     -33.611  15.425  -2.823  1.00 20.00     0.011 C 
HETATM    6  C6  UNL     1     -35.195  17.318  -2.530  1.00 20.00     0.005 C 
HETATM    7  C7  UNL     1     -34.807  15.335  -3.732  1.00 20.00     0.040 C 
HETATM    8  C8  UNL     1     -35.875  16.017  -2.877  1.00 20.00    -0.004 C 
HETATM    9  N9  UNL     1     -35.077  12.954  -4.334  1.00 20.00    -0.145 NA
ENDROOT
BRANCH   9  10
HETATM   10  O10 UNL     1     -33.690  13.043  -4.198  1.00 20.00    -0.266 OA
HETATM   11  H23 UNL     1     -33.431  12.105  -4.217  1.00 20.00     0.247 HD
ENDBRANCH   9  10
TORSDOF 1
ENDMDL
MODEL 9
REMARK VINA RESULT:      -4.4      2.720      3.236
REMARK  1 active torsions:
REMARK  status: ('A' for Active; 'I' for Inactive)
REMARK    1  A    between atoms: N9_9  and  O10_10 
ROOT
HETATM    1  C1  UNL     1     -36.446  15.676  -3.239  1.00 20.00     0.044 C 
HETATM    2  C2  UNL     1     -36.061  16.994  -2.594  1.00 20.00     0.058 C 
HETATM    3  C3  UNL     1     -34.541  17.051  -2.866  1.00 20.00     0.011 C 
HETATM    4  C4  UNL     1     -33.378  13.577  -3.923  1.00 20.00     0.001 C 
HETATM    5  C5  UNL     1     -34.927  13.561  -3.887  1.00 20.00     0.011 C 
HETATM    6  C6  UNL     1     -32.940  15.023  -3.582  1.00 20.00     0.005 C 
HETATM    7  C7  UNL     1     -35.270  15.027  -3.891  1.00 20.00     0.040 C 
HETATM    8  C8  UNL     1     -34.194  15.580  -2.957  1.00 20.00    -0.004 C 
HETATM    9  N9  UNL     1     -37.647  15.210  -3.242  1.00 20.00    -0.145 NA
ENDROOT
BRANCH   9  10
HETATM   10  O10 UNL     1     -37.645  13.987  -3.916  1.00 20.00    -0.266 OA
HETATM   11  H23 UNL     1     -38.021  13.393  -3.244  1.00 20.00     0.247 HD
ENDBRANCH   9  10
TORSDOF 1
ENDMDL
