MODEL 1
REMARK VINA RESULT:      -4.8      0.000      0.000
REMARK  0 active torsions:
REMARK  status: ('A' for Active; 'I' for Inactive)
ROOT
HETATM    1  C1  UNL     1     -32.786   6.865   4.057  1.00 20.00     0.088 C 
HETATM    2  C2  UNL     1     -35.110   4.952   6.331  1.00 20.00     0.001 C 
HETATM    3  C3  UNL     1     -33.989   6.026   6.317  1.00 20.00     0.010 C 
HETATM    4  C4  UNL     1     -35.358   4.555   4.852  1.00 20.00     0.007 C 
HETATM    5  C5  UNL     1     -33.910   5.452   2.759  1.00 20.00     0.153 C 
HETATM    6  C6  UNL     1     -33.954   6.423   4.867  1.00 20.00     0.031 C 
HETATM    7  C7  UNL     1     -34.102   5.069   4.202  1.00 20.00     0.014 C 
HETATM    8  N8  UNL     1     -32.750   6.400   2.839  1.00 20.00    -0.305 NA
ENDROOT
TORSDOF 0
ENDMDL
MODEL 2
REMARK VINA RESULT:      -4.6      1.709      3.435
REMARK  0 active torsions:
REMARK  status: ('A' for Active; 'I' for Inactive)
ROOT
HETATM    1  C1  UNL     1     -35.314   4.383   4.832  1.00 20.00     0.088 C 
HETATM    2  C2  UNL     1     -32.879   6.512   2.890  1.00 20.00     0.001 C 
HETATM    3  C3  UNL     1     -33.881   5.334   2.758  1.00 20.00     0.010 C 
HETATM    4  C4  UNL     1     -32.939   6.977   4.368  1.00 20.00     0.007 C 
HETATM    5  C5  UNL     1     -34.374   5.760   6.304  1.00 20.00     0.153 C 
HETATM    6  C6  UNL     1     -34.685   5.462   4.022  1.00 20.00     0.031 C 
HETATM    7  C7  UNL     1     -33.589   5.787   5.019  1.00 20.00     0.014 C 
HETATM    8  N8  UNL     1     -35.226   4.538   6.123  1.00 20.00    -0.305 NA
ENDROOT
TORSDOF 0
ENDMDL
MODEL 3
REMARK VINA RESULT:      -4.5      0.218      1.842
REMARK  0 active torsions:
REMARK  status: ('A' for Active; 'I' for Inactive)
ROOT
HETATM    1  C1  UNL     1     -33.698   5.679   2.829  1.00 20.00     0.088 C 
HETATM    2  C2  UNL     1     -35.178   4.951   6.222  1.00 20.00     0.001 C 
HETATM    3  C3  UNL     1     -35.283   4.590   4.715  1.00 20.00     0.010 C 
HETATM    4  C4  UNL     1     -34.015   5.969   6.350  1.00 20.00     0.007 C 
HETATM    5  C5  UNL     1     -32.654   7.015   4.268  1.00 20.00     0.153 C 
HETATM    6  C6  UNL     1     -33.981   5.112   4.176  1.00 20.00     0.031 C 
HETATM    7  C7  UNL     1     -33.874   6.427   4.924  1.00 20.00     0.014 C 
HETATM    8  N8  UNL     1     -32.901   6.711   2.819  1.00 20.00    -0.305 NA
ENDROOT
TORSDOF 0
ENDMDL
MODEL 4
REMARK VINA RESULT:      -4.3      1.711      2.957
REMARK  0 active torsions:
REMARK  status: ('A' for Active; 'I' for Inactive)
ROOT
HETATM    1  C1  UNL     1     -34.337   5.762   6.287  1.00 20.00     0.088 C 
HETATM    2  C2  UNL     1     -32.939   6.584   2.881  1.00 20.00     0.001 C 
HETATM    3  C3  UNL     1     -32.919   7.018   4.372  1.00 20.00     0.010 C 
HETATM    4  C4  UNL     1     -33.865   5.342   2.797  1.00 20.00     0.007 C 
HETATM    5  C5  UNL     1     -35.292   4.348   4.861  1.00 20.00     0.153 C 
HETATM    6  C6  UNL     1     -33.501   5.813   5.057  1.00 20.00     0.031 C 
HETATM    7  C7  UNL     1     -34.617   5.455   4.095  1.00 20.00     0.014 C 
HETATM    8  N8  UNL     1     -35.318   4.904   6.254  1.00 20.00    -0.305 NA
ENDROOT
TORSDOF 0
ENDMDL
MODEL 5
REMARK VINA RESULT:      -4.0     12.103     13.502
REMARK  0 active torsions:
REMARK  status: ('A' for Active; 'I' for Inactive)
ROOT
HETATM    1  C1  UNL     1     -34.942  13.562  -5.609  1.00 20.00     0.088 C 
HETATM    2  C2  UNL     1     -33.411  16.994  -5.278  1.00 20.00     0.001 C 
HETATM    3  C3  UNL     1     -34.046  16.008  -6.295  1.00 20.00     0.010 C 
HETATM    4  C4  UNL     1     -33.457  16.290  -3.896  1.00 20.00     0.007 C 
HETATM    5  C5  UNL     1     -34.292  13.756  -3.491  1.00 20.00     0.153 C 
HETATM    6  C6  UNL     1     -34.726  15.019  -5.391  1.00 20.00     0.031 C 
HETATM    7  C7  UNL     1     -33.676  14.860  -4.309  1.00 20.00     0.014 C 
HETATM    8  N8  UNL     1     -34.777  12.814  -4.554  1.00 20.00    -0.305 NA
ENDROOT
TORSDOF 0
ENDMDL
MODEL 6
REMARK VINA RESULT:      -4.0     12.007     13.322
REMARK  0 active torsions:
REMARK  status: ('A' for Active; 'I' for Inactive)
ROOT
HETATM    1  C1  UNL     1     -34.257  13.650  -3.537  1.00 20.00     0.088 C 
HETATM    2  C2  UNL     1     -33.430  17.006  -5.047  1.00 20.00     0.001 C 
HETATM    3  C3  UNL     1     -33.410  16.201  -3.720  1.00 20.00     0.010 C 
HETATM    4  C4  UNL     1     -33.973  16.046  -6.137  1.00 20.00     0.007 C 
HETATM    5  C5  UNL     1     -34.890  13.552  -5.667  1.00 20.00     0.153 C 
HETATM    6  C6  UNL     1     -33.572  14.788  -4.209  1.00 20.00     0.031 C 
HETATM    7  C7  UNL     1     -34.618  14.983  -5.289  1.00 20.00     0.014 C 
HETATM    8  N8  UNL     1     -34.957  12.883  -4.325  1.00 20.00    -0.305 NA
ENDROOT
TORSDOF 0
ENDMDL
MODEL 7
REMARK VINA RESULT:      -4.0      9.596     10.478
REMARK  0 active torsions:
REMARK  status: ('A' for Active; 'I' for Inactive)
ROOT
HETATM    1  C1  UNL     1     -42.673   4.378  -2.717  1.00 20.00     0.088 C 
HETATM    2  C2  UNL     1     -40.682   6.137  -0.039  1.00 20.00     0.001 C 
HETATM    3  C3  UNL     1     -41.178   4.742  -0.506  1.00 20.00     0.010 C 
HETATM    4  C4  UNL     1     -41.187   7.159  -1.091  1.00 20.00     0.007 C 
HETATM    5  C5  UNL     1     -42.800   6.552  -3.169  1.00 20.00     0.153 C 
HETATM    6  C6  UNL     1     -41.582   5.013  -1.929  1.00 20.00     0.031 C 
HETATM    7  C7  UNL     1     -42.262   6.359  -1.776  1.00 20.00     0.014 C 
HETATM    8  N8  UNL     1     -43.346   5.191  -3.484  1.00 20.00    -0.305 NA
ENDROOT
TORSDOF 0
ENDMDL
MODEL 8
REMARK VINA RESULT:      -3.8     11.650     12.540
REMARK  0 active torsions:
REMARK  status: ('A' for Active; 'I' for Inactive)
ROOT
HETATM    1  C1  UNL     1     -35.600  13.604  -4.383  1.00 20.00     0.088 C 
HETATM    2  C2  UNL     1     -34.996  16.959  -2.767  1.00 20.00     0.001 C 
HETATM    3  C3  UNL     1     -36.073  16.099  -3.482  1.00 20.00     0.010 C 
HETATM    4  C4  UNL     1     -33.719  16.084  -2.681  1.00 20.00     0.007 C 
HETATM    5  C5  UNL     1     -33.456  13.638  -3.793  1.00 20.00     0.153 C 
HETATM    6  C6  UNL     1     -35.473  14.722  -3.408  1.00 20.00     0.031 C 
HETATM    7  C7  UNL     1     -34.021  15.031  -3.713  1.00 20.00     0.014 C 
HETATM    8  N8  UNL     1     -34.509  12.920  -4.585  1.00 20.00    -0.305 NA
ENDROOT
TORSDOF 0
ENDMDL
MODEL 9
REMARK VINA RESULT:      -3.8      9.729     10.488
REMARK  0 active torsions:
REMARK  status: ('A' for Active; 'I' for Inactive)
ROOT
HETATM    1  C1  UNL     1     -42.702   7.440  -3.009  1.00 20.00     0.088 C 
HETATM    2  C2  UNL     1     -40.722   6.032  -0.123  1.00 20.00     0.001 C 
HETATM    3  C3  UNL     1     -41.045   7.345  -0.887  1.00 20.00     0.010 C 
HETATM    4  C4  UNL     1     -41.547   4.911  -0.805  1.00 20.00     0.007 C 
HETATM    5  C5  UNL     1     -43.047   5.243  -3.025  1.00 20.00     0.153 C 
HETATM    6  C6  UNL     1     -42.270   6.959  -1.667  1.00 20.00     0.031 C 
HETATM    7  C7  UNL     1     -41.889   5.563  -2.118  1.00 20.00     0.014 C 
HETATM    8  N8  UNL     1     -43.209   6.525  -3.787  1.00 20.00    -0.305 NA
ENDROOT
TORSDOF 0
ENDMDL
