MODEL 1
REMARK VINA RESULT:      -4.7      0.000      0.000
REMARK  2 active torsions:
REMARK  status: ('A' for Active; 'I' for Inactive)
REMARK    1  A    between atoms: C4_4  and  C8_8 
REMARK    2  A    between atoms: C5_5  and  C9_9 
ROOT
HETATM    1  C1  UNL     1     -33.897  13.884  -4.078  1.00 20.00     0.139 C 
HETATM    2  C6  UNL     1     -34.784  13.244  -5.118  1.00 20.00     0.080 C 
HETATM    3  C7  UNL     1     -35.575  14.431  -5.656  1.00 20.00     0.017 C 
HETATM    4  C8  UNL     1     -35.677  15.419  -4.484  1.00 20.00     0.027 C 
HETATM    5  C9  UNL     1     -34.279  15.339  -3.806  1.00 20.00     0.041 C 
HETATM    6  C10 UNL     1     -33.256  16.239  -4.511  1.00 20.00     0.028 C 
HETATM    7  O11 UNL     1     -32.973  13.290  -3.534  1.00 20.00    -0.297 OA
ENDROOT
BRANCH   5   8
HETATM    8  C5  UNL     1     -34.272  15.630  -2.337  1.00 20.00    -0.019 C 
HETATM    9  C3  UNL     1     -33.884  16.794  -1.806  1.00 20.00     0.008 C 
ENDBRANCH   5   8
BRANCH   4  10
HETATM   10  C4  UNL     1     -36.835  15.054  -3.596  1.00 20.00    -0.031 C 
HETATM   11  C2  UNL     1     -38.064  14.780  -4.044  1.00 20.00     0.007 C 
ENDBRANCH   4  10
TORSDOF 2
ENDMDL
MODEL 2
REMARK VINA RESULT:      -4.6      1.591      1.943
REMARK  2 active torsions:
REMARK  status: ('A' for Active; 'I' for Inactive)
REMARK    1  A    between atoms: C4_4  and  C8_8 
REMARK    2  A    between atoms: C5_5  and  C9_9 
ROOT
HETATM    1  C1  UNL     1     -34.768  13.861  -4.760  1.00 20.00     0.139 C 
HETATM    2  C6  UNL     1     -34.926  14.072  -6.246  1.00 20.00     0.080 C 
HETATM    3  C7  UNL     1     -34.274  15.434  -6.459  1.00 20.00     0.017 C 
HETATM    4  C8  UNL     1     -34.486  16.198  -5.143  1.00 20.00     0.027 C 
HETATM    5  C9  UNL     1     -34.271  15.117  -4.045  1.00 20.00     0.041 C 
HETATM    6  C10 UNL     1     -32.783  14.924  -3.725  1.00 20.00     0.028 C 
HETATM    7  O11 UNL     1     -35.007  12.792  -4.210  1.00 20.00    -0.297 OA
ENDROOT
BRANCH   5   8
HETATM    8  C5  UNL     1     -35.030  15.347  -2.774  1.00 20.00    -0.019 C 
HETATM    9  C3  UNL     1     -34.604  16.132  -1.780  1.00 20.00     0.008 C 
ENDBRANCH   5   8
BRANCH   4  10
HETATM   10  C4  UNL     1     -35.841  16.851  -5.133  1.00 20.00    -0.031 C 
HETATM   11  C2  UNL     1     -36.035  18.171  -5.039  1.00 20.00     0.007 C 
ENDBRANCH   4  10
TORSDOF 2
ENDMDL
MODEL 3
REMARK VINA RESULT:      -4.6      1.614      3.478
REMARK  2 active torsions:
REMARK  status: ('A' for Active; 'I' for Inactive)
REMARK    1  A    between atoms: C4_4  and  C8_8 
REMARK    2  A    between atoms: C5_5  and  C9_9 
ROOT
HETATM    1  C1  UNL     1     -34.746  15.727  -5.128  1.00 20.00     0.139 C 
HETATM    2  C6  UNL     1     -33.309  16.148  -4.938  1.00 20.00     0.080 C 
HETATM    3  C7  UNL     1     -32.920  15.428  -3.651  1.00 20.00     0.017 C 
HETATM    4  C8  UNL     1     -34.218  15.312  -2.839  1.00 20.00     0.027 C 
HETATM    5  C9  UNL     1     -35.300  14.989  -3.910  1.00 20.00     0.041 C 
HETATM    6  C10 UNL     1     -35.341  13.492  -4.240  1.00 20.00     0.028 C 
HETATM    7  O11 UNL     1     -35.375  15.953  -6.156  1.00 20.00    -0.297 OA
ENDROOT
BRANCH   5   8
HETATM    8  C5  UNL     1     -36.681  15.466  -3.577  1.00 20.00    -0.019 C 
HETATM    9  C3  UNL     1     -37.796  14.782  -3.854  1.00 20.00     0.008 C 
ENDBRANCH   5   8
BRANCH   4  10
HETATM   10  C4  UNL     1     -34.457  16.574  -2.057  1.00 20.00    -0.031 C 
HETATM   11  C2  UNL     1     -34.625  16.613  -0.731  1.00 20.00     0.007 C 
ENDBRANCH   4  10
TORSDOF 2
ENDMDL
MODEL 4
REMARK VINA RESULT:      -4.6      1.312      3.575
REMARK  2 active torsions:
REMARK  status: ('A' for Active; 'I' for Inactive)
REMARK    1  A    between atoms: C4_4  and  C8_8 
REMARK    2  A    between atoms: C5_5  and  C9_9 
ROOT
HETATM    1  C1  UNL     1     -34.548  13.608  -4.501  1.00 20.00     0.139 C 
HETATM    2  C6  UNL     1     -33.327  13.946  -3.682  1.00 20.00     0.080 C 
HETATM    3  C7  UNL     1     -33.624  15.366  -3.214  1.00 20.00     0.017 C 
HETATM    4  C8  UNL     1     -34.498  15.985  -4.315  1.00 20.00     0.027 C 
HETATM    5  C9  UNL     1     -35.444  14.823  -4.737  1.00 20.00     0.041 C 
HETATM    6  C10 UNL     1     -36.654  14.711  -3.802  1.00 20.00     0.028 C 
HETATM    7  O11 UNL     1     -34.783  12.476  -4.912  1.00 20.00    -0.297 OA
ENDROOT
BRANCH   5   8
HETATM    8  C5  UNL     1     -35.913  14.876  -6.158  1.00 20.00    -0.019 C 
HETATM    9  C3  UNL     1     -37.079  15.405  -6.542  1.00 20.00     0.008 C 
ENDBRANCH   5   8
BRANCH   4  10
HETATM   10  C4  UNL     1     -33.634  16.533  -5.418  1.00 20.00    -0.031 C 
HETATM   11  C2  UNL     1     -33.627  17.815  -5.795  1.00 20.00     0.007 C 
ENDBRANCH   4  10
TORSDOF 2
ENDMDL
MODEL 5
REMARK VINA RESULT:      -4.4      2.122      3.931
REMARK  2 active torsions:
REMARK  status: ('A' for Active; 'I' for Inactive)
REMARK    1  A    between atoms: C4_4  and  C8_8 
REMARK    2  A    between atoms: C5_5  and  C9_9 
ROOT
HETATM    1  C1  UNL     1     -35.116  17.070  -4.045  1.00 20.00     0.139 C 
HETATM    2  C6  UNL     1     -34.998  18.421  -3.383  1.00 20.00     0.080 C 
HETATM    3  C7  UNL     1     -33.796  18.236  -2.463  1.00 20.00     0.017 C 
HETATM    4  C8  UNL     1     -33.797  16.747  -2.084  1.00 20.00     0.027 C 
HETATM    5  C9  UNL     1     -34.202  16.027  -3.403  1.00 20.00     0.041 C 
HETATM    6  C10 UNL     1     -32.996  15.819  -4.327  1.00 20.00     0.028 C 
HETATM    7  O11 UNL     1     -35.860  16.858  -4.996  1.00 20.00    -0.297 OA
ENDROOT
BRANCH   5   8
HETATM    8  C5  UNL     1     -34.920  14.726  -3.217  1.00 20.00    -0.019 C 
HETATM    9  C3  UNL     1     -34.645  13.615  -3.907  1.00 20.00     0.008 C 
ENDBRANCH   5   8
BRANCH   4  10
HETATM   10  C4  UNL     1     -34.720  16.508  -0.921  1.00 20.00    -0.031 C 
HETATM   11  C2  UNL     1     -34.796  17.303   0.151  1.00 20.00     0.007 C 
ENDBRANCH   4  10
TORSDOF 2
ENDMDL
MODEL 6
REMARK VINA RESULT:      -4.4      1.798      3.486
REMARK  2 active torsions:
REMARK  status: ('A' for Active; 'I' for Inactive)
REMARK    1  A    between atoms: C4_4  and  C8_8 
REMARK    2  A    between atoms: C5_5  and  C9_9 
ROOT
HETATM    1  C1  UNL     1     -36.762  15.026  -3.700  1.00 20.00     0.139 C 
HETATM    2  C6  UNL     1     -37.392  16.285  -3.156  1.00 20.00     0.080 C 
HETATM    3  C7  UNL     1     -36.258  17.298  -3.266  1.00 20.00     0.017 C 
HETATM    4  C8  UNL     1     -34.965  16.482  -3.117  1.00 20.00     0.027 C 
HETATM    5  C9  UNL     1     -35.256  15.175  -3.909  1.00 20.00     0.041 C 
HETATM    6  C10 UNL     1     -35.000  15.355  -5.411  1.00 20.00     0.028 C 
HETATM    7  O11 UNL     1     -37.406  14.013  -3.949  1.00 20.00    -0.297 OA
ENDROOT
BRANCH   5   8
HETATM    8  C5  UNL     1     -34.524  13.963  -3.420  1.00 20.00    -0.019 C 
HETATM    9  C3  UNL     1     -33.282  13.638  -3.793  1.00 20.00     0.008 C 
ENDBRANCH   5   8
BRANCH   4  10
HETATM   10  C4  UNL     1     -34.641  16.283  -1.662  1.00 20.00    -0.031 C 
HETATM   11  C2  UNL     1     -34.058  17.207  -0.891  1.00 20.00     0.007 C 
ENDBRANCH   4  10
TORSDOF 2
ENDMDL
MODEL 7
REMARK VINA RESULT:      -4.2      1.633      2.556
REMARK  2 active torsions:
REMARK  status: ('A' for Active; 'I' for Inactive)
REMARK    1  A    between atoms: C4_4  and  C8_8 
REMARK    2  A    between atoms: C5_5  and  C9_9 
ROOT
HETATM    1  C1  UNL     1     -33.641  15.312  -4.621  1.00 20.00     0.139 C 
HETATM    2  C6  UNL     1     -33.668  14.087  -3.741  1.00 20.00     0.080 C 
HETATM    3  C7  UNL     1     -34.824  13.283  -4.327  1.00 20.00     0.017 C 
HETATM    4  C8  UNL     1     -35.793  14.325  -4.908  1.00 20.00     0.027 C 
HETATM    5  C9  UNL     1     -34.855  15.391  -5.545  1.00 20.00     0.041 C 
HETATM    6  C10 UNL     1     -34.408  14.982  -6.954  1.00 20.00     0.028 C 
HETATM    7  O11 UNL     1     -32.731  16.134  -4.589  1.00 20.00    -0.297 OA
ENDROOT
BRANCH   5   8
HETATM    8  C5  UNL     1     -35.412  16.781  -5.581  1.00 20.00    -0.019 C 
HETATM    9  C3  UNL     1     -35.281  17.613  -6.618  1.00 20.00     0.008 C 
ENDBRANCH   5   8
BRANCH   4  10
HETATM   10  C4  UNL     1     -36.704  14.844  -3.830  1.00 20.00    -0.031 C 
HETATM   11  C2  UNL     1     -38.039  14.801  -3.895  1.00 20.00     0.007 C 
ENDBRANCH   4  10
TORSDOF 2
ENDMDL
MODEL 8
REMARK VINA RESULT:      -4.2      1.414      3.165
REMARK  2 active torsions:
REMARK  status: ('A' for Active; 'I' for Inactive)
REMARK    1  A    between atoms: C4_4  and  C8_8 
REMARK    2  A    between atoms: C5_5  and  C9_9 
ROOT
HETATM    1  C1  UNL     1     -33.611  16.082  -3.916  1.00 20.00     0.139 C 
HETATM    2  C6  UNL     1     -33.694  16.818  -2.601  1.00 20.00     0.080 C 
HETATM    3  C7  UNL     1     -34.811  16.076  -1.876  1.00 20.00     0.017 C 
HETATM    4  C8  UNL     1     -35.741  15.556  -2.982  1.00 20.00     0.027 C 
HETATM    5  C9  UNL     1     -34.766  15.099  -4.105  1.00 20.00     0.041 C 
HETATM    6  C10 UNL     1     -34.232  13.684  -3.850  1.00 20.00     0.028 C 
HETATM    7  O11 UNL     1     -32.704  16.259  -4.723  1.00 20.00    -0.297 OA
ENDROOT
BRANCH   5   8
HETATM    8  C5  UNL     1     -35.319  15.182  -5.495  1.00 20.00    -0.019 C 
HETATM    9  C3  UNL     1     -35.105  14.263  -6.442  1.00 20.00     0.008 C 
ENDBRANCH   5   8
BRANCH   4  10
HETATM   10  C4  UNL     1     -36.718  16.625  -3.386  1.00 20.00    -0.031 C 
HETATM   11  C2  UNL     1     -38.046  16.477  -3.353  1.00 20.00     0.007 C 
ENDBRANCH   4  10
TORSDOF 2
ENDMDL
MODEL 9
REMARK VINA RESULT:      -4.1      2.080      3.040
REMARK  2 active torsions:
REMARK  status: ('A' for Active; 'I' for Inactive)
REMARK    1  A    between atoms: C4_4  and  C8_8 
REMARK    2  A    between atoms: C5_5  and  C9_9 
ROOT
HETATM    1  C1  UNL     1     -34.316  17.445  -3.798  1.00 20.00     0.139 C 
HETATM    2  C6  UNL     1     -34.424  16.905  -5.203  1.00 20.00     0.080 C 
HETATM    3  C7  UNL     1     -35.563  15.898  -5.085  1.00 20.00     0.017 C 
HETATM    4  C8  UNL     1     -35.505  15.384  -3.639  1.00 20.00     0.027 C 
HETATM    5  C9  UNL     1     -35.166  16.653  -2.805  1.00 20.00     0.041 C 
HETATM    6  C10 UNL     1     -36.422  17.476  -2.491  1.00 20.00     0.028 C 
HETATM    7  O11 UNL     1     -33.628  18.418  -3.510  1.00 20.00    -0.297 OA
ENDROOT
BRANCH   5   8
HETATM    8  C5  UNL     1     -34.409  16.394  -1.539  1.00 20.00    -0.019 C 
HETATM    9  C3  UNL     1     -34.726  16.926  -0.355  1.00 20.00     0.008 C 
ENDBRANCH   5   8
BRANCH   4  10
HETATM   10  C4  UNL     1     -34.508  14.264  -3.524  1.00 20.00    -0.031 C 
HETATM   11  C2  UNL     1     -34.377  13.283  -4.423  1.00 20.00     0.007 C 
ENDBRANCH   4  10
TORSDOF 2
ENDMDL
