MODEL 1
REMARK VINA RESULT:      -5.9      0.000      0.000
REMARK  0 active torsions:
REMARK  status: ('A' for Active; 'I' for Inactive)
ROOT
HETATM    1  C1  UNL     1     -32.596   7.086   2.993  1.00 20.00     0.064 C 
HETATM    2  C2  UNL     1     -35.159   4.665   4.429  1.00 20.00     0.012 C 
HETATM    3  C3  UNL     1     -35.006   4.862   5.745  1.00 20.00     0.090 C 
HETATM    4  C4  UNL     1     -34.356   5.393   3.391  1.00 20.00     0.049 C 
HETATM    5  C5  UNL     1     -34.040   5.853   6.319  1.00 20.00     0.071 C 
HETATM    6  C6  UNL     1     -33.509   6.844   5.280  1.00 20.00     0.026 C 
HETATM    7  C7  UNL     1     -33.137   6.129   3.974  1.00 20.00     0.096 C 
HETATM    8  N8  UNL     1     -32.171   7.839   2.221  1.00 20.00    -0.197 NA
HETATM    9  F9  UNL     1     -35.779   4.152   6.597  1.00 20.00    -0.211 F 
ENDROOT
TORSDOF 0
ENDMDL
MODEL 2
REMARK VINA RESULT:      -5.5      0.387      1.718
REMARK  0 active torsions:
REMARK  status: ('A' for Active; 'I' for Inactive)
ROOT
HETATM    1  C1  UNL     1     -32.862   7.181   3.122  1.00 20.00     0.064 C 
HETATM    2  C2  UNL     1     -34.257   5.756   6.364  1.00 20.00     0.012 C 
HETATM    3  C3  UNL     1     -35.092   4.814   5.905  1.00 20.00     0.090 C 
HETATM    4  C4  UNL     1     -33.440   6.637   5.465  1.00 20.00     0.049 C 
HETATM    5  C5  UNL     1     -35.274   4.519   4.448  1.00 20.00     0.071 C 
HETATM    6  C6  UNL     1     -34.184   5.139   3.570  1.00 20.00     0.026 C 
HETATM    7  C7  UNL     1     -33.888   6.583   3.993  1.00 20.00     0.096 C 
HETATM    8  N8  UNL     1     -32.054   7.652   2.436  1.00 20.00    -0.197 NA
HETATM    9  F9  UNL     1     -35.784   4.076   6.801  1.00 20.00    -0.211 F 
ENDROOT
TORSDOF 0
ENDMDL
MODEL 3
REMARK VINA RESULT:      -4.8     12.070     12.538
REMARK  0 active torsions:
REMARK  status: ('A' for Active; 'I' for Inactive)
ROOT
HETATM    1  C1  UNL     1     -37.396  14.590  -3.909  1.00 20.00     0.064 C 
HETATM    2  C2  UNL     1     -33.739  13.552  -4.102  1.00 20.00     0.012 C 
HETATM    3  C3  UNL     1     -33.131  14.609  -3.547  1.00 20.00     0.090 C 
HETATM    4  C4  UNL     1     -35.227  13.460  -4.276  1.00 20.00     0.049 C 
HETATM    5  C5  UNL     1     -33.873  15.796  -3.013  1.00 20.00     0.071 C 
HETATM    6  C6  UNL     1     -35.373  15.539  -2.846  1.00 20.00     0.026 C 
HETATM    7  C7  UNL     1     -35.947  14.803  -4.064  1.00 20.00     0.096 C 
HETATM    8  N8  UNL     1     -38.537  14.423  -3.786  1.00 20.00    -0.197 NA
HETATM    9  F9  UNL     1     -31.784  14.593  -3.440  1.00 20.00    -0.211 F 
ENDROOT
TORSDOF 0
ENDMDL
MODEL 4
REMARK VINA RESULT:      -4.4      9.574     10.474
REMARK  0 active torsions:
REMARK  status: ('A' for Active; 'I' for Inactive)
ROOT
HETATM    1  C1  UNL     1     -42.129   3.103  -2.579  1.00 20.00     0.064 C 
HETATM    2  C2  UNL     1     -41.979   6.888  -2.201  1.00 20.00     0.012 C 
HETATM    3  C3  UNL     1     -41.233   7.017  -1.096  1.00 20.00     0.090 C 
HETATM    4  C4  UNL     1     -42.349   5.558  -2.790  1.00 20.00     0.049 C 
HETATM    5  C5  UNL     1     -40.662   5.851  -0.350  1.00 20.00     0.071 C 
HETATM    6  C6  UNL     1     -40.717   4.545  -1.148  1.00 20.00     0.026 C 
HETATM    7  C7  UNL     1     -42.074   4.377  -1.842  1.00 20.00     0.096 C 
HETATM    8  N8  UNL     1     -42.172   2.100  -3.159  1.00 20.00    -0.197 NA
HETATM    9  F9  UNL     1     -40.959   8.263  -0.647  1.00 20.00    -0.211 F 
ENDROOT
TORSDOF 0
ENDMDL
MODEL 5
REMARK VINA RESULT:      -4.2     12.582     13.460
REMARK  0 active torsions:
REMARK  status: ('A' for Active; 'I' for Inactive)
ROOT
HETATM    1  C1  UNL     1     -34.420  16.263  -1.608  1.00 20.00     0.064 C 
HETATM    2  C2  UNL     1     -33.687  16.310  -5.343  1.00 20.00     0.012 C 
HETATM    3  C3  UNL     1     -34.138  15.107  -5.720  1.00 20.00     0.090 C 
HETATM    4  C4  UNL     1     -33.738  16.799  -3.925  1.00 20.00     0.049 C 
HETATM    5  C5  UNL     1     -34.771  14.135  -4.772  1.00 20.00     0.071 C 
HETATM    6  C6  UNL     1     -35.162  14.769  -3.435  1.00 20.00     0.026 C 
HETATM    7  C7  UNL     1     -34.048  15.684  -2.910  1.00 20.00     0.096 C 
HETATM    8  N8  UNL     1     -34.713  16.719  -0.583  1.00 20.00    -0.197 NA
HETATM    9  F9  UNL     1     -34.043  14.763  -7.024  1.00 20.00    -0.211 F 
ENDROOT
TORSDOF 0
ENDMDL
MODEL 6
REMARK VINA RESULT:      -4.2     12.500     13.667
REMARK  0 active torsions:
REMARK  status: ('A' for Active; 'I' for Inactive)
ROOT
HETATM    1  C1  UNL     1     -34.411  13.677  -4.340  1.00 20.00     0.064 C 
HETATM    2  C2  UNL     1     -34.123  16.956  -2.429  1.00 20.00     0.012 C 
HETATM    3  C3  UNL     1     -33.699  17.789  -3.389  1.00 20.00     0.090 C 
HETATM    4  C4  UNL     1     -34.392  15.499  -2.667  1.00 20.00     0.049 C 
HETATM    5  C5  UNL     1     -33.480  17.361  -4.808  1.00 20.00     0.071 C 
HETATM    6  C6  UNL     1     -34.107  16.002  -5.128  1.00 20.00     0.026 C 
HETATM    7  C7  UNL     1     -33.833  14.990  -4.008  1.00 20.00     0.096 C 
HETATM    8  N8  UNL     1     -34.866  12.643  -4.601  1.00 20.00    -0.197 NA
HETATM    9  F9  UNL     1     -33.484  19.084  -3.068  1.00 20.00    -0.211 F 
ENDROOT
TORSDOF 0
ENDMDL
MODEL 7
REMARK VINA RESULT:      -4.1     12.019     12.886
REMARK  0 active torsions:
REMARK  status: ('A' for Active; 'I' for Inactive)
ROOT
HETATM    1  C1  UNL     1     -37.437  14.596  -3.959  1.00 20.00     0.064 C 
HETATM    2  C2  UNL     1     -33.911  16.020  -3.805  1.00 20.00     0.012 C 
HETATM    3  C3  UNL     1     -33.172  14.903  -3.778  1.00 20.00     0.090 C 
HETATM    4  C4  UNL     1     -35.411  16.010  -3.862  1.00 20.00     0.049 C 
HETATM    5  C5  UNL     1     -33.762  13.527  -3.835  1.00 20.00     0.071 C 
HETATM    6  C6  UNL     1     -35.230  13.523  -4.270  1.00 20.00     0.026 C 
HETATM    7  C7  UNL     1     -36.020  14.630  -3.560  1.00 20.00     0.096 C 
HETATM    8  N8  UNL     1     -38.553  14.569  -4.274  1.00 20.00    -0.197 NA
HETATM    9  F9  UNL     1     -31.827  15.023  -3.724  1.00 20.00    -0.211 F 
ENDROOT
TORSDOF 0
ENDMDL
MODEL 8
REMARK VINA RESULT:      -4.0     12.139     12.898
REMARK  0 active torsions:
REMARK  status: ('A' for Active; 'I' for Inactive)
ROOT
HETATM    1  C1  UNL     1     -34.855  13.626  -4.019  1.00 20.00     0.064 C 
HETATM    2  C2  UNL     1     -36.210  16.978  -2.828  1.00 20.00     0.012 C 
HETATM    3  C3  UNL     1     -35.164  17.461  -2.143  1.00 20.00     0.090 C 
HETATM    4  C4  UNL     1     -36.195  15.643  -3.512  1.00 20.00     0.049 C 
HETATM    5  C5  UNL     1     -33.861  16.734  -2.015  1.00 20.00     0.071 C 
HETATM    6  C6  UNL     1     -33.720  15.578  -3.008  1.00 20.00     0.026 C 
HETATM    7  C7  UNL     1     -35.012  14.755  -3.087  1.00 20.00     0.096 C 
HETATM    8  N8  UNL     1     -34.731  12.738  -4.754  1.00 20.00    -0.197 NA
HETATM    9  F9  UNL     1     -35.283  18.675  -1.561  1.00 20.00    -0.211 F 
ENDROOT
TORSDOF 0
ENDMDL
MODEL 9
REMARK VINA RESULT:      -4.0     12.174     13.175
REMARK  0 active torsions:
REMARK  status: ('A' for Active; 'I' for Inactive)
ROOT
HETATM    1  C1  UNL     1     -34.763  16.069  -1.919  1.00 20.00     0.064 C 
HETATM    2  C2  UNL     1     -34.488  13.662  -4.854  1.00 20.00     0.012 C 
HETATM    3  C3  UNL     1     -35.165  14.320  -5.805  1.00 20.00     0.090 C 
HETATM    4  C4  UNL     1     -34.301  14.193  -3.463  1.00 20.00     0.049 C 
HETATM    5  C5  UNL     1     -35.778  15.670  -5.590  1.00 20.00     0.071 C 
HETATM    6  C6  UNL     1     -35.272  16.363  -4.322  1.00 20.00     0.026 C 
HETATM    7  C7  UNL     1     -35.219  15.386  -3.141  1.00 20.00     0.096 C 
HETATM    8  N8  UNL     1     -34.403  16.608  -0.957  1.00 20.00    -0.197 NA
HETATM    9  F9  UNL     1     -35.277  13.751  -7.026  1.00 20.00    -0.211 F 
ENDROOT
TORSDOF 0
ENDMDL
