MODEL 1
REMARK VINA RESULT:      -4.1      0.000      0.000
REMARK  2 active torsions:
REMARK  status: ('A' for Active; 'I' for Inactive)
REMARK    1  A    between atoms: C1_1  and  C7_7 
REMARK    2  A    between atoms: C4_4  and  C7_7 
ROOT
HETATM    1  C2  UNL     1     -33.589  18.063  -5.012  1.00 20.00     0.197 C 
HETATM    2  C3  UNL     1     -34.939  17.884  -4.374  1.00 20.00     0.197 C 
HETATM    3  C4  UNL     1     -33.919  15.867  -4.556  1.00 20.00     0.169 C 
HETATM    4  C5  UNL     1     -32.873  15.225  -3.654  1.00 20.00     0.080 C 
HETATM    5  O9  UNL     1     -33.269  16.754  -5.481  1.00 20.00    -0.353 OA
HETATM    6  O10 UNL     1     -34.837  16.610  -3.738  1.00 20.00    -0.353 OA
ENDROOT
BRANCH   3   7
HETATM    7  C7  UNL     1     -34.687  14.816  -5.347  1.00 20.00     0.105 C 
HETATM    8  C6  UNL     1     -34.409  14.942  -6.841  1.00 20.00     0.023 C 
BRANCH   7   9
HETATM    9  C1  UNL     1     -34.329  13.439  -4.823  1.00 20.00     0.240 C 
HETATM   10  O8  UNL     1     -35.137  12.631  -4.376  1.00 20.00    -0.306 OA
ENDBRANCH   7   9
ENDBRANCH   3   7
TORSDOF 2
ENDMDL
MODEL 2
REMARK VINA RESULT:      -4.0      1.142      1.180
REMARK  2 active torsions:
REMARK  status: ('A' for Active; 'I' for Inactive)
REMARK    1  A    between atoms: C1_1  and  C7_7 
REMARK    2  A    between atoms: C4_4  and  C7_7 
ROOT
HETATM    1  C2  UNL     1     -33.821  17.729  -3.126  1.00 20.00     0.197 C 
HETATM    2  C3  UNL     1     -34.923  16.953  -2.460  1.00 20.00     0.197 C 
HETATM    3  C4  UNL     1     -33.766  15.579  -3.843  1.00 20.00     0.169 C 
HETATM    4  C5  UNL     1     -32.451  14.847  -3.606  1.00 20.00     0.080 C 
HETATM    5  O9  UNL     1     -33.491  16.927  -4.259  1.00 20.00    -0.353 OA
HETATM    6  O10 UNL     1     -34.512  15.595  -2.615  1.00 20.00    -0.353 OA
ENDROOT
BRANCH   3   7
HETATM    7  C7  UNL     1     -34.592  14.895  -4.925  1.00 20.00     0.105 C 
HETATM    8  C6  UNL     1     -34.258  15.451  -6.305  1.00 20.00     0.023 C 
BRANCH   7   9
HETATM    9  C1  UNL     1     -34.364  13.398  -4.852  1.00 20.00     0.240 C 
HETATM   10  O8  UNL     1     -35.143  12.598  -4.343  1.00 20.00    -0.306 OA
ENDBRANCH   7   9
ENDBRANCH   3   7
TORSDOF 2
ENDMDL
MODEL 3
REMARK VINA RESULT:      -4.0      0.913      2.100
REMARK  2 active torsions:
REMARK  status: ('A' for Active; 'I' for Inactive)
REMARK    1  A    between atoms: C1_1  and  C7_7 
REMARK    2  A    between atoms: C4_4  and  C7_7 
ROOT
HETATM    1  C2  UNL     1     -35.104  17.883  -5.149  1.00 20.00     0.197 C 
HETATM    2  C3  UNL     1     -33.636  17.941  -4.828  1.00 20.00     0.197 C 
HETATM    3  C4  UNL     1     -34.209  15.809  -5.343  1.00 20.00     0.169 C 
HETATM    4  C5  UNL     1     -34.376  15.153  -6.708  1.00 20.00     0.080 C 
HETATM    5  O9  UNL     1     -35.420  16.500  -4.996  1.00 20.00    -0.353 OA
HETATM    6  O10 UNL     1     -33.122  16.746  -5.414  1.00 20.00    -0.353 OA
ENDROOT
BRANCH   3   7
HETATM    7  C7  UNL     1     -33.913  14.774  -4.265  1.00 20.00     0.105 C 
HETATM    8  C6  UNL     1     -34.648  15.104  -2.971  1.00 20.00     0.023 C 
BRANCH   7   9
HETATM    9  C1  UNL     1     -34.278  13.397  -4.785  1.00 20.00     0.240 C 
HETATM   10  O8  UNL     1     -35.100  12.651  -4.263  1.00 20.00    -0.306 OA
ENDBRANCH   7   9
ENDBRANCH   3   7
TORSDOF 2
ENDMDL
MODEL 4
REMARK VINA RESULT:      -4.0      1.501      1.751
REMARK  2 active torsions:
REMARK  status: ('A' for Active; 'I' for Inactive)
REMARK    1  A    between atoms: C1_1  and  C7_7 
REMARK    2  A    between atoms: C4_4  and  C7_7 
ROOT
HETATM    1  C2  UNL     1     -33.359  16.966  -5.171  1.00 20.00     0.197 C 
HETATM    2  C3  UNL     1     -34.838  17.155  -5.362  1.00 20.00     0.197 C 
HETATM    3  C4  UNL     1     -34.473  15.919  -3.497  1.00 20.00     0.169 C 
HETATM    4  C5  UNL     1     -34.109  16.373  -2.089  1.00 20.00     0.080 C 
HETATM    5  O9  UNL     1     -33.281  15.842  -4.295  1.00 20.00    -0.353 OA
HETATM    6  O10 UNL     1     -35.377  16.879  -4.070  1.00 20.00    -0.353 OA
ENDROOT
BRANCH   3   7
HETATM    7  C7  UNL     1     -35.138  14.548  -3.482  1.00 20.00     0.105 C 
HETATM    8  C6  UNL     1     -36.623  14.655  -3.808  1.00 20.00     0.023 C 
BRANCH   7   9
HETATM    9  C1  UNL     1     -34.413  13.635  -4.450  1.00 20.00     0.240 C 
HETATM   10  O8  UNL     1     -34.810  12.525  -4.793  1.00 20.00    -0.306 OA
ENDBRANCH   7   9
ENDBRANCH   3   7
TORSDOF 2
ENDMDL
MODEL 5
REMARK VINA RESULT:      -3.9      2.106      2.753
REMARK  2 active torsions:
REMARK  status: ('A' for Active; 'I' for Inactive)
REMARK    1  A    between atoms: C1_1  and  C7_7 
REMARK    2  A    between atoms: C4_4  and  C7_7 
ROOT
HETATM    1  C2  UNL     1     -33.991  15.954  -5.996  1.00 20.00     0.197 C 
HETATM    2  C3  UNL     1     -33.418  16.879  -4.959  1.00 20.00     0.197 C 
HETATM    3  C4  UNL     1     -34.098  14.960  -3.962  1.00 20.00     0.169 C 
HETATM    4  C5  UNL     1     -33.386  13.618  -3.854  1.00 20.00     0.080 C 
HETATM    5  O9  UNL     1     -34.773  15.041  -5.228  1.00 20.00    -0.353 OA
HETATM    6  O10 UNL     1     -33.120  16.009  -3.868  1.00 20.00    -0.353 OA
ENDROOT
BRANCH   3   7
HETATM    7  C7  UNL     1     -35.127  15.131  -2.851  1.00 20.00     0.105 C 
HETATM    8  C6  UNL     1     -34.704  16.222  -1.874  1.00 20.00     0.023 C 
BRANCH   7   9
HETATM    9  C1  UNL     1     -36.480  15.423  -3.469  1.00 20.00     0.240 C 
HETATM   10  O8  UNL     1     -37.456  14.682  -3.393  1.00 20.00    -0.306 OA
ENDBRANCH   7   9
ENDBRANCH   3   7
TORSDOF 2
ENDMDL
MODEL 6
REMARK VINA RESULT:      -3.8      1.835      2.435
REMARK  2 active torsions:
REMARK  status: ('A' for Active; 'I' for Inactive)
REMARK    1  A    between atoms: C1_1  and  C7_7 
REMARK    2  A    between atoms: C4_4  and  C7_7 
ROOT
HETATM    1  C2  UNL     1     -36.796  17.381  -4.050  1.00 20.00     0.197 C 
HETATM    2  C3  UNL     1     -37.430  16.018  -4.082  1.00 20.00     0.197 C 
HETATM    3  C4  UNL     1     -35.300  15.840  -3.325  1.00 20.00     0.169 C 
HETATM    4  C5  UNL     1     -34.745  16.079  -1.927  1.00 20.00     0.080 C 
HETATM    5  O9  UNL     1     -35.399  17.095  -4.019  1.00 20.00    -0.353 OA
HETATM    6  O10 UNL     1     -36.605  15.250  -3.207  1.00 20.00    -0.353 OA
ENDROOT
BRANCH   3   7
HETATM    7  C7  UNL     1     -34.399  14.910  -4.127  1.00 20.00     0.105 C 
HETATM    8  C6  UNL     1     -32.948  15.027  -3.675  1.00 20.00     0.023 C 
BRANCH   7   9
HETATM    9  C1  UNL     1     -34.914  13.489  -4.002  1.00 20.00     0.240 C 
HETATM   10  O8  UNL     1     -34.712  12.600  -4.823  1.00 20.00    -0.306 OA
ENDBRANCH   7   9
ENDBRANCH   3   7
TORSDOF 2
ENDMDL
MODEL 7
REMARK VINA RESULT:      -3.8      2.147      3.708
REMARK  2 active torsions:
REMARK  status: ('A' for Active; 'I' for Inactive)
REMARK    1  A    between atoms: C1_1  and  C7_7 
REMARK    2  A    between atoms: C4_4  and  C7_7 
ROOT
HETATM    1  C2  UNL     1     -37.852  14.744  -4.114  1.00 20.00     0.197 C 
HETATM    2  C3  UNL     1     -37.349  15.557  -5.274  1.00 20.00     0.197 C 
HETATM    3  C4  UNL     1     -35.590  14.858  -4.026  1.00 20.00     0.169 C 
HETATM    4  C5  UNL     1     -34.869  13.516  -4.031  1.00 20.00     0.080 C 
HETATM    5  O9  UNL     1     -36.760  14.767  -3.197  1.00 20.00    -0.353 OA
HETATM    6  O10 UNL     1     -35.976  15.178  -5.373  1.00 20.00    -0.353 OA
ENDROOT
BRANCH   3   7
HETATM    7  C7  UNL     1     -34.694  15.965  -3.483  1.00 20.00     0.105 C 
HETATM    8  C6  UNL     1     -34.742  16.013  -1.960  1.00 20.00     0.023 C 
BRANCH   7   9
HETATM    9  C1  UNL     1     -33.282  15.756  -3.995  1.00 20.00     0.240 C 
HETATM   10  O8  UNL     1     -32.779  16.379  -4.925  1.00 20.00    -0.306 OA
ENDBRANCH   7   9
ENDBRANCH   3   7
TORSDOF 2
ENDMDL
MODEL 8
REMARK VINA RESULT:      -3.8      1.515      2.575
REMARK  2 active torsions:
REMARK  status: ('A' for Active; 'I' for Inactive)
REMARK    1  A    between atoms: C1_1  and  C7_7 
REMARK    2  A    between atoms: C4_4  and  C7_7 
ROOT
HETATM    1  C2  UNL     1     -35.550  14.948  -7.278  1.00 20.00     0.197 C 
HETATM    2  C3  UNL     1     -36.518  15.217  -6.160  1.00 20.00     0.197 C 
HETATM    3  C4  UNL     1     -34.407  15.625  -5.441  1.00 20.00     0.169 C 
HETATM    4  C5  UNL     1     -33.539  16.863  -5.633  1.00 20.00     0.080 C 
HETATM    5  O9  UNL     1     -34.303  14.787  -6.604  1.00 20.00    -0.353 OA
HETATM    6  O10 UNL     1     -35.771  16.042  -5.266  1.00 20.00    -0.353 OA
ENDROOT
BRANCH   3   7
HETATM    7  C7  UNL     1     -33.966  14.824  -4.222  1.00 20.00     0.105 C 
HETATM    8  C6  UNL     1     -34.776  15.209  -2.990  1.00 20.00     0.023 C 
BRANCH   7   9
HETATM    9  C1  UNL     1     -34.082  13.345  -4.533  1.00 20.00     0.240 C 
HETATM   10  O8  UNL     1     -35.078  12.662  -4.314  1.00 20.00    -0.306 OA
ENDBRANCH   7   9
ENDBRANCH   3   7
TORSDOF 2
ENDMDL
MODEL 9
REMARK VINA RESULT:      -3.8      1.868      2.500
REMARK  2 active torsions:
REMARK  status: ('A' for Active; 'I' for Inactive)
REMARK    1  A    between atoms: C1_1  and  C7_7 
REMARK    2  A    between atoms: C4_4  and  C7_7 
ROOT
HETATM    1  C2  UNL     1     -35.356  17.672  -2.090  1.00 20.00     0.197 C 
HETATM    2  C3  UNL     1     -34.624  16.664  -1.247  1.00 20.00     0.197 C 
HETATM    3  C4  UNL     1     -34.736  15.917  -3.385  1.00 20.00     0.169 C 
HETATM    4  C5  UNL     1     -33.861  16.268  -4.582  1.00 20.00     0.080 C 
HETATM    5  O9  UNL     1     -35.757  16.917  -3.233  1.00 20.00    -0.353 OA
HETATM    6  O10 UNL     1     -33.913  15.884  -2.208  1.00 20.00    -0.353 OA
ENDROOT
BRANCH   3   7
HETATM    7  C7  UNL     1     -35.406  14.561  -3.569  1.00 20.00     0.105 C 
HETATM    8  C6  UNL     1     -36.890  14.720  -3.878  1.00 20.00     0.023 C 
BRANCH   7   9
HETATM    9  C1  UNL     1     -34.684  13.794  -4.658  1.00 20.00     0.240 C 
HETATM   10  O8  UNL     1     -34.765  12.581  -4.828  1.00 20.00    -0.306 OA
ENDBRANCH   7   9
ENDBRANCH   3   7
TORSDOF 2
ENDMDL
