MODEL 1
REMARK VINA RESULT:      -4.6      0.000      0.000
REMARK  2 active torsions:
REMARK  status: ('A' for Active; 'I' for Inactive)
REMARK    1  A    between atoms: C2_2  and  C6_6 
REMARK    2  A    between atoms: C3_3  and  C6_6 
ROOT
HETATM    1  C1  UNL     1     -32.713   6.908   3.210  1.00 20.00    -0.110 C 
HETATM    2  C2  UNL     1     -33.522   6.180   3.716  1.00 20.00    -0.092 C 
HETATM    3  C4  UNL     1     -31.726   7.794   2.593  1.00 20.00     0.112 C 
ENDROOT
BRANCH   2   4
HETATM    4  C6  UNL     1     -34.517   5.286   4.337  1.00 20.00     0.162 C 
HETATM    5  C5  UNL     1     -35.890   5.512   3.714  1.00 20.00     0.035 C 
BRANCH   4   6
HETATM    6  C3  UNL     1     -34.505   5.485   5.864  1.00 20.00     0.188 C 
HETATM    7  O7  UNL     1     -35.059   4.553   6.518  1.00 20.00    -0.647 OA
HETATM    8  O8  UNL     1     -33.952   6.537   6.290  1.00 20.00    -0.647 OA
ENDBRANCH   4   6
ENDBRANCH   2   4
TORSDOF 2
ENDMDL
MODEL 2
REMARK VINA RESULT:      -4.4     11.432     12.168
REMARK  2 active torsions:
REMARK  status: ('A' for Active; 'I' for Inactive)
REMARK    1  A    between atoms: C2_2  and  C6_6 
REMARK    2  A    between atoms: C3_3  and  C6_6 
ROOT
HETATM    1  C1  UNL     1     -34.504  16.093  -1.911  1.00 20.00    -0.110 C 
HETATM    2  C2  UNL     1     -34.401  15.567  -2.985  1.00 20.00    -0.092 C 
HETATM    3  C4  UNL     1     -34.631  16.735  -0.604  1.00 20.00     0.112 C 
ENDROOT
BRANCH   2   4
HETATM    4  C6  UNL     1     -34.272  14.917  -4.303  1.00 20.00     0.162 C 
HETATM    5  C5  UNL     1     -35.476  15.251  -5.176  1.00 20.00     0.035 C 
BRANCH   4   6
HETATM    6  C3  UNL     1     -34.064  13.403  -4.112  1.00 20.00     0.188 C 
HETATM    7  O7  UNL     1     -32.909  13.080  -3.704  1.00 20.00    -0.647 OA
HETATM    8  O8  UNL     1     -35.051  12.662  -4.376  1.00 20.00    -0.647 OA
ENDBRANCH   4   6
ENDBRANCH   2   4
TORSDOF 2
ENDMDL
MODEL 3
REMARK VINA RESULT:      -4.3     11.743     12.298
REMARK  2 active torsions:
REMARK  status: ('A' for Active; 'I' for Inactive)
REMARK    1  A    between atoms: C2_2  and  C6_6 
REMARK    2  A    between atoms: C3_3  and  C6_6 
ROOT
HETATM    1  C1  UNL     1     -34.584  16.083  -1.813  1.00 20.00    -0.110 C 
HETATM    2  C2  UNL     1     -34.464  15.473  -2.841  1.00 20.00    -0.092 C 
HETATM    3  C4  UNL     1     -34.731  16.824  -0.561  1.00 20.00     0.112 C 
ENDROOT
BRANCH   2   4
HETATM    4  C6  UNL     1     -34.314  14.727  -4.103  1.00 20.00     0.162 C 
HETATM    5  C5  UNL     1     -34.350  15.683  -5.290  1.00 20.00     0.035 C 
BRANCH   4   6
HETATM    6  C3  UNL     1     -35.389  13.626  -4.180  1.00 20.00     0.188 C 
HETATM    7  O7  UNL     1     -34.966  12.510  -4.604  1.00 20.00    -0.647 OA
HETATM    8  O8  UNL     1     -36.553  13.951  -3.818  1.00 20.00    -0.647 OA
ENDBRANCH   4   6
ENDBRANCH   2   4
TORSDOF 2
ENDMDL
MODEL 4
REMARK VINA RESULT:      -4.2      1.439      1.972
REMARK  2 active torsions:
REMARK  status: ('A' for Active; 'I' for Inactive)
REMARK    1  A    between atoms: C2_2  and  C6_6 
REMARK    2  A    between atoms: C3_3  and  C6_6 
ROOT
HETATM    1  C1  UNL     1     -32.968   6.743   3.395  1.00 20.00    -0.110 C 
HETATM    2  C2  UNL     1     -33.689   6.387   4.286  1.00 20.00    -0.092 C 
HETATM    3  C4  UNL     1     -32.090   7.176   2.309  1.00 20.00     0.112 C 
ENDROOT
BRANCH   2   4
HETATM    4  C6  UNL     1     -34.573   5.951   5.383  1.00 20.00     0.162 C 
HETATM    5  C5  UNL     1     -34.098   6.534   6.709  1.00 20.00     0.035 C 
BRANCH   4   6
HETATM    6  C3  UNL     1     -34.657   4.413   5.394  1.00 20.00     0.188 C 
HETATM    7  O7  UNL     1     -34.032   3.861   6.347  1.00 20.00    -0.647 OA
HETATM    8  O8  UNL     1     -35.329   3.880   4.469  1.00 20.00    -0.647 OA
ENDBRANCH   4   6
ENDBRANCH   2   4
TORSDOF 2
ENDMDL
MODEL 5
REMARK VINA RESULT:      -4.0     12.274     13.083
REMARK  2 active torsions:
REMARK  status: ('A' for Active; 'I' for Inactive)
REMARK    1  A    between atoms: C2_2  and  C6_6 
REMARK    2  A    between atoms: C3_3  and  C6_6 
ROOT
HETATM    1  C1  UNL     1     -34.567  16.214  -1.654  1.00 20.00    -0.110 C 
HETATM    2  C2  UNL     1     -34.479  15.606  -2.685  1.00 20.00    -0.092 C 
HETATM    3  C4  UNL     1     -34.673  16.955  -0.397  1.00 20.00     0.112 C 
ENDROOT
BRANCH   2   4
HETATM    4  C6  UNL     1     -34.372  14.861  -3.953  1.00 20.00     0.162 C 
HETATM    5  C5  UNL     1     -33.497  13.626  -3.768  1.00 20.00     0.035 C 
BRANCH   4   6
HETATM    6  C3  UNL     1     -33.864  15.802  -5.061  1.00 20.00     0.188 C 
HETATM    7  O7  UNL     1     -34.576  15.811  -6.108  1.00 20.00    -0.647 OA
HETATM    8  O8  UNL     1     -32.812  16.452  -4.808  1.00 20.00    -0.647 OA
ENDBRANCH   4   6
ENDBRANCH   2   4
TORSDOF 2
ENDMDL
MODEL 6
REMARK VINA RESULT:      -3.8     11.470     12.927
REMARK  2 active torsions:
REMARK  status: ('A' for Active; 'I' for Inactive)
REMARK    1  A    between atoms: C2_2  and  C6_6 
REMARK    2  A    between atoms: C3_3  and  C6_6 
ROOT
HETATM    1  C1  UNL     1     -34.673  16.095  -6.231  1.00 20.00    -0.110 C 
HETATM    2  C2  UNL     1     -34.689  15.570  -5.152  1.00 20.00    -0.092 C 
HETATM    3  C4  UNL     1     -34.652  16.734  -7.546  1.00 20.00     0.112 C 
ENDROOT
BRANCH   2   4
HETATM    4  C6  UNL     1     -34.712  14.923  -3.827  1.00 20.00     0.162 C 
HETATM    5  C5  UNL     1     -33.898  15.738  -2.828  1.00 20.00     0.035 C 
BRANCH   4   6
HETATM    6  C3  UNL     1     -34.228  13.467  -3.957  1.00 20.00     0.188 C 
HETATM    7  O7  UNL     1     -35.107  12.659  -4.380  1.00 20.00    -0.647 OA
HETATM    8  O8  UNL     1     -33.029  13.242  -3.635  1.00 20.00    -0.647 OA
ENDBRANCH   4   6
ENDBRANCH   2   4
TORSDOF 2
ENDMDL
MODEL 7
REMARK VINA RESULT:      -3.7     11.471     12.582
REMARK  2 active torsions:
REMARK  status: ('A' for Active; 'I' for Inactive)
REMARK    1  A    between atoms: C2_2  and  C6_6 
REMARK    2  A    between atoms: C3_3  and  C6_6 
ROOT
HETATM    1  C1  UNL     1     -37.203  14.825  -3.896  1.00 20.00    -0.110 C 
HETATM    2  C2  UNL     1     -36.005  14.809  -3.967  1.00 20.00    -0.092 C 
HETATM    3  C4  UNL     1     -38.663  14.845  -3.810  1.00 20.00     0.112 C 
ENDROOT
BRANCH   2   4
HETATM    4  C6  UNL     1     -34.533  14.788  -4.056  1.00 20.00     0.162 C 
HETATM    5  C5  UNL     1     -34.057  15.718  -5.166  1.00 20.00     0.035 C 
BRANCH   4   6
HETATM    6  C3  UNL     1     -34.050  13.336  -4.235  1.00 20.00     0.188 C 
HETATM    7  O7  UNL     1     -32.919  13.093  -3.721  1.00 20.00    -0.647 OA
HETATM    8  O8  UNL     1     -34.823  12.560  -4.862  1.00 20.00    -0.647 OA
ENDBRANCH   4   6
ENDBRANCH   2   4
TORSDOF 2
ENDMDL
MODEL 8
REMARK VINA RESULT:      -3.6      3.100      4.768
REMARK  2 active torsions:
REMARK  status: ('A' for Active; 'I' for Inactive)
REMARK    1  A    between atoms: C2_2  and  C6_6 
REMARK    2  A    between atoms: C3_3  and  C6_6 
ROOT
HETATM    1  C1  UNL     1     -33.990   6.033   3.566  1.00 20.00    -0.110 C 
HETATM    2  C2  UNL     1     -32.992   6.634   3.276  1.00 20.00    -0.092 C 
HETATM    3  C4  UNL     1     -35.205   5.301   3.920  1.00 20.00     0.112 C 
ENDROOT
BRANCH   2   4
HETATM    4  C6  UNL     1     -31.768   7.373   2.917  1.00 20.00     0.162 C 
HETATM    5  C5  UNL     1     -31.093   7.920   4.170  1.00 20.00     0.035 C 
BRANCH   4   6
HETATM    6  C3  UNL     1     -32.111   8.468   1.888  1.00 20.00     0.188 C 
HETATM    7  O7  UNL     1     -31.499   8.360   0.785  1.00 20.00    -0.647 OA
HETATM    8  O8  UNL     1     -32.951   9.336   2.251  1.00 20.00    -0.647 OA
ENDBRANCH   4   6
ENDBRANCH   2   4
TORSDOF 2
ENDMDL
MODEL 9
REMARK VINA RESULT:      -3.5      9.327     10.803
REMARK  2 active torsions:
REMARK  status: ('A' for Active; 'I' for Inactive)
REMARK    1  A    between atoms: C2_2  and  C6_6 
REMARK    2  A    between atoms: C3_3  and  C6_6 
ROOT
HETATM    1  C1  UNL     1     -41.767   2.485  -3.266  1.00 20.00    -0.110 C 
HETATM    2  C2  UNL     1     -42.041   3.526  -2.734  1.00 20.00    -0.092 C 
HETATM    3  C4  UNL     1     -41.434   1.217  -3.913  1.00 20.00     0.112 C 
ENDROOT
BRANCH   2   4
HETATM    4  C6  UNL     1     -42.376   4.806  -2.083  1.00 20.00     0.162 C 
HETATM    5  C5  UNL     1     -43.013   5.759  -3.087  1.00 20.00     0.035 C 
BRANCH   4   6
HETATM    6  C3  UNL     1     -41.117   5.386  -1.412  1.00 20.00     0.188 C 
HETATM    7  O7  UNL     1     -40.463   4.553  -0.718  1.00 20.00    -0.647 OA
HETATM    8  O8  UNL     1     -40.878   6.607  -1.625  1.00 20.00    -0.647 OA
ENDBRANCH   4   6
ENDBRANCH   2   4
TORSDOF 2
ENDMDL
