MODEL 1
REMARK VINA RESULT:      -3.7      0.000      0.000
REMARK  1 active torsions:
REMARK  status: ('A' for Active; 'I' for Inactive)
REMARK    1  A    between atoms: C2_2  and  O6_6 
ROOT
HETATM    1  C1  UNL     1     -33.503   4.851   5.462  1.00 20.00     0.106 A 
HETATM    2  C2  UNL     1     -34.347   5.783   4.633  1.00 20.00     0.111 A 
HETATM    3  C3  UNL     1     -34.347   5.899   6.137  1.00 20.00     0.212 A 
HETATM    4  C4  UNL     1     -35.550   5.258   3.922  1.00 20.00     0.051 C 
HETATM    5  F7  UNL     1     -35.478   5.428   6.796  1.00 20.00    -0.222 F 
HETATM    6 CL8  UNL     1     -33.536   7.249   6.913  1.00 20.00    -0.079 Cl
ENDROOT
BRANCH   2   7
HETATM    7  O6  UNL     1     -33.627   6.780   3.888  1.00 20.00    -0.381 OA
HETATM    8  C5  UNL     1     -32.601   6.188   3.114  1.00 20.00     0.202 C 
ENDBRANCH   2   7
TORSDOF 1
ENDMDL
MODEL 2
REMARK VINA RESULT:      -3.7      2.544      3.246
REMARK  1 active torsions:
REMARK  status: ('A' for Active; 'I' for Inactive)
REMARK    1  A    between atoms: C2_2  and  O6_6 
ROOT
HETATM    1  C1  UNL     1     -35.269   6.145   3.292  1.00 20.00     0.106 A 
HETATM    2  C2  UNL     1     -34.511   5.437   4.383  1.00 20.00     0.111 A 
HETATM    3  C3  UNL     1     -33.879   5.633   3.028  1.00 20.00     0.212 A 
HETATM    4  C4  UNL     1     -34.941   4.077   4.821  1.00 20.00     0.051 C 
HETATM    5  F7  UNL     1     -33.797   4.508   2.214  1.00 20.00    -0.222 F 
HETATM    6 CL8  UNL     1     -32.585   6.801   2.823  1.00 20.00    -0.079 Cl
ENDROOT
BRANCH   2   7
HETATM    7  O6  UNL     1     -34.047   6.269   5.461  1.00 20.00    -0.381 OA
HETATM    8  C5  UNL     1     -34.487   5.768   6.709  1.00 20.00     0.202 C 
ENDBRANCH   2   7
TORSDOF 1
ENDMDL
MODEL 3
REMARK VINA RESULT:      -3.6     12.405     13.238
REMARK  1 active torsions:
REMARK  status: ('A' for Active; 'I' for Inactive)
REMARK    1  A    between atoms: C2_2  and  O6_6 
ROOT
HETATM    1  C1  UNL     1     -33.452  13.995  -3.725  1.00 20.00     0.106 A 
HETATM    2  C2  UNL     1     -33.840  15.157  -4.600  1.00 20.00     0.111 A 
HETATM    3  C3  UNL     1     -34.613  14.871  -3.337  1.00 20.00     0.212 A 
HETATM    4  C4  UNL     1     -34.461  14.905  -5.934  1.00 20.00     0.051 C 
HETATM    5  F7  UNL     1     -35.873  14.304  -3.498  1.00 20.00    -0.222 F 
HETATM    6 CL8  UNL     1     -34.436  15.921  -1.943  1.00 20.00    -0.079 Cl
ENDROOT
BRANCH   2   7
HETATM    7  O6  UNL     1     -32.935  16.275  -4.588  1.00 20.00    -0.381 OA
HETATM    8  C5  UNL     1     -33.447  17.346  -5.359  1.00 20.00     0.202 C 
ENDBRANCH   2   7
TORSDOF 1
ENDMDL
MODEL 4
REMARK VINA RESULT:      -3.5     10.404     10.893
REMARK  1 active torsions:
REMARK  status: ('A' for Active; 'I' for Inactive)
REMARK    1  A    between atoms: C2_2  and  O6_6 
ROOT
HETATM    1  C1  UNL     1     -42.523   4.563  -0.942  1.00 20.00     0.106 A 
HETATM    2  C2  UNL     1     -41.962   5.518  -1.962  1.00 20.00     0.111 A 
HETATM    3  C3  UNL     1     -41.309   4.176  -1.743  1.00 20.00     0.212 A 
HETATM    4  C4  UNL     1     -41.279   6.766  -1.511  1.00 20.00     0.051 C 
HETATM    5  F7  UNL     1     -40.104   4.178  -1.047  1.00 20.00    -0.222 F 
HETATM    6 CL8  UNL     1     -41.475   2.912  -2.949  1.00 20.00    -0.079 Cl
ENDROOT
BRANCH   2   7
HETATM    7  O6  UNL     1     -42.747   5.690  -3.154  1.00 20.00    -0.381 OA
HETATM    8  C5  UNL     1     -42.856   7.059  -3.492  1.00 20.00     0.202 C 
ENDBRANCH   2   7
TORSDOF 1
ENDMDL
MODEL 5
REMARK VINA RESULT:      -3.5     12.287     12.878
REMARK  1 active torsions:
REMARK  status: ('A' for Active; 'I' for Inactive)
REMARK    1  A    between atoms: C2_2  and  O6_6 
ROOT
HETATM    1  C1  UNL     1     -34.259  15.862  -4.641  1.00 20.00     0.106 A 
HETATM    2  C2  UNL     1     -34.864  14.753  -3.823  1.00 20.00     0.111 A 
HETATM    3  C3  UNL     1     -33.630  15.467  -3.332  1.00 20.00     0.212 A 
HETATM    4  C4  UNL     1     -34.773  13.343  -4.305  1.00 20.00     0.051 C 
HETATM    5  F7  UNL     1     -32.431  14.769  -3.428  1.00 20.00    -0.222 F 
HETATM    6 CL8  UNL     1     -33.741  16.584  -1.983  1.00 20.00    -0.079 Cl
ENDROOT
BRANCH   2   7
HETATM    7  O6  UNL     1     -36.113  15.061  -3.180  1.00 20.00    -0.381 OA
HETATM    8  C5  UNL     1     -37.206  14.648  -3.978  1.00 20.00     0.202 C 
ENDBRANCH   2   7
TORSDOF 1
ENDMDL
MODEL 6
REMARK VINA RESULT:      -3.5      2.871      3.544
REMARK  1 active torsions:
REMARK  status: ('A' for Active; 'I' for Inactive)
REMARK    1  A    between atoms: C2_2  and  O6_6 
ROOT
HETATM    1  C1  UNL     1     -32.123   5.812   3.285  1.00 20.00     0.106 A 
HETATM    2  C2  UNL     1     -33.245   6.527   3.989  1.00 20.00     0.111 A 
HETATM    3  C3  UNL     1     -32.116   7.315   3.373  1.00 20.00     0.212 A 
HETATM    4  C4  UNL     1     -33.370   6.430   5.473  1.00 20.00     0.051 C 
HETATM    5  F7  UNL     1     -31.188   7.861   4.254  1.00 20.00    -0.222 F 
HETATM    6 CL8  UNL     1     -32.388   8.237   1.905  1.00 20.00    -0.079 Cl
ENDROOT
BRANCH   2   7
HETATM    7  O6  UNL     1     -34.510   6.529   3.304  1.00 20.00    -0.381 OA
HETATM    8  C5  UNL     1     -35.310   5.439   3.720  1.00 20.00     0.202 C 
ENDBRANCH   2   7
TORSDOF 1
ENDMDL
MODEL 7
REMARK VINA RESULT:      -3.4     12.579     13.146
REMARK  1 active torsions:
REMARK  status: ('A' for Active; 'I' for Inactive)
REMARK    1  A    between atoms: C2_2  and  O6_6 
ROOT
HETATM    1  C1  UNL     1     -32.750  14.786  -3.659  1.00 20.00     0.106 A 
HETATM    2  C2  UNL     1     -34.090  14.672  -4.336  1.00 20.00     0.111 A 
HETATM    3  C3  UNL     1     -33.862  15.727  -3.283  1.00 20.00     0.212 A 
HETATM    4  C4  UNL     1     -34.968  13.500  -4.047  1.00 20.00     0.051 C 
HETATM    5  F7  UNL     1     -34.448  15.500  -2.041  1.00 20.00    -0.222 F 
HETATM    6 CL8  UNL     1     -33.721  17.414  -3.747  1.00 20.00    -0.079 Cl
ENDROOT
BRANCH   2   7
HETATM    7  O6  UNL     1     -34.133  15.099  -5.709  1.00 20.00    -0.381 OA
HETATM    8  C5  UNL     1     -35.083  14.347  -6.441  1.00 20.00     0.202 C 
ENDBRANCH   2   7
TORSDOF 1
ENDMDL
MODEL 8
REMARK VINA RESULT:      -3.4     12.807     13.254
REMARK  1 active torsions:
REMARK  status: ('A' for Active; 'I' for Inactive)
REMARK    1  A    between atoms: C2_2  and  O6_6 
ROOT
HETATM    1  C1  UNL     1     -32.787  14.835  -3.606  1.00 20.00     0.106 A 
HETATM    2  C2  UNL     1     -33.943  15.777  -3.397  1.00 20.00     0.111 A 
HETATM    3  C3  UNL     1     -34.026  14.700  -4.450  1.00 20.00     0.212 A 
HETATM    4  C4  UNL     1     -33.812  17.209  -3.796  1.00 20.00     0.051 C 
HETATM    5  F7  UNL     1     -33.901  15.115  -5.772  1.00 20.00    -0.222 F 
HETATM    6 CL8  UNL     1     -35.059  13.304  -4.198  1.00 20.00    -0.079 Cl
ENDROOT
BRANCH   2   7
HETATM    7  O6  UNL     1     -34.693  15.583  -2.185  1.00 20.00    -0.381 OA
HETATM    8  C5  UNL     1     -34.428  16.618  -1.257  1.00 20.00     0.202 C 
ENDBRANCH   2   7
TORSDOF 1
ENDMDL
MODEL 9
REMARK VINA RESULT:      -3.4     12.775     13.288
REMARK  1 active torsions:
REMARK  status: ('A' for Active; 'I' for Inactive)
REMARK    1  A    between atoms: C2_2  and  O6_6 
ROOT
HETATM    1  C1  UNL     1     -33.823  13.761  -3.804  1.00 20.00     0.106 A 
HETATM    2  C2  UNL     1     -34.946  14.744  -3.613  1.00 20.00     0.111 A 
HETATM    3  C3  UNL     1     -33.961  14.933  -4.738  1.00 20.00     0.212 A 
HETATM    4  C4  UNL     1     -34.932  15.667  -2.439  1.00 20.00     0.051 C 
HETATM    5  F7  UNL     1     -33.020  15.945  -4.575  1.00 20.00    -0.222 F 
HETATM    6 CL8  UNL     1     -34.450  14.626  -6.395  1.00 20.00    -0.079 Cl
ENDROOT
BRANCH   2   7
HETATM    7  O6  UNL     1     -36.260  14.264  -3.951  1.00 20.00    -0.381 OA
HETATM    8  C5  UNL     1     -37.254  15.181  -3.536  1.00 20.00     0.202 C 
ENDBRANCH   2   7
TORSDOF 1
ENDMDL
