MODEL 1
REMARK VINA RESULT:      -4.5      0.000      0.000
REMARK  0 active torsions:
REMARK  status: ('A' for Active; 'I' for Inactive)
ROOT
HETATM    1  C1  UNL     1     -34.330   5.572   3.384  1.00 20.00     0.135 C 
HETATM    2  C2  UNL     1     -35.528   5.164   4.211  1.00 20.00     0.110 C 
HETATM    3  C3  UNL     1     -33.252   6.505   5.404  1.00 20.00     0.179 C 
HETATM    4  C4  UNL     1     -33.546   6.756   3.926  1.00 20.00     0.075 C 
HETATM    5  C5  UNL     1     -35.146   5.052   5.684  1.00 20.00     0.124 C 
HETATM    6  C6  UNL     1     -32.261   7.002   3.146  1.00 20.00     0.020 C 
HETATM    7  C7  UNL     1     -34.376   3.773   6.004  1.00 20.00     0.040 C 
HETATM    8  O8  UNL     1     -34.082   5.035   2.307  1.00 20.00    -0.297 OA
HETATM    9  O9  UNL     1     -34.450   6.222   6.130  1.00 20.00    -0.385 OA
ENDROOT
TORSDOF 0
ENDMDL
MODEL 2
REMARK VINA RESULT:      -4.2     12.004     12.676
REMARK  0 active torsions:
REMARK  status: ('A' for Active; 'I' for Inactive)
ROOT
HETATM    1  C1  UNL     1     -35.646  15.312  -3.417  1.00 20.00     0.135 C 
HETATM    2  C2  UNL     1     -36.093  14.041  -4.103  1.00 20.00     0.110 C 
HETATM    3  C3  UNL     1     -33.286  14.627  -3.685  1.00 20.00     0.179 C 
HETATM    4  C4  UNL     1     -34.301  15.226  -2.713  1.00 20.00     0.075 C 
HETATM    5  C5  UNL     1     -34.965  13.471  -4.958  1.00 20.00     0.124 C 
HETATM    6  C6  UNL     1     -33.833  16.579  -2.196  1.00 20.00     0.020 C 
HETATM    7  C7  UNL     1     -34.776  14.223  -6.273  1.00 20.00     0.040 C 
HETATM    8  O8  UNL     1     -36.373  16.301  -3.362  1.00 20.00    -0.297 OA
HETATM    9  O9  UNL     1     -33.744  13.382  -4.212  1.00 20.00    -0.385 OA
ENDROOT
TORSDOF 0
ENDMDL
MODEL 3
REMARK VINA RESULT:      -4.0     11.790     13.147
REMARK  0 active torsions:
REMARK  status: ('A' for Active; 'I' for Inactive)
ROOT
HETATM    1  C1  UNL     1     -34.876  13.715  -4.795  1.00 20.00     0.135 C 
HETATM    2  C2  UNL     1     -34.642  14.223  -3.390  1.00 20.00     0.110 C 
HETATM    3  C3  UNL     1     -34.140  15.892  -5.706  1.00 20.00     0.179 C 
HETATM    4  C4  UNL     1     -35.189  14.788  -5.825  1.00 20.00     0.075 C 
HETATM    5  C5  UNL     1     -33.666  15.395  -3.403  1.00 20.00     0.124 C 
HETATM    6  C6  UNL     1     -35.241  14.231  -7.241  1.00 20.00     0.020 C 
HETATM    7  C7  UNL     1     -32.213  14.958  -3.584  1.00 20.00     0.040 C 
HETATM    8  O8  UNL     1     -34.901  12.512  -5.045  1.00 20.00    -0.297 OA
HETATM    9  O9  UNL     1     -34.052  16.382  -4.367  1.00 20.00    -0.385 OA
ENDROOT
TORSDOF 0
ENDMDL
MODEL 4
REMARK VINA RESULT:      -4.0     12.251     13.720
REMARK  0 active torsions:
REMARK  status: ('A' for Active; 'I' for Inactive)
ROOT
HETATM    1  C1  UNL     1     -34.230  16.047  -5.784  1.00 20.00     0.135 C 
HETATM    2  C2  UNL     1     -33.182  16.200  -4.706  1.00 20.00     0.110 C 
HETATM    3  C3  UNL     1     -34.630  13.716  -5.065  1.00 20.00     0.179 C 
HETATM    4  C4  UNL     1     -34.444  14.626  -6.278  1.00 20.00     0.075 C 
HETATM    5  C5  UNL     1     -33.398  15.170  -3.601  1.00 20.00     0.124 C 
HETATM    6  C6  UNL     1     -35.627  14.518  -7.231  1.00 20.00     0.020 C 
HETATM    7  C7  UNL     1     -34.546  15.535  -2.663  1.00 20.00     0.040 C 
HETATM    8  O8  UNL     1     -34.789  17.024  -6.278  1.00 20.00    -0.297 OA
HETATM    9  O9  UNL     1     -33.548  13.852  -4.144  1.00 20.00    -0.385 OA
ENDROOT
TORSDOF 0
ENDMDL
MODEL 5
REMARK VINA RESULT:      -3.9      8.783     10.100
REMARK  0 active torsions:
REMARK  status: ('A' for Active; 'I' for Inactive)
ROOT
HETATM    1  C1  UNL     1     -41.789   7.115  -1.236  1.00 20.00     0.135 C 
HETATM    2  C2  UNL     1     -40.812   6.346  -0.376  1.00 20.00     0.110 C 
HETATM    3  C3  UNL     1     -42.277   5.059  -2.519  1.00 20.00     0.179 C 
HETATM    4  C4  UNL     1     -41.995   6.556  -2.634  1.00 20.00     0.075 C 
HETATM    5  C5  UNL     1     -41.119   4.852  -0.424  1.00 20.00     0.124 C 
HETATM    6  C6  UNL     1     -43.114   7.269  -3.381  1.00 20.00     0.020 C 
HETATM    7  C7  UNL     1     -42.320   4.463   0.435  1.00 20.00     0.040 C 
HETATM    8  O8  UNL     1     -42.297   8.164  -0.848  1.00 20.00    -0.297 OA
HETATM    9  O9  UNL     1     -41.256   4.394  -1.774  1.00 20.00    -0.385 OA
ENDROOT
TORSDOF 0
ENDMDL
MODEL 6
REMARK VINA RESULT:      -3.9     12.025     12.807
REMARK  0 active torsions:
REMARK  status: ('A' for Active; 'I' for Inactive)
ROOT
HETATM    1  C1  UNL     1     -36.019  15.200  -3.625  1.00 20.00     0.135 C 
HETATM    2  C2  UNL     1     -36.009  16.655  -3.215  1.00 20.00     0.110 C 
HETATM    3  C3  UNL     1     -33.548  15.161  -3.551  1.00 20.00     0.179 C 
HETATM    4  C4  UNL     1     -34.772  14.728  -4.356  1.00 20.00     0.075 C 
HETATM    5  C5  UNL     1     -34.696  17.005  -2.521  1.00 20.00     0.124 C 
HETATM    6  C6  UNL     1     -34.774  13.222  -4.584  1.00 20.00     0.020 C 
HETATM    7  C7  UNL     1     -34.632  16.503  -1.079  1.00 20.00     0.040 C 
HETATM    8  O8  UNL     1     -37.010  14.494  -3.457  1.00 20.00    -0.297 OA
HETATM    9  O9  UNL     1     -33.570  16.565  -3.290  1.00 20.00    -0.385 OA
ENDROOT
TORSDOF 0
ENDMDL
MODEL 7
REMARK VINA RESULT:      -3.9     12.228     13.507
REMARK  0 active torsions:
REMARK  status: ('A' for Active; 'I' for Inactive)
ROOT
HETATM    1  C1  UNL     1     -33.420  15.691  -3.735  1.00 20.00     0.135 C 
HETATM    2  C2  UNL     1     -33.436  14.181  -3.796  1.00 20.00     0.110 C 
HETATM    3  C3  UNL     1     -34.434  15.793  -5.987  1.00 20.00     0.179 C 
HETATM    4  C4  UNL     1     -33.357  16.390  -5.083  1.00 20.00     0.075 C 
HETATM    5  C5  UNL     1     -34.468  13.698  -4.810  1.00 20.00     0.124 C 
HETATM    6  C6  UNL     1     -33.520  17.899  -4.959  1.00 20.00     0.020 C 
HETATM    7  C7  UNL     1     -35.901  13.783  -4.287  1.00 20.00     0.040 C 
HETATM    8  O8  UNL     1     -33.366  16.289  -2.662  1.00 20.00    -0.297 OA
HETATM    9  O9  UNL     1     -34.316  14.372  -6.065  1.00 20.00    -0.385 OA
ENDROOT
TORSDOF 0
ENDMDL
MODEL 8
REMARK VINA RESULT:      -3.8     12.336     13.771
REMARK  0 active torsions:
REMARK  status: ('A' for Active; 'I' for Inactive)
ROOT
HETATM    1  C1  UNL     1     -35.018  15.008  -3.898  1.00 20.00     0.135 C 
HETATM    2  C2  UNL     1     -34.473  14.687  -5.271  1.00 20.00     0.110 C 
HETATM    3  C3  UNL     1     -33.525  16.974  -3.764  1.00 20.00     0.179 C 
HETATM    4  C4  UNL     1     -34.069  15.774  -2.991  1.00 20.00     0.075 C 
HETATM    5  C5  UNL     1     -33.855  15.930  -5.904  1.00 20.00     0.124 C 
HETATM    6  C6  UNL     1     -34.738  16.214  -1.696  1.00 20.00     0.020 C 
HETATM    7  C7  UNL     1     -34.899  16.905  -6.446  1.00 20.00     0.040 C 
HETATM    8  O8  UNL     1     -36.113  14.589  -3.529  1.00 20.00    -0.297 OA
HETATM    9  O9  UNL     1     -32.942  16.571  -5.004  1.00 20.00    -0.385 OA
ENDROOT
TORSDOF 0
ENDMDL
MODEL 9
REMARK VINA RESULT:      -3.8     11.943     13.087
REMARK  0 active torsions:
REMARK  status: ('A' for Active; 'I' for Inactive)
ROOT
HETATM    1  C1  UNL     1     -35.111  14.118  -3.873  1.00 20.00     0.135 C 
HETATM    2  C2  UNL     1     -33.719  14.539  -3.463  1.00 20.00     0.110 C 
HETATM    3  C3  UNL     1     -35.863  16.469  -3.742  1.00 20.00     0.179 C 
HETATM    4  C4  UNL     1     -36.229  15.028  -3.391  1.00 20.00     0.075 C 
HETATM    5  C5  UNL     1     -33.501  16.021  -3.756  1.00 20.00     0.124 C 
HETATM    6  C6  UNL     1     -37.579  14.646  -3.982  1.00 20.00     0.020 C 
HETATM    7  C7  UNL     1     -33.250  16.304  -5.235  1.00 20.00     0.040 C 
HETATM    8  O8  UNL     1     -35.312  13.063  -4.471  1.00 20.00    -0.297 OA
HETATM    9  O9  UNL     1     -34.573  16.815  -3.234  1.00 20.00    -0.385 OA
ENDROOT
TORSDOF 0
ENDMDL
