MODEL 1
REMARK VINA RESULT:      -3.2      0.000      0.000
REMARK  1 active torsions:
REMARK  status: ('A' for Active; 'I' for Inactive)
REMARK    1  A    between atoms: C5_5  and  P6_6 
ROOT
HETATM    1  C1  UNL     1     -32.761  15.036  -3.711  1.00 20.00     0.021 C 
HETATM    2  C2  UNL     1     -34.833  15.640  -2.424  1.00 20.00     0.021 C 
HETATM    3  C3  UNL     1     -34.829  13.624  -3.924  1.00 20.00     0.021 C 
HETATM    4  C5  UNL     1     -34.297  15.052  -3.737  1.00 20.00    -0.015 C 
ENDROOT
BRANCH   4   5
HETATM    5  P6  UNL     1     -34.872  16.131  -5.169  1.00 20.00    -0.013 P 
HETATM    6  C4  UNL     1     -33.455  17.286  -5.206  1.00 20.00     0.062 C 
HETATM    7 CL7  UNL     1     -34.378  14.856  -6.754  1.00 20.00    -0.096 Cl
ENDBRANCH   4   5
TORSDOF 1
ENDMDL
MODEL 2
REMARK VINA RESULT:      -3.2      0.048      1.631
REMARK  1 active torsions:
REMARK  status: ('A' for Active; 'I' for Inactive)
REMARK    1  A    between atoms: C5_5  and  P6_6 
ROOT
HETATM    1  C1  UNL     1     -34.781  15.693  -2.401  1.00 20.00     0.021 C 
HETATM    2  C2  UNL     1     -34.848  13.668  -3.887  1.00 20.00     0.021 C 
HETATM    3  C3  UNL     1     -32.745  15.033  -3.718  1.00 20.00     0.021 C 
HETATM    4  C5  UNL     1     -34.279  15.084  -3.719  1.00 20.00    -0.015 C 
ENDROOT
BRANCH   4   5
HETATM    5  P6  UNL     1     -34.872  16.153  -5.151  1.00 20.00    -0.013 P 
HETATM    6  C4  UNL     1     -33.473  17.330  -5.190  1.00 20.00     0.062 C 
HETATM    7 CL7  UNL     1     -34.361  14.885  -6.736  1.00 20.00    -0.096 Cl
ENDBRANCH   4   5
TORSDOF 1
ENDMDL
MODEL 3
REMARK VINA RESULT:      -3.1      2.444      3.051
REMARK  1 active torsions:
REMARK  status: ('A' for Active; 'I' for Inactive)
REMARK    1  A    between atoms: C5_5  and  P6_6 
ROOT
HETATM    1  C1  UNL     1     -32.914  15.080  -3.755  1.00 20.00     0.021 C 
HETATM    2  C2  UNL     1     -34.840  13.507  -4.106  1.00 20.00     0.021 C 
HETATM    3  C3  UNL     1     -34.230  15.163  -5.894  1.00 20.00     0.021 C 
HETATM    4  C5  UNL     1     -34.307  14.920  -4.381  1.00 20.00    -0.015 C 
ENDROOT
BRANCH   4   5
HETATM    5  P6  UNL     1     -35.475  16.175  -3.600  1.00 20.00    -0.013 P 
HETATM    6  C4  UNL     1     -36.955  15.107  -3.478  1.00 20.00     0.062 C 
HETATM    7 CL7  UNL     1     -34.770  16.092  -1.632  1.00 20.00    -0.096 Cl
ENDBRANCH   4   5
TORSDOF 1
ENDMDL
MODEL 4
REMARK VINA RESULT:      -3.1      1.283      2.601
REMARK  1 active torsions:
REMARK  status: ('A' for Active; 'I' for Inactive)
REMARK    1  A    between atoms: C5_5  and  P6_6 
ROOT
HETATM    1  C1  UNL     1     -34.480  15.705  -2.696  1.00 20.00     0.021 C 
HETATM    2  C2  UNL     1     -32.425  14.527  -3.531  1.00 20.00     0.021 C 
HETATM    3  C3  UNL     1     -33.551  16.255  -4.965  1.00 20.00     0.021 C 
HETATM    4  C5  UNL     1     -33.773  15.138  -3.936  1.00 20.00    -0.015 C 
ENDROOT
BRANCH   4   5
HETATM    5  P6  UNL     1     -34.851  13.791  -4.691  1.00 20.00    -0.013 P 
HETATM    6  C4  UNL     1     -36.474  14.408  -4.117  1.00 20.00     0.062 C 
HETATM    7 CL7  UNL     1     -34.860  14.457  -6.675  1.00 20.00    -0.096 Cl
ENDBRANCH   4   5
TORSDOF 1
ENDMDL
MODEL 5
REMARK VINA RESULT:      -3.1      2.409      2.678
REMARK  1 active torsions:
REMARK  status: ('A' for Active; 'I' for Inactive)
REMARK    1  A    between atoms: C5_5  and  P6_6 
ROOT
HETATM    1  C1  UNL     1     -34.954  13.274  -4.363  1.00 20.00     0.021 C 
HETATM    2  C2  UNL     1     -36.138  15.483  -4.534  1.00 20.00     0.021 C 
HETATM    3  C3  UNL     1     -34.571  14.755  -6.358  1.00 20.00     0.021 C 
HETATM    4  C5  UNL     1     -34.839  14.728  -4.847  1.00 20.00    -0.015 C 
ENDROOT
BRANCH   4   5
HETATM    5  P6  UNL     1     -33.415  15.562  -3.940  1.00 20.00    -0.013 P 
HETATM    6  C4  UNL     1     -33.504  17.191  -4.766  1.00 20.00     0.062 C 
HETATM    7 CL7  UNL     1     -34.384  15.986  -2.134  1.00 20.00    -0.096 Cl
ENDBRANCH   4   5
TORSDOF 1
ENDMDL
MODEL 6
REMARK VINA RESULT:      -3.1      1.318      2.400
REMARK  1 active torsions:
REMARK  status: ('A' for Active; 'I' for Inactive)
REMARK    1  A    between atoms: C5_5  and  P6_6 
ROOT
HETATM    1  C1  UNL     1     -32.482  14.604  -3.557  1.00 20.00     0.021 C 
HETATM    2  C2  UNL     1     -33.776  16.275  -4.914  1.00 20.00     0.021 C 
HETATM    3  C3  UNL     1     -34.512  15.714  -2.578  1.00 20.00     0.021 C 
HETATM    4  C5  UNL     1     -33.880  15.162  -3.863  1.00 20.00    -0.015 C 
ENDROOT
BRANCH   4   5
HETATM    5  P6  UNL     1     -34.955  13.775  -4.547  1.00 20.00    -0.013 P 
HETATM    6  C4  UNL     1     -36.582  14.438  -4.042  1.00 20.00     0.062 C 
HETATM    7 CL7  UNL     1     -34.925  14.310  -6.570  1.00 20.00    -0.096 Cl
ENDBRANCH   4   5
TORSDOF 1
ENDMDL
MODEL 7
REMARK VINA RESULT:      -3.1      2.419      2.877
REMARK  1 active torsions:
REMARK  status: ('A' for Active; 'I' for Inactive)
REMARK    1  A    between atoms: C5_5  and  P6_6 
ROOT
HETATM    1  C1  UNL     1     -36.108  15.289  -4.655  1.00 20.00     0.021 C 
HETATM    2  C2  UNL     1     -34.438  15.010  -6.511  1.00 20.00     0.021 C 
HETATM    3  C3  UNL     1     -34.696  13.213  -4.774  1.00 20.00     0.021 C 
HETATM    4  C5  UNL     1     -34.729  14.726  -5.031  1.00 20.00    -0.015 C 
ENDROOT
BRANCH   4   5
HETATM    5  P6  UNL     1     -33.417  15.572  -3.978  1.00 20.00    -0.013 P 
HETATM    6  C4  UNL     1     -33.558  17.250  -4.692  1.00 20.00     0.062 C 
HETATM    7 CL7  UNL     1     -34.517  15.804  -2.214  1.00 20.00    -0.096 Cl
ENDBRANCH   4   5
TORSDOF 1
ENDMDL
MODEL 8
REMARK VINA RESULT:      -3.1      2.423      2.783
REMARK  1 active torsions:
REMARK  status: ('A' for Active; 'I' for Inactive)
REMARK    1  A    between atoms: C5_5  and  P6_6 
ROOT
HETATM    1  C1  UNL     1     -34.456  14.866  -6.461  1.00 20.00     0.021 C 
HETATM    2  C2  UNL     1     -34.842  13.227  -4.597  1.00 20.00     0.021 C 
HETATM    3  C3  UNL     1     -36.139  15.378  -4.666  1.00 20.00     0.021 C 
HETATM    4  C5  UNL     1     -34.788  14.715  -4.969  1.00 20.00    -0.015 C 
ENDROOT
BRANCH   4   5
HETATM    5  P6  UNL     1     -33.437  15.549  -3.955  1.00 20.00    -0.013 P 
HETATM    6  C4  UNL     1     -33.527  17.207  -4.722  1.00 20.00     0.062 C 
HETATM    7 CL7  UNL     1     -34.512  15.876  -2.190  1.00 20.00    -0.096 Cl
ENDBRANCH   4   5
TORSDOF 1
ENDMDL
MODEL 9
REMARK VINA RESULT:      -3.0      1.665      2.088
REMARK  1 active torsions:
REMARK  status: ('A' for Active; 'I' for Inactive)
REMARK    1  A    between atoms: C5_5  and  P6_6 
ROOT
HETATM    1  C1  UNL     1     -33.680  17.325  -4.115  1.00 20.00     0.021 C 
HETATM    2  C2  UNL     1     -34.613  15.984  -2.206  1.00 20.00     0.021 C 
HETATM    3  C3  UNL     1     -32.802  15.016  -3.654  1.00 20.00     0.021 C 
HETATM    4  C5  UNL     1     -34.047  15.914  -3.631  1.00 20.00    -0.015 C 
ENDROOT
BRANCH   4   5
HETATM    5  P6  UNL     1     -35.360  15.198  -4.776  1.00 20.00    -0.013 P 
HETATM    6  C4  UNL     1     -34.404  15.260  -6.334  1.00 20.00     0.062 C 
HETATM    7 CL7  UNL     1     -35.159  13.176  -4.275  1.00 20.00    -0.096 Cl
ENDBRANCH   4   5
TORSDOF 1
ENDMDL
