MODEL 1
REMARK VINA RESULT:      -2.9      0.000      0.000
REMARK  1 active torsions:
REMARK  status: ('A' for Active; 'I' for Inactive)
REMARK    1  A    between atoms: N3_3  and  P4_4 
ROOT
HETATM    1  C1  UNL     1     -33.983   5.327   2.524  1.00 20.00     0.117 C 
HETATM    2  C2  UNL     1     -32.396   6.808   3.526  1.00 20.00     0.117 C 
HETATM    3  N3  UNL     1     -33.353   5.730   3.786  1.00 20.00    -0.274 NA
ENDROOT
BRANCH   3   4
HETATM    4  P4  UNL     1     -34.447   6.031   5.072  1.00 20.00     0.158 P 
HETATM    5 CL5  UNL     1     -34.936   4.246   6.071  1.00 20.00    -0.059 Cl
HETATM    6 CL6  UNL     1     -33.476   6.988   6.671  1.00 20.00    -0.059 Cl
ENDBRANCH   3   4
TORSDOF 1
ENDMDL
MODEL 2
REMARK VINA RESULT:      -2.9      3.052      3.764
REMARK  1 active torsions:
REMARK  status: ('A' for Active; 'I' for Inactive)
REMARK    1  A    between atoms: N3_3  and  P4_4 
ROOT
HETATM    1  C1  UNL     1     -34.047   6.503   6.560  1.00 20.00     0.117 C 
HETATM    2  C2  UNL     1     -35.029   4.574   5.544  1.00 20.00     0.117 C 
HETATM    3  N3  UNL     1     -33.984   5.593   5.411  1.00 20.00    -0.274 NA
ENDROOT
BRANCH   3   4
HETATM    4  P4  UNL     1     -33.922   6.367   3.883  1.00 20.00     0.158 P 
HETATM    5 CL5  UNL     1     -31.942   6.854   3.371  1.00 20.00    -0.059 Cl
HETATM    6 CL6  UNL     1     -34.281   4.993   2.333  1.00 20.00    -0.059 Cl
ENDBRANCH   3   4
TORSDOF 1
ENDMDL
MODEL 3
REMARK VINA RESULT:      -2.8     12.121     12.446
REMARK  1 active torsions:
REMARK  status: ('A' for Active; 'I' for Inactive)
REMARK    1  A    between atoms: N3_3  and  P4_4 
ROOT
HETATM    1  C1  UNL     1     -37.057  14.735  -4.164  1.00 20.00     0.117 C 
HETATM    2  C2  UNL     1     -35.151  13.311  -4.402  1.00 20.00     0.117 C 
HETATM    3  N3  UNL     1     -35.736  14.402  -3.619  1.00 20.00    -0.274 NA
ENDROOT
BRANCH   3   4
HETATM    4  P4  UNL     1     -34.701  15.747  -3.370  1.00 20.00     0.158 P 
HETATM    5 CL5  UNL     1     -34.626  16.265  -1.334  1.00 20.00    -0.059 Cl
HETATM    6 CL6  UNL     1     -32.687  15.190  -3.591  1.00 20.00    -0.059 Cl
ENDBRANCH   3   4
TORSDOF 1
ENDMDL
MODEL 4
REMARK VINA RESULT:      -2.8     12.476     12.816
REMARK  1 active torsions:
REMARK  status: ('A' for Active; 'I' for Inactive)
REMARK    1  A    between atoms: N3_3  and  P4_4 
ROOT
HETATM    1  C1  UNL     1     -36.037  14.756  -3.734  1.00 20.00     0.117 C 
HETATM    2  C2  UNL     1     -34.663  13.196  -4.916  1.00 20.00     0.117 C 
HETATM    3  N3  UNL     1     -34.729  14.094  -3.760  1.00 20.00    -0.274 NA
ENDROOT
BRANCH   3   4
HETATM    4  P4  UNL     1     -33.386  15.146  -3.587  1.00 20.00     0.158 P 
HETATM    5 CL5  UNL     1     -33.270  16.481  -5.207  1.00 20.00    -0.059 Cl
HETATM    6 CL6  UNL     1     -33.739  16.567  -2.079  1.00 20.00    -0.059 Cl
ENDBRANCH   3   4
TORSDOF 1
ENDMDL
MODEL 5
REMARK VINA RESULT:      -2.7      0.760      2.362
REMARK  1 active torsions:
REMARK  status: ('A' for Active; 'I' for Inactive)
REMARK    1  A    between atoms: N3_3  and  P4_4 
ROOT
HETATM    1  C1  UNL     1     -32.621   6.483   3.209  1.00 20.00     0.117 C 
HETATM    2  C2  UNL     1     -34.779   5.455   3.159  1.00 20.00     0.117 C 
HETATM    3  N3  UNL     1     -33.861   6.268   3.961  1.00 20.00    -0.274 NA
ENDROOT
BRANCH   3   4
HETATM    4  P4  UNL     1     -33.640   5.728   5.574  1.00 20.00     0.158 P 
HETATM    5 CL5  UNL     1     -33.873   7.315   6.933  1.00 20.00    -0.059 Cl
HETATM    6 CL6  UNL     1     -35.280   4.575   6.207  1.00 20.00    -0.059 Cl
ENDBRANCH   3   4
TORSDOF 1
ENDMDL
MODEL 6
REMARK VINA RESULT:      -2.7     13.318     13.462
REMARK  1 active torsions:
REMARK  status: ('A' for Active; 'I' for Inactive)
REMARK    1  A    between atoms: N3_3  and  P4_4 
ROOT
HETATM    1  C1  UNL     1     -34.045  15.850  -6.183  1.00 20.00     0.117 C 
HETATM    2  C2  UNL     1     -33.628  17.655  -4.671  1.00 20.00     0.117 C 
HETATM    3  N3  UNL     1     -33.277  16.273  -5.007  1.00 20.00    -0.274 NA
ENDROOT
BRANCH   3   4
HETATM    4  P4  UNL     1     -33.318  15.178  -3.688  1.00 20.00     0.158 P 
HETATM    5 CL5  UNL     1     -34.523  15.924  -2.135  1.00 20.00    -0.059 Cl
HETATM    6 CL6  UNL     1     -34.480  13.489  -4.156  1.00 20.00    -0.059 Cl
ENDBRANCH   3   4
TORSDOF 1
ENDMDL
MODEL 7
REMARK VINA RESULT:      -2.6     12.122     12.460
REMARK  1 active torsions:
REMARK  status: ('A' for Active; 'I' for Inactive)
REMARK    1  A    between atoms: N3_3  and  P4_4 
ROOT
HETATM    1  C1  UNL     1     -34.813  13.349  -4.511  1.00 20.00     0.117 C 
HETATM    2  C2  UNL     1     -32.891  14.518  -3.704  1.00 20.00     0.117 C 
HETATM    3  N3  UNL     1     -34.291  14.186  -3.427  1.00 20.00    -0.274 NA
ENDROOT
BRANCH   3   4
HETATM    4  P4  UNL     1     -35.280  15.523  -3.009  1.00 20.00     0.158 P 
HETATM    5 CL5  UNL     1     -34.660  16.371  -1.188  1.00 20.00    -0.059 Cl
HETATM    6 CL6  UNL     1     -34.865  17.174  -4.242  1.00 20.00    -0.059 Cl
ENDBRANCH   3   4
TORSDOF 1
ENDMDL
MODEL 8
REMARK VINA RESULT:      -2.6     13.211     13.307
REMARK  1 active torsions:
REMARK  status: ('A' for Active; 'I' for Inactive)
REMARK    1  A    between atoms: N3_3  and  P4_4 
ROOT
HETATM    1  C1  UNL     1     -33.499  17.039  -4.910  1.00 20.00     0.117 C 
HETATM    2  C2  UNL     1     -34.317  15.444  -6.493  1.00 20.00     0.117 C 
HETATM    3  N3  UNL     1     -34.555  16.059  -5.184  1.00 20.00    -0.274 NA
ENDROOT
BRANCH   3   4
HETATM    4  P4  UNL     1     -34.856  14.950  -3.911  1.00 20.00     0.158 P 
HETATM    5 CL5  UNL     1     -33.276  13.575  -3.728  1.00 20.00    -0.059 Cl
HETATM    6 CL6  UNL     1     -34.632  15.882  -2.040  1.00 20.00    -0.059 Cl
ENDBRANCH   3   4
TORSDOF 1
ENDMDL
MODEL 9
REMARK VINA RESULT:      -2.6     12.771     13.047
REMARK  1 active torsions:
REMARK  status: ('A' for Active; 'I' for Inactive)
REMARK    1  A    between atoms: N3_3  and  P4_4 
ROOT
HETATM    1  C1  UNL     1     -35.727  16.266  -3.914  1.00 20.00     0.117 C 
HETATM    2  C2  UNL     1     -37.528  14.693  -3.914  1.00 20.00     0.117 C 
HETATM    3  N3  UNL     1     -36.086  14.859  -3.711  1.00 20.00    -0.274 NA
ENDROOT
BRANCH   3   4
HETATM    4  P4  UNL     1     -35.106  13.736  -4.560  1.00 20.00     0.158 P 
HETATM    5 CL5  UNL     1     -34.540  14.505  -6.434  1.00 20.00    -0.059 Cl
HETATM    6 CL6  UNL     1     -33.185  13.630  -3.711  1.00 20.00    -0.059 Cl
ENDBRANCH   3   4
TORSDOF 1
ENDMDL
