MODEL 1
REMARK VINA RESULT:      -4.6      0.000      0.000
REMARK  3 active torsions:
REMARK  status: ('A' for Active; 'I' for Inactive)
REMARK    1  A    between atoms: C3_3  and  C4_4 
REMARK    2  A    between atoms: C4_4  and  C5_5 
REMARK    3  A    between atoms: C7_7  and  O10_10 
ROOT
HETATM    1  C1  UNL     1     -35.142   4.945   3.963  1.00 20.00     0.006 C 
HETATM    2  C2  UNL     1     -35.409   4.126   4.983  1.00 20.00    -0.023 C 
HETATM    3  C3  UNL     1     -34.123   5.895   4.323  1.00 20.00    -0.027 C 
HETATM    4  C6  UNL     1     -34.562   4.422   6.180  1.00 20.00     0.064 C 
HETATM    5  C7  UNL     1     -33.791   5.688   5.777  1.00 20.00     0.157 C 
ENDROOT
BRANCH   3   6
HETATM    6  C4  UNL     1     -33.566   6.789   3.501  1.00 20.00     0.051 C 
BRANCH   6   7
HETATM    7  C5  UNL     1     -32.103   6.735   3.317  1.00 20.00     0.259 C 
HETATM    8  O9  UNL     1     -31.367   7.650   3.667  1.00 20.00    -0.302 OA
ENDBRANCH   6   7
ENDBRANCH   3   6
BRANCH   5   9
HETATM    9  O10 UNL     1     -34.262   6.804   6.525  1.00 20.00    -0.386 OA
HETATM   10  C8  UNL     1     -33.186   7.582   7.031  1.00 20.00     0.202 C 
ENDBRANCH   5   9
TORSDOF 3
ENDMDL
MODEL 2
REMARK VINA RESULT:      -4.1     11.862     13.309
REMARK  3 active torsions:
REMARK  status: ('A' for Active; 'I' for Inactive)
REMARK    1  A    between atoms: C3_3  and  C4_4 
REMARK    2  A    between atoms: C4_4  and  C5_5 
REMARK    3  A    between atoms: C7_7  and  O10_10 
ROOT
HETATM    1  C1  UNL     1     -33.163  16.387  -4.971  1.00 20.00     0.006 C 
HETATM    2  C2  UNL     1     -33.522  17.670  -4.873  1.00 20.00    -0.023 C 
HETATM    3  C3  UNL     1     -33.720  15.617  -3.891  1.00 20.00    -0.027 C 
HETATM    4  C6  UNL     1     -34.406  17.919  -3.693  1.00 20.00     0.064 C 
HETATM    5  C7  UNL     1     -34.433  16.566  -2.966  1.00 20.00     0.157 C 
ENDROOT
BRANCH   3   6
HETATM    6  C4  UNL     1     -33.626  14.291  -3.751  1.00 20.00     0.051 C 
BRANCH   6   7
HETATM    7  C5  UNL     1     -34.823  13.483  -4.053  1.00 20.00     0.259 C 
HETATM    8  O9  UNL     1     -34.794  12.544  -4.839  1.00 20.00    -0.302 OA
ENDBRANCH   6   7
ENDBRANCH   3   6
BRANCH   5   9
HETATM    9  O10 UNL     1     -33.710  16.656  -1.743  1.00 20.00    -0.386 OA
HETATM   10  C8  UNL     1     -34.584  16.802  -0.632  1.00 20.00     0.202 C 
ENDBRANCH   5   9
TORSDOF 3
ENDMDL
MODEL 3
REMARK VINA RESULT:      -4.1     11.885     12.831
REMARK  3 active torsions:
REMARK  status: ('A' for Active; 'I' for Inactive)
REMARK    1  A    between atoms: C3_3  and  C4_4 
REMARK    2  A    between atoms: C4_4  and  C5_5 
REMARK    3  A    between atoms: C7_7  and  O10_10 
ROOT
HETATM    1  C1  UNL     1     -34.416  16.106  -1.872  1.00 20.00     0.006 C 
HETATM    2  C2  UNL     1     -35.278  17.121  -1.775  1.00 20.00    -0.023 C 
HETATM    3  C3  UNL     1     -34.784  15.224  -2.947  1.00 20.00    -0.027 C 
HETATM    4  C6  UNL     1     -36.348  17.052  -2.817  1.00 20.00     0.064 C 
HETATM    5  C7  UNL     1     -36.087  15.712  -3.520  1.00 20.00     0.157 C 
ENDROOT
BRANCH   3   6
HETATM    6  C4  UNL     1     -34.079  14.168  -3.363  1.00 20.00     0.051 C 
BRANCH   6   7
HETATM    7  C5  UNL     1     -34.354  13.648  -4.716  1.00 20.00     0.259 C 
HETATM    8  O9  UNL     1     -34.844  12.541  -4.903  1.00 20.00    -0.302 OA
ENDBRANCH   6   7
ENDBRANCH   3   6
BRANCH   5   9
HETATM    9  O10 UNL     1     -37.116  14.783  -3.195  1.00 20.00    -0.386 OA
HETATM   10  C8  UNL     1     -38.107  14.728  -4.212  1.00 20.00     0.202 C 
ENDBRANCH   5   9
TORSDOF 3
ENDMDL
MODEL 4
REMARK VINA RESULT:      -4.0     11.913     13.528
REMARK  3 active torsions:
REMARK  status: ('A' for Active; 'I' for Inactive)
REMARK    1  A    between atoms: C3_3  and  C4_4 
REMARK    2  A    between atoms: C4_4  and  C5_5 
REMARK    3  A    between atoms: C7_7  and  O10_10 
ROOT
HETATM    1  C1  UNL     1     -34.439  15.975  -1.894  1.00 20.00     0.006 C 
HETATM    2  C2  UNL     1     -34.374  17.306  -1.811  1.00 20.00    -0.023 C 
HETATM    3  C3  UNL     1     -33.977  15.520  -3.179  1.00 20.00    -0.027 C 
HETATM    4  C6  UNL     1     -33.825  17.922  -3.059  1.00 20.00     0.064 C 
HETATM    5  C7  UNL     1     -33.678  16.732  -4.019  1.00 20.00     0.157 C 
ENDROOT
BRANCH   3   6
HETATM    6  C4  UNL     1     -33.829  14.244  -3.545  1.00 20.00     0.051 C 
BRANCH   6   7
HETATM    7  C5  UNL     1     -35.014  13.538  -4.069  1.00 20.00     0.259 C 
HETATM    8  O9  UNL     1     -34.922  12.544  -4.778  1.00 20.00    -0.302 OA
ENDBRANCH   6   7
ENDBRANCH   3   6
BRANCH   5   9
HETATM    9  O10 UNL     1     -34.644  16.826  -5.061  1.00 20.00    -0.386 OA
HETATM   10  C8  UNL     1     -34.060  16.586  -6.334  1.00 20.00     0.202 C 
ENDBRANCH   5   9
TORSDOF 3
ENDMDL
MODEL 5
REMARK VINA RESULT:      -4.0     11.721     13.348
REMARK  3 active torsions:
REMARK  status: ('A' for Active; 'I' for Inactive)
REMARK    1  A    between atoms: C3_3  and  C4_4 
REMARK    2  A    between atoms: C4_4  and  C5_5 
REMARK    3  A    between atoms: C7_7  and  O10_10 
ROOT
HETATM    1  C1  UNL     1     -34.002  13.767  -3.628  1.00 20.00     0.006 C 
HETATM    2  C2  UNL     1     -34.456  13.302  -4.794  1.00 20.00    -0.023 C 
HETATM    3  C3  UNL     1     -34.050  15.205  -3.599  1.00 20.00    -0.027 C 
HETATM    4  C6  UNL     1     -34.896  14.401  -5.707  1.00 20.00     0.064 C 
HETATM    5  C7  UNL     1     -34.505  15.681  -4.952  1.00 20.00     0.157 C 
ENDROOT
BRANCH   3   6
HETATM    6  C4  UNL     1     -33.754  15.972  -2.545  1.00 20.00     0.051 C 
BRANCH   6   7
HETATM    7  C5  UNL     1     -34.857  16.354  -1.643  1.00 20.00     0.259 C 
HETATM    8  O9  UNL     1     -34.679  16.569  -0.450  1.00 20.00    -0.302 OA
ENDBRANCH   6   7
ENDBRANCH   3   6
BRANCH   5   9
HETATM    9  O10 UNL     1     -33.417  16.321  -5.611  1.00 20.00    -0.386 OA
HETATM   10  C8  UNL     1     -33.651  17.713  -5.768  1.00 20.00     0.202 C 
ENDBRANCH   5   9
TORSDOF 3
ENDMDL
MODEL 6
REMARK VINA RESULT:      -4.0     11.986     12.807
REMARK  3 active torsions:
REMARK  status: ('A' for Active; 'I' for Inactive)
REMARK    1  A    between atoms: C3_3  and  C4_4 
REMARK    2  A    between atoms: C4_4  and  C5_5 
REMARK    3  A    between atoms: C7_7  and  O10_10 
ROOT
HETATM    1  C1  UNL     1     -33.238  14.584  -3.610  1.00 20.00     0.006 C 
HETATM    2  C2  UNL     1     -33.862  13.581  -4.232  1.00 20.00    -0.023 C 
HETATM    3  C3  UNL     1     -34.188  15.485  -3.013  1.00 20.00    -0.027 C 
HETATM    4  C6  UNL     1     -35.349  13.678  -4.106  1.00 20.00     0.064 C 
HETATM    5  C7  UNL     1     -35.568  15.023  -3.397  1.00 20.00     0.157 C 
ENDROOT
BRANCH   3   6
HETATM    6  C4  UNL     1     -33.887  16.535  -2.243  1.00 20.00     0.051 C 
BRANCH   6   7
HETATM    7  C5  UNL     1     -34.567  16.647  -0.939  1.00 20.00     0.259 C 
HETATM    8  O9  UNL     1     -34.190  17.425  -0.071  1.00 20.00    -0.302 OA
ENDBRANCH   6   7
ENDBRANCH   3   6
BRANCH   5   9
HETATM    9  O10 UNL     1     -36.139  15.963  -4.301  1.00 20.00    -0.386 OA
HETATM   10  C8  UNL     1     -37.026  15.333  -5.213  1.00 20.00     0.202 C 
ENDBRANCH   5   9
TORSDOF 3
ENDMDL
MODEL 7
REMARK VINA RESULT:      -3.8     12.011     12.938
REMARK  3 active torsions:
REMARK  status: ('A' for Active; 'I' for Inactive)
REMARK    1  A    between atoms: C3_3  and  C4_4 
REMARK    2  A    between atoms: C4_4  and  C5_5 
REMARK    3  A    between atoms: C7_7  and  O10_10 
ROOT
HETATM    1  C1  UNL     1     -34.794  13.600  -4.254  1.00 20.00     0.006 C 
HETATM    2  C2  UNL     1     -33.537  13.672  -3.809  1.00 20.00    -0.023 C 
HETATM    3  C3  UNL     1     -35.368  14.914  -4.376  1.00 20.00    -0.027 C 
HETATM    4  C6  UNL     1     -33.096  15.084  -3.592  1.00 20.00     0.064 C 
HETATM    5  C7  UNL     1     -34.366  15.907  -3.852  1.00 20.00     0.157 C 
ENDROOT
BRANCH   3   6
HETATM    6  C4  UNL     1     -36.574  15.192  -4.880  1.00 20.00     0.051 C 
BRANCH   6   7
HETATM    7  C5  UNL     1     -37.728  15.155  -3.961  1.00 20.00     0.259 C 
HETATM    8  O9  UNL     1     -38.379  14.135  -3.771  1.00 20.00    -0.302 OA
ENDBRANCH   6   7
ENDBRANCH   3   6
BRANCH   5   9
HETATM    9  O10 UNL     1     -34.850  16.456  -2.631  1.00 20.00    -0.386 OA
HETATM   10  C8  UNL     1     -33.782  16.804  -1.760  1.00 20.00     0.202 C 
ENDBRANCH   5   9
TORSDOF 3
ENDMDL
MODEL 8
REMARK VINA RESULT:      -3.8      9.919     11.146
REMARK  3 active torsions:
REMARK  status: ('A' for Active; 'I' for Inactive)
REMARK    1  A    between atoms: C3_3  and  C4_4 
REMARK    2  A    between atoms: C4_4  and  C5_5 
REMARK    3  A    between atoms: C7_7  and  O10_10 
ROOT
HETATM    1  C1  UNL     1     -41.146   6.859  -1.192  1.00 20.00     0.006 C 
HETATM    2  C2  UNL     1     -40.761   6.149  -0.128  1.00 20.00    -0.023 C 
HETATM    3  C3  UNL     1     -41.997   6.076  -2.048  1.00 20.00    -0.027 C 
HETATM    4  C6  UNL     1     -41.341   4.771  -0.131  1.00 20.00     0.064 C 
HETATM    5  C7  UNL     1     -42.067   4.683  -1.482  1.00 20.00     0.157 C 
ENDROOT
BRANCH   3   6
HETATM    6  C4  UNL     1     -42.622   6.522  -3.142  1.00 20.00     0.051 C 
BRANCH   6   7
HETATM    7  C5  UNL     1     -42.536   7.964  -3.442  1.00 20.00     0.259 C 
HETATM    8  O9  UNL     1     -42.112   8.384  -4.511  1.00 20.00    -0.302 OA
ENDBRANCH   6   7
ENDBRANCH   3   6
BRANCH   5   9
HETATM    9  O10 UNL     1     -41.373   3.793  -2.351  1.00 20.00    -0.386 OA
HETATM   10  C8  UNL     1     -42.238   2.791  -2.866  1.00 20.00     0.202 C 
ENDBRANCH   5   9
TORSDOF 3
ENDMDL
MODEL 9
REMARK VINA RESULT:      -3.7     12.590     13.850
REMARK  3 active torsions:
REMARK  status: ('A' for Active; 'I' for Inactive)
REMARK    1  A    between atoms: C3_3  and  C4_4 
REMARK    2  A    between atoms: C4_4  and  C5_5 
REMARK    3  A    between atoms: C7_7  and  O10_10 
ROOT
HETATM    1  C1  UNL     1     -35.147  14.248  -6.444  1.00 20.00     0.006 C 
HETATM    2  C2  UNL     1     -34.362  15.099  -7.110  1.00 20.00    -0.023 C 
HETATM    3  C3  UNL     1     -35.362  14.699  -5.095  1.00 20.00    -0.027 C 
HETATM    4  C6  UNL     1     -33.961  16.269  -6.270  1.00 20.00     0.064 C 
HETATM    5  C7  UNL     1     -34.529  15.934  -4.882  1.00 20.00     0.157 C 
ENDROOT
BRANCH   3   6
HETATM    6  C4  UNL     1     -36.172  14.123  -4.202  1.00 20.00     0.051 C 
BRANCH   6   7
HETATM    7  C5  UNL     1     -37.408  14.839  -3.834  1.00 20.00     0.259 C 
HETATM    8  O9  UNL     1     -38.483  14.266  -3.713  1.00 20.00    -0.302 OA
ENDBRANCH   6   7
ENDBRANCH   3   6
BRANCH   5   9
HETATM    9  O10 UNL     1     -33.468  15.631  -3.982  1.00 20.00    -0.386 OA
HETATM   10  C8  UNL     1     -33.667  16.247  -2.718  1.00 20.00     0.202 C 
ENDBRANCH   5   9
TORSDOF 3
ENDMDL
