MODEL 1
REMARK VINA RESULT:      -3.5      0.000      0.000
REMARK  1 active torsions:
REMARK  status: ('A' for Active; 'I' for Inactive)
REMARK    1  A    between atoms: C4_4  and  S6_6 
ROOT
HETATM    1  C1  UNL     1     -34.635  15.540  -2.674  1.00 20.00     0.030 C 
HETATM    2  C2  UNL     1     -32.805  14.038  -3.512  1.00 20.00     0.030 C 
HETATM    3  C3  UNL     1     -33.382  16.136  -4.771  1.00 20.00     0.030 C 
HETATM    4  C4  UNL     1     -33.933  14.990  -3.919  1.00 20.00     0.042 C 
ENDROOT
BRANCH   4   5
HETATM    5  S6  UNL     1     -35.170  14.034  -4.908  1.00 20.00     0.120 S 
HETATM    6  O5  UNL     1     -35.008  12.612  -4.501  1.00 20.00    -0.240 OA
HETATM    7 CL7  UNL     1     -36.833  14.509  -3.896  1.00 20.00    -0.010 Cl
ENDBRANCH   4   5
TORSDOF 1
ENDMDL
MODEL 2
REMARK VINA RESULT:      -3.5      0.077      1.647
REMARK  1 active torsions:
REMARK  status: ('A' for Active; 'I' for Inactive)
REMARK    1  A    between atoms: C4_4  and  S6_6 
ROOT
HETATM    1  C1  UNL     1     -33.320  16.155  -4.741  1.00 20.00     0.030 C 
HETATM    2  C2  UNL     1     -34.561  15.570  -2.637  1.00 20.00     0.030 C 
HETATM    3  C3  UNL     1     -32.743  14.055  -3.484  1.00 20.00     0.030 C 
HETATM    4  C4  UNL     1     -33.870  15.011  -3.884  1.00 20.00     0.042 C 
ENDROOT
BRANCH   4   5
HETATM    5  S6  UNL     1     -35.127  14.090  -4.881  1.00 20.00     0.120 S 
HETATM    6  O5  UNL     1     -34.975  12.658  -4.507  1.00 20.00    -0.240 OA
HETATM    7 CL7  UNL     1     -36.774  14.558  -3.840  1.00 20.00    -0.010 Cl
ENDBRANCH   4   5
TORSDOF 1
ENDMDL
MODEL 3
REMARK VINA RESULT:      -3.4      2.280      2.825
REMARK  1 active torsions:
REMARK  status: ('A' for Active; 'I' for Inactive)
REMARK    1  A    between atoms: C4_4  and  S6_6 
ROOT
HETATM    1  C1  UNL     1     -34.815  14.518  -6.784  1.00 20.00     0.030 C 
HETATM    2  C2  UNL     1     -36.175  15.924  -5.209  1.00 20.00     0.030 C 
HETATM    3  C3  UNL     1     -33.666  16.063  -5.167  1.00 20.00     0.030 C 
HETATM    4  C4  UNL     1     -34.870  15.144  -5.388  1.00 20.00     0.042 C 
ENDROOT
BRANCH   4   5
HETATM    5  S6  UNL     1     -34.833  13.780  -4.139  1.00 20.00     0.120 S 
HETATM    6  O5  UNL     1     -34.793  12.513  -4.919  1.00 20.00    -0.240 OA
HETATM    7 CL7  UNL     1     -32.917  13.910  -3.570  1.00 20.00    -0.010 Cl
ENDBRANCH   4   5
TORSDOF 1
ENDMDL
MODEL 4
REMARK VINA RESULT:      -3.3      2.548      2.994
REMARK  1 active torsions:
REMARK  status: ('A' for Active; 'I' for Inactive)
REMARK    1  A    between atoms: C4_4  and  S6_6 
ROOT
HETATM    1  C1  UNL     1     -33.653  13.839  -3.780  1.00 20.00     0.030 C 
HETATM    2  C2  UNL     1     -34.576  15.722  -2.396  1.00 20.00     0.030 C 
HETATM    3  C3  UNL     1     -36.090  14.440  -3.941  1.00 20.00     0.030 C 
HETATM    4  C4  UNL     1     -34.673  14.981  -3.733  1.00 20.00     0.042 C 
ENDROOT
BRANCH   4   5
HETATM    5  S6  UNL     1     -34.270  16.175  -5.088  1.00 20.00     0.120 S 
HETATM    6  O5  UNL     1     -32.804  16.413  -4.999  1.00 20.00    -0.240 OA
HETATM    7 CL7  UNL     1     -34.335  14.925  -6.652  1.00 20.00    -0.010 Cl
ENDBRANCH   4   5
TORSDOF 1
ENDMDL
MODEL 5
REMARK VINA RESULT:      -3.3      2.353      2.768
REMARK  1 active torsions:
REMARK  status: ('A' for Active; 'I' for Inactive)
REMARK    1  A    between atoms: C4_4  and  S6_6 
ROOT
HETATM    1  C1  UNL     1     -33.816  15.976  -5.472  1.00 20.00     0.030 C 
HETATM    2  C2  UNL     1     -35.249  14.338  -6.728  1.00 20.00     0.030 C 
HETATM    3  C3  UNL     1     -36.312  15.999  -5.170  1.00 20.00     0.030 C 
HETATM    4  C4  UNL     1     -35.085  15.120  -5.421  1.00 20.00     0.042 C 
ENDROOT
BRANCH   4   5
HETATM    5  S6  UNL     1     -34.911  13.905  -4.037  1.00 20.00     0.120 S 
HETATM    6  O5  UNL     1     -34.928  12.559  -4.670  1.00 20.00    -0.240 OA
HETATM    7 CL7  UNL     1     -32.951  14.104  -3.674  1.00 20.00    -0.010 Cl
ENDBRANCH   4   5
TORSDOF 1
ENDMDL
MODEL 6
REMARK VINA RESULT:      -3.3      2.357      2.623
REMARK  1 active torsions:
REMARK  status: ('A' for Active; 'I' for Inactive)
REMARK    1  A    between atoms: C4_4  and  S6_6 
ROOT
HETATM    1  C1  UNL     1     -36.313  15.956  -5.228  1.00 20.00     0.030 C 
HETATM    2  C2  UNL     1     -33.810  16.007  -5.445  1.00 20.00     0.030 C 
HETATM    3  C3  UNL     1     -35.157  14.391  -6.822  1.00 20.00     0.030 C 
HETATM    4  C4  UNL     1     -35.056  15.117  -5.477  1.00 20.00     0.042 C 
ENDROOT
BRANCH   4   5
HETATM    5  S6  UNL     1     -34.913  13.869  -4.120  1.00 20.00     0.120 S 
HETATM    6  O5  UNL     1     -34.874  12.540  -4.789  1.00 20.00    -0.240 OA
HETATM    7 CL7  UNL     1     -32.974  14.098  -3.669  1.00 20.00    -0.010 Cl
ENDBRANCH   4   5
TORSDOF 1
ENDMDL
MODEL 7
REMARK VINA RESULT:      -3.3      2.532      2.881
REMARK  1 active torsions:
REMARK  status: ('A' for Active; 'I' for Inactive)
REMARK    1  A    between atoms: C4_4  and  S6_6 
ROOT
HETATM    1  C1  UNL     1     -34.593  15.801  -2.326  1.00 20.00     0.030 C 
HETATM    2  C2  UNL     1     -36.250  14.678  -3.845  1.00 20.00     0.030 C 
HETATM    3  C3  UNL     1     -33.895  13.810  -3.694  1.00 20.00     0.030 C 
HETATM    4  C4  UNL     1     -34.779  15.059  -3.654  1.00 20.00     0.042 C 
ENDROOT
BRANCH   4   5
HETATM    5  S6  UNL     1     -34.290  16.197  -5.028  1.00 20.00     0.120 S 
HETATM    6  O5  UNL     1     -32.818  16.375  -4.907  1.00 20.00    -0.240 OA
HETATM    7 CL7  UNL     1     -34.370  14.910  -6.560  1.00 20.00    -0.010 Cl
ENDBRANCH   4   5
TORSDOF 1
ENDMDL
MODEL 8
REMARK VINA RESULT:      -3.3      1.828      2.441
REMARK  1 active torsions:
REMARK  status: ('A' for Active; 'I' for Inactive)
REMARK    1  A    between atoms: C4_4  and  S6_6 
ROOT
HETATM    1  C1  UNL     1     -35.329  16.539  -4.816  1.00 20.00     0.030 C 
HETATM    2  C2  UNL     1     -36.752  14.808  -3.681  1.00 20.00     0.030 C 
HETATM    3  C3  UNL     1     -34.621  15.586  -2.599  1.00 20.00     0.030 C 
HETATM    4  C4  UNL     1     -35.320  15.290  -3.929  1.00 20.00     0.042 C 
ENDROOT
BRANCH   4   5
HETATM    5  S6  UNL     1     -34.402  13.953  -4.817  1.00 20.00     0.120 S 
HETATM    6  O5  UNL     1     -35.029  12.673  -4.388  1.00 20.00    -0.240 OA
HETATM    7 CL7  UNL     1     -35.213  14.155  -6.637  1.00 20.00    -0.010 Cl
ENDBRANCH   4   5
TORSDOF 1
ENDMDL
MODEL 9
REMARK VINA RESULT:      -3.3      2.522      2.726
REMARK  1 active torsions:
REMARK  status: ('A' for Active; 'I' for Inactive)
REMARK    1  A    between atoms: C4_4  and  S6_6 
ROOT
HETATM    1  C1  UNL     1     -36.315  14.808  -3.786  1.00 20.00     0.030 C 
HETATM    2  C2  UNL     1     -34.010  13.817  -3.676  1.00 20.00     0.030 C 
HETATM    3  C3  UNL     1     -34.574  15.840  -2.294  1.00 20.00     0.030 C 
HETATM    4  C4  UNL     1     -34.824  15.113  -3.618  1.00 20.00     0.042 C 
ENDROOT
BRANCH   4   5
HETATM    5  S6  UNL     1     -34.291  16.196  -5.020  1.00 20.00     0.120 S 
HETATM    6  O5  UNL     1     -32.818  16.347  -4.882  1.00 20.00    -0.240 OA
HETATM    7 CL7  UNL     1     -34.376  14.863  -6.512  1.00 20.00    -0.010 Cl
ENDBRANCH   4   5
TORSDOF 1
ENDMDL
