MODEL 1
REMARK VINA RESULT:      -4.5      0.000      0.000
REMARK  1 active torsions:
REMARK  status: ('A' for Active; 'I' for Inactive)
REMARK    1  A    between atoms: C1_1  and  C3_3 
ROOT
HETATM    1  C1  UNL     1     -33.781   6.320   5.035  1.00 20.00     0.064 C 
HETATM    2  C2  UNL     1     -34.473   5.542   5.879  1.00 20.00     0.184 C 
HETATM    3  F4  UNL     1     -34.955   6.059   7.030  1.00 20.00    -0.193 F 
HETATM    4 CL5  UNL     1     -34.769   3.882   5.525  1.00 20.00    -0.052 Cl
ENDROOT
BRANCH   1   5
HETATM    5  C3  UNL     1     -33.209   5.836   3.740  1.00 20.00     0.205 C 
HETATM    6 CL6  UNL     1     -34.525   5.395   2.629  1.00 20.00    -0.104 Cl
HETATM    7 CL7  UNL     1     -32.202   7.111   3.015  1.00 20.00    -0.104 Cl
ENDBRANCH   1   5
TORSDOF 1
ENDMDL
MODEL 2
REMARK VINA RESULT:      -4.0      2.486      3.852
REMARK  1 active torsions:
REMARK  status: ('A' for Active; 'I' for Inactive)
REMARK    1  A    between atoms: C1_1  and  C3_3 
ROOT
HETATM    1  C1  UNL     1     -34.769   5.198   4.203  1.00 20.00     0.064 C 
HETATM    2  C2  UNL     1     -34.041   5.564   3.139  1.00 20.00     0.184 C 
HETATM    3  F4  UNL     1     -34.609   5.599   1.914  1.00 20.00    -0.193 F 
HETATM    4 CL5  UNL     1     -32.381   5.996   3.299  1.00 20.00    -0.052 Cl
ENDROOT
BRANCH   1   5
HETATM    5  C3  UNL     1     -34.228   5.128   5.596  1.00 20.00     0.205 C 
HETATM    6 CL6  UNL     1     -34.037   6.770   6.250  1.00 20.00    -0.104 Cl
HETATM    7 CL7  UNL     1     -35.335   4.188   6.624  1.00 20.00    -0.104 Cl
ENDBRANCH   1   5
TORSDOF 1
ENDMDL
MODEL 3
REMARK VINA RESULT:      -4.0      2.358      3.559
REMARK  1 active torsions:
REMARK  status: ('A' for Active; 'I' for Inactive)
REMARK    1  A    between atoms: C1_1  and  C3_3 
ROOT
HETATM    1  C1  UNL     1     -33.345   6.617   4.528  1.00 20.00     0.064 C 
HETATM    2  C2  UNL     1     -32.455   6.695   3.530  1.00 20.00     0.184 C 
HETATM    3  F4  UNL     1     -31.705   7.809   3.381  1.00 20.00    -0.193 F 
HETATM    4 CL5  UNL     1     -32.242   5.394   2.421  1.00 20.00    -0.052 Cl
ENDROOT
BRANCH   1   5
HETATM    5  C3  UNL     1     -34.219   5.428   4.772  1.00 20.00     0.205 C 
HETATM    6 CL6  UNL     1     -34.744   5.404   6.471  1.00 20.00    -0.104 Cl
HETATM    7 CL7  UNL     1     -35.636   5.493   3.698  1.00 20.00    -0.104 Cl
ENDBRANCH   1   5
TORSDOF 1
ENDMDL
MODEL 4
REMARK VINA RESULT:      -3.9      2.211      2.547
REMARK  1 active torsions:
REMARK  status: ('A' for Active; 'I' for Inactive)
REMARK    1  A    between atoms: C1_1  and  C3_3 
ROOT
HETATM    1  C1  UNL     1     -34.387   6.293   3.914  1.00 20.00     0.064 C 
HETATM    2  C2  UNL     1     -35.346   5.380   4.119  1.00 20.00     0.184 C 
HETATM    3  F4  UNL     1     -36.513   5.466   3.446  1.00 20.00    -0.193 F 
HETATM    4 CL5  UNL     1     -35.122   4.085   5.233  1.00 20.00    -0.052 Cl
ENDROOT
BRANCH   1   5
HETATM    5  C3  UNL     1     -33.064   6.280   4.614  1.00 20.00     0.205 C 
HETATM    6 CL6  UNL     1     -31.884   7.235   3.686  1.00 20.00    -0.104 Cl
HETATM    7 CL7  UNL     1     -33.243   6.957   6.250  1.00 20.00    -0.104 Cl
ENDBRANCH   1   5
TORSDOF 1
ENDMDL
MODEL 5
REMARK VINA RESULT:      -3.9      1.626      2.173
REMARK  1 active torsions:
REMARK  status: ('A' for Active; 'I' for Inactive)
REMARK    1  A    between atoms: C1_1  and  C3_3 
ROOT
HETATM    1  C1  UNL     1     -34.761   4.946   4.588  1.00 20.00     0.064 C 
HETATM    2  C2  UNL     1     -34.730   5.173   5.908  1.00 20.00     0.184 C 
HETATM    3  F4  UNL     1     -35.216   4.247   6.763  1.00 20.00    -0.193 F 
HETATM    4 CL5  UNL     1     -34.075   6.633   6.547  1.00 20.00    -0.052 Cl
ENDROOT
BRANCH   1   5
HETATM    5  C3  UNL     1     -34.248   5.910   3.566  1.00 20.00     0.205 C 
HETATM    6 CL6  UNL     1     -32.491   6.109   3.756  1.00 20.00    -0.104 Cl
HETATM    7 CL7  UNL     1     -34.619   5.310   1.933  1.00 20.00    -0.104 Cl
ENDBRANCH   1   5
TORSDOF 1
ENDMDL
MODEL 6
REMARK VINA RESULT:      -3.9      2.531      3.464
REMARK  1 active torsions:
REMARK  status: ('A' for Active; 'I' for Inactive)
REMARK    1  A    between atoms: C1_1  and  C3_3 
ROOT
HETATM    1  C1  UNL     1     -33.090   6.410   4.613  1.00 20.00     0.064 C 
HETATM    2  C2  UNL     1     -33.123   6.028   3.329  1.00 20.00     0.184 C 
HETATM    3  F4  UNL     1     -32.046   6.226   2.539  1.00 20.00    -0.193 F 
HETATM    4 CL5  UNL     1     -34.521   5.280   2.655  1.00 20.00    -0.052 Cl
ENDROOT
BRANCH   1   5
HETATM    5  C3  UNL     1     -34.233   6.233   5.562  1.00 20.00     0.205 C 
HETATM    6 CL6  UNL     1     -34.383   4.517   6.007  1.00 20.00    -0.104 Cl
HETATM    7 CL7  UNL     1     -33.962   7.218   7.018  1.00 20.00    -0.104 Cl
ENDBRANCH   1   5
TORSDOF 1
ENDMDL
MODEL 7
REMARK VINA RESULT:      -3.8      2.198      2.736
REMARK  1 active torsions:
REMARK  status: ('A' for Active; 'I' for Inactive)
REMARK    1  A    between atoms: C1_1  and  C3_3 
ROOT
HETATM    1  C1  UNL     1     -34.206   5.407   5.984  1.00 20.00     0.064 C 
HETATM    2  C2  UNL     1     -34.997   4.649   5.213  1.00 20.00     0.184 C 
HETATM    3  F4  UNL     1     -35.277   3.379   5.577  1.00 20.00    -0.193 F 
HETATM    4 CL5  UNL     1     -35.675   5.263   3.753  1.00 20.00    -0.052 Cl
ENDROOT
BRANCH   1   5
HETATM    5  C3  UNL     1     -33.841   6.822   5.662  1.00 20.00     0.205 C 
HETATM    6 CL6  UNL     1     -33.099   7.590   7.084  1.00 20.00    -0.104 Cl
HETATM    7 CL7  UNL     1     -32.706   6.852   4.292  1.00 20.00    -0.104 Cl
ENDBRANCH   1   5
TORSDOF 1
ENDMDL
MODEL 8
REMARK VINA RESULT:      -3.7      1.180      1.707
REMARK  1 active torsions:
REMARK  status: ('A' for Active; 'I' for Inactive)
REMARK    1  A    between atoms: C1_1  and  C3_3 
ROOT
HETATM    1  C1  UNL     1     -33.338   6.705   4.638  1.00 20.00     0.064 C 
HETATM    2  C2  UNL     1     -34.247   5.981   5.304  1.00 20.00     0.184 C 
HETATM    3  F4  UNL     1     -34.425   6.175   6.629  1.00 20.00    -0.193 F 
HETATM    4 CL5  UNL     1     -35.205   4.795   4.502  1.00 20.00    -0.052 Cl
ENDROOT
BRANCH   1   5
HETATM    5  C3  UNL     1     -33.071   6.560   3.174  1.00 20.00     0.205 C 
HETATM    6 CL6  UNL     1     -32.272   8.026   2.559  1.00 20.00    -0.104 Cl
HETATM    7 CL7  UNL     1     -32.037   5.140   2.890  1.00 20.00    -0.104 Cl
ENDBRANCH   1   5
TORSDOF 1
ENDMDL
MODEL 9
REMARK VINA RESULT:      -3.6      1.651      2.824
REMARK  1 active torsions:
REMARK  status: ('A' for Active; 'I' for Inactive)
REMARK    1  A    between atoms: C1_1  and  C3_3 
ROOT
HETATM    1  C1  UNL     1     -34.629   5.727   6.396  1.00 20.00     0.064 C 
HETATM    2  C2  UNL     1     -33.632   6.539   6.021  1.00 20.00     0.184 C 
HETATM    3  F4  UNL     1     -33.103   7.411   6.907  1.00 20.00    -0.193 F 
HETATM    4 CL5  UNL     1     -33.000   6.496   4.419  1.00 20.00    -0.052 Cl
ENDROOT
BRANCH   1   5
HETATM    5  C3  UNL     1     -35.277   4.732   5.487  1.00 20.00     0.205 C 
HETATM    6 CL6  UNL     1     -35.626   5.491   3.917  1.00 20.00    -0.104 Cl
HETATM    7 CL7  UNL     1     -34.200   3.334   5.261  1.00 20.00    -0.104 Cl
ENDBRANCH   1   5
TORSDOF 1
ENDMDL
