MODEL 1
REMARK VINA RESULT:      -4.9      0.000      0.000
REMARK  1 active torsions:
REMARK  status: ('A' for Active; 'I' for Inactive)
REMARK    1  A    between atoms: C5_5  and  C10_10 
ROOT
HETATM    1  C1  UNL     1     -35.846  15.045  -3.593  1.00 20.00     0.027 A 
HETATM    2  C2  UNL     1     -33.464  14.804  -3.376  1.00 20.00     0.027 A 
HETATM    3  C3  UNL     1     -35.875  13.760  -4.109  1.00 20.00     0.116 A 
HETATM    4  C4  UNL     1     -33.599  13.529  -3.901  1.00 20.00     0.116 A 
HETATM    5  C5  UNL     1     -34.614  15.571  -3.222  1.00 20.00    -0.051 A 
HETATM    6  N11 UNL     1     -34.779  12.986  -4.273  1.00 20.00    -0.273 NA
ENDROOT
BRANCH   5   7
HETATM    7  C10 UNL     1     -34.518  17.056  -2.618  1.00 20.00     0.026 C 
HETATM    8  C8  UNL     1     -35.730  17.615  -1.806  1.00 20.00     0.043 C 
HETATM    9  C6  UNL     1     -34.859  17.393  -0.596  1.00 20.00    -0.088 C 
HETATM   10  C7  UNL     1     -35.120  17.307   0.709  1.00 20.00     0.014 C 
HETATM   11  C9  UNL     1     -33.582  17.309  -1.394  1.00 20.00     0.043 C 
ENDBRANCH   5   7
TORSDOF 1
ENDMDL
MODEL 2
REMARK VINA RESULT:      -4.9      0.025      1.418
REMARK  1 active torsions:
REMARK  status: ('A' for Active; 'I' for Inactive)
REMARK    1  A    between atoms: C5_5  and  C10_10 
ROOT
HETATM    1  C1  UNL     1     -33.475  14.824  -3.389  1.00 20.00     0.027 A 
HETATM    2  C2  UNL     1     -35.862  15.051  -3.559  1.00 20.00     0.027 A 
HETATM    3  C3  UNL     1     -33.612  13.550  -3.915  1.00 20.00     0.116 A 
HETATM    4  C4  UNL     1     -35.893  13.767  -4.079  1.00 20.00     0.116 A 
HETATM    5  C5  UNL     1     -34.626  15.583  -3.210  1.00 20.00    -0.051 A 
HETATM    6  N11 UNL     1     -34.796  13.000  -4.266  1.00 20.00    -0.273 NA
ENDROOT
BRANCH   5   7
HETATM    7  C10 UNL     1     -34.529  17.066  -2.603  1.00 20.00     0.026 C 
HETATM    8  C8  UNL     1     -35.737  17.624  -1.786  1.00 20.00     0.043 C 
HETATM    9  C6  UNL     1     -34.863  17.399  -0.579  1.00 20.00    -0.088 C 
HETATM   10  C7  UNL     1     -35.120  17.310   0.726  1.00 20.00     0.014 C 
HETATM   11  C9  UNL     1     -33.589  17.316  -1.381  1.00 20.00     0.043 C 
ENDBRANCH   5   7
TORSDOF 1
ENDMDL
MODEL 3
REMARK VINA RESULT:      -4.8     10.584     11.600
REMARK  1 active torsions:
REMARK  status: ('A' for Active; 'I' for Inactive)
REMARK    1  A    between atoms: C5_5  and  C10_10 
ROOT
HETATM    1  C1  UNL     1     -34.297   5.348   3.518  1.00 20.00     0.027 A 
HETATM    2  C2  UNL     1     -33.333   6.320   5.495  1.00 20.00     0.027 A 
HETATM    3  C3  UNL     1     -35.340   4.899   4.312  1.00 20.00     0.116 A 
HETATM    4  C4  UNL     1     -34.420   5.828   6.201  1.00 20.00     0.116 A 
HETATM    5  C5  UNL     1     -33.278   6.071   4.128  1.00 20.00    -0.051 A 
HETATM    6  N11 UNL     1     -35.428   5.122   5.642  1.00 20.00    -0.273 NA
ENDROOT
BRANCH   5   7
HETATM    7  C10 UNL     1     -32.043   6.616   3.258  1.00 20.00     0.026 C 
HETATM    8  C8  UNL     1     -32.288   6.998   1.764  1.00 20.00     0.043 C 
HETATM    9  C6  UNL     1     -32.188   8.424   2.244  1.00 20.00    -0.088 C 
HETATM   10  C7  UNL     1     -32.561   9.589   1.715  1.00 20.00     0.014 C 
HETATM   11  C9  UNL     1     -31.507   8.056   3.538  1.00 20.00     0.043 C 
ENDBRANCH   5   7
TORSDOF 1
ENDMDL
MODEL 4
REMARK VINA RESULT:      -4.8      0.858      1.891
REMARK  1 active torsions:
REMARK  status: ('A' for Active; 'I' for Inactive)
REMARK    1  A    between atoms: C5_5  and  C10_10 
ROOT
HETATM    1  C1  UNL     1     -33.434  15.193  -3.048  1.00 20.00     0.027 A 
HETATM    2  C2  UNL     1     -35.748  14.697  -3.475  1.00 20.00     0.027 A 
HETATM    3  C3  UNL     1     -33.111  14.082  -3.809  1.00 20.00     0.116 A 
HETATM    4  C4  UNL     1     -35.321  13.608  -4.218  1.00 20.00     0.116 A 
HETATM    5  C5  UNL     1     -34.780  15.500  -2.883  1.00 20.00    -0.051 A 
HETATM    6  N11 UNL     1     -34.023  13.279  -4.400  1.00 20.00    -0.273 NA
ENDROOT
BRANCH   5   7
HETATM    7  C10 UNL     1     -35.215  16.777  -2.011  1.00 20.00     0.026 C 
HETATM    8  C8  UNL     1     -34.792  16.840  -0.509  1.00 20.00     0.043 C 
HETATM    9  C6  UNL     1     -33.792  17.871  -0.965  1.00 20.00    -0.088 C 
HETATM   10  C7  UNL     1     -32.685  18.369  -0.413  1.00 20.00     0.014 C 
HETATM   11  C9  UNL     1     -34.499  18.141  -2.268  1.00 20.00     0.043 C 
ENDBRANCH   5   7
TORSDOF 1
ENDMDL
MODEL 5
REMARK VINA RESULT:      -4.5      2.297      4.700
REMARK  1 active torsions:
REMARK  status: ('A' for Active; 'I' for Inactive)
REMARK    1  A    between atoms: C5_5  and  C10_10 
ROOT
HETATM    1  C1  UNL     1     -33.893  17.131  -3.295  1.00 20.00     0.027 A 
HETATM    2  C2  UNL     1     -34.609  16.433  -1.109  1.00 20.00     0.027 A 
HETATM    3  C3  UNL     1     -33.671  18.390  -2.762  1.00 20.00     0.116 A 
HETATM    4  C4  UNL     1     -34.354  17.723  -0.673  1.00 20.00     0.116 A 
HETATM    5  C5  UNL     1     -34.372  16.139  -2.447  1.00 20.00    -0.051 A 
HETATM    6  N11 UNL     1     -33.889  18.712  -1.467  1.00 20.00    -0.273 NA
ENDROOT
BRANCH   5   7
HETATM    7  C10 UNL     1     -34.649  14.661  -3.010  1.00 20.00     0.026 C 
HETATM    8  C8  UNL     1     -35.852  14.441  -3.982  1.00 20.00     0.043 C 
HETATM    9  C6  UNL     1     -34.799  14.325  -5.055  1.00 20.00    -0.088 C 
HETATM   10  C7  UNL     1     -34.845  14.410  -6.385  1.00 20.00     0.014 C 
HETATM   11  C9  UNL     1     -33.677  14.072  -4.081  1.00 20.00     0.043 C 
ENDBRANCH   5   7
TORSDOF 1
ENDMDL
MODEL 6
REMARK VINA RESULT:      -4.5      2.323      4.665
REMARK  1 active torsions:
REMARK  status: ('A' for Active; 'I' for Inactive)
REMARK    1  A    between atoms: C5_5  and  C10_10 
ROOT
HETATM    1  C1  UNL     1     -34.579  16.441  -1.039  1.00 20.00     0.027 A 
HETATM    2  C2  UNL     1     -33.894  17.196  -3.217  1.00 20.00     0.027 A 
HETATM    3  C3  UNL     1     -34.340  17.725  -0.578  1.00 20.00     0.116 A 
HETATM    4  C4  UNL     1     -33.687  18.447  -2.659  1.00 20.00     0.116 A 
HETATM    5  C5  UNL     1     -34.349  16.179  -2.385  1.00 20.00    -0.051 A 
HETATM    6  N11 UNL     1     -33.899  18.739  -1.356  1.00 20.00    -0.273 NA
ENDROOT
BRANCH   5   7
HETATM    7  C10 UNL     1     -34.607  14.708  -2.976  1.00 20.00     0.026 C 
HETATM    8  C8  UNL     1     -35.787  14.499  -3.977  1.00 20.00     0.043 C 
HETATM    9  C6  UNL     1     -34.711  14.403  -5.029  1.00 20.00    -0.088 C 
HETATM   10  C7  UNL     1     -34.728  14.508  -6.358  1.00 20.00     0.014 C 
HETATM   11  C9  UNL     1     -33.610  14.139  -4.034  1.00 20.00     0.043 C 
ENDBRANCH   5   7
TORSDOF 1
ENDMDL
MODEL 7
REMARK VINA RESULT:      -4.5      1.419      1.777
REMARK  1 active torsions:
REMARK  status: ('A' for Active; 'I' for Inactive)
REMARK    1  A    between atoms: C5_5  and  C10_10 
ROOT
HETATM    1  C1  UNL     1     -34.220  15.987  -4.930  1.00 20.00     0.027 A 
HETATM    2  C2  UNL     1     -34.422  14.088  -3.470  1.00 20.00     0.027 A 
HETATM    3  C3  UNL     1     -34.585  15.155  -5.976  1.00 20.00     0.116 A 
HETATM    4  C4  UNL     1     -34.779  13.340  -4.580  1.00 20.00     0.116 A 
HETATM    5  C5  UNL     1     -34.139  15.436  -3.656  1.00 20.00    -0.051 A 
HETATM    6  N11 UNL     1     -34.868  13.841  -5.833  1.00 20.00    -0.273 NA
ENDROOT
BRANCH   5   7
HETATM    7  C10 UNL     1     -33.719  16.353  -2.406  1.00 20.00     0.026 C 
HETATM    8  C8  UNL     1     -33.848  17.904  -2.536  1.00 20.00     0.043 C 
HETATM    9  C6  UNL     1     -35.048  17.753  -1.636  1.00 20.00    -0.088 C 
HETATM   10  C7  UNL     1     -36.084  18.546  -1.362  1.00 20.00     0.014 C 
HETATM   11  C9  UNL     1     -34.650  16.382  -1.152  1.00 20.00     0.043 C 
ENDBRANCH   5   7
TORSDOF 1
ENDMDL
MODEL 8
REMARK VINA RESULT:      -4.4      2.353      4.648
REMARK  1 active torsions:
REMARK  status: ('A' for Active; 'I' for Inactive)
REMARK    1  A    between atoms: C5_5  and  C10_10 
ROOT
HETATM    1  C1  UNL     1     -34.441  16.325  -1.426  1.00 20.00     0.027 A 
HETATM    2  C2  UNL     1     -33.701  18.363  -2.465  1.00 20.00     0.027 A 
HETATM    3  C3  UNL     1     -34.835  17.086  -0.338  1.00 20.00     0.116 A 
HETATM    4  C4  UNL     1     -34.129  19.034  -1.331  1.00 20.00     0.116 A 
HETATM    5  C5  UNL     1     -33.863  16.983  -2.506  1.00 20.00    -0.051 A 
HETATM    6  N11 UNL     1     -34.694  18.428  -0.263  1.00 20.00    -0.273 NA
ENDROOT
BRANCH   5   7
HETATM    7  C10 UNL     1     -33.386  16.152  -3.795  1.00 20.00     0.026 C 
HETATM    8  C8  UNL     1     -32.992  14.651  -3.617  1.00 20.00     0.043 C 
HETATM    9  C6  UNL     1     -34.308  14.357  -4.290  1.00 20.00    -0.088 C 
HETATM   10  C7  UNL     1     -35.069  13.264  -4.361  1.00 20.00     0.014 C 
HETATM   11  C9  UNL     1     -34.451  15.745  -4.861  1.00 20.00     0.043 C 
ENDBRANCH   5   7
TORSDOF 1
ENDMDL
MODEL 9
REMARK VINA RESULT:      -4.4      3.202      5.416
REMARK  1 active torsions:
REMARK  status: ('A' for Active; 'I' for Inactive)
REMARK    1  A    between atoms: C5_5  and  C10_10 
ROOT
HETATM    1  C1  UNL     1     -34.307  18.117   1.046  1.00 20.00     0.027 A 
HETATM    2  C2  UNL     1     -32.465  18.703  -0.384  1.00 20.00     0.027 A 
HETATM    3  C3  UNL     1     -33.551  18.569   2.115  1.00 20.00     0.116 A 
HETATM    4  C4  UNL     1     -31.791  19.129   0.749  1.00 20.00     0.116 A 
HETATM    5  C5  UNL     1     -33.747  18.189  -0.224  1.00 20.00    -0.051 A 
HETATM    6  N11 UNL     1     -32.303  19.076   1.999  1.00 20.00    -0.273 NA
ENDROOT
BRANCH   5   7
HETATM    7  C10 UNL     1     -34.576  17.679  -1.502  1.00 20.00     0.026 C 
HETATM    8  C8  UNL     1     -33.901  17.741  -2.908  1.00 20.00     0.043 C 
HETATM    9  C6  UNL     1     -33.774  16.245  -2.773  1.00 20.00    -0.088 C 
HETATM   10  C7  UNL     1     -33.022  15.337  -3.396  1.00 20.00     0.014 C 
HETATM   11  C9  UNL     1     -34.808  16.145  -1.682  1.00 20.00     0.043 C 
ENDBRANCH   5   7
TORSDOF 1
ENDMDL
