MODEL 1
REMARK VINA RESULT:      -5.8      0.000      0.000
REMARK  1 active torsions:
REMARK  status: ('A' for Active; 'I' for Inactive)
REMARK    1  A    between atoms: C1_1  and  C7_7 
ROOT
HETATM    1  C2  UNL     1     -36.229  16.485  -3.439  1.00 20.00     0.007 C 
HETATM    2  C3  UNL     1     -35.808  15.021  -3.574  1.00 20.00     0.020 C 
HETATM    3  C4  UNL     1     -33.351  15.559  -3.423  1.00 20.00     0.026 C 
HETATM    4  C5  UNL     1     -35.117  17.462  -3.203  1.00 20.00    -0.002 A 
HETATM    5  C6  UNL     1     -33.674  17.009  -3.216  1.00 20.00    -0.000 A 
HETATM    6  C7  UNL     1     -34.436  14.842  -4.231  1.00 20.00     0.045 C 
HETATM    7  C8  UNL     1     -34.290  17.560  -1.932  1.00 20.00    -0.040 A 
HETATM    8  C9  UNL     1     -34.429  15.227  -5.708  1.00 20.00     0.027 C 
HETATM    9  C10 UNL     1     -33.848  18.945  -1.514  1.00 20.00     0.015 C 
HETATM   10  C11 UNL     1     -34.587  16.670  -0.754  1.00 20.00     0.015 C 
ENDROOT
BRANCH   6  11
HETATM   11  C1  UNL     1     -34.128  13.350  -4.151  1.00 20.00     0.181 C 
HETATM   12  O12 UNL     1     -32.965  13.061  -3.755  1.00 20.00    -0.647 OA
HETATM   13  O13 UNL     1     -35.080  12.593  -4.493  1.00 20.00    -0.647 OA
ENDBRANCH   6  11
TORSDOF 1
ENDMDL
MODEL 2
REMARK VINA RESULT:      -5.5      1.066      1.531
REMARK  1 active torsions:
REMARK  status: ('A' for Active; 'I' for Inactive)
REMARK    1  A    between atoms: C1_1  and  C7_7 
ROOT
HETATM    1  C2  UNL     1     -35.542  17.642  -3.612  1.00 20.00     0.007 C 
HETATM    2  C3  UNL     1     -36.126  16.245  -3.818  1.00 20.00     0.020 C 
HETATM    3  C4  UNL     1     -34.089  15.093  -2.884  1.00 20.00     0.026 C 
HETATM    4  C5  UNL     1     -34.207  17.695  -2.931  1.00 20.00    -0.002 A 
HETATM    5  C6  UNL     1     -33.466  16.423  -2.584  1.00 20.00    -0.000 A 
HETATM    6  C7  UNL     1     -35.063  15.172  -4.064  1.00 20.00     0.045 C 
HETATM    7  C8  UNL     1     -33.952  17.350  -1.472  1.00 20.00    -0.040 A 
HETATM    8  C9  UNL     1     -34.356  15.331  -5.407  1.00 20.00     0.027 C 
HETATM    9  C10 UNL     1     -32.893  18.160  -0.758  1.00 20.00     0.015 C 
HETATM   10  C11 UNL     1     -35.092  16.965  -0.566  1.00 20.00     0.015 C 
ENDROOT
BRANCH   6  11
HETATM   11  C1  UNL     1     -35.812  13.843  -4.103  1.00 20.00     0.181 C 
HETATM   12  O12 UNL     1     -37.058  13.922  -3.921  1.00 20.00    -0.647 OA
HETATM   13  O13 UNL     1     -35.086  12.832  -4.314  1.00 20.00    -0.647 OA
ENDBRANCH   6  11
TORSDOF 1
ENDMDL
MODEL 3
REMARK VINA RESULT:      -5.2      1.255      2.007
REMARK  1 active torsions:
REMARK  status: ('A' for Active; 'I' for Inactive)
REMARK    1  A    between atoms: C1_1  and  C7_7 
ROOT
HETATM    1  C2  UNL     1     -33.693  16.897  -4.971  1.00 20.00     0.007 C 
HETATM    2  C3  UNL     1     -34.572  15.652  -5.090  1.00 20.00     0.020 C 
HETATM    3  C4  UNL     1     -34.921  15.477  -2.601  1.00 20.00     0.026 C 
HETATM    4  C5  UNL     1     -33.533  17.450  -3.586  1.00 20.00    -0.002 A 
HETATM    5  C6  UNL     1     -34.126  16.732  -2.395  1.00 20.00    -0.000 A 
HETATM    6  C7  UNL     1     -34.492  14.733  -3.869  1.00 20.00     0.045 C 
HETATM    7  C8  UNL     1     -34.631  18.122  -2.778  1.00 20.00    -0.040 A 
HETATM    8  C9  UNL     1     -33.135  14.049  -3.727  1.00 20.00     0.027 C 
HETATM    9  C10 UNL     1     -34.211  19.263  -1.878  1.00 20.00     0.015 C 
HETATM   10  C11 UNL     1     -36.000  18.328  -3.369  1.00 20.00     0.015 C 
ENDROOT
BRANCH   6  11
HETATM   11  C1  UNL     1     -35.527  13.637  -4.104  1.00 20.00     0.181 C 
HETATM   12  O12 UNL     1     -35.059  12.524  -4.471  1.00 20.00    -0.647 OA
HETATM   13  O13 UNL     1     -36.724  13.985  -3.899  1.00 20.00    -0.647 OA
ENDBRANCH   6  11
TORSDOF 1
ENDMDL
MODEL 4
REMARK VINA RESULT:      -5.2      1.896      2.775
REMARK  1 active torsions:
REMARK  status: ('A' for Active; 'I' for Inactive)
REMARK    1  A    between atoms: C1_1  and  C7_7 
ROOT
HETATM    1  C2  UNL     1     -33.063  15.854  -4.156  1.00 20.00     0.007 C 
HETATM    2  C3  UNL     1     -34.005  15.683  -5.348  1.00 20.00     0.020 C 
HETATM    3  C4  UNL     1     -35.966  15.051  -3.899  1.00 20.00     0.026 C 
HETATM    4  C5  UNL     1     -33.688  15.684  -2.804  1.00 20.00    -0.002 A 
HETATM    5  C6  UNL     1     -35.134  15.261  -2.669  1.00 20.00    -0.000 A 
HETATM    6  C7  UNL     1     -35.111  14.654  -5.105  1.00 20.00     0.045 C 
HETATM    7  C8  UNL     1     -34.692  16.637  -2.176  1.00 20.00    -0.040 A 
HETATM    8  C9  UNL     1     -34.584  13.224  -5.015  1.00 20.00     0.027 C 
HETATM    9  C10 UNL     1     -34.608  16.821  -0.677  1.00 20.00     0.015 C 
HETATM   10  C11 UNL     1     -35.100  17.899  -2.889  1.00 20.00     0.015 C 
ENDROOT
BRANCH   6  11
HETATM   11  C1  UNL     1     -36.020  14.722  -6.328  1.00 20.00     0.181 C 
HETATM   12  O12 UNL     1     -35.499  14.334  -7.410  1.00 20.00    -0.647 OA
HETATM   13  O13 UNL     1     -37.183  15.159  -6.100  1.00 20.00    -0.647 OA
ENDBRANCH   6  11
TORSDOF 1
ENDMDL
MODEL 5
REMARK VINA RESULT:      -5.1      2.271      4.352
REMARK  1 active torsions:
REMARK  status: ('A' for Active; 'I' for Inactive)
REMARK    1  A    between atoms: C1_1  and  C7_7 
ROOT
HETATM    1  C2  UNL     1     -35.162  13.461  -4.201  1.00 20.00     0.007 C 
HETATM    2  C3  UNL     1     -34.977  14.568  -3.162  1.00 20.00     0.020 C 
HETATM    3  C4  UNL     1     -34.178  16.240  -4.869  1.00 20.00     0.026 C 
HETATM    4  C5  UNL     1     -34.906  13.855  -5.624  1.00 20.00    -0.002 A 
HETATM    5  C6  UNL     1     -34.393  15.237  -5.963  1.00 20.00    -0.000 A 
HETATM    6  C7  UNL     1     -33.876  15.566  -3.528  1.00 20.00     0.045 C 
HETATM    7  C8  UNL     1     -35.774  14.796  -6.443  1.00 20.00    -0.040 A 
HETATM    8  C9  UNL     1     -32.478  14.956  -3.471  1.00 20.00     0.027 C 
HETATM    9  C10 UNL     1     -35.908  14.487  -7.918  1.00 20.00     0.015 C 
HETATM   10  C11 UNL     1     -37.035  15.378  -5.859  1.00 20.00     0.015 C 
ENDROOT
BRANCH   6  11
HETATM   11  C1  UNL     1     -33.934  16.659  -2.465  1.00 20.00     0.181 C 
HETATM   12  O12 UNL     1     -33.577  17.806  -2.852  1.00 20.00    -0.647 OA
HETATM   13  O13 UNL     1     -34.335  16.275  -1.331  1.00 20.00    -0.647 OA
ENDBRANCH   6  11
TORSDOF 1
ENDMDL
MODEL 6
REMARK VINA RESULT:      -5.1      1.829      3.615
REMARK  1 active torsions:
REMARK  status: ('A' for Active; 'I' for Inactive)
REMARK    1  A    between atoms: C1_1  and  C7_7 
ROOT
HETATM    1  C2  UNL     1     -33.451  17.202  -4.832  1.00 20.00     0.007 C 
HETATM    2  C3  UNL     1     -33.248  15.706  -4.588  1.00 20.00     0.020 C 
HETATM    3  C4  UNL     1     -35.679  15.163  -4.967  1.00 20.00     0.026 C 
HETATM    4  C5  UNL     1     -34.834  17.613  -5.240  1.00 20.00    -0.002 A 
HETATM    5  C6  UNL     1     -35.957  16.601  -5.288  1.00 20.00    -0.000 A 
HETATM    6  C7  UNL     1     -34.487  15.011  -4.018  1.00 20.00     0.045 C 
HETATM    7  C8  UNL     1     -35.490  17.285  -6.571  1.00 20.00    -0.040 A 
HETATM    8  C9  UNL     1     -34.807  15.441  -2.589  1.00 20.00     0.027 C 
HETATM    9  C10 UNL     1     -36.413  18.334  -7.151  1.00 20.00     0.015 C 
HETATM   10  C11 UNL     1     -34.732  16.533  -7.634  1.00 20.00     0.015 C 
ENDROOT
BRANCH   6  11
HETATM   11  C1  UNL     1     -34.148  13.524  -3.976  1.00 20.00     0.181 C 
HETATM   12  O12 UNL     1     -35.084  12.748  -4.314  1.00 20.00    -0.647 OA
HETATM   13  O13 UNL     1     -32.969  13.259  -3.609  1.00 20.00    -0.647 OA
ENDBRANCH   6  11
TORSDOF 1
ENDMDL
MODEL 7
REMARK VINA RESULT:      -4.9      2.642      4.539
REMARK  1 active torsions:
REMARK  status: ('A' for Active; 'I' for Inactive)
REMARK    1  A    between atoms: C1_1  and  C7_7 
ROOT
HETATM    1  C2  UNL     1     -36.437  16.325  -3.217  1.00 20.00     0.007 C 
HETATM    2  C3  UNL     1     -35.558  17.532  -2.888  1.00 20.00     0.020 C 
HETATM    3  C4  UNL     1     -33.459  16.147  -2.728  1.00 20.00     0.026 C 
HETATM    4  C5  UNL     1     -35.717  15.020  -3.375  1.00 20.00    -0.002 A 
HETATM    5  C6  UNL     1     -34.231  14.921  -3.111  1.00 20.00    -0.000 A 
HETATM    6  C7  UNL     1     -34.343  17.182  -2.025  1.00 20.00     0.045 C 
HETATM    7  C8  UNL     1     -34.775  14.671  -4.516  1.00 20.00    -0.040 A 
HETATM    8  C9  UNL     1     -34.721  16.773  -0.604  1.00 20.00     0.027 C 
HETATM    9  C10 UNL     1     -34.785  13.234  -4.990  1.00 20.00     0.015 C 
HETATM   10  C11 UNL     1     -34.537  15.646  -5.638  1.00 20.00     0.015 C 
ENDROOT
BRANCH   6  11
HETATM   11  C1  UNL     1     -33.521  18.463  -1.923  1.00 20.00     0.181 C 
HETATM   12  O12 UNL     1     -33.483  19.164  -2.971  1.00 20.00    -0.647 OA
HETATM   13  O13 UNL     1     -32.984  18.659  -0.797  1.00 20.00    -0.647 OA
ENDBRANCH   6  11
TORSDOF 1
ENDMDL
MODEL 8
REMARK VINA RESULT:      -4.9      1.765      3.187
REMARK  1 active torsions:
REMARK  status: ('A' for Active; 'I' for Inactive)
REMARK    1  A    between atoms: C1_1  and  C7_7 
ROOT
HETATM    1  C2  UNL     1     -34.816  16.519  -6.201  1.00 20.00     0.007 C 
HETATM    2  C3  UNL     1     -34.397  15.096  -5.833  1.00 20.00     0.020 C 
HETATM    3  C4  UNL     1     -35.747  15.089  -3.706  1.00 20.00     0.026 C 
HETATM    4  C5  UNL     1     -35.810  17.163  -5.282  1.00 20.00    -0.002 A 
HETATM    5  C6  UNL     1     -36.263  16.461  -4.021  1.00 20.00    -0.000 A 
HETATM    6  C7  UNL     1     -34.368  14.842  -4.324  1.00 20.00     0.045 C 
HETATM    7  C8  UNL     1     -37.265  16.750  -5.136  1.00 20.00    -0.040 A 
HETATM    8  C9  UNL     1     -33.254  15.606  -3.614  1.00 20.00     0.027 C 
HETATM    9  C10 UNL     1     -38.263  17.857  -4.876  1.00 20.00     0.015 C 
HETATM   10  C11 UNL     1     -37.837  15.647  -5.987  1.00 20.00     0.015 C 
ENDROOT
BRANCH   6  11
HETATM   11  C1  UNL     1     -34.073  13.354  -4.157  1.00 20.00     0.181 C 
HETATM   12  O12 UNL     1     -32.912  13.078  -3.749  1.00 20.00    -0.647 OA
HETATM   13  O13 UNL     1     -35.034  12.588  -4.447  1.00 20.00    -0.647 OA
ENDBRANCH   6  11
TORSDOF 1
ENDMDL
MODEL 9
REMARK VINA RESULT:      -4.9      3.007      4.672
REMARK  1 active torsions:
REMARK  status: ('A' for Active; 'I' for Inactive)
REMARK    1  A    between atoms: C1_1  and  C7_7 
ROOT
HETATM    1  C2  UNL     1     -34.369  17.384  -4.306  1.00 20.00     0.007 C 
HETATM    2  C3  UNL     1     -33.676  18.093  -3.141  1.00 20.00     0.020 C 
HETATM    3  C4  UNL     1     -34.419  16.372  -1.458  1.00 20.00     0.026 C 
HETATM    4  C5  UNL     1     -35.024  16.077  -3.975  1.00 20.00    -0.002 A 
HETATM    5  C6  UNL     1     -35.071  15.576  -2.548  1.00 20.00    -0.000 A 
HETATM    6  C7  UNL     1     -34.367  17.865  -1.794  1.00 20.00     0.045 C 
HETATM    7  C8  UNL     1     -34.290  14.798  -3.605  1.00 20.00    -0.040 A 
HETATM    8  C9  UNL     1     -35.731  18.543  -1.703  1.00 20.00     0.027 C 
HETATM    9  C10 UNL     1     -34.907  13.500  -4.079  1.00 20.00     0.015 C 
HETATM   10  C11 UNL     1     -32.785  14.753  -3.599  1.00 20.00     0.015 C 
ENDROOT
BRANCH   6  11
HETATM   11  C1  UNL     1     -33.467  18.519  -0.749  1.00 20.00     0.181 C 
HETATM   12  O12 UNL     1     -33.740  18.233   0.449  1.00 20.00    -0.647 OA
HETATM   13  O13 UNL     1     -32.562  19.262  -1.220  1.00 20.00    -0.647 OA
ENDBRANCH   6  11
TORSDOF 1
ENDMDL
