MODEL 1
REMARK VINA RESULT:      -5.5      0.000      0.000
REMARK  0 active torsions:
REMARK  status: ('A' for Active; 'I' for Inactive)
ROOT
HETATM    1  C1  UNL     1     -31.796   7.654   2.328  1.00 20.00     0.012 C 
HETATM    2  C2  UNL     1     -32.684   7.259   3.031  1.00 20.00    -0.113 C 
HETATM    3  C3  UNL     1     -35.014   4.826   5.668  1.00 20.00     0.127 C 
HETATM    4  C4  UNL     1     -34.370   6.064   6.251  1.00 20.00     0.079 C 
HETATM    5  C5  UNL     1     -35.460   4.914   4.227  1.00 20.00     0.079 C 
HETATM    6  C6  UNL     1     -33.271   6.581   5.332  1.00 20.00     0.024 C 
HETATM    7  C7  UNL     1     -34.340   5.455   3.349  1.00 20.00     0.024 C 
HETATM    8  C8  UNL     1     -33.775   6.774   3.894  1.00 20.00     0.065 C 
HETATM    9  O9  UNL     1     -35.258   3.839   6.360  1.00 20.00    -0.298 OA
ENDROOT
TORSDOF 0
ENDMDL
MODEL 2
REMARK VINA RESULT:      -4.6     11.769     13.494
REMARK  0 active torsions:
REMARK  status: ('A' for Active; 'I' for Inactive)
ROOT
HETATM    1  C1  UNL     1     -33.556  18.957  -4.764  1.00 20.00     0.012 C 
HETATM    2  C2  UNL     1     -33.495  17.766  -4.892  1.00 20.00    -0.113 C 
HETATM    3  C3  UNL     1     -34.420  13.595  -4.675  1.00 20.00     0.127 C 
HETATM    4  C4  UNL     1     -34.595  14.277  -6.013  1.00 20.00     0.079 C 
HETATM    5  C5  UNL     1     -33.299  14.105  -3.800  1.00 20.00     0.079 C 
HETATM    6  C6  UNL     1     -34.630  15.791  -5.844  1.00 20.00     0.024 C 
HETATM    7  C7  UNL     1     -33.360  15.621  -3.676  1.00 20.00     0.024 C 
HETATM    8  C8  UNL     1     -33.420  16.303  -5.050  1.00 20.00     0.065 C 
HETATM    9  O9  UNL     1     -35.086  12.610  -4.362  1.00 20.00    -0.298 OA
ENDROOT
TORSDOF 0
ENDMDL
MODEL 3
REMARK VINA RESULT:      -4.6     12.075     13.164
REMARK  0 active torsions:
REMARK  status: ('A' for Active; 'I' for Inactive)
ROOT
HETATM    1  C1  UNL     1     -34.653  16.687  -0.765  1.00 20.00     0.012 C 
HETATM    2  C2  UNL     1     -34.334  16.201  -1.815  1.00 20.00    -0.113 C 
HETATM    3  C3  UNL     1     -34.486  14.663  -5.804  1.00 20.00     0.127 C 
HETATM    4  C4  UNL     1     -33.820  16.005  -5.600  1.00 20.00     0.079 C 
HETATM    5  C5  UNL     1     -34.346  13.664  -4.678  1.00 20.00     0.079 C 
HETATM    6  C6  UNL     1     -34.200  16.595  -4.248  1.00 20.00     0.024 C 
HETATM    7  C7  UNL     1     -34.714  14.301  -3.345  1.00 20.00     0.024 C 
HETATM    8  C8  UNL     1     -33.942  15.605  -3.103  1.00 20.00     0.065 C 
HETATM    9  O9  UNL     1     -35.021  14.363  -6.869  1.00 20.00    -0.298 OA
ENDROOT
TORSDOF 0
ENDMDL
MODEL 4
REMARK VINA RESULT:      -4.5     11.825     12.317
REMARK  0 active torsions:
REMARK  status: ('A' for Active; 'I' for Inactive)
ROOT
HETATM    1  C1  UNL     1     -34.809  17.191  -0.377  1.00 20.00     0.012 C 
HETATM    2  C2  UNL     1     -34.795  16.649  -1.448  1.00 20.00    -0.113 C 
HETATM    3  C3  UNL     1     -34.872  13.643  -4.491  1.00 20.00     0.127 C 
HETATM    4  C4  UNL     1     -36.103  14.507  -4.335  1.00 20.00     0.079 C 
HETATM    5  C5  UNL     1     -33.544  14.303  -4.198  1.00 20.00     0.079 C 
HETATM    6  C6  UNL     1     -36.091  15.223  -2.991  1.00 20.00     0.024 C 
HETATM    7  C7  UNL     1     -33.585  15.023  -2.857  1.00 20.00     0.024 C 
HETATM    8  C8  UNL     1     -34.778  15.983  -2.762  1.00 20.00     0.065 C 
HETATM    9  O9  UNL     1     -34.939  12.497  -4.933  1.00 20.00    -0.298 OA
ENDROOT
TORSDOF 0
ENDMDL
MODEL 5
REMARK VINA RESULT:      -4.4      0.711      1.835
REMARK  0 active torsions:
REMARK  status: ('A' for Active; 'I' for Inactive)
ROOT
HETATM    1  C1  UNL     1     -32.209   8.105   2.058  1.00 20.00     0.012 C 
HETATM    2  C2  UNL     1     -32.542   7.278   2.861  1.00 20.00    -0.113 C 
HETATM    3  C3  UNL     1     -34.791   5.120   5.791  1.00 20.00     0.127 C 
HETATM    4  C4  UNL     1     -34.713   4.530   4.401  1.00 20.00     0.079 C 
HETATM    5  C5  UNL     1     -33.576   5.882   6.269  1.00 20.00     0.079 C 
HETATM    6  C6  UNL     1     -34.250   5.578   3.397  1.00 20.00     0.024 C 
HETATM    7  C7  UNL     1     -33.137   6.902   5.227  1.00 20.00     0.024 C 
HETATM    8  C8  UNL     1     -32.950   6.261   3.845  1.00 20.00     0.065 C 
HETATM    9  O9  UNL     1     -35.748   4.902   6.532  1.00 20.00    -0.298 OA
ENDROOT
TORSDOF 0
ENDMDL
MODEL 6
REMARK VINA RESULT:      -4.4     12.067     12.566
REMARK  0 active torsions:
REMARK  status: ('A' for Active; 'I' for Inactive)
ROOT
HETATM    1  C1  UNL     1     -33.755  17.732  -1.056  1.00 20.00     0.012 C 
HETATM    2  C2  UNL     1     -34.077  16.744  -1.656  1.00 20.00    -0.113 C 
HETATM    3  C3  UNL     1     -35.072  14.046  -4.824  1.00 20.00     0.127 C 
HETATM    4  C4  UNL     1     -33.734  13.859  -4.145  1.00 20.00     0.079 C 
HETATM    5  C5  UNL     1     -36.203  14.548  -3.955  1.00 20.00     0.079 C 
HETATM    6  C6  UNL     1     -33.353  15.104  -3.353  1.00 20.00     0.024 C 
HETATM    7  C7  UNL     1     -35.773  15.777  -3.167  1.00 20.00     0.024 C 
HETATM    8  C8  UNL     1     -34.471  15.531  -2.392  1.00 20.00     0.065 C 
HETATM    9  O9  UNL     1     -35.256  13.709  -5.991  1.00 20.00    -0.298 OA
ENDROOT
TORSDOF 0
ENDMDL
MODEL 7
REMARK VINA RESULT:      -4.3      9.099     10.513
REMARK  0 active torsions:
REMARK  status: ('A' for Active; 'I' for Inactive)
ROOT
HETATM    1  C1  UNL     1     -41.646   2.077  -3.514  1.00 20.00     0.012 C 
HETATM    2  C2  UNL     1     -41.810   3.015  -2.784  1.00 20.00    -0.113 C 
HETATM    3  C3  UNL     1     -41.462   6.876  -0.975  1.00 20.00     0.127 C 
HETATM    4  C4  UNL     1     -42.703   6.601  -1.794  1.00 20.00     0.079 C 
HETATM    5  C5  UNL     1     -40.875   5.701  -0.227  1.00 20.00     0.079 C 
HETATM    6  C6  UNL     1     -42.499   5.384  -2.687  1.00 20.00     0.024 C 
HETATM    7  C7  UNL     1     -40.708   4.503  -1.151  1.00 20.00     0.024 C 
HETATM    8  C8  UNL     1     -42.012   4.167  -1.889  1.00 20.00     0.065 C 
HETATM    9  O9  UNL     1     -41.016   8.014  -0.840  1.00 20.00    -0.298 OA
ENDROOT
TORSDOF 0
ENDMDL
MODEL 8
REMARK VINA RESULT:      -4.3     11.690     13.499
REMARK  0 active torsions:
REMARK  status: ('A' for Active; 'I' for Inactive)
ROOT
HETATM    1  C1  UNL     1     -34.754  17.444  -7.822  1.00 20.00     0.012 C 
HETATM    2  C2  UNL     1     -34.721  16.737  -6.852  1.00 20.00    -0.113 C 
HETATM    3  C3  UNL     1     -33.498  13.797  -3.996  1.00 20.00     0.127 C 
HETATM    4  C4  UNL     1     -33.325  15.250  -3.616  1.00 20.00     0.079 C 
HETATM    5  C5  UNL     1     -34.687  13.466  -4.870  1.00 20.00     0.079 C 
HETATM    6  C6  UNL     1     -33.408  16.142  -4.848  1.00 20.00     0.024 C 
HETATM    7  C7  UNL     1     -34.743  14.394  -6.076  1.00 20.00     0.024 C 
HETATM    8  C8  UNL     1     -34.682  15.871  -5.662  1.00 20.00     0.065 C 
HETATM    9  O9  UNL     1     -32.774  12.918  -3.533  1.00 20.00    -0.298 OA
ENDROOT
TORSDOF 0
ENDMDL
MODEL 9
REMARK VINA RESULT:      -3.9     12.406     13.618
REMARK  0 active torsions:
REMARK  status: ('A' for Active; 'I' for Inactive)
ROOT
HETATM    1  C1  UNL     1     -34.850  17.733   1.148  1.00 20.00     0.012 C 
HETATM    2  C2  UNL     1     -34.852  17.584  -0.043  1.00 20.00    -0.113 C 
HETATM    3  C3  UNL     1     -33.593  16.723  -4.040  1.00 20.00     0.127 C 
HETATM    4  C4  UNL     1     -34.500  15.718  -3.364  1.00 20.00     0.079 C 
HETATM    5  C5  UNL     1     -33.806  18.174  -3.674  1.00 20.00     0.079 C 
HETATM    6  C6  UNL     1     -34.522  15.943  -1.858  1.00 20.00     0.024 C 
HETATM    7  C7  UNL     1     -33.843  18.348  -2.162  1.00 20.00     0.024 C 
HETATM    8  C8  UNL     1     -34.854  17.399  -1.504  1.00 20.00     0.065 C 
HETATM    9  O9  UNL     1     -32.799  16.388  -4.917  1.00 20.00    -0.298 OA
ENDROOT
TORSDOF 0
ENDMDL
