MODEL 1
REMARK VINA RESULT:      -4.3      0.000      0.000
REMARK  2 active torsions:
REMARK  status: ('A' for Active; 'I' for Inactive)
REMARK    1  A    between atoms: C1_1  and  C5_5 
REMARK    2  A    between atoms: C4_4  and  C5_5 
ROOT
HETATM    1  C2  UNL     1     -36.335  14.945  -3.980  1.00 20.00     0.032 C 
HETATM    2  C3  UNL     1     -34.350  15.591  -2.603  1.00 20.00     0.032 C 
HETATM    3  C5  UNL     1     -34.803  14.933  -3.911  1.00 20.00     0.100 C 
ENDROOT
BRANCH   3   4
HETATM    4  C1  UNL     1     -34.259  13.479  -4.010  1.00 20.00     0.186 C 
HETATM    5  O6  UNL     1     -33.051  13.318  -3.671  1.00 20.00    -0.647 OA
HETATM    6  O7  UNL     1     -35.088  12.606  -4.401  1.00 20.00    -0.647 OA
ENDBRANCH   3   4
BRANCH   3   7
HETATM    7  C4  UNL     1     -34.219  15.688  -5.108  1.00 20.00     0.371 C 
HETATM    8  F8  UNL     1     -34.091  14.863  -6.178  1.00 20.00    -0.213 F 
HETATM    9  F9  UNL     1     -32.976  16.151  -4.821  1.00 20.00    -0.213 F 
ENDBRANCH   3   7
TORSDOF 2
ENDMDL
MODEL 2
REMARK VINA RESULT:      -4.3      0.014      1.074
REMARK  2 active torsions:
REMARK  status: ('A' for Active; 'I' for Inactive)
REMARK    1  A    between atoms: C1_1  and  C5_5 
REMARK    2  A    between atoms: C4_4  and  C5_5 
ROOT
HETATM    1  C2  UNL     1     -36.339  14.956  -3.976  1.00 20.00     0.032 C 
HETATM    2  C3  UNL     1     -34.357  15.600  -2.592  1.00 20.00     0.032 C 
HETATM    3  C5  UNL     1     -34.807  14.940  -3.901  1.00 20.00     0.100 C 
ENDROOT
BRANCH   3   4
HETATM    4  C1  UNL     1     -34.266  13.485  -3.995  1.00 20.00     0.186 C 
HETATM    5  O6  UNL     1     -35.090  12.615  -4.402  1.00 20.00    -0.647 OA
HETATM    6  O7  UNL     1     -33.053  13.326  -3.674  1.00 20.00    -0.647 OA
ENDBRANCH   3   4
BRANCH   3   7
HETATM    7  C4  UNL     1     -34.217  15.692  -5.096  1.00 20.00     0.371 C 
HETATM    8  F8  UNL     1     -34.084  14.864  -6.163  1.00 20.00    -0.213 F 
HETATM    9  F9  UNL     1     -32.975  16.155  -4.805  1.00 20.00    -0.213 F 
ENDBRANCH   3   7
TORSDOF 2
ENDMDL
MODEL 3
REMARK VINA RESULT:      -4.2      1.174      1.738
REMARK  2 active torsions:
REMARK  status: ('A' for Active; 'I' for Inactive)
REMARK    1  A    between atoms: C1_1  and  C5_5 
REMARK    2  A    between atoms: C4_4  and  C5_5 
ROOT
HETATM    1  C2  UNL     1     -34.734  15.276  -5.710  1.00 20.00     0.032 C 
HETATM    2  C3  UNL     1     -35.613  15.239  -3.369  1.00 20.00     0.032 C 
HETATM    3  C5  UNL     1     -34.423  14.874  -4.263  1.00 20.00     0.100 C 
ENDROOT
BRANCH   3   4
HETATM    4  C1  UNL     1     -34.114  13.352  -4.170  1.00 20.00     0.186 C 
HETATM    5  O6  UNL     1     -32.953  13.049  -3.769  1.00 20.00    -0.647 OA
HETATM    6  O7  UNL     1     -35.063  12.576  -4.484  1.00 20.00    -0.647 OA
ENDBRANCH   3   4
BRANCH   3   7
HETATM    7  C4  UNL     1     -33.163  15.595  -3.779  1.00 20.00     0.371 C 
HETATM    8  F8  UNL     1     -33.313  16.008  -2.495  1.00 20.00    -0.213 F 
HETATM    9  F9  UNL     1     -32.931  16.706  -4.521  1.00 20.00    -0.213 F 
ENDBRANCH   3   7
TORSDOF 2
ENDMDL
MODEL 4
REMARK VINA RESULT:      -4.2      1.045      1.554
REMARK  2 active torsions:
REMARK  status: ('A' for Active; 'I' for Inactive)
REMARK    1  A    between atoms: C1_1  and  C5_5 
REMARK    2  A    between atoms: C4_4  and  C5_5 
ROOT
HETATM    1  C2  UNL     1     -34.688  15.525  -2.662  1.00 20.00     0.032 C 
HETATM    2  C3  UNL     1     -32.955  13.974  -3.584  1.00 20.00     0.032 C 
HETATM    3  C5  UNL     1     -34.284  14.681  -3.877  1.00 20.00     0.100 C 
ENDROOT
BRANCH   3   4
HETATM    4  C1  UNL     1     -35.392  13.644  -4.220  1.00 20.00     0.186 C 
HETATM    5  O6  UNL     1     -34.986  12.497  -4.568  1.00 20.00    -0.647 OA
HETATM    6  O7  UNL     1     -36.584  14.049  -4.095  1.00 20.00    -0.647 OA
ENDBRANCH   3   4
BRANCH   3   7
HETATM    7  C4  UNL     1     -34.141  15.574  -5.112  1.00 20.00     0.371 C 
HETATM    8  F8  UNL     1     -34.120  14.825  -6.244  1.00 20.00    -0.213 F 
HETATM    9  F9  UNL     1     -32.970  16.258  -5.075  1.00 20.00    -0.213 F 
ENDBRANCH   3   7
TORSDOF 2
ENDMDL
MODEL 5
REMARK VINA RESULT:      -4.1      1.793      2.407
REMARK  2 active torsions:
REMARK  status: ('A' for Active; 'I' for Inactive)
REMARK    1  A    between atoms: C1_1  and  C5_5 
REMARK    2  A    between atoms: C4_4  and  C5_5 
ROOT
HETATM    1  C2  UNL     1     -33.006  15.701  -3.936  1.00 20.00     0.032 C 
HETATM    2  C3  UNL     1     -34.837  15.318  -5.596  1.00 20.00     0.032 C 
HETATM    3  C5  UNL     1     -34.313  14.945  -4.204  1.00 20.00     0.100 C 
ENDROOT
BRANCH   3   4
HETATM    4  C1  UNL     1     -34.094  13.409  -4.095  1.00 20.00     0.186 C 
HETATM    5  O6  UNL     1     -32.932  13.041  -3.757  1.00 20.00    -0.647 OA
HETATM    6  O7  UNL     1     -35.106  12.689  -4.335  1.00 20.00    -0.647 OA
ENDBRANCH   3   4
BRANCH   3   7
HETATM    7  C4  UNL     1     -35.353  15.303  -3.140  1.00 20.00     0.371 C 
HETATM    8  F8  UNL     1     -35.987  16.460  -3.461  1.00 20.00    -0.213 F 
HETATM    9  F9  UNL     1     -34.758  15.506  -1.938  1.00 20.00    -0.213 F 
ENDBRANCH   3   7
TORSDOF 2
ENDMDL
MODEL 6
REMARK VINA RESULT:      -4.1      1.511      2.165
REMARK  2 active torsions:
REMARK  status: ('A' for Active; 'I' for Inactive)
REMARK    1  A    between atoms: C1_1  and  C5_5 
REMARK    2  A    between atoms: C4_4  and  C5_5 
ROOT
HETATM    1  C2  UNL     1     -34.548  14.775  -6.366  1.00 20.00     0.032 C 
HETATM    2  C3  UNL     1     -35.661  16.254  -4.684  1.00 20.00     0.032 C 
HETATM    3  C5  UNL     1     -34.853  14.965  -4.875  1.00 20.00     0.100 C 
ENDROOT
BRANCH   3   4
HETATM    4  C1  UNL     1     -35.632  13.741  -4.313  1.00 20.00     0.186 C 
HETATM    5  O6  UNL     1     -35.015  12.637  -4.335  1.00 20.00    -0.647 OA
HETATM    6  O7  UNL     1     -36.794  13.982  -3.874  1.00 20.00    -0.647 OA
ENDBRANCH   3   4
BRANCH   3   7
HETATM    7  C4  UNL     1     -33.548  15.041  -4.079  1.00 20.00     0.371 C 
HETATM    8  F8  UNL     1     -33.801  15.290  -2.769  1.00 20.00    -0.213 F 
HETATM    9  F9  UNL     1     -32.773  16.060  -4.527  1.00 20.00    -0.213 F 
ENDBRANCH   3   7
TORSDOF 2
ENDMDL
MODEL 7
REMARK VINA RESULT:      -4.0      1.785      2.772
REMARK  2 active torsions:
REMARK  status: ('A' for Active; 'I' for Inactive)
REMARK    1  A    between atoms: C1_1  and  C5_5 
REMARK    2  A    between atoms: C4_4  and  C5_5 
ROOT
HETATM    1  C2  UNL     1     -33.222  15.860  -4.501  1.00 20.00     0.032 C 
HETATM    2  C3  UNL     1     -34.464  14.932  -6.463  1.00 20.00     0.032 C 
HETATM    3  C5  UNL     1     -34.346  14.912  -4.934  1.00 20.00     0.100 C 
ENDROOT
BRANCH   3   4
HETATM    4  C1  UNL     1     -34.076  13.467  -4.424  1.00 20.00     0.186 C 
HETATM    5  O6  UNL     1     -34.860  12.574  -4.858  1.00 20.00    -0.647 OA
HETATM    6  O7  UNL     1     -33.089  13.334  -3.645  1.00 20.00    -0.647 OA
ENDBRANCH   3   4
BRANCH   3   7
HETATM    7  C4  UNL     1     -35.671  15.346  -4.301  1.00 20.00     0.371 C 
HETATM    8  F8  UNL     1     -35.799  14.823  -3.056  1.00 20.00    -0.213 F 
HETATM    9  F9  UNL     1     -36.721  14.888  -5.027  1.00 20.00    -0.213 F 
ENDBRANCH   3   7
TORSDOF 2
ENDMDL
MODEL 8
REMARK VINA RESULT:      -3.9      1.985      2.696
REMARK  2 active torsions:
REMARK  status: ('A' for Active; 'I' for Inactive)
REMARK    1  A    between atoms: C1_1  and  C5_5 
REMARK    2  A    between atoms: C4_4  and  C5_5 
ROOT
HETATM    1  C2  UNL     1     -33.827  15.804  -4.837  1.00 20.00     0.032 C 
HETATM    2  C3  UNL     1     -34.786  15.581  -2.538  1.00 20.00     0.032 C 
HETATM    3  C5  UNL     1     -34.669  14.915  -3.914  1.00 20.00     0.100 C 
ENDROOT
BRANCH   3   4
HETATM    4  C1  UNL     1     -36.079  14.667  -4.525  1.00 20.00     0.186 C 
HETATM    5  O6  UNL     1     -36.263  15.125  -5.689  1.00 20.00    -0.647 OA
HETATM    6  O7  UNL     1     -36.886  14.016  -3.800  1.00 20.00    -0.647 OA
ENDBRANCH   3   4
BRANCH   3   7
HETATM    7  C4  UNL     1     -34.017  13.537  -3.776  1.00 20.00     0.371 C 
HETATM    8  F8  UNL     1     -32.674  13.657  -3.626  1.00 20.00    -0.213 F 
HETATM    9  F9  UNL     1     -34.220  12.797  -4.894  1.00 20.00    -0.213 F 
ENDBRANCH   3   7
TORSDOF 2
ENDMDL
MODEL 9
REMARK VINA RESULT:      -3.9     12.602     13.214
REMARK  2 active torsions:
REMARK  status: ('A' for Active; 'I' for Inactive)
REMARK    1  A    between atoms: C1_1  and  C5_5 
REMARK    2  A    between atoms: C4_4  and  C5_5 
ROOT
HETATM    1  C2  UNL     1     -34.303   6.586   5.922  1.00 20.00     0.032 C 
HETATM    2  C3  UNL     1     -35.778   5.757   4.079  1.00 20.00     0.032 C 
HETATM    3  C5  UNL     1     -34.388   5.642   4.716  1.00 20.00     0.100 C 
ENDROOT
BRANCH   3   4
HETATM    4  C1  UNL     1     -33.279   5.975   3.677  1.00 20.00     0.186 C 
HETATM    5  O6  UNL     1     -33.406   5.432   2.542  1.00 20.00    -0.647 OA
HETATM    6  O7  UNL     1     -32.377   6.771   4.069  1.00 20.00    -0.647 OA
ENDBRANCH   3   4
BRANCH   3   7
HETATM    7  C4  UNL     1     -34.134   4.199   5.162  1.00 20.00     0.371 C 
HETATM    8  F8  UNL     1     -35.169   3.399   4.803  1.00 20.00    -0.213 F 
HETATM    9  F9  UNL     1     -34.034   4.126   6.512  1.00 20.00    -0.213 F 
ENDBRANCH   3   7
TORSDOF 2
ENDMDL
