MODEL 1
REMARK VINA RESULT:      -3.6      0.000      0.000
REMARK  1 active torsions:
REMARK  status: ('A' for Active; 'I' for Inactive)
REMARK    1  A    between atoms: C1_1  and  C3_3 
ROOT
HETATM    1  C1  UNL     1     -33.955   6.445   4.011  1.00 20.00     0.181 A 
HETATM    2  C2  UNL     1     -32.599   6.438   3.366  1.00 20.00     0.247 A 
HETATM    3  O4  UNL     1     -33.664   5.609   2.883  1.00 20.00    -0.358 OA
HETATM    4 CL5  UNL     1     -32.087   7.798   2.405  1.00 20.00    -0.092 Cl
ENDROOT
BRANCH   1   5
HETATM    5  C3  UNL     1     -34.205   5.706   5.275  1.00 20.00     0.150 C 
HETATM    6 CL6  UNL     1     -35.153   4.220   4.983  1.00 20.00    -0.128 Cl
ENDBRANCH   1   5
TORSDOF 1
ENDMDL
MODEL 2
REMARK VINA RESULT:      -3.3      0.893      3.578
REMARK  1 active torsions:
REMARK  status: ('A' for Active; 'I' for Inactive)
REMARK    1  A    between atoms: C1_1  and  C3_3 
ROOT
HETATM    1  C1  UNL     1     -33.428   5.959   3.420  1.00 20.00     0.181 A 
HETATM    2  C2  UNL     1     -34.035   5.643   4.756  1.00 20.00     0.247 A 
HETATM    3  O4  UNL     1     -34.449   6.786   3.996  1.00 20.00    -0.358 OA
HETATM    4 CL5  UNL     1     -35.129   4.297   4.917  1.00 20.00    -0.092 Cl
ENDROOT
BRANCH   1   5
HETATM    5  C3  UNL     1     -32.096   6.609   3.318  1.00 20.00     0.150 C 
HETATM    6 CL6  UNL     1     -32.136   8.003   2.201  1.00 20.00    -0.128 Cl
ENDBRANCH   1   5
TORSDOF 1
ENDMDL
MODEL 3
REMARK VINA RESULT:      -3.3      1.853      2.080
REMARK  1 active torsions:
REMARK  status: ('A' for Active; 'I' for Inactive)
REMARK    1  A    between atoms: C1_1  and  C3_3 
ROOT
HETATM    1  C1  UNL     1     -32.372   6.694   3.073  1.00 20.00     0.181 A 
HETATM    2  C2  UNL     1     -32.287   8.110   2.580  1.00 20.00     0.247 A 
HETATM    3  O4  UNL     1     -31.387   7.607   3.576  1.00 20.00    -0.358 OA
HETATM    4 CL5  UNL     1     -31.678   8.439   0.982  1.00 20.00    -0.092 Cl
ENDROOT
BRANCH   1   5
HETATM    5  C3  UNL     1     -33.399   6.290   4.067  1.00 20.00     0.150 C 
HETATM    6 CL6  UNL     1     -34.711   5.348   3.302  1.00 20.00    -0.128 Cl
ENDBRANCH   1   5
TORSDOF 1
ENDMDL
MODEL 4
REMARK VINA RESULT:      -3.2      1.850      3.880
REMARK  1 active torsions:
REMARK  status: ('A' for Active; 'I' for Inactive)
REMARK    1  A    between atoms: C1_1  and  C3_3 
ROOT
HETATM    1  C1  UNL     1     -32.137   7.414   3.160  1.00 20.00     0.181 A 
HETATM    2  C2  UNL     1     -33.272   6.473   3.444  1.00 20.00     0.247 A 
HETATM    3  O4  UNL     1     -31.948   5.993   3.176  1.00 20.00    -0.358 OA
HETATM    4 CL5  UNL     1     -33.905   6.339   5.061  1.00 20.00    -0.092 Cl
ENDROOT
BRANCH   1   5
HETATM    5  C3  UNL     1     -31.977   8.040   1.822  1.00 20.00     0.150 C 
HETATM    6 CL6  UNL     1     -32.586   9.720   1.812  1.00 20.00    -0.128 Cl
ENDBRANCH   1   5
TORSDOF 1
ENDMDL
MODEL 5
REMARK VINA RESULT:      -2.9     11.116     12.258
REMARK  1 active torsions:
REMARK  status: ('A' for Active; 'I' for Inactive)
REMARK    1  A    between atoms: C1_1  and  C3_3 
ROOT
HETATM    1  C1  UNL     1     -34.646  13.634  -5.411  1.00 20.00     0.181 A 
HETATM    2  C2  UNL     1     -34.313  13.873  -3.966  1.00 20.00     0.247 A 
HETATM    3  O4  UNL     1     -35.076  12.732  -4.382  1.00 20.00    -0.358 OA
HETATM    4 CL5  UNL     1     -32.683  13.634  -3.400  1.00 20.00    -0.092 Cl
ENDROOT
BRANCH   1   5
HETATM    5  C3  UNL     1     -35.748  14.378  -6.075  1.00 20.00     0.150 C 
HETATM    6 CL6  UNL     1     -35.532  14.411  -7.849  1.00 20.00    -0.128 Cl
ENDBRANCH   1   5
TORSDOF 1
ENDMDL
MODEL 6
REMARK VINA RESULT:      -2.9      2.682      3.170
REMARK  1 active torsions:
REMARK  status: ('A' for Active; 'I' for Inactive)
REMARK    1  A    between atoms: C1_1  and  C3_3 
ROOT
HETATM    1  C1  UNL     1     -34.037   5.476   5.113  1.00 20.00     0.181 A 
HETATM    2  C2  UNL     1     -34.394   6.332   6.294  1.00 20.00     0.247 A 
HETATM    3  O4  UNL     1     -34.244   4.911   6.415  1.00 20.00    -0.358 OA
HETATM    4 CL5  UNL     1     -33.191   7.369   7.011  1.00 20.00    -0.092 Cl
ENDROOT
BRANCH   1   5
HETATM    5  C3  UNL     1     -35.061   5.093   4.108  1.00 20.00     0.150 C 
HETATM    6 CL6  UNL     1     -34.413   5.200   2.446  1.00 20.00    -0.128 Cl
ENDBRANCH   1   5
TORSDOF 1
ENDMDL
MODEL 7
REMARK VINA RESULT:      -2.8     11.384     12.251
REMARK  1 active torsions:
REMARK  status: ('A' for Active; 'I' for Inactive)
REMARK    1  A    between atoms: C1_1  and  C3_3 
ROOT
HETATM    1  C1  UNL     1     -34.148  14.299  -4.560  1.00 20.00     0.181 A 
HETATM    2  C2  UNL     1     -34.954  14.693  -3.356  1.00 20.00     0.247 A 
HETATM    3  O4  UNL     1     -34.349  13.398  -3.463  1.00 20.00    -0.358 OA
HETATM    4 CL5  UNL     1     -34.304  15.834  -2.211  1.00 20.00    -0.092 Cl
ENDROOT
BRANCH   1   5
HETATM    5  C3  UNL     1     -34.812  13.886  -5.823  1.00 20.00     0.150 C 
HETATM    6 CL6  UNL     1     -34.351  14.954  -7.180  1.00 20.00    -0.128 Cl
ENDBRANCH   1   5
TORSDOF 1
ENDMDL
MODEL 8
REMARK VINA RESULT:      -2.8     11.447     11.684
REMARK  1 active torsions:
REMARK  status: ('A' for Active; 'I' for Inactive)
REMARK    1  A    between atoms: C1_1  and  C3_3 
ROOT
HETATM    1  C1  UNL     1     -34.633  14.886  -3.388  1.00 20.00     0.181 A 
HETATM    2  C2  UNL     1     -34.074  14.239  -4.622  1.00 20.00     0.247 A 
HETATM    3  O4  UNL     1     -34.124  13.546  -3.368  1.00 20.00    -0.358 OA
HETATM    4 CL5  UNL     1     -35.145  13.740  -5.903  1.00 20.00    -0.092 Cl
ENDROOT
BRANCH   1   5
HETATM    5  C3  UNL     1     -33.830  15.860  -2.604  1.00 20.00     0.150 C 
HETATM    6 CL6  UNL     1     -34.681  16.353  -1.112  1.00 20.00    -0.128 Cl
ENDBRANCH   1   5
TORSDOF 1
ENDMDL
MODEL 9
REMARK VINA RESULT:      -2.8     11.684     11.853
REMARK  1 active torsions:
REMARK  status: ('A' for Active; 'I' for Inactive)
REMARK    1  A    between atoms: C1_1  and  C3_3 
ROOT
HETATM    1  C1  UNL     1     -34.514  15.090  -2.989  1.00 20.00     0.181 A 
HETATM    2  C2  UNL     1     -34.008  16.284  -2.231  1.00 20.00     0.247 A 
HETATM    3  O4  UNL     1     -34.863  16.427  -3.373  1.00 20.00    -0.358 OA
HETATM    4 CL5  UNL     1     -34.647  16.644  -0.651  1.00 20.00    -0.092 Cl
ENDROOT
BRANCH   1   5
HETATM    5  C3  UNL     1     -33.646  14.378  -3.963  1.00 20.00     0.150 C 
HETATM    6 CL6  UNL     1     -34.556  13.118  -4.844  1.00 20.00    -0.128 Cl
ENDBRANCH   1   5
TORSDOF 1
ENDMDL
