MODEL 1
REMARK VINA RESULT:      -4.8      0.000      0.000
REMARK  0 active torsions:
REMARK  status: ('A' for Active; 'I' for Inactive)
ROOT
HETATM    1  C1  UNL     1     -34.056  14.336  -3.426  1.00 20.00     0.099 A 
HETATM    2  C2  UNL     1     -33.850  16.494  -4.510  1.00 20.00     0.063 A 
HETATM    3  C3  UNL     1     -35.123  15.134  -7.846  1.00 20.00     0.167 A 
HETATM    4  C4  UNL     1     -34.669  14.557  -5.767  1.00 20.00     0.124 A 
HETATM    5  C5  UNL     1     -34.529  13.762  -4.609  1.00 20.00     0.204 A 
HETATM    6  C6  UNL     1     -33.722  15.685  -3.378  1.00 20.00     0.121 A 
HETATM    7  C7  UNL     1     -34.327  15.911  -5.696  1.00 20.00     0.042 A 
HETATM    8  N8  UNL     1     -35.123  14.128  -7.004  1.00 20.00    -0.249 NA
HETATM    9  O9  UNL     1     -34.859  12.538  -4.744  1.00 20.00    -0.286 OA
HETATM   10  F10 UNL     1     -33.270  16.217  -2.234  1.00 20.00    -0.206 F 
HETATM   11  S11 UNL     1     -34.591  16.640  -7.236  1.00 20.00    -0.080 SA
ENDROOT
TORSDOF 0
ENDMDL
MODEL 2
REMARK VINA RESULT:      -4.7      2.662      2.888
REMARK  0 active torsions:
REMARK  status: ('A' for Active; 'I' for Inactive)
ROOT
HETATM    1  C1  UNL     1     -33.976  14.421  -4.555  1.00 20.00     0.099 A 
HETATM    2  C2  UNL     1     -34.972  16.619  -4.313  1.00 20.00     0.063 A 
HETATM    3  C3  UNL     1     -38.433  15.164  -3.606  1.00 20.00     0.167 A 
HETATM    4  C4  UNL     1     -36.347  14.608  -4.054  1.00 20.00     0.124 A 
HETATM    5  C5  UNL     1     -35.209  13.811  -4.305  1.00 20.00     0.204 A 
HETATM    6  C6  UNL     1     -33.861  15.807  -4.559  1.00 20.00     0.121 A 
HETATM    7  C7  UNL     1     -36.207  15.999  -4.062  1.00 20.00     0.042 A 
HETATM    8  N8  UNL     1     -37.627  14.146  -3.791  1.00 20.00    -0.249 NA
HETATM    9  O9  UNL     1     -35.407  12.553  -4.282  1.00 20.00    -0.286 OA
HETATM   10  F10 UNL     1     -32.670  16.373  -4.801  1.00 20.00    -0.206 F 
HETATM   11  S11 UNL     1     -37.737  16.721  -3.729  1.00 20.00    -0.080 SA
ENDROOT
TORSDOF 0
ENDMDL
MODEL 3
REMARK VINA RESULT:      -4.6     12.218     12.901
REMARK  0 active torsions:
REMARK  status: ('A' for Active; 'I' for Inactive)
ROOT
HETATM    1  C1  UNL     1     -41.650   7.098  -0.939  1.00 20.00     0.099 A 
HETATM    2  C2  UNL     1     -40.839   4.814  -0.871  1.00 20.00     0.063 A 
HETATM    3  C3  UNL     1     -43.193   3.709  -3.670  1.00 20.00     0.167 A 
HETATM    4  C4  UNL     1     -42.590   5.452  -2.461  1.00 20.00     0.124 A 
HETATM    5  C5  UNL     1     -42.541   6.774  -1.966  1.00 20.00     0.204 A 
HETATM    6  C6  UNL     1     -40.810   6.130  -0.399  1.00 20.00     0.121 A 
HETATM    7  C7  UNL     1     -41.736   4.496  -1.903  1.00 20.00     0.042 A 
HETATM    8  N8  UNL     1     -43.417   4.987  -3.471  1.00 20.00    -0.249 NA
HETATM    9  O9  UNL     1     -43.345   7.594  -2.519  1.00 20.00    -0.286 OA
HETATM   10  F10 UNL     1     -39.963   6.461   0.585  1.00 20.00    -0.206 F 
HETATM   11  S11 UNL     1     -41.999   2.982  -2.685  1.00 20.00    -0.080 SA
ENDROOT
TORSDOF 0
ENDMDL
MODEL 4
REMARK VINA RESULT:      -4.5      2.821      3.127
REMARK  0 active torsions:
REMARK  status: ('A' for Active; 'I' for Inactive)
ROOT
HETATM    1  C1  UNL     1     -34.935  13.619  -3.808  1.00 20.00     0.099 A 
HETATM    2  C2  UNL     1     -33.396  15.479  -3.581  1.00 20.00     0.063 A 
HETATM    3  C3  UNL     1     -36.227  18.045  -3.562  1.00 20.00     0.167 A 
HETATM    4  C4  UNL     1     -35.809  15.884  -3.695  1.00 20.00     0.124 A 
HETATM    5  C5  UNL     1     -36.025  14.493  -3.810  1.00 20.00     0.204 A 
HETATM    6  C6  UNL     1     -33.638  14.107  -3.695  1.00 20.00     0.121 A 
HETATM    7  C7  UNL     1     -34.497  16.351  -3.583  1.00 20.00     0.042 A 
HETATM    8  N8  UNL     1     -36.789  16.865  -3.682  1.00 20.00    -0.249 NA
HETATM    9  O9  UNL     1     -37.245  14.136  -3.908  1.00 20.00    -0.286 OA
HETATM   10  F10 UNL     1     -32.605  13.253  -3.696  1.00 20.00    -0.206 F 
HETATM   11  S11 UNL     1     -34.520  18.071  -3.458  1.00 20.00    -0.080 SA
ENDROOT
TORSDOF 0
ENDMDL
MODEL 5
REMARK VINA RESULT:      -4.5      2.471      2.950
REMARK  0 active torsions:
REMARK  status: ('A' for Active; 'I' for Inactive)
ROOT
HETATM    1  C1  UNL     1     -33.846  17.378  -2.833  1.00 20.00     0.099 A 
HETATM    2  C2  UNL     1     -34.666  15.098  -2.927  1.00 20.00     0.063 A 
HETATM    3  C3  UNL     1     -34.416  14.980  -6.737  1.00 20.00     0.167 A 
HETATM    4  C4  UNL     1     -34.079  16.281  -4.990  1.00 20.00     0.124 A 
HETATM    5  C5  UNL     1     -33.727  17.415  -4.225  1.00 20.00     0.204 A 
HETATM    6  C6  UNL     1     -34.310  16.234  -2.194  1.00 20.00     0.121 A 
HETATM    7  C7  UNL     1     -34.543  15.143  -4.325  1.00 20.00     0.042 A 
HETATM    8  N8  UNL     1     -34.012  16.173  -6.370  1.00 20.00    -0.249 NA
HETATM    9  O9  UNL     1     -33.311  18.417  -4.894  1.00 20.00    -0.286 OA
HETATM   10  F10 UNL     1     -34.419  16.218  -0.858  1.00 20.00    -0.206 F 
HETATM   11  S11 UNL     1     -34.897  13.918  -5.486  1.00 20.00    -0.080 SA
ENDROOT
TORSDOF 0
ENDMDL
MODEL 6
REMARK VINA RESULT:      -4.4      2.759      2.994
REMARK  0 active torsions:
REMARK  status: ('A' for Active; 'I' for Inactive)
ROOT
HETATM    1  C1  UNL     1     -34.106  14.749  -3.346  1.00 20.00     0.099 A 
HETATM    2  C2  UNL     1     -35.491  16.662  -2.796  1.00 20.00     0.063 A 
HETATM    3  C3  UNL     1     -38.679  14.910  -3.967  1.00 20.00     0.167 A 
HETATM    4  C4  UNL     1     -36.501  14.642  -3.747  1.00 20.00     0.124 A 
HETATM    5  C5  UNL     1     -35.224  14.041  -3.795  1.00 20.00     0.204 A 
HETATM    6  C6  UNL     1     -34.239  16.043  -2.853  1.00 20.00     0.121 A 
HETATM    7  C7  UNL     1     -36.610  15.943  -3.248  1.00 20.00     0.042 A 
HETATM    8  N8  UNL     1     -37.693  14.064  -4.155  1.00 20.00    -0.249 NA
HETATM    9  O9  UNL     1     -35.196  12.855  -4.260  1.00 20.00    -0.286 OA
HETATM   10  F10 UNL     1     -33.155  16.706  -2.428  1.00 20.00    -0.206 F 
HETATM   11  S11 UNL     1     -38.264  16.430  -3.302  1.00 20.00    -0.080 SA
ENDROOT
TORSDOF 0
ENDMDL
MODEL 7
REMARK VINA RESULT:      -4.4      2.709      3.473
REMARK  0 active torsions:
REMARK  status: ('A' for Active; 'I' for Inactive)
ROOT
HETATM    1  C1  UNL     1     -34.786  13.513  -5.605  1.00 20.00     0.099 A 
HETATM    2  C2  UNL     1     -34.830  15.806  -6.392  1.00 20.00     0.063 A 
HETATM    3  C3  UNL     1     -33.707  17.173  -3.005  1.00 20.00     0.167 A 
HETATM    4  C4  UNL     1     -34.183  15.308  -4.082  1.00 20.00     0.124 A 
HETATM    5  C5  UNL     1     -34.374  13.933  -4.337  1.00 20.00     0.204 A 
HETATM    6  C6  UNL     1     -35.011  14.439  -6.618  1.00 20.00     0.121 A 
HETATM    7  C7  UNL     1     -34.415  16.220  -5.116  1.00 20.00     0.042 A 
HETATM    8  N8  UNL     1     -33.778  15.868  -2.880  1.00 20.00    -0.249 NA
HETATM    9  O9  UNL     1     -34.145  13.157  -3.352  1.00 20.00    -0.286 OA
HETATM   10  F10 UNL     1     -35.406  14.016  -7.827  1.00 20.00    -0.206 F 
HETATM   11  S11 UNL     1     -34.109  17.816  -4.538  1.00 20.00    -0.080 SA
ENDROOT
TORSDOF 0
ENDMDL
MODEL 8
REMARK VINA RESULT:      -4.3      3.076      3.471
REMARK  0 active torsions:
REMARK  status: ('A' for Active; 'I' for Inactive)
ROOT
HETATM    1  C1  UNL     1     -32.956  15.345  -3.897  1.00 20.00     0.099 A 
HETATM    2  C2  UNL     1     -34.798  13.773  -3.773  1.00 20.00     0.063 A 
HETATM    3  C3  UNL     1     -37.405  16.521  -4.276  1.00 20.00     0.167 A 
HETATM    4  C4  UNL     1     -35.235  16.158  -4.119  1.00 20.00     0.124 A 
HETATM    5  C5  UNL     1     -33.846  16.406  -4.084  1.00 20.00     0.204 A 
HETATM    6  C6  UNL     1     -33.428  14.046  -3.743  1.00 20.00     0.121 A 
HETATM    7  C7  UNL     1     -35.686  14.845  -3.963  1.00 20.00     0.042 A 
HETATM    8  N8  UNL     1     -36.231  17.107  -4.298  1.00 20.00    -0.249 NA
HETATM    9  O9  UNL     1     -33.504  17.625  -4.234  1.00 20.00    -0.286 OA
HETATM   10  F10 UNL     1     -32.558  13.042  -3.563  1.00 20.00    -0.206 F 
HETATM   11  S11 UNL     1     -37.408  14.826  -4.046  1.00 20.00    -0.080 SA
ENDROOT
TORSDOF 0
ENDMDL
MODEL 9
REMARK VINA RESULT:      -4.2      3.104      3.957
REMARK  0 active torsions:
REMARK  status: ('A' for Active; 'I' for Inactive)
ROOT
HETATM    1  C1  UNL     1     -34.411  14.729  -5.910  1.00 20.00     0.099 A 
HETATM    2  C2  UNL     1     -34.366  14.402  -3.508  1.00 20.00     0.063 A 
HETATM    3  C3  UNL     1     -33.869  18.130  -2.834  1.00 20.00     0.167 A 
HETATM    4  C4  UNL     1     -34.114  16.649  -4.450  1.00 20.00     0.124 A 
HETATM    5  C5  UNL     1     -34.230  16.106  -5.748  1.00 20.00     0.204 A 
HETATM    6  C6  UNL     1     -34.478  13.890  -4.804  1.00 20.00     0.121 A 
HETATM    7  C7  UNL     1     -34.185  15.786  -3.353  1.00 20.00     0.042 A 
HETATM    8  N8  UNL     1     -33.933  17.988  -4.137  1.00 20.00    -0.249 NA
HETATM    9  O9  UNL     1     -34.158  16.948  -6.701  1.00 20.00    -0.286 OA
HETATM   10  F10 UNL     1     -34.652  12.572  -4.980  1.00 20.00    -0.206 F 
HETATM   11  S11 UNL     1     -34.017  16.703  -1.902  1.00 20.00    -0.080 SA
ENDROOT
TORSDOF 0
ENDMDL
