MODEL 1
REMARK VINA RESULT:      -5.7      0.000      0.000
REMARK  0 active torsions:
REMARK  status: ('A' for Active; 'I' for Inactive)
ROOT
HETATM    1  C1  UNL     1     -32.356   5.505   2.713  1.00 20.00    -0.024 C 
HETATM    2  C2  UNL     1     -31.954   6.778   2.938  1.00 20.00    -0.024 C 
HETATM    3  C3  UNL     1     -34.811   4.616   5.360  1.00 20.00     0.272 C 
HETATM    4  C4  UNL     1     -34.077   6.544   6.355  1.00 20.00     0.272 C 
HETATM    5  C5  UNL     1     -33.806   5.834   2.972  1.00 20.00     0.031 C 
HETATM    6  C6  UNL     1     -33.242   7.147   3.661  1.00 20.00     0.031 C 
HETATM    7  C7  UNL     1     -34.522   5.637   4.279  1.00 20.00     0.108 C 
HETATM    8  C8  UNL     1     -33.377   6.425   5.003  1.00 20.00     0.108 C 
HETATM    9  O9  UNL     1     -35.115   3.437   5.274  1.00 20.00    -0.264 OA
HETATM   10  O10 UNL     1     -34.077   7.461   7.163  1.00 20.00    -0.264 OA
HETATM   11  O11 UNL     1     -34.722   5.316   6.569  1.00 20.00    -0.244 OA
ENDROOT
TORSDOF 0
ENDMDL
MODEL 2
REMARK VINA RESULT:      -5.1     11.690     12.613
REMARK  0 active torsions:
REMARK  status: ('A' for Active; 'I' for Inactive)
ROOT
HETATM    1  C1  UNL     1     -33.749  16.693  -1.703  1.00 20.00    -0.024 C 
HETATM    2  C2  UNL     1     -34.964  17.288  -1.744  1.00 20.00    -0.024 C 
HETATM    3  C3  UNL     1     -33.902  13.669  -3.862  1.00 20.00     0.272 C 
HETATM    4  C4  UNL     1     -36.159  14.059  -3.837  1.00 20.00     0.272 C 
HETATM    5  C5  UNL     1     -33.731  16.447  -3.192  1.00 20.00     0.031 C 
HETATM    6  C6  UNL     1     -35.293  16.713  -3.115  1.00 20.00     0.031 C 
HETATM    7  C7  UNL     1     -34.134  15.166  -3.867  1.00 20.00     0.108 C 
HETATM    8  C8  UNL     1     -35.485  15.195  -3.073  1.00 20.00     0.108 C 
HETATM    9  O9  UNL     1     -32.868  13.028  -3.764  1.00 20.00    -0.264 OA
HETATM   10  O10 UNL     1     -37.326  13.919  -4.171  1.00 20.00    -0.264 OA
HETATM   11  O11 UNL     1     -35.164  13.095  -4.060  1.00 20.00    -0.244 OA
ENDROOT
TORSDOF 0
ENDMDL
MODEL 3
REMARK VINA RESULT:      -5.0     12.545     13.572
REMARK  0 active torsions:
REMARK  status: ('A' for Active; 'I' for Inactive)
ROOT
HETATM    1  C1  UNL     1     -34.728  16.114  -2.124  1.00 20.00    -0.024 C 
HETATM    2  C2  UNL     1     -34.390  17.315  -2.648  1.00 20.00    -0.024 C 
HETATM    3  C3  UNL     1     -34.620  13.615  -4.875  1.00 20.00     0.272 C 
HETATM    4  C4  UNL     1     -34.475  15.460  -6.224  1.00 20.00     0.272 C 
HETATM    5  C5  UNL     1     -33.628  15.393  -2.863  1.00 20.00     0.031 C 
HETATM    6  C6  UNL     1     -33.579  16.691  -3.775  1.00 20.00     0.031 C 
HETATM    7  C7  UNL     1     -33.789  14.665  -4.169  1.00 20.00     0.108 C 
HETATM    8  C8  UNL     1     -34.462  15.944  -4.776  1.00 20.00     0.108 C 
HETATM    9  O9  UNL     1     -35.035  12.536  -4.482  1.00 20.00    -0.264 OA
HETATM   10  O10 UNL     1     -34.302  16.081  -7.262  1.00 20.00    -0.264 OA
HETATM   11  O11 UNL     1     -34.803  14.097  -6.177  1.00 20.00    -0.244 OA
ENDROOT
TORSDOF 0
ENDMDL
MODEL 4
REMARK VINA RESULT:      -4.9     12.462     13.577
REMARK  0 active torsions:
REMARK  status: ('A' for Active; 'I' for Inactive)
ROOT
HETATM    1  C1  UNL     1     -33.880  17.322  -2.571  1.00 20.00    -0.024 C 
HETATM    2  C2  UNL     1     -34.275  16.473  -1.594  1.00 20.00    -0.024 C 
HETATM    3  C3  UNL     1     -34.419  15.618  -5.831  1.00 20.00     0.272 C 
HETATM    4  C4  UNL     1     -34.735  13.756  -4.535  1.00 20.00     0.272 C 
HETATM    5  C5  UNL     1     -35.086  17.023  -3.428  1.00 20.00     0.031 C 
HETATM    6  C6  UNL     1     -35.250  15.741  -2.507  1.00 20.00     0.031 C 
HETATM    7  C7  UNL     1     -35.126  16.031  -4.557  1.00 20.00     0.108 C 
HETATM    8  C8  UNL     1     -34.531  14.944  -3.597  1.00 20.00     0.108 C 
HETATM    9  O9  UNL     1     -33.966  16.294  -6.741  1.00 20.00    -0.264 OA
HETATM   10  O10 UNL     1     -35.049  12.602  -4.285  1.00 20.00    -0.264 OA
HETATM   11  O11 UNL     1     -34.421  14.217  -5.823  1.00 20.00    -0.244 OA
ENDROOT
TORSDOF 0
ENDMDL
MODEL 5
REMARK VINA RESULT:      -4.9     12.144     13.123
REMARK  0 active torsions:
REMARK  status: ('A' for Active; 'I' for Inactive)
ROOT
HETATM    1  C1  UNL     1     -34.858  17.246  -5.557  1.00 20.00    -0.024 C 
HETATM    2  C2  UNL     1     -33.508  17.277  -5.466  1.00 20.00    -0.024 C 
HETATM    3  C3  UNL     1     -36.023  14.105  -3.943  1.00 20.00     0.272 C 
HETATM    4  C4  UNL     1     -33.804  13.538  -3.993  1.00 20.00     0.272 C 
HETATM    5  C5  UNL     1     -35.023  16.780  -4.131  1.00 20.00     0.031 C 
HETATM    6  C6  UNL     1     -33.486  16.394  -4.225  1.00 20.00     0.031 C 
HETATM    7  C7  UNL     1     -35.200  15.352  -3.697  1.00 20.00     0.108 C 
HETATM    8  C8  UNL     1     -33.930  14.962  -4.529  1.00 20.00     0.108 C 
HETATM    9  O9  UNL     1     -37.225  13.968  -4.105  1.00 20.00    -0.264 OA
HETATM   10  O10 UNL     1     -32.808  12.879  -3.735  1.00 20.00    -0.264 OA
HETATM   11  O11 UNL     1     -35.114  13.041  -3.895  1.00 20.00    -0.244 OA
ENDROOT
TORSDOF 0
ENDMDL
MODEL 6
REMARK VINA RESULT:      -4.9     12.655     13.814
REMARK  0 active torsions:
REMARK  status: ('A' for Active; 'I' for Inactive)
ROOT
HETATM    1  C1  UNL     1     -34.757  17.482  -6.222  1.00 20.00    -0.024 C 
HETATM    2  C2  UNL     1     -34.946  16.624  -7.250  1.00 20.00    -0.024 C 
HETATM    3  C3  UNL     1     -33.935  15.466  -3.208  1.00 20.00     0.272 C 
HETATM    4  C4  UNL     1     -34.614  13.699  -4.498  1.00 20.00     0.272 C 
HETATM    5  C5  UNL     1     -33.530  16.752  -5.732  1.00 20.00     0.031 C 
HETATM    6  C6  UNL     1     -34.054  15.555  -6.633  1.00 20.00     0.031 C 
HETATM    7  C7  UNL     1     -33.510  15.722  -4.638  1.00 20.00     0.108 C 
HETATM    8  C8  UNL     1     -34.667  14.954  -5.366  1.00 20.00     0.108 C 
HETATM    9  O9  UNL     1     -33.875  16.185  -2.223  1.00 20.00    -0.264 OA
HETATM   10  O10 UNL     1     -34.776  12.526  -4.799  1.00 20.00    -0.264 OA
HETATM   11  O11 UNL     1     -34.395  14.143  -3.185  1.00 20.00    -0.244 OA
ENDROOT
TORSDOF 0
ENDMDL
MODEL 7
REMARK VINA RESULT:      -4.9     12.615     13.917
REMARK  0 active torsions:
REMARK  status: ('A' for Active; 'I' for Inactive)
ROOT
HETATM    1  C1  UNL     1     -34.397  18.262  -1.062  1.00 20.00    -0.024 C 
HETATM    2  C2  UNL     1     -34.454  17.105  -0.362  1.00 20.00    -0.024 C 
HETATM    3  C3  UNL     1     -33.524  17.410  -4.574  1.00 20.00     0.272 C 
HETATM    4  C4  UNL     1     -33.056  15.343  -3.706  1.00 20.00     0.272 C 
HETATM    5  C5  UNL     1     -35.150  17.682  -2.234  1.00 20.00     0.031 C 
HETATM    6  C6  UNL     1     -34.786  16.276  -1.595  1.00 20.00     0.031 C 
HETATM    7  C7  UNL     1     -34.522  17.112  -3.475  1.00 20.00     0.108 C 
HETATM    8  C8  UNL     1     -33.613  16.205  -2.575  1.00 20.00     0.108 C 
HETATM    9  O9  UNL     1     -33.340  18.429  -5.222  1.00 20.00    -0.264 OA
HETATM   10  O10 UNL     1     -32.785  14.152  -3.726  1.00 20.00    -0.264 OA
HETATM   11  O11 UNL     1     -32.827  16.213  -4.783  1.00 20.00    -0.244 OA
ENDROOT
TORSDOF 0
ENDMDL
MODEL 8
REMARK VINA RESULT:      -4.8     11.775     12.772
REMARK  0 active torsions:
REMARK  status: ('A' for Active; 'I' for Inactive)
ROOT
HETATM    1  C1  UNL     1     -35.027  17.621  -3.854  1.00 20.00    -0.024 C 
HETATM    2  C2  UNL     1     -33.695  17.644  -3.615  1.00 20.00    -0.024 C 
HETATM    3  C3  UNL     1     -36.120  14.067  -3.797  1.00 20.00     0.272 C 
HETATM    4  C4  UNL     1     -33.873  13.624  -3.838  1.00 20.00     0.272 C 
HETATM    5  C5  UNL     1     -35.285  16.604  -2.769  1.00 20.00     0.031 C 
HETATM    6  C6  UNL     1     -33.724  16.328  -2.848  1.00 20.00     0.031 C 
HETATM    7  C7  UNL     1     -35.405  15.121  -2.977  1.00 20.00     0.108 C 
HETATM    8  C8  UNL     1     -34.045  15.139  -3.755  1.00 20.00     0.108 C 
HETATM    9  O9  UNL     1     -37.292  13.981  -4.127  1.00 20.00    -0.264 OA
HETATM   10  O10 UNL     1     -32.862  12.942  -3.767  1.00 20.00    -0.264 OA
HETATM   11  O11 UNL     1     -35.151  13.100  -4.091  1.00 20.00    -0.244 OA
ENDROOT
TORSDOF 0
ENDMDL
MODEL 9
REMARK VINA RESULT:      -4.8     12.312     13.366
REMARK  0 active torsions:
REMARK  status: ('A' for Active; 'I' for Inactive)
ROOT
HETATM    1  C1  UNL     1     -35.298  17.927  -0.594  1.00 20.00    -0.024 C 
HETATM    2  C2  UNL     1     -34.096  18.527  -0.754  1.00 20.00    -0.024 C 
HETATM    3  C3  UNL     1     -35.633  15.347  -3.250  1.00 20.00     0.272 C 
HETATM    4  C4  UNL     1     -33.793  16.375  -4.148  1.00 20.00     0.272 C 
HETATM    5  C5  UNL     1     -34.729  16.547  -0.814  1.00 20.00     0.031 C 
HETATM    6  C6  UNL     1     -33.485  17.310  -1.437  1.00 20.00     0.031 C 
HETATM    7  C7  UNL     1     -34.734  15.801  -2.119  1.00 20.00     0.108 C 
HETATM    8  C8  UNL     1     -34.099  17.054  -2.815  1.00 20.00     0.108 C 
HETATM    9  O9  UNL     1     -36.752  14.859  -3.226  1.00 20.00    -0.264 OA
HETATM   10  O10 UNL     1     -32.844  16.517  -4.904  1.00 20.00    -0.264 OA
HETATM   11  O11 UNL     1     -34.889  15.541  -4.420  1.00 20.00    -0.244 OA
ENDROOT
TORSDOF 0
ENDMDL
