MODEL 1
REMARK VINA RESULT:      -3.1      0.000      0.000
REMARK  0 active torsions:
REMARK  status: ('A' for Active; 'I' for Inactive)
ROOT
HETATM    1  C1  UNL     1     -34.046   6.318   6.046  1.00 20.00     0.200 C 
HETATM    2  C2  UNL     1     -34.735   5.217   6.329  1.00 20.00     0.113 C 
HETATM    3  F3  UNL     1     -33.831   7.270   6.973  1.00 20.00    -0.219 F 
HETATM    4 CL4  UNL     1     -35.030   3.984   5.179  1.00 20.00    -0.095 Cl
ENDROOT
TORSDOF 0
ENDMDL
MODEL 2
REMARK VINA RESULT:      -3.1      2.907      3.053
REMARK  0 active torsions:
REMARK  status: ('A' for Active; 'I' for Inactive)
ROOT
HETATM    1  C1  UNL     1     -34.820   4.364   5.791  1.00 20.00     0.200 C 
HETATM    2  C2  UNL     1     -34.366   5.560   5.431  1.00 20.00     0.113 C 
HETATM    3  F3  UNL     1     -35.160   3.436   4.877  1.00 20.00    -0.219 F 
HETATM    4 CL4  UNL     1     -33.924   6.766   6.561  1.00 20.00    -0.095 Cl
ENDROOT
TORSDOF 0
ENDMDL
MODEL 3
REMARK VINA RESULT:      -2.9      3.025      3.025
REMARK  0 active torsions:
REMARK  status: ('A' for Active; 'I' for Inactive)
ROOT
HETATM    1  C1  UNL     1     -34.259   5.654   3.771  1.00 20.00     0.200 C 
HETATM    2  C2  UNL     1     -34.859   5.034   4.783  1.00 20.00     0.113 C 
HETATM    3  F3  UNL     1     -34.412   5.237   2.501  1.00 20.00    -0.219 F 
HETATM    4 CL4  UNL     1     -34.689   5.533   6.411  1.00 20.00    -0.095 Cl
ENDROOT
TORSDOF 0
ENDMDL
MODEL 4
REMARK VINA RESULT:      -2.8      2.216      2.315
REMARK  0 active torsions:
REMARK  status: ('A' for Active; 'I' for Inactive)
ROOT
HETATM    1  C1  UNL     1     -34.014   6.275   5.936  1.00 20.00     0.200 C 
HETATM    2  C2  UNL     1     -33.978   5.928   4.653  1.00 20.00     0.113 C 
HETATM    3  F3  UNL     1     -34.950   5.787   6.770  1.00 20.00    -0.219 F 
HETATM    4 CL4  UNL     1     -32.806   6.527   3.560  1.00 20.00    -0.095 Cl
ENDROOT
TORSDOF 0
ENDMDL
MODEL 5
REMARK VINA RESULT:      -2.8      3.311      3.411
REMARK  0 active torsions:
REMARK  status: ('A' for Active; 'I' for Inactive)
ROOT
HETATM    1  C1  UNL     1     -34.775   5.376   3.614  1.00 20.00     0.200 C 
HETATM    2  C2  UNL     1     -33.746   6.050   4.116  1.00 20.00     0.113 C 
HETATM    3  F3  UNL     1     -35.873   5.120   4.349  1.00 20.00    -0.219 F 
HETATM    4 CL4  UNL     1     -32.332   6.395   3.215  1.00 20.00    -0.095 Cl
ENDROOT
TORSDOF 0
ENDMDL
MODEL 6
REMARK VINA RESULT:      -2.7      2.923      3.050
REMARK  0 active torsions:
REMARK  status: ('A' for Active; 'I' for Inactive)
ROOT
HETATM    1  C1  UNL     1     -32.748   6.469   3.230  1.00 20.00     0.200 C 
HETATM    2  C2  UNL     1     -33.677   6.175   4.135  1.00 20.00     0.113 C 
HETATM    3  F3  UNL     1     -31.594   7.067   3.576  1.00 20.00    -0.219 F 
HETATM    4 CL4  UNL     1     -35.158   5.417   3.736  1.00 20.00    -0.095 Cl
ENDROOT
TORSDOF 0
ENDMDL
MODEL 7
REMARK VINA RESULT:      -2.5      5.160      5.416
REMARK  0 active torsions:
REMARK  status: ('A' for Active; 'I' for Inactive)
ROOT
HETATM    1  C1  UNL     1     -32.497   7.183   2.857  1.00 20.00     0.200 C 
HETATM    2  C2  UNL     1     -31.888   8.062   2.069  1.00 20.00     0.113 C 
HETATM    3  F3  UNL     1     -31.945   5.988   3.135  1.00 20.00    -0.219 F 
HETATM    4 CL4  UNL     1     -32.557   9.591   1.689  1.00 20.00    -0.095 Cl
ENDROOT
TORSDOF 0
ENDMDL
MODEL 8
REMARK VINA RESULT:      -2.4      4.453      4.626
REMARK  0 active torsions:
REMARK  status: ('A' for Active; 'I' for Inactive)
ROOT
HETATM    1  C1  UNL     1     -32.174   7.950   2.472  1.00 20.00     0.200 C 
HETATM    2  C2  UNL     1     -32.428   6.717   2.900  1.00 20.00     0.113 C 
HETATM    3  F3  UNL     1     -31.439   8.174   1.368  1.00 20.00    -0.219 F 
HETATM    4 CL4  UNL     1     -33.357   6.391   4.300  1.00 20.00    -0.095 Cl
ENDROOT
TORSDOF 0
ENDMDL
MODEL 9
REMARK VINA RESULT:      -2.3      9.519      9.560
REMARK  0 active torsions:
REMARK  status: ('A' for Active; 'I' for Inactive)
ROOT
HETATM    1  C1  UNL     1     -40.931   5.844  -0.606  1.00 20.00     0.200 C 
HETATM    2  C2  UNL     1     -40.735   4.587  -0.991  1.00 20.00     0.113 C 
HETATM    3  F3  UNL     1     -40.258   6.374   0.432  1.00 20.00    -0.219 F 
HETATM    4 CL4  UNL     1     -41.571   3.876  -2.304  1.00 20.00    -0.095 Cl
ENDROOT
TORSDOF 0
ENDMDL
