MODEL 1
REMARK VINA RESULT:      -4.0      0.000      0.000
REMARK  2 active torsions:
REMARK  status: ('A' for Active; 'I' for Inactive)
REMARK    1  A    between atoms: C3_3  and  C4_4 
REMARK    2  A    between atoms: C4_4  and  S7_7 
ROOT
HETATM    1  C4  UNL     1     -34.342  14.656  -3.195  1.00 20.00     0.162 C 
ENDROOT
BRANCH   1   2
HETATM    2  C3  UNL     1     -34.872  15.954  -2.693  1.00 20.00     0.001 A 
HETATM    3  C1  UNL     1     -34.637  16.368  -1.266  1.00 20.00     0.006 A 
HETATM    4  C2  UNL     1     -33.932  17.087  -2.383  1.00 20.00     0.006 A 
ENDBRANCH   1   2
BRANCH   1   5
HETATM    5  S7  UNL     1     -35.471  13.856  -4.304  1.00 20.00     0.230 S 
HETATM    6  O5  UNL     1     -36.814  14.016  -3.790  1.00 20.00    -0.211 OA
HETATM    7  O6  UNL     1     -34.931  12.558  -4.654  1.00 20.00    -0.211 OA
HETATM    8 CL8  UNL     1     -35.434  14.935  -6.043  1.00 20.00     0.018 Cl
ENDBRANCH   1   5
TORSDOF 2
ENDMDL
MODEL 2
REMARK VINA RESULT:      -3.9      1.694      2.077
REMARK  2 active torsions:
REMARK  status: ('A' for Active; 'I' for Inactive)
REMARK    1  A    between atoms: C3_3  and  C4_4 
REMARK    2  A    between atoms: C4_4  and  S7_7 
ROOT
HETATM    1  C4  UNL     1     -36.023  16.152  -3.048  1.00 20.00     0.162 C 
ENDROOT
BRANCH   1   2
HETATM    2  C3  UNL     1     -34.863  15.843  -2.166  1.00 20.00     0.001 A 
HETATM    3  C1  UNL     1     -33.742  16.835  -2.013  1.00 20.00     0.006 A 
HETATM    4  C2  UNL     1     -34.682  16.581  -0.868  1.00 20.00     0.006 A 
ENDBRANCH   1   2
BRANCH   1   5
HETATM    5  S7  UNL     1     -36.395  14.818  -4.155  1.00 20.00     0.230 S 
HETATM    6  O5  UNL     1     -36.248  15.292  -5.515  1.00 20.00    -0.211 OA
HETATM    7  O6  UNL     1     -37.602  14.162  -3.697  1.00 20.00    -0.211 OA
HETATM    8 CL8  UNL     1     -34.909  13.432  -3.909  1.00 20.00     0.018 Cl
ENDBRANCH   1   5
TORSDOF 2
ENDMDL
MODEL 3
REMARK VINA RESULT:      -3.9     11.799     12.172
REMARK  2 active torsions:
REMARK  status: ('A' for Active; 'I' for Inactive)
REMARK    1  A    between atoms: C3_3  and  C4_4 
REMARK    2  A    between atoms: C4_4  and  S7_7 
ROOT
HETATM    1  C4  UNL     1     -33.561   5.386   3.390  1.00 20.00     0.162 C 
ENDROOT
BRANCH   1   2
HETATM    2  C3  UNL     1     -33.153   6.813   3.511  1.00 20.00     0.001 A 
HETATM    3  C1  UNL     1     -31.712   7.172   3.750  1.00 20.00     0.006 A 
HETATM    4  C2  UNL     1     -32.348   7.466   2.421  1.00 20.00     0.006 A 
ENDBRANCH   1   2
BRANCH   1   5
HETATM    5  S7  UNL     1     -34.955   5.000   4.415  1.00 20.00     0.230 S 
HETATM    6  O5  UNL     1     -34.956   3.575   4.674  1.00 20.00    -0.211 OA
HETATM    7  O6  UNL     1     -36.118   5.686   3.890  1.00 20.00    -0.211 OA
HETATM    8 CL8  UNL     1     -34.596   5.873   6.231  1.00 20.00     0.018 Cl
ENDBRANCH   1   5
TORSDOF 2
ENDMDL
MODEL 4
REMARK VINA RESULT:      -3.8     11.518     11.985
REMARK  2 active torsions:
REMARK  status: ('A' for Active; 'I' for Inactive)
REMARK    1  A    between atoms: C3_3  and  C4_4 
REMARK    2  A    between atoms: C4_4  and  S7_7 
ROOT
HETATM    1  C4  UNL     1     -33.828   6.762   4.109  1.00 20.00     0.162 C 
ENDROOT
BRANCH   1   2
HETATM    2  C3  UNL     1     -33.943   5.479   4.857  1.00 20.00     0.001 A 
HETATM    3  C1  UNL     1     -34.671   5.431   6.173  1.00 20.00     0.006 A 
HETATM    4  C2  UNL     1     -35.271   4.779   4.959  1.00 20.00     0.006 A 
ENDBRANCH   1   2
BRANCH   1   5
HETATM    5  S7  UNL     1     -32.242   6.948   3.339  1.00 20.00     0.230 S 
HETATM    6  O5  UNL     1     -31.905   5.708   2.672  1.00 20.00    -0.211 OA
HETATM    7  O6  UNL     1     -31.343   7.581   4.282  1.00 20.00    -0.211 OA
HETATM    8 CL8  UNL     1     -32.487   8.314   1.835  1.00 20.00     0.018 Cl
ENDBRANCH   1   5
TORSDOF 2
ENDMDL
MODEL 5
REMARK VINA RESULT:      -3.7     11.655     12.060
REMARK  2 active torsions:
REMARK  status: ('A' for Active; 'I' for Inactive)
REMARK    1  A    between atoms: C3_3  and  C4_4 
REMARK    2  A    between atoms: C4_4  and  S7_7 
ROOT
HETATM    1  C4  UNL     1     -33.984   6.647   3.973  1.00 20.00     0.162 C 
ENDROOT
BRANCH   1   2
HETATM    2  C3  UNL     1     -33.907   5.549   4.976  1.00 20.00     0.001 A 
HETATM    3  C1  UNL     1     -34.478   5.740   6.355  1.00 20.00     0.006 A 
HETATM    4  C2  UNL     1     -35.151   4.809   5.385  1.00 20.00     0.006 A 
ENDBRANCH   1   2
BRANCH   1   5
HETATM    5  S7  UNL     1     -32.442   6.899   3.137  1.00 20.00     0.230 S 
HETATM    6  O5  UNL     1     -32.646   7.854   2.069  1.00 20.00    -0.211 OA
HETATM    7  O6  UNL     1     -31.826   5.608   2.906  1.00 20.00    -0.211 OA
HETATM    8 CL8  UNL     1     -31.210   7.845   4.470  1.00 20.00     0.018 Cl
ENDBRANCH   1   5
TORSDOF 2
ENDMDL
MODEL 6
REMARK VINA RESULT:      -3.7      1.086      1.397
REMARK  2 active torsions:
REMARK  status: ('A' for Active; 'I' for Inactive)
REMARK    1  A    between atoms: C3_3  and  C4_4 
REMARK    2  A    between atoms: C4_4  and  S7_7 
ROOT
HETATM    1  C4  UNL     1     -36.027  16.075  -2.958  1.00 20.00     0.162 C 
ENDROOT
BRANCH   1   2
HETATM    2  C3  UNL     1     -34.841  15.869  -2.081  1.00 20.00     0.001 A 
HETATM    3  C1  UNL     1     -33.766  16.918  -2.002  1.00 20.00     0.006 A 
HETATM    4  C2  UNL     1     -34.675  16.683  -0.828  1.00 20.00     0.006 A 
ENDBRANCH   1   2
BRANCH   1   5
HETATM    5  S7  UNL     1     -36.353  14.668  -3.985  1.00 20.00     0.230 S 
HETATM    6  O5  UNL     1     -37.696  14.200  -3.715  1.00 20.00    -0.211 OA
HETATM    7  O6  UNL     1     -35.206  13.784  -3.934  1.00 20.00    -0.211 OA
HETATM    8 CL8  UNL     1     -36.406  15.359  -5.911  1.00 20.00     0.018 Cl
ENDBRANCH   1   5
TORSDOF 2
ENDMDL
MODEL 7
REMARK VINA RESULT:      -3.7      1.344      1.559
REMARK  2 active torsions:
REMARK  status: ('A' for Active; 'I' for Inactive)
REMARK    1  A    between atoms: C3_3  and  C4_4 
REMARK    2  A    between atoms: C4_4  and  S7_7 
ROOT
HETATM    1  C4  UNL     1     -34.271  14.885  -3.129  1.00 20.00     0.162 C 
ENDROOT
BRANCH   1   2
HETATM    2  C3  UNL     1     -35.094  15.863  -2.366  1.00 20.00     0.001 A 
HETATM    3  C1  UNL     1     -34.548  16.504  -1.119  1.00 20.00     0.006 A 
HETATM    4  C2  UNL     1     -34.730  17.323  -2.366  1.00 20.00     0.006 A 
ENDBRANCH   1   2
BRANCH   1   5
HETATM    5  S7  UNL     1     -35.192  14.102  -4.425  1.00 20.00     0.230 S 
HETATM    6  O5  UNL     1     -35.058  12.667  -4.286  1.00 20.00    -0.211 OA
HETATM    7  O6  UNL     1     -34.906  14.783  -5.671  1.00 20.00    -0.211 OA
HETATM    8 CL8  UNL     1     -37.166  14.491  -4.047  1.00 20.00     0.018 Cl
ENDBRANCH   1   5
TORSDOF 2
ENDMDL
MODEL 8
REMARK VINA RESULT:      -3.6      3.124      3.805
REMARK  2 active torsions:
REMARK  status: ('A' for Active; 'I' for Inactive)
REMARK    1  A    between atoms: C3_3  and  C4_4 
REMARK    2  A    between atoms: C4_4  and  S7_7 
ROOT
HETATM    1  C4  UNL     1     -36.026  14.782  -5.770  1.00 20.00     0.162 C 
ENDROOT
BRANCH   1   2
HETATM    2  C3  UNL     1     -34.692  14.843  -6.432  1.00 20.00     0.001 A 
HETATM    3  C1  UNL     1     -34.592  15.066  -7.916  1.00 20.00     0.006 A 
HETATM    4  C2  UNL     1     -34.168  16.149  -6.962  1.00 20.00     0.006 A 
ENDBRANCH   1   2
BRANCH   1   5
HETATM    5  S7  UNL     1     -35.948  14.010  -4.177  1.00 20.00     0.230 S 
HETATM    6  O5  UNL     1     -35.180  12.788  -4.293  1.00 20.00    -0.211 OA
HETATM    7  O6  UNL     1     -37.272  14.032  -3.589  1.00 20.00    -0.211 OA
HETATM    8 CL8  UNL     1     -34.819  15.240  -2.993  1.00 20.00     0.018 Cl
ENDBRANCH   1   5
TORSDOF 2
ENDMDL
MODEL 9
REMARK VINA RESULT:      -3.5     12.036     12.497
REMARK  2 active torsions:
REMARK  status: ('A' for Active; 'I' for Inactive)
REMARK    1  A    between atoms: C3_3  and  C4_4 
REMARK    2  A    between atoms: C4_4  and  S7_7 
ROOT
HETATM    1  C4  UNL     1     -33.625   6.357   4.961  1.00 20.00     0.162 C 
ENDROOT
BRANCH   1   2
HETATM    2  C3  UNL     1     -34.767   5.417   5.135  1.00 20.00     0.001 A 
HETATM    3  C1  UNL     1     -34.522   4.002   5.582  1.00 20.00     0.006 A 
HETATM    4  C2  UNL     1     -35.184   4.979   6.512  1.00 20.00     0.006 A 
ENDBRANCH   1   2
BRANCH   1   5
HETATM    5  S7  UNL     1     -32.977   6.325   3.311  1.00 20.00     0.230 S 
HETATM    6  O5  UNL     1     -31.765   5.534   3.305  1.00 20.00    -0.211 OA
HETATM    7  O6  UNL     1     -33.019   7.670   2.773  1.00 20.00    -0.211 OA
HETATM    8 CL8  UNL     1     -34.315   5.260   2.186  1.00 20.00     0.018 Cl
ENDBRANCH   1   5
TORSDOF 2
ENDMDL
