REMARK  2 active torsions:
REMARK  status: ('A' for Active; 'I' for Inactive)
REMARK    1  A    between atoms: C6_6  and  C10_10 
REMARK    2  A    between atoms: C9_9  and  C10_10 
ROOT
HETATM    1  C1  UNL     1     -34.300   4.293   4.417  1.00 20.00     0.000 A 
HETATM    2  C2  UNL     1     -33.558   4.126   3.248  1.00 20.00     0.001 A 
HETATM    3  C3  UNL     1     -34.338   5.537   5.048  1.00 20.00     0.001 A 
HETATM    4  C4  UNL     1     -32.854   5.203   2.709  1.00 20.00     0.007 A 
HETATM    5  C5  UNL     1     -33.634   6.614   4.508  1.00 20.00     0.007 A 
HETATM    6  C6  UNL     1     -32.892   6.447   3.339  1.00 20.00    -0.054 A 
ENDROOT
BRANCH   6   7
HETATM    7  C10 UNL     1     -32.126   7.620   2.752  1.00 20.00     0.014 C 
HETATM    8  C8  UNL     1     -31.681   8.581   3.861  1.00 20.00     0.015 C 
BRANCH   7   9
HETATM    9  C9  UNL     1     -32.919   8.390   1.676  1.00 20.00     0.004 C 
HETATM   10  C7  UNL     1     -32.146   9.565   1.090  1.00 20.00     0.006 C 
ENDBRANCH   7   9
ENDBRANCH   6   7
TORSDOF 2
