REMARK  4 active torsions:
REMARK  status: ('A' for Active; 'I' for Inactive)
REMARK    1  A    between atoms: C6_6  and  C7_7 
REMARK    2  A    between atoms: C7_7  and  C8_8 
REMARK    3  A    between atoms: C8_8  and  C9_9 
REMARK    4  A    between atoms: C9_9  and  O10_10 
ROOT
HETATM    1  C1  UNL     1     -34.248   5.093   5.870  1.00 20.00     0.000 C 
HETATM    2  C2  UNL     1     -34.460   4.437   4.509  1.00 20.00     0.000 C 
HETATM    3  C3  UNL     1     -34.260   6.615   5.768  1.00 20.00     0.000 C 
HETATM    4  C4  UNL     1     -33.449   4.937   3.479  1.00 20.00     0.004 C 
HETATM    5  C5  UNL     1     -33.250   7.119   4.740  1.00 20.00     0.004 C 
HETATM    6  C6  UNL     1     -33.465   6.468   3.367  1.00 20.00    -0.014 C 
ENDROOT
BRANCH   6   7
HETATM    7  C7  UNL     1     -32.411   6.947   2.371  1.00 20.00     0.007 C 
BRANCH   7   8
HETATM    8  C8  UNL     1     -32.738   8.340   1.848  1.00 20.00     0.026 C 
BRANCH   8   9
HETATM    9  C9  UNL     1     -31.668   8.838   0.887  1.00 20.00     0.164 C 
BRANCH   9  10
HETATM   10  O10 UNL     1     -32.019  10.142   0.445  1.00 20.00    -0.401 OA
HETATM   11  H28 UNL     1     -31.319  10.429  -0.164  1.00 20.00     0.209 HD
ENDBRANCH   9  10
ENDBRANCH   8   9
ENDBRANCH   7   8
ENDBRANCH   6   7
TORSDOF 4
