REMARK  0 active torsions:
REMARK  status: ('A' for Active; 'I' for Inactive)
ROOT
HETATM    1  C1  UNL     1     -34.072   4.121   3.722  1.00 20.00     0.002 A 
HETATM    2  C2  UNL     1     -34.293   4.168   5.098  1.00 20.00     0.002 A 
HETATM    3  C3  UNL     1     -33.729   5.283   3.030  1.00 20.00     0.025 A 
HETATM    4  C4  UNL     1     -34.172   5.377   5.783  1.00 20.00     0.025 A 
HETATM    5  C5  UNL     1     -33.607   6.492   3.715  1.00 20.00     0.055 A 
HETATM    6  C6  UNL     1     -33.829   6.539   5.092  1.00 20.00     0.055 A 
HETATM    7 CL7  UNL     1     -33.180   7.897   2.804  1.00 20.00    -0.083 Cl
HETATM    8 CL8  UNL     1     -33.694   8.006   5.996  1.00 20.00    -0.083 Cl
ENDROOT
TORSDOF 0
