REMARK  1 active torsions:
REMARK  status: ('A' for Active; 'I' for Inactive)
REMARK    1  A    between atoms: C6_6  and  S8_8 
ROOT
HETATM    1  C1  UNL     1     -34.134   4.115   3.693  1.00 20.00     0.001 A 
HETATM    2  C2  UNL     1     -34.580   4.205   5.011  1.00 20.00     0.001 A 
HETATM    3  C3  UNL     1     -33.589   5.234   3.063  1.00 20.00     0.021 A 
HETATM    4  C4  UNL     1     -34.482   5.414   5.700  1.00 20.00     0.019 A 
HETATM    5  C5  UNL     1     -33.490   6.443   3.752  1.00 20.00     0.028 A 
HETATM    6  C6  UNL     1     -33.937   6.533   5.070  1.00 20.00     0.015 A 
HETATM    7  S7  UNL     1     -32.766   7.839   2.845  1.00 20.00    -0.051 SA
ENDROOT
BRANCH   6   8
HETATM    8  S8  UNL     1     -33.867   8.028   6.066  1.00 20.00    -0.142 SA
HETATM    9  H13 UNL     1     -34.413   7.504   7.171  1.00 20.00     0.107 HD
ENDBRANCH   6   8
TORSDOF 1
