REMARK  0 active torsions:
REMARK  status: ('A' for Active; 'I' for Inactive)
ROOT
HETATM    1  C1  UNL     1     -33.379   7.356   4.846  1.00 20.00     0.199 A 
HETATM    2  C2  UNL     1     -33.947   6.129   5.193  1.00 20.00     0.198 A 
HETATM    3  C3  UNL     1     -32.808   7.528   3.585  1.00 20.00     0.198 A 
HETATM    4  C4  UNL     1     -33.943   5.076   4.279  1.00 20.00     0.182 A 
HETATM    5  C5  UNL     1     -32.804   6.474   2.671  1.00 20.00     0.182 A 
HETATM    6  C6  UNL     1     -33.371   5.248   3.018  1.00 20.00     0.117 A 
HETATM    7  F7  UNL     1     -33.382   8.367   5.724  1.00 20.00    -0.199 F 
HETATM    8  F8  UNL     1     -34.495   5.964   6.403  1.00 20.00    -0.199 F 
HETATM    9  F9  UNL     1     -32.263   8.705   3.253  1.00 20.00    -0.199 F 
HETATM   10  F10 UNL     1     -34.492   3.903   4.627  1.00 20.00    -0.201 F 
HETATM   11  F11 UNL     1     -32.251   6.656   1.463  1.00 20.00    -0.201 F 
HETATM   12 CL12 UNL     1     -33.368   3.948   1.889  1.00 20.00    -0.077 Cl
ENDROOT
TORSDOF 0
