REMARK  3 active torsions:
REMARK  status: ('A' for Active; 'I' for Inactive)
REMARK    1  A    between atoms: C2_2  and  C4_4 
REMARK    2  A    between atoms: C4_4  and  S8_8 
REMARK    3  A    between atoms: C5_5  and  S8_8 
ROOT
HETATM    1  O6  UNL     1     -32.415   7.758   4.191  1.00 20.00    -0.228 OA
HETATM    2  O7  UNL     1     -32.561   5.894   2.496  1.00 20.00    -0.228 OA
HETATM    3  S8  UNL     1     -33.178   6.996   3.217  1.00 20.00     0.147 S 
ENDROOT
BRANCH   3   4
HETATM    4  C4  UNL     1     -33.854   8.119   2.039  1.00 20.00     0.166 C 
BRANCH   4   5
HETATM    5  C2  UNL     1     -32.713   8.714   1.287  1.00 20.00    -0.022 C 
HETATM    6  C1  UNL     1     -32.471  10.028   1.221  1.00 20.00     0.008 C 
ENDBRANCH   4   5
ENDBRANCH   3   4
BRANCH   3   7
HETATM    7  C5  UNL     1     -34.614   6.353   4.047  1.00 20.00     0.136 C 
HETATM    8  C3  UNL     1     -34.235   5.352   5.115  1.00 20.00     0.021 C 
ENDBRANCH   3   7
TORSDOF 3
