REMARK  0 active torsions:
REMARK  status: ('A' for Active; 'I' for Inactive)
ROOT
HETATM    1  C1  UNL     1     -35.405   5.895   4.584  1.00 20.00     0.001 A 
HETATM    2  C2  UNL     1     -34.785   5.779   5.826  1.00 20.00     0.002 A 
HETATM    3  C3  UNL     1     -34.827   6.657   3.563  1.00 20.00     0.014 A 
HETATM    4  C4  UNL     1     -33.570   6.420   6.088  1.00 20.00     0.030 A 
HETATM    5  C5  UNL     1     -32.754   8.145   3.022  1.00 20.00     0.030 A 
HETATM    6  C6  UNL     1     -31.676   8.495   3.802  1.00 20.00     0.089 A 
HETATM    7  C7  UNL     1     -33.603   7.312   3.803  1.00 20.00    -0.008 A 
HETATM    8  C8  UNL     1     -33.004   7.179   5.057  1.00 20.00     0.042 A 
HETATM    9  N9  UNL     1     -31.836   7.907   5.028  1.00 20.00    -0.365 N 
HETATM   10  H16 UNL     1     -31.190   7.994   5.801  1.00 20.00     0.165 HD
ENDROOT
TORSDOF 0
