REMARK  3 active torsions:
REMARK  status: ('A' for Active; 'I' for Inactive)
REMARK    1  A    between atoms: C6_6  and  O9_9 
REMARK    2  A    between atoms: C7_7  and  C8_8 
REMARK    3  A    between atoms: C7_7  and  O9_9 
ROOT
HETATM    1  C1  UNL     1     -34.945   5.601   5.733  1.00 20.00     0.000 A 
HETATM    2  C2  UNL     1     -34.261   6.807   5.881  1.00 20.00     0.003 A 
HETATM    3  C3  UNL     1     -34.902   4.920   4.516  1.00 20.00     0.003 A 
HETATM    4  C4  UNL     1     -33.534   7.333   4.813  1.00 20.00     0.037 A 
HETATM    5  C5  UNL     1     -34.175   5.446   3.448  1.00 20.00     0.037 A 
HETATM    6  C6  UNL     1     -33.492   6.652   3.596  1.00 20.00     0.068 A 
ENDROOT
BRANCH   6   7
HETATM    7  O9  UNL     1     -32.784   7.166   2.553  1.00 20.00    -0.350 OA
BRANCH   7   8
HETATM    8  C7  UNL     1     -32.671   8.587   2.482  1.00 20.00     0.190 C 
BRANCH   8   9
HETATM    9  C8  UNL     1     -32.622   9.024   1.030  1.00 20.00     0.141 C 
HETATM   10 CL10 UNL     1     -32.453  10.794   0.908  1.00 20.00    -0.128 Cl
ENDBRANCH   8   9
ENDBRANCH   7   8
ENDBRANCH   6   7
TORSDOF 3
