REMARK  0 active torsions:
REMARK  status: ('A' for Active; 'I' for Inactive)
ROOT
HETATM    1  C1  UNL     1     -34.070   4.326   5.528  1.00 20.00     0.000 A 
HETATM    2  C2  UNL     1     -34.173   5.688   5.807  1.00 20.00     0.001 A 
HETATM    3  C3  UNL     1     -33.700   3.901   4.252  1.00 20.00     0.001 A 
HETATM    4  C4  UNL     1     -33.905   6.627   4.811  1.00 20.00     0.019 A 
HETATM    5  C5  UNL     1     -33.432   4.839   3.255  1.00 20.00     0.019 A 
HETATM    6  C6  UNL     1     -33.535   6.202   3.534  1.00 20.00     0.011 A 
HETATM    7  S7  UNL     1     -33.189   7.412   2.247  1.00 20.00    -0.053 SA
ENDROOT
TORSDOF 0
