REMARK  0 active torsions:
REMARK  status: ('A' for Active; 'I' for Inactive)
ROOT
HETATM    1  C1  UNL     1     -32.598   5.927   2.392  1.00 20.00     0.091 A 
HETATM    2  C2  UNL     1     -32.741   7.193   2.961  1.00 20.00     0.161 A 
HETATM    3  C3  UNL     1     -33.174   4.817   3.010  1.00 20.00     0.161 A 
HETATM    4  C4  UNL     1     -33.458   7.349   4.146  1.00 20.00     0.196 A 
HETATM    5  C5  UNL     1     -33.892   4.972   4.195  1.00 20.00     0.196 A 
HETATM    6  C6  UNL     1     -34.034   6.238   4.764  1.00 20.00     0.199 A 
HETATM    7  F7  UNL     1     -32.188   8.259   2.368  1.00 20.00    -0.203 F 
HETATM    8  F8  UNL     1     -33.038   3.601   2.464  1.00 20.00    -0.203 F 
HETATM    9  F9  UNL     1     -33.595   8.564   4.692  1.00 20.00    -0.199 F 
HETATM   10  F10 UNL     1     -34.445   3.906   4.788  1.00 20.00    -0.199 F 
HETATM   11  F11 UNL     1     -34.723   6.388   5.903  1.00 20.00    -0.199 F 
ENDROOT
TORSDOF 0
