MODEL 1
REMARK VINA RESULT:      -5.3      0.000      0.000
REMARK  0 active torsions:
REMARK  status: ('A' for Active; 'I' for Inactive)
ROOT
HETATM    1  C1  UNL     1     -34.627   5.609   6.667  1.00 20.00     0.001 A 
HETATM    2  C2  UNL     1     -35.287   4.670   5.869  1.00 20.00     0.003 A 
HETATM    3  C3  UNL     1     -33.681   6.490   6.121  1.00 20.00     0.016 A 
HETATM    4  C4  UNL     1     -35.030   4.573   4.497  1.00 20.00     0.040 A 
HETATM    5  C5  UNL     1     -32.583   7.049   3.811  1.00 20.00     0.161 A 
HETATM    6  C6  UNL     1     -33.414   6.403   4.746  1.00 20.00     0.019 A 
HETATM    7  C7  UNL     1     -34.087   5.461   3.989  1.00 20.00     0.113 A 
HETATM    8  N8  UNL     1     -32.724   6.553   2.577  1.00 20.00    -0.140 NA
HETATM    9  O9  UNL     1     -33.676   5.549   2.693  1.00 20.00    -0.213 OA
ENDROOT
TORSDOF 0
ENDMDL
MODEL 2
REMARK VINA RESULT:      -5.3      0.954      1.931
REMARK  0 active torsions:
REMARK  status: ('A' for Active; 'I' for Inactive)
ROOT
HETATM    1  C1  UNL     1     -35.293   4.611   5.846  1.00 20.00     0.001 A 
HETATM    2  C2  UNL     1     -34.669   5.540   6.684  1.00 20.00     0.003 A 
HETATM    3  C3  UNL     1     -35.000   4.558   4.475  1.00 20.00     0.016 A 
HETATM    4  C4  UNL     1     -33.732   6.452   6.187  1.00 20.00     0.040 A 
HETATM    5  C5  UNL     1     -33.486   5.767   2.715  1.00 20.00     0.161 A 
HETATM    6  C6  UNL     1     -34.062   5.467   3.964  1.00 20.00     0.019 A 
HETATM    7  C7  UNL     1     -33.465   6.372   4.824  1.00 20.00     0.113 A 
HETATM    8  N8  UNL     1     -32.607   6.772   2.788  1.00 20.00    -0.140 NA
HETATM    9  O9  UNL     1     -32.596   7.152   4.124  1.00 20.00    -0.213 OA
ENDROOT
TORSDOF 0
ENDMDL
MODEL 3
REMARK VINA RESULT:      -4.6     10.010     10.703
REMARK  0 active torsions:
REMARK  status: ('A' for Active; 'I' for Inactive)
ROOT
HETATM    1  C1  UNL     1     -40.696   6.059  -0.378  1.00 20.00     0.001 A 
HETATM    2  C2  UNL     1     -40.987   4.756  -0.794  1.00 20.00     0.003 A 
HETATM    3  C3  UNL     1     -41.221   7.170  -1.055  1.00 20.00     0.016 A 
HETATM    4  C4  UNL     1     -41.810   4.511  -1.898  1.00 20.00     0.040 A 
HETATM    5  C5  UNL     1     -42.762   7.710  -3.101  1.00 20.00     0.161 A 
HETATM    6  C6  UNL     1     -42.049   6.939  -2.164  1.00 20.00     0.019 A 
HETATM    7  C7  UNL     1     -42.313   5.636  -2.544  1.00 20.00     0.113 A 
HETATM    8  N8  UNL     1     -43.415   6.954  -3.990  1.00 20.00    -0.140 NA
HETATM    9  O9  UNL     1     -43.129   5.642  -3.635  1.00 20.00    -0.213 OA
ENDROOT
TORSDOF 0
ENDMDL
MODEL 4
REMARK VINA RESULT:      -4.6      9.921     10.801
REMARK  0 active torsions:
REMARK  status: ('A' for Active; 'I' for Inactive)
ROOT
HETATM    1  C1  UNL     1     -40.653   6.038  -0.407  1.00 20.00     0.001 A 
HETATM    2  C2  UNL     1     -41.171   7.197  -0.994  1.00 20.00     0.003 A 
HETATM    3  C3  UNL     1     -41.003   4.766  -0.883  1.00 20.00     0.016 A 
HETATM    4  C4  UNL     1     -42.058   7.132  -2.073  1.00 20.00     0.040 A 
HETATM    5  C5  UNL     1     -42.495   3.674  -2.737  1.00 20.00     0.161 A 
HETATM    6  C6  UNL     1     -41.892   4.686  -1.966  1.00 20.00     0.019 A 
HETATM    7  C7  UNL     1     -42.383   5.855  -2.519  1.00 20.00     0.113 A 
HETATM    8  N8  UNL     1     -43.295   4.168  -3.689  1.00 20.00    -0.140 NA
HETATM    9  O9  UNL     1     -43.222   5.548  -3.548  1.00 20.00    -0.213 OA
ENDROOT
TORSDOF 0
ENDMDL
MODEL 5
REMARK VINA RESULT:      -4.5     12.179     13.259
REMARK  0 active torsions:
REMARK  status: ('A' for Active; 'I' for Inactive)
ROOT
HETATM    1  C1  UNL     1     -33.788  17.148  -5.041  1.00 20.00     0.001 A 
HETATM    2  C2  UNL     1     -33.555  16.990  -3.672  1.00 20.00     0.003 A 
HETATM    3  C3  UNL     1     -34.213  16.071  -5.834  1.00 20.00     0.016 A 
HETATM    4  C4  UNL     1     -33.736  15.755  -3.041  1.00 20.00     0.040 A 
HETATM    5  C5  UNL     1     -34.796  13.530  -5.594  1.00 20.00     0.161 A 
HETATM    6  C6  UNL     1     -34.399  14.827  -5.214  1.00 20.00     0.019 A 
HETATM    7  C7  UNL     1     -34.159  14.709  -3.857  1.00 20.00     0.113 A 
HETATM    8  N8  UNL     1     -34.802  12.677  -4.564  1.00 20.00    -0.140 NA
HETATM    9  O9  UNL     1     -34.398  13.427  -3.466  1.00 20.00    -0.213 OA
ENDROOT
TORSDOF 0
ENDMDL
MODEL 6
REMARK VINA RESULT:      -4.4     12.154     13.620
REMARK  0 active torsions:
REMARK  status: ('A' for Active; 'I' for Inactive)
ROOT
HETATM    1  C1  UNL     1     -34.359  16.354  -6.808  1.00 20.00     0.001 A 
HETATM    2  C2  UNL     1     -35.045  15.327  -7.464  1.00 20.00     0.003 A 
HETATM    3  C3  UNL     1     -33.851  16.174  -5.512  1.00 20.00     0.016 A 
HETATM    4  C4  UNL     1     -35.253  14.085  -6.854  1.00 20.00     0.040 A 
HETATM    5  C5  UNL     1     -33.737  14.332  -3.655  1.00 20.00     0.161 A 
HETATM    6  C6  UNL     1     -34.052  14.934  -4.889  1.00 20.00     0.019 A 
HETATM    7  C7  UNL     1     -34.736  13.942  -5.570  1.00 20.00     0.113 A 
HETATM    8  N8  UNL     1     -34.185  13.075  -3.573  1.00 20.00    -0.140 NA
HETATM    9  O9  UNL     1     -34.817  12.832  -4.786  1.00 20.00    -0.213 OA
ENDROOT
TORSDOF 0
ENDMDL
MODEL 7
REMARK VINA RESULT:      -4.4      2.171      3.639
REMARK  0 active torsions:
REMARK  status: ('A' for Active; 'I' for Inactive)
ROOT
HETATM    1  C1  UNL     1     -33.415   5.750   2.309  1.00 20.00     0.001 A 
HETATM    2  C2  UNL     1     -32.567   6.709   2.871  1.00 20.00     0.003 A 
HETATM    3  C3  UNL     1     -34.356   5.065   3.093  1.00 20.00     0.016 A 
HETATM    4  C4  UNL     1     -32.624   7.022   4.233  1.00 20.00     0.040 A 
HETATM    5  C5  UNL     1     -35.174   4.953   5.577  1.00 20.00     0.161 A 
HETATM    6  C6  UNL     1     -34.424   5.369   4.460  1.00 20.00     0.019 A 
HETATM    7  C7  UNL     1     -33.568   6.324   4.980  1.00 20.00     0.113 A 
HETATM    8  N8  UNL     1     -34.818   5.593   6.696  1.00 20.00    -0.140 NA
HETATM    9  O9  UNL     1     -33.802   6.459   6.315  1.00 20.00    -0.213 OA
ENDROOT
TORSDOF 0
ENDMDL
MODEL 8
REMARK VINA RESULT:      -4.3     11.892     12.387
REMARK  0 active torsions:
REMARK  status: ('A' for Active; 'I' for Inactive)
ROOT
HETATM    1  C1  UNL     1     -35.127  16.730  -2.512  1.00 20.00     0.001 A 
HETATM    2  C2  UNL     1     -33.738  16.571  -2.485  1.00 20.00     0.003 A 
HETATM    3  C3  UNL     1     -35.955  15.765  -3.107  1.00 20.00     0.016 A 
HETATM    4  C4  UNL     1     -33.122  15.449  -3.048  1.00 20.00     0.040 A 
HETATM    5  C5  UNL     1     -35.764  13.468  -4.348  1.00 20.00     0.161 A 
HETATM    6  C6  UNL     1     -35.351  14.634  -3.675  1.00 20.00     0.019 A 
HETATM    7  C7  UNL     1     -33.974  14.513  -3.628  1.00 20.00     0.113 A 
HETATM    8  N8  UNL     1     -34.734  12.687  -4.691  1.00 20.00    -0.140 NA
HETATM    9  O9  UNL     1     -33.603  13.351  -4.235  1.00 20.00    -0.213 OA
ENDROOT
TORSDOF 0
ENDMDL
MODEL 9
REMARK VINA RESULT:      -4.3      2.112      3.102
REMARK  0 active torsions:
REMARK  status: ('A' for Active; 'I' for Inactive)
ROOT
HETATM    1  C1  UNL     1     -32.668   6.588   2.850  1.00 20.00     0.001 A 
HETATM    2  C2  UNL     1     -33.598   5.680   2.334  1.00 20.00     0.003 A 
HETATM    3  C3  UNL     1     -32.657   6.917   4.214  1.00 20.00     0.016 A 
HETATM    4  C4  UNL     1     -34.551   5.069   3.154  1.00 20.00     0.040 A 
HETATM    5  C5  UNL     1     -33.954   6.339   6.413  1.00 20.00     0.161 A 
HETATM    6  C6  UNL     1     -33.607   6.310   5.049  1.00 20.00     0.019 A 
HETATM    7  C7  UNL     1     -34.511   5.418   4.501  1.00 20.00     0.113 A 
HETATM    8  N8  UNL     1     -34.986   5.534   6.692  1.00 20.00    -0.140 NA
HETATM    9  O9  UNL     1     -35.336   4.954   5.480  1.00 20.00    -0.213 OA
ENDROOT
TORSDOF 0
ENDMDL
