MODEL 1
REMARK VINA RESULT:      -3.5      0.000      0.000
REMARK  2 active torsions:
REMARK  status: ('A' for Active; 'I' for Inactive)
REMARK    1  A    between atoms: C5_5  and  S7_7 
REMARK    2  A    between atoms: C6_6  and  S8_8 
ROOT
HETATM    1  C1  UNL     1     -35.150   4.096   4.450  1.00 20.00     0.001 A 
HETATM    2  C2  UNL     1     -35.316   4.248   5.827  1.00 20.00     0.001 A 
HETATM    3  C3  UNL     1     -34.367   5.004   3.738  1.00 20.00     0.019 A 
HETATM    4  C4  UNL     1     -34.699   5.309   6.491  1.00 20.00     0.019 A 
HETATM    5  C5  UNL     1     -33.749   6.064   4.401  1.00 20.00     0.014 A 
HETATM    6  C6  UNL     1     -33.916   6.217   5.778  1.00 20.00     0.014 A 
ENDROOT
BRANCH   5   7
HETATM    7  S7  UNL     1     -32.764   7.178   3.399  1.00 20.00    -0.142 SA
HETATM    8  H13 UNL     1     -33.226   6.772   2.209  1.00 20.00     0.107 HD
ENDBRANCH   5   7
BRANCH   6   9
HETATM    9  S8  UNL     1     -33.164   7.546   6.718  1.00 20.00    -0.142 SA
HETATM   10  H14 UNL     1     -34.294   8.005   7.275  1.00 20.00     0.107 HD
ENDBRANCH   6   9
TORSDOF 2
ENDMDL
MODEL 2
REMARK VINA RESULT:      -3.5      0.019      2.397
REMARK  2 active torsions:
REMARK  status: ('A' for Active; 'I' for Inactive)
REMARK    1  A    between atoms: C5_5  and  S7_7 
REMARK    2  A    between atoms: C6_6  and  S8_8 
ROOT
HETATM    1  C1  UNL     1     -35.314   4.256   5.812  1.00 20.00     0.001 A 
HETATM    2  C2  UNL     1     -35.142   4.111   4.435  1.00 20.00     0.001 A 
HETATM    3  C3  UNL     1     -34.700   5.313   6.484  1.00 20.00     0.019 A 
HETATM    4  C4  UNL     1     -34.355   5.023   3.731  1.00 20.00     0.019 A 
HETATM    5  C5  UNL     1     -33.914   6.225   5.780  1.00 20.00     0.014 A 
HETATM    6  C6  UNL     1     -33.741   6.080   4.403  1.00 20.00     0.014 A 
ENDROOT
BRANCH   5   7
HETATM    7  S7  UNL     1     -33.166   7.548   6.732  1.00 20.00    -0.142 SA
HETATM    8  H13 UNL     1     -34.092   8.479   6.464  1.00 20.00     0.107 HD
ENDBRANCH   5   7
BRANCH   6   9
HETATM    9  S8  UNL     1     -32.751   7.199   3.412  1.00 20.00    -0.142 SA
HETATM   10  H14 UNL     1     -31.785   6.324   3.102  1.00 20.00     0.107 HD
ENDBRANCH   6   9
TORSDOF 2
ENDMDL
MODEL 3
REMARK VINA RESULT:      -3.4     12.648     13.114
REMARK  2 active torsions:
REMARK  status: ('A' for Active; 'I' for Inactive)
REMARK    1  A    between atoms: C5_5  and  S7_7 
REMARK    2  A    between atoms: C6_6  and  S8_8 
ROOT
HETATM    1  C1  UNL     1     -33.091  14.672  -3.579  1.00 20.00     0.001 A 
HETATM    2  C2  UNL     1     -33.837  13.634  -4.138  1.00 20.00     0.001 A 
HETATM    3  C3  UNL     1     -33.736  15.803  -3.079  1.00 20.00     0.019 A 
HETATM    4  C4  UNL     1     -35.228  13.727  -4.195  1.00 20.00     0.019 A 
HETATM    5  C5  UNL     1     -35.126  15.896  -3.136  1.00 20.00     0.014 A 
HETATM    6  C6  UNL     1     -35.872  14.858  -3.694  1.00 20.00     0.014 A 
ENDROOT
BRANCH   5   7
HETATM    7  S7  UNL     1     -35.863  17.388  -2.467  1.00 20.00    -0.142 SA
HETATM    8  H13 UNL     1     -34.944  18.243  -2.935  1.00 20.00     0.107 HD
ENDBRANCH   5   7
BRANCH   6   9
HETATM    9  S8  UNL     1     -37.661  14.885  -3.812  1.00 20.00    -0.142 SA
HETATM   10  H14 UNL     1     -37.835  16.120  -3.322  1.00 20.00     0.107 HD
ENDBRANCH   6   9
TORSDOF 2
ENDMDL
MODEL 4
REMARK VINA RESULT:      -3.4     13.120     14.227
REMARK  2 active torsions:
REMARK  status: ('A' for Active; 'I' for Inactive)
REMARK    1  A    between atoms: C5_5  and  S7_7 
REMARK    2  A    between atoms: C6_6  and  S8_8 
ROOT
HETATM    1  C1  UNL     1     -33.593  13.769  -3.890  1.00 20.00     0.001 A 
HETATM    2  C2  UNL     1     -33.015  14.993  -3.551  1.00 20.00     0.001 A 
HETATM    3  C3  UNL     1     -34.374  13.662  -5.040  1.00 20.00     0.019 A 
HETATM    4  C4  UNL     1     -33.218  16.109  -4.363  1.00 20.00     0.019 A 
HETATM    5  C5  UNL     1     -34.577  14.778  -5.852  1.00 20.00     0.014 A 
HETATM    6  C6  UNL     1     -33.999  16.002  -5.513  1.00 20.00     0.014 A 
ENDROOT
BRANCH   5   7
HETATM    7  S7  UNL     1     -35.596  14.541  -7.308  1.00 20.00    -0.142 SA
HETATM    8  H13 UNL     1     -35.090  15.554  -8.024  1.00 20.00     0.107 HD
ENDBRANCH   5   7
BRANCH   6   9
HETATM    9  S8  UNL     1     -34.202  17.491  -6.492  1.00 20.00    -0.142 SA
HETATM   10  H14 UNL     1     -33.533  17.064  -7.572  1.00 20.00     0.107 HD
ENDBRANCH   6   9
TORSDOF 2
ENDMDL
MODEL 5
REMARK VINA RESULT:      -3.4     12.678     13.012
REMARK  2 active torsions:
REMARK  status: ('A' for Active; 'I' for Inactive)
REMARK    1  A    between atoms: C5_5  and  S7_7 
REMARK    2  A    between atoms: C6_6  and  S8_8 
ROOT
HETATM    1  C1  UNL     1     -33.947  13.566  -4.234  1.00 20.00     0.001 A 
HETATM    2  C2  UNL     1     -33.189  14.579  -3.645  1.00 20.00     0.001 A 
HETATM    3  C3  UNL     1     -35.336  13.678  -4.289  1.00 20.00     0.019 A 
HETATM    4  C4  UNL     1     -33.821  15.703  -3.113  1.00 20.00     0.019 A 
HETATM    5  C5  UNL     1     -35.968  14.802  -3.757  1.00 20.00     0.014 A 
HETATM    6  C6  UNL     1     -35.210  15.815  -3.168  1.00 20.00     0.014 A 
ENDROOT
BRANCH   5   7
HETATM    7  S7  UNL     1     -37.756  14.853  -3.876  1.00 20.00    -0.142 SA
HETATM    8  H13 UNL     1     -38.011  14.342  -2.664  1.00 20.00     0.107 HD
ENDBRANCH   5   7
BRANCH   6   9
HETATM    9  S8  UNL     1     -35.929  17.295  -2.457  1.00 20.00    -0.142 SA
HETATM   10  H14 UNL     1     -34.803  18.022  -2.431  1.00 20.00     0.107 HD
ENDBRANCH   6   9
TORSDOF 2
ENDMDL
MODEL 6
REMARK VINA RESULT:      -3.4     13.142     14.303
REMARK  2 active torsions:
REMARK  status: ('A' for Active; 'I' for Inactive)
REMARK    1  A    between atoms: C5_5  and  S7_7 
REMARK    2  A    between atoms: C6_6  and  S8_8 
ROOT
HETATM    1  C1  UNL     1     -33.074  14.971  -3.571  1.00 20.00     0.001 A 
HETATM    2  C2  UNL     1     -33.655  13.753  -3.924  1.00 20.00     0.001 A 
HETATM    3  C3  UNL     1     -33.259  16.093  -4.379  1.00 20.00     0.019 A 
HETATM    4  C4  UNL     1     -34.422  13.657  -5.085  1.00 20.00     0.019 A 
HETATM    5  C5  UNL     1     -34.026  15.997  -5.540  1.00 20.00     0.014 A 
HETATM    6  C6  UNL     1     -34.608  14.779  -5.894  1.00 20.00     0.014 A 
ENDROOT
BRANCH   5   7
HETATM    7  S7  UNL     1     -34.206  17.492  -6.513  1.00 20.00    -0.142 SA
HETATM    8  H13 UNL     1     -32.942  17.919  -6.384  1.00 20.00     0.107 HD
ENDBRANCH   5   7
BRANCH   6   9
HETATM    9  S8  UNL     1     -35.608  14.556  -7.364  1.00 20.00    -0.142 SA
HETATM   10  H14 UNL     1     -34.718  13.829  -8.054  1.00 20.00     0.107 HD
ENDBRANCH   6   9
TORSDOF 2
ENDMDL
MODEL 7
REMARK VINA RESULT:      -3.4      1.346      2.146
REMARK  2 active torsions:
REMARK  status: ('A' for Active; 'I' for Inactive)
REMARK    1  A    between atoms: C5_5  and  S7_7 
REMARK    2  A    between atoms: C6_6  and  S8_8 
ROOT
HETATM    1  C1  UNL     1     -35.184   4.953   5.981  1.00 20.00     0.001 A 
HETATM    2  C2  UNL     1     -34.337   5.912   6.538  1.00 20.00     0.001 A 
HETATM    3  C3  UNL     1     -35.142   4.698   4.610  1.00 20.00     0.019 A 
HETATM    4  C4  UNL     1     -33.448   6.615   5.723  1.00 20.00     0.019 A 
HETATM    5  C5  UNL     1     -34.254   5.401   3.796  1.00 20.00     0.014 A 
HETATM    6  C6  UNL     1     -33.407   6.359   4.353  1.00 20.00     0.014 A 
ENDROOT
BRANCH   5   7
HETATM    7  S7  UNL     1     -34.275   5.002   2.048  1.00 20.00    -0.142 SA
HETATM    8  H13 UNL     1     -35.310   5.787   1.718  1.00 20.00     0.107 HD
ENDBRANCH   5   7
BRANCH   6   9
HETATM    9  S8  UNL     1     -32.232   7.313   3.390  1.00 20.00    -0.142 SA
HETATM   10  H14 UNL     1     -32.664   6.924   2.182  1.00 20.00     0.107 HD
ENDBRANCH   6   9
TORSDOF 2
ENDMDL
MODEL 8
REMARK VINA RESULT:      -3.4      1.338      2.624
REMARK  2 active torsions:
REMARK  status: ('A' for Active; 'I' for Inactive)
REMARK    1  A    between atoms: C5_5  and  S7_7 
REMARK    2  A    between atoms: C6_6  and  S8_8 
ROOT
HETATM    1  C1  UNL     1     -34.344   5.888   6.530  1.00 20.00     0.001 A 
HETATM    2  C2  UNL     1     -35.190   4.930   5.967  1.00 20.00     0.001 A 
HETATM    3  C3  UNL     1     -33.455   6.595   5.720  1.00 20.00     0.019 A 
HETATM    4  C4  UNL     1     -35.145   4.681   4.596  1.00 20.00     0.019 A 
HETATM    5  C5  UNL     1     -33.411   6.345   4.348  1.00 20.00     0.014 A 
HETATM    6  C6  UNL     1     -34.256   5.387   3.786  1.00 20.00     0.014 A 
ENDROOT
BRANCH   5   7
HETATM    7  S7  UNL     1     -32.236   7.303   3.392  1.00 20.00    -0.142 SA
HETATM    8  H13 UNL     1     -32.921   7.293   2.240  1.00 20.00     0.107 HD
ENDBRANCH   5   7
BRANCH   6   9
HETATM    9  S8  UNL     1     -34.273   4.996   2.036  1.00 20.00    -0.142 SA
HETATM   10  H14 UNL     1     -35.404   5.650   1.738  1.00 20.00     0.107 HD
ENDBRANCH   6   9
TORSDOF 2
ENDMDL
MODEL 9
REMARK VINA RESULT:      -3.4      9.946     10.862
REMARK  2 active torsions:
REMARK  status: ('A' for Active; 'I' for Inactive)
REMARK    1  A    between atoms: C5_5  and  S7_7 
REMARK    2  A    between atoms: C6_6  and  S8_8 
ROOT
HETATM    1  C1  UNL     1     -40.620   5.181  -0.457  1.00 20.00     0.001 A 
HETATM    2  C2  UNL     1     -40.688   6.572  -0.545  1.00 20.00     0.001 A 
HETATM    3  C3  UNL     1     -41.375   4.391  -1.324  1.00 20.00     0.019 A 
HETATM    4  C4  UNL     1     -41.510   7.172  -1.499  1.00 20.00     0.019 A 
HETATM    5  C5  UNL     1     -42.197   4.990  -2.278  1.00 20.00     0.014 A 
HETATM    6  C6  UNL     1     -42.265   6.381  -2.365  1.00 20.00     0.014 A 
ENDROOT
BRANCH   5   7
HETATM    7  S7  UNL     1     -43.129   3.891  -3.345  1.00 20.00    -0.142 SA
HETATM    8  H13 UNL     1     -42.834   4.503  -4.500  1.00 20.00     0.107 HD
ENDBRANCH   5   7
BRANCH   6   9
HETATM    9  S8  UNL     1     -43.291   7.244  -3.556  1.00 20.00    -0.142 SA
HETATM   10  H14 UNL     1     -43.330   6.265  -4.471  1.00 20.00     0.107 HD
ENDBRANCH   6   9
TORSDOF 2
ENDMDL
