MODEL 1
REMARK VINA RESULT:      -5.2      0.000      0.000
REMARK  0 active torsions:
REMARK  status: ('A' for Active; 'I' for Inactive)
ROOT
HETATM    1  C1  UNL     1     -34.368   5.838   6.500  1.00 20.00     0.002 A 
HETATM    2  C2  UNL     1     -35.200   4.864   5.948  1.00 20.00     0.002 A 
HETATM    3  C3  UNL     1     -33.512   6.571   5.678  1.00 20.00     0.025 A 
HETATM    4  C4  UNL     1     -35.176   4.622   4.575  1.00 20.00     0.025 A 
HETATM    5  C5  UNL     1     -33.487   6.329   4.304  1.00 20.00     0.055 A 
HETATM    6  C6  UNL     1     -34.319   5.354   3.753  1.00 20.00     0.055 A 
HETATM    7 CL7  UNL     1     -32.406   7.269   3.337  1.00 20.00    -0.083 Cl
HETATM    8 CL8  UNL     1     -34.335   5.008   2.059  1.00 20.00    -0.083 Cl
ENDROOT
TORSDOF 0
ENDMDL
MODEL 2
REMARK VINA RESULT:      -5.2      0.028      2.353
REMARK  0 active torsions:
REMARK  status: ('A' for Active; 'I' for Inactive)
ROOT
HETATM    1  C1  UNL     1     -35.182   4.895   5.967  1.00 20.00     0.002 A 
HETATM    2  C2  UNL     1     -34.346   5.873   6.506  1.00 20.00     0.002 A 
HETATM    3  C3  UNL     1     -35.163   4.640   4.596  1.00 20.00     0.025 A 
HETATM    4  C4  UNL     1     -33.493   6.597   5.675  1.00 20.00     0.025 A 
HETATM    5  C5  UNL     1     -34.309   5.365   3.763  1.00 20.00     0.055 A 
HETATM    6  C6  UNL     1     -33.475   6.344   4.303  1.00 20.00     0.055 A 
HETATM    7 CL7  UNL     1     -34.332   5.005   2.073  1.00 20.00    -0.083 Cl
HETATM    8 CL8  UNL     1     -32.395   7.275   3.325  1.00 20.00    -0.083 Cl
ENDROOT
TORSDOF 0
ENDMDL
MODEL 3
REMARK VINA RESULT:      -5.1      1.290      2.601
REMARK  0 active torsions:
REMARK  status: ('A' for Active; 'I' for Inactive)
ROOT
HETATM    1  C1  UNL     1     -35.186   4.229   4.445  1.00 20.00     0.002 A 
HETATM    2  C2  UNL     1     -35.282   4.314   5.834  1.00 20.00     0.002 A 
HETATM    3  C3  UNL     1     -34.426   5.161   3.739  1.00 20.00     0.025 A 
HETATM    4  C4  UNL     1     -34.620   5.333   6.517  1.00 20.00     0.025 A 
HETATM    5  C5  UNL     1     -33.763   6.181   4.423  1.00 20.00     0.055 A 
HETATM    6  C6  UNL     1     -33.860   6.267   5.812  1.00 20.00     0.055 A 
HETATM    7 CL7  UNL     1     -32.838   7.307   3.494  1.00 20.00    -0.083 Cl
HETATM    8 CL8  UNL     1     -33.063   7.507   6.716  1.00 20.00    -0.083 Cl
ENDROOT
TORSDOF 0
ENDMDL
MODEL 4
REMARK VINA RESULT:      -5.1      1.289      2.135
REMARK  0 active torsions:
REMARK  status: ('A' for Active; 'I' for Inactive)
ROOT
HETATM    1  C1  UNL     1     -35.277   4.313   5.847  1.00 20.00     0.002 A 
HETATM    2  C2  UNL     1     -35.184   4.223   4.458  1.00 20.00     0.002 A 
HETATM    3  C3  UNL     1     -34.615   5.336   6.526  1.00 20.00     0.025 A 
HETATM    4  C4  UNL     1     -34.429   5.155   3.748  1.00 20.00     0.025 A 
HETATM    5  C5  UNL     1     -33.860   6.270   5.815  1.00 20.00     0.055 A 
HETATM    6  C6  UNL     1     -33.767   6.178   4.426  1.00 20.00     0.055 A 
HETATM    7 CL7  UNL     1     -33.063   7.515   6.711  1.00 20.00    -0.083 Cl
HETATM    8 CL8  UNL     1     -32.847   7.304   3.489  1.00 20.00    -0.083 Cl
ENDROOT
TORSDOF 0
ENDMDL
MODEL 5
REMARK VINA RESULT:      -4.4      2.236      2.874
REMARK  0 active torsions:
REMARK  status: ('A' for Active; 'I' for Inactive)
ROOT
HETATM    1  C1  UNL     1     -33.286   6.265   2.938  1.00 20.00     0.002 A 
HETATM    2  C2  UNL     1     -34.203   5.217   2.854  1.00 20.00     0.002 A 
HETATM    3  C3  UNL     1     -33.013   6.855   4.172  1.00 20.00     0.025 A 
HETATM    4  C4  UNL     1     -34.848   4.759   4.002  1.00 20.00     0.025 A 
HETATM    5  C5  UNL     1     -33.658   6.397   5.322  1.00 20.00     0.055 A 
HETATM    6  C6  UNL     1     -34.576   5.349   5.237  1.00 20.00     0.055 A 
HETATM    7 CL7  UNL     1     -33.279   7.168   6.822  1.00 20.00    -0.083 Cl
HETATM    8 CL8  UNL     1     -35.406   4.738   6.624  1.00 20.00    -0.083 Cl
ENDROOT
TORSDOF 0
ENDMDL
MODEL 6
REMARK VINA RESULT:      -4.4      2.231      3.669
REMARK  0 active torsions:
REMARK  status: ('A' for Active; 'I' for Inactive)
ROOT
HETATM    1  C1  UNL     1     -34.184   5.210   2.831  1.00 20.00     0.002 A 
HETATM    2  C2  UNL     1     -33.257   6.249   2.918  1.00 20.00     0.002 A 
HETATM    3  C3  UNL     1     -34.838   4.761   3.978  1.00 20.00     0.025 A 
HETATM    4  C4  UNL     1     -32.984   6.838   4.152  1.00 20.00     0.025 A 
HETATM    5  C5  UNL     1     -34.565   5.351   5.213  1.00 20.00     0.055 A 
HETATM    6  C6  UNL     1     -33.637   6.389   5.300  1.00 20.00     0.055 A 
HETATM    7 CL7  UNL     1     -35.407   4.752   6.599  1.00 20.00    -0.083 Cl
HETATM    8 CL8  UNL     1     -33.255   7.160   6.799  1.00 20.00    -0.083 Cl
ENDROOT
TORSDOF 0
ENDMDL
MODEL 7
REMARK VINA RESULT:      -3.9     12.830     13.814
REMARK  0 active torsions:
REMARK  status: ('A' for Active; 'I' for Inactive)
ROOT
HETATM    1  C1  UNL     1     -33.614  13.815  -3.843  1.00 20.00     0.002 A 
HETATM    2  C2  UNL     1     -33.036  15.065  -3.624  1.00 20.00     0.002 A 
HETATM    3  C3  UNL     1     -34.389  13.593  -4.981  1.00 20.00     0.025 A 
HETATM    4  C4  UNL     1     -33.235  16.096  -4.542  1.00 20.00     0.025 A 
HETATM    5  C5  UNL     1     -34.588  14.624  -5.900  1.00 20.00     0.055 A 
HETATM    6  C6  UNL     1     -34.011  15.876  -5.680  1.00 20.00     0.055 A 
HETATM    7 CL7  UNL     1     -35.559  14.290  -7.291  1.00 20.00    -0.083 Cl
HETATM    8 CL8  UNL     1     -34.221  17.192  -6.782  1.00 20.00    -0.083 Cl
ENDROOT
TORSDOF 0
ENDMDL
MODEL 8
REMARK VINA RESULT:      -3.9     12.817     13.610
REMARK  0 active torsions:
REMARK  status: ('A' for Active; 'I' for Inactive)
ROOT
HETATM    1  C1  UNL     1     -33.071  15.053  -3.604  1.00 20.00     0.002 A 
HETATM    2  C2  UNL     1     -33.650  13.804  -3.827  1.00 20.00     0.002 A 
HETATM    3  C3  UNL     1     -33.252  16.081  -4.529  1.00 20.00     0.025 A 
HETATM    4  C4  UNL     1     -34.410  13.582  -4.975  1.00 20.00     0.025 A 
HETATM    5  C5  UNL     1     -34.012  15.860  -5.678  1.00 20.00     0.055 A 
HETATM    6  C6  UNL     1     -34.591  14.610  -5.901  1.00 20.00     0.055 A 
HETATM    7 CL7  UNL     1     -34.201  17.172  -6.787  1.00 20.00    -0.083 Cl
HETATM    8 CL8  UNL     1     -35.543  14.274  -7.304  1.00 20.00    -0.083 Cl
ENDROOT
TORSDOF 0
ENDMDL
MODEL 9
REMARK VINA RESULT:      -3.8     12.329     13.347
REMARK  0 active torsions:
REMARK  status: ('A' for Active; 'I' for Inactive)
ROOT
HETATM    1  C1  UNL     1     -34.824  13.811  -5.797  1.00 20.00     0.002 A 
HETATM    2  C2  UNL     1     -34.920  13.327  -4.493  1.00 20.00     0.002 A 
HETATM    3  C3  UNL     1     -34.364  15.108  -6.028  1.00 20.00     0.025 A 
HETATM    4  C4  UNL     1     -34.557  14.138  -3.418  1.00 20.00     0.025 A 
HETATM    5  C5  UNL     1     -34.001  15.920  -4.953  1.00 20.00     0.055 A 
HETATM    6  C6  UNL     1     -34.098  15.436  -3.648  1.00 20.00     0.055 A 
HETATM    7 CL7  UNL     1     -33.438  17.517  -5.301  1.00 20.00    -0.083 Cl
HETATM    8 CL8  UNL     1     -33.664  16.393  -2.275  1.00 20.00    -0.083 Cl
ENDROOT
TORSDOF 0
ENDMDL
