MODEL 1
REMARK VINA RESULT:      -3.9      0.000      0.000
REMARK  0 active torsions:
REMARK  status: ('A' for Active; 'I' for Inactive)
ROOT
HETATM    1  C1  UNL     1     -34.641   5.471   6.335  1.00 20.00     0.019 A 
HETATM    2  C2  UNL     1     -35.216   4.645   5.338  1.00 20.00     0.019 A 
HETATM    3  C3  UNL     1     -33.760   6.323   5.706  1.00 20.00     0.090 A 
HETATM    4  C4  UNL     1     -34.668   5.016   4.130  1.00 20.00     0.090 A 
HETATM    5  C5  UNL     1     -32.997   6.708   3.357  1.00 20.00     0.154 C 
HETATM    6  N6  UNL     1     -33.784   6.037   4.366  1.00 20.00    -0.371 N 
ENDROOT
TORSDOF 0
ENDMDL
MODEL 2
REMARK VINA RESULT:      -3.8      1.025      2.064
REMARK  0 active torsions:
REMARK  status: ('A' for Active; 'I' for Inactive)
ROOT
HETATM    1  C1  UNL     1     -34.721   5.276   3.717  1.00 20.00     0.019 A 
HETATM    2  C2  UNL     1     -35.236   4.476   4.766  1.00 20.00     0.019 A 
HETATM    3  C3  UNL     1     -34.033   6.321   4.295  1.00 20.00     0.090 A 
HETATM    4  C4  UNL     1     -34.848   5.055   5.954  1.00 20.00     0.090 A 
HETATM    5  C5  UNL     1     -33.527   7.069   6.626  1.00 20.00     0.154 C 
HETATM    6  N6  UNL     1     -34.117   6.176   5.655  1.00 20.00    -0.371 N 
ENDROOT
TORSDOF 0
ENDMDL
MODEL 3
REMARK VINA RESULT:      -3.5      0.882      2.446
REMARK  0 active torsions:
REMARK  status: ('A' for Active; 'I' for Inactive)
ROOT
HETATM    1  C1  UNL     1     -33.225   6.131   3.069  1.00 20.00     0.019 A 
HETATM    2  C2  UNL     1     -34.402   5.372   2.856  1.00 20.00     0.019 A 
HETATM    3  C3  UNL     1     -33.129   6.370   4.423  1.00 20.00     0.090 A 
HETATM    4  C4  UNL     1     -34.989   5.169   4.085  1.00 20.00     0.090 A 
HETATM    5  C5  UNL     1     -34.477   5.801   6.449  1.00 20.00     0.154 C 
HETATM    6  N6  UNL     1     -34.206   5.780   5.030  1.00 20.00    -0.371 N 
ENDROOT
TORSDOF 0
ENDMDL
MODEL 4
REMARK VINA RESULT:      -3.4      0.873      2.802
REMARK  0 active torsions:
REMARK  status: ('A' for Active; 'I' for Inactive)
ROOT
HETATM    1  C1  UNL     1     -34.292   5.387   2.840  1.00 20.00     0.019 A 
HETATM    2  C2  UNL     1     -33.147   6.184   3.088  1.00 20.00     0.019 A 
HETATM    3  C3  UNL     1     -34.908   5.163   4.052  1.00 20.00     0.090 A 
HETATM    4  C4  UNL     1     -33.097   6.423   4.443  1.00 20.00     0.090 A 
HETATM    5  C5  UNL     1     -34.482   5.805   6.431  1.00 20.00     0.154 C 
HETATM    6  N6  UNL     1     -34.173   5.798   5.019  1.00 20.00    -0.371 N 
ENDROOT
TORSDOF 0
ENDMDL
MODEL 5
REMARK VINA RESULT:      -3.0      9.108      9.904
REMARK  0 active torsions:
REMARK  status: ('A' for Active; 'I' for Inactive)
ROOT
HETATM    1  C1  UNL     1     -40.707   6.177  -0.420  1.00 20.00     0.019 A 
HETATM    2  C2  UNL     1     -41.411   6.936  -1.386  1.00 20.00     0.019 A 
HETATM    3  C3  UNL     1     -40.833   4.849  -0.767  1.00 20.00     0.090 A 
HETATM    4  C4  UNL     1     -41.946   6.051  -2.295  1.00 20.00     0.090 A 
HETATM    5  C5  UNL     1     -41.953   3.569  -2.598  1.00 20.00     0.154 C 
HETATM    6  N6  UNL     1     -41.588   4.785  -1.908  1.00 20.00    -0.371 N 
ENDROOT
TORSDOF 0
ENDMDL
MODEL 6
REMARK VINA RESULT:      -3.0      9.130      9.971
REMARK  0 active torsions:
REMARK  status: ('A' for Active; 'I' for Inactive)
ROOT
HETATM    1  C1  UNL     1     -41.451   6.918  -1.408  1.00 20.00     0.019 A 
HETATM    2  C2  UNL     1     -40.727   6.174  -0.444  1.00 20.00     0.019 A 
HETATM    3  C3  UNL     1     -41.979   6.020  -2.310  1.00 20.00     0.090 A 
HETATM    4  C4  UNL     1     -40.834   4.844  -0.786  1.00 20.00     0.090 A 
HETATM    5  C5  UNL     1     -41.944   3.538  -2.606  1.00 20.00     0.154 C 
HETATM    6  N6  UNL     1     -41.597   4.763  -1.922  1.00 20.00    -0.371 N 
ENDROOT
TORSDOF 0
ENDMDL
MODEL 7
REMARK VINA RESULT:      -2.9      1.138      2.327
REMARK  0 active torsions:
REMARK  status: ('A' for Active; 'I' for Inactive)
ROOT
HETATM    1  C1  UNL     1     -33.757   6.831   6.363  1.00 20.00     0.019 A 
HETATM    2  C2  UNL     1     -33.351   6.932   5.009  1.00 20.00     0.019 A 
HETATM    3  C3  UNL     1     -34.480   5.665   6.490  1.00 20.00     0.090 A 
HETATM    4  C4  UNL     1     -33.837   5.825   4.351  1.00 20.00     0.090 A 
HETATM    5  C5  UNL     1     -35.188   3.813   4.968  1.00 20.00     0.154 C 
HETATM    6  N6  UNL     1     -34.522   5.062   5.261  1.00 20.00    -0.371 N 
ENDROOT
TORSDOF 0
ENDMDL
MODEL 8
REMARK VINA RESULT:      -2.9      9.310     10.063
REMARK  0 active torsions:
REMARK  status: ('A' for Active; 'I' for Inactive)
ROOT
HETATM    1  C1  UNL     1     -41.061   4.671  -1.068  1.00 20.00     0.019 A 
HETATM    2  C2  UNL     1     -40.658   5.869  -0.428  1.00 20.00     0.019 A 
HETATM    3  C3  UNL     1     -41.815   5.024  -2.166  1.00 20.00     0.090 A 
HETATM    4  C4  UNL     1     -41.178   6.918  -1.154  1.00 20.00     0.090 A 
HETATM    5  C5  UNL     1     -42.581   7.163  -3.209  1.00 20.00     0.154 C 
HETATM    6  N6  UNL     1     -41.879   6.392  -2.208  1.00 20.00    -0.371 N 
ENDROOT
TORSDOF 0
ENDMDL
MODEL 9
REMARK VINA RESULT:      -2.9     12.199     13.297
REMARK  0 active torsions:
REMARK  status: ('A' for Active; 'I' for Inactive)
ROOT
HETATM    1  C1  UNL     1     -33.620  13.684  -3.727  1.00 20.00     0.019 A 
HETATM    2  C2  UNL     1     -34.454  13.521  -4.861  1.00 20.00     0.019 A 
HETATM    3  C3  UNL     1     -33.154  14.981  -3.740  1.00 20.00     0.090 A 
HETATM    4  C4  UNL     1     -34.473  14.723  -5.533  1.00 20.00     0.090 A 
HETATM    5  C5  UNL     1     -33.432  16.975  -5.221  1.00 20.00     0.154 C 
HETATM    6  N6  UNL     1     -33.679  15.603  -4.843  1.00 20.00    -0.371 N 
ENDROOT
TORSDOF 0
ENDMDL
