MODEL 1
REMARK VINA RESULT:      -6.5      0.000      0.000
REMARK  1 active torsions:
REMARK  status: ('A' for Active; 'I' for Inactive)
REMARK    1  A    between atoms: C1_1  and  C8_8 
ROOT
HETATM    1  C1  UNL     1     -33.010   7.040   3.186  1.00 20.00    -0.067 C 
HETATM    2  C2  UNL     1     -32.411   7.698   2.378  1.00 20.00    -0.105 C 
HETATM    3  C9  UNL     1     -31.683   8.500   1.396  1.00 20.00     0.112 C 
ENDROOT
BRANCH   1   4
HETATM    4  C8  UNL     1     -33.724   6.258   4.145  1.00 20.00     0.017 A 
HETATM    5  C6  UNL     1     -33.629   6.562   5.503  1.00 20.00     0.020 A 
HETATM    6  C4  UNL     1     -34.326   5.800   6.440  1.00 20.00     0.001 A 
HETATM    7  C3  UNL     1     -35.120   4.733   6.018  1.00 20.00     0.000 A 
HETATM    8  C5  UNL     1     -35.215   4.429   4.660  1.00 20.00     0.001 A 
HETATM    9  C7  UNL     1     -34.518   5.192   3.724  1.00 20.00     0.020 A 
ENDBRANCH   1   4
TORSDOF 1
ENDMDL
MODEL 2
REMARK VINA RESULT:      -6.5      0.016      1.611
REMARK  1 active torsions:
REMARK  status: ('A' for Active; 'I' for Inactive)
REMARK    1  A    between atoms: C1_1  and  C8_8 
ROOT
HETATM    1  C1  UNL     1     -33.013   7.026   3.194  1.00 20.00    -0.067 C 
HETATM    2  C2  UNL     1     -32.411   7.683   2.387  1.00 20.00    -0.105 C 
HETATM    3  C9  UNL     1     -31.681   8.483   1.405  1.00 20.00     0.112 C 
ENDROOT
BRANCH   1   4
HETATM    4  C8  UNL     1     -33.730   6.246   4.152  1.00 20.00     0.017 A 
HETATM    5  C6  UNL     1     -34.528   5.183   3.730  1.00 20.00     0.020 A 
HETATM    6  C4  UNL     1     -35.228   4.421   4.665  1.00 20.00     0.001 A 
HETATM    7  C3  UNL     1     -35.129   4.722   6.023  1.00 20.00     0.000 A 
HETATM    8  C5  UNL     1     -34.331   5.785   6.446  1.00 20.00     0.001 A 
HETATM    9  C7  UNL     1     -33.631   6.547   5.511  1.00 20.00     0.020 A 
ENDBRANCH   1   4
TORSDOF 1
ENDMDL
MODEL 3
REMARK VINA RESULT:      -4.7     11.375     11.942
REMARK  1 active torsions:
REMARK  status: ('A' for Active; 'I' for Inactive)
REMARK    1  A    between atoms: C1_1  and  C8_8 
ROOT
HETATM    1  C1  UNL     1     -34.537  16.269  -1.649  1.00 20.00    -0.067 C 
HETATM    2  C2  UNL     1     -34.357  17.054  -0.757  1.00 20.00    -0.105 C 
HETATM    3  C9  UNL     1     -34.136  18.008   0.329  1.00 20.00     0.112 C 
ENDROOT
BRANCH   1   4
HETATM    4  C8  UNL     1     -34.750  15.335  -2.708  1.00 20.00     0.017 A 
HETATM    5  C6  UNL     1     -36.029  15.159  -3.236  1.00 20.00     0.020 A 
HETATM    6  C4  UNL     1     -36.237  14.246  -4.271  1.00 20.00     0.001 A 
HETATM    7  C3  UNL     1     -35.166  13.510  -4.777  1.00 20.00     0.000 A 
HETATM    8  C5  UNL     1     -33.887  13.687  -4.249  1.00 20.00     0.001 A 
HETATM    9  C7  UNL     1     -33.679  14.599  -3.215  1.00 20.00     0.020 A 
ENDBRANCH   1   4
TORSDOF 1
ENDMDL
MODEL 4
REMARK VINA RESULT:      -4.7     11.374     11.917
REMARK  1 active torsions:
REMARK  status: ('A' for Active; 'I' for Inactive)
REMARK    1  A    between atoms: C1_1  and  C8_8 
ROOT
HETATM    1  C1  UNL     1     -34.517  16.282  -1.649  1.00 20.00    -0.067 C 
HETATM    2  C2  UNL     1     -34.333  17.070  -0.761  1.00 20.00    -0.105 C 
HETATM    3  C9  UNL     1     -34.109  18.029   0.320  1.00 20.00     0.112 C 
ENDROOT
BRANCH   1   4
HETATM    4  C8  UNL     1     -34.739  15.343  -2.703  1.00 20.00     0.017 A 
HETATM    5  C6  UNL     1     -33.672  14.602  -3.212  1.00 20.00     0.020 A 
HETATM    6  C4  UNL     1     -33.889  13.686  -4.242  1.00 20.00     0.001 A 
HETATM    7  C3  UNL     1     -35.171  13.511  -4.762  1.00 20.00     0.000 A 
HETATM    8  C5  UNL     1     -36.237  14.253  -4.252  1.00 20.00     0.001 A 
HETATM    9  C7  UNL     1     -36.021  15.169  -3.223  1.00 20.00     0.020 A 
ENDBRANCH   1   4
TORSDOF 1
ENDMDL
MODEL 5
REMARK VINA RESULT:      -4.7      9.379     10.687
REMARK  1 active torsions:
REMARK  status: ('A' for Active; 'I' for Inactive)
REMARK    1  A    between atoms: C1_1  and  C8_8 
ROOT
HETATM    1  C1  UNL     1     -41.716   3.426  -2.611  1.00 20.00    -0.067 C 
HETATM    2  C2  UNL     1     -41.837   2.344  -3.120  1.00 20.00    -0.105 C 
HETATM    3  C9  UNL     1     -41.982   1.027  -3.738  1.00 20.00     0.112 C 
ENDROOT
BRANCH   1   4
HETATM    4  C8  UNL     1     -41.572   4.711  -2.004  1.00 20.00     0.017 A 
HETATM    5  C6  UNL     1     -40.804   4.855  -0.848  1.00 20.00     0.020 A 
HETATM    6  C4  UNL     1     -40.663   6.109  -0.255  1.00 20.00     0.001 A 
HETATM    7  C3  UNL     1     -41.290   7.221  -0.818  1.00 20.00     0.000 A 
HETATM    8  C5  UNL     1     -42.058   7.077  -1.974  1.00 20.00     0.001 A 
HETATM    9  C7  UNL     1     -42.199   5.823  -2.567  1.00 20.00     0.020 A 
ENDBRANCH   1   4
TORSDOF 1
ENDMDL
MODEL 6
REMARK VINA RESULT:      -4.7      9.378     10.749
REMARK  1 active torsions:
REMARK  status: ('A' for Active; 'I' for Inactive)
REMARK    1  A    between atoms: C1_1  and  C8_8 
ROOT
HETATM    1  C1  UNL     1     -41.713   3.417  -2.608  1.00 20.00    -0.067 C 
HETATM    2  C2  UNL     1     -41.832   2.335  -3.117  1.00 20.00    -0.105 C 
HETATM    3  C9  UNL     1     -41.974   1.018  -3.736  1.00 20.00     0.112 C 
ENDROOT
BRANCH   1   4
HETATM    4  C8  UNL     1     -41.570   4.703  -2.003  1.00 20.00     0.017 A 
HETATM    5  C6  UNL     1     -42.199   5.813  -2.567  1.00 20.00     0.020 A 
HETATM    6  C4  UNL     1     -42.060   7.069  -1.977  1.00 20.00     0.001 A 
HETATM    7  C3  UNL     1     -41.292   7.215  -0.822  1.00 20.00     0.000 A 
HETATM    8  C5  UNL     1     -40.663   6.105  -0.258  1.00 20.00     0.001 A 
HETATM    9  C7  UNL     1     -40.802   4.849  -0.848  1.00 20.00     0.020 A 
ENDBRANCH   1   4
TORSDOF 1
ENDMDL
MODEL 7
REMARK VINA RESULT:      -4.5     11.145     12.475
REMARK  1 active torsions:
REMARK  status: ('A' for Active; 'I' for Inactive)
REMARK    1  A    between atoms: C1_1  and  C8_8 
ROOT
HETATM    1  C1  UNL     1     -34.695  16.021  -2.157  1.00 20.00    -0.067 C 
HETATM    2  C2  UNL     1     -34.700  16.587  -1.097  1.00 20.00    -0.105 C 
HETATM    3  C9  UNL     1     -34.705  17.277   0.192  1.00 20.00     0.112 C 
ENDROOT
BRANCH   1   4
HETATM    4  C8  UNL     1     -34.689  15.350  -3.418  1.00 20.00     0.017 A 
HETATM    5  C6  UNL     1     -34.408  13.985  -3.482  1.00 20.00     0.020 A 
HETATM    6  C4  UNL     1     -34.402  13.331  -4.713  1.00 20.00     0.001 A 
HETATM    7  C3  UNL     1     -34.677  14.041  -5.882  1.00 20.00     0.000 A 
HETATM    8  C5  UNL     1     -34.959  15.405  -5.819  1.00 20.00     0.001 A 
HETATM    9  C7  UNL     1     -34.964  16.060  -4.587  1.00 20.00     0.020 A 
ENDBRANCH   1   4
TORSDOF 1
ENDMDL
MODEL 8
REMARK VINA RESULT:      -4.3     11.682     12.415
REMARK  1 active torsions:
REMARK  status: ('A' for Active; 'I' for Inactive)
REMARK    1  A    between atoms: C1_1  and  C8_8 
ROOT
HETATM    1  C1  UNL     1     -34.541  16.441  -1.497  1.00 20.00    -0.067 C 
HETATM    2  C2  UNL     1     -34.812  15.708  -2.410  1.00 20.00    -0.105 C 
HETATM    3  C9  UNL     1     -35.144  14.816  -3.519  1.00 20.00     0.112 C 
ENDROOT
BRANCH   1   4
HETATM    4  C8  UNL     1     -34.219  17.311  -0.410  1.00 20.00     0.017 A 
HETATM    5  C6  UNL     1     -35.045  17.358   0.714  1.00 20.00     0.020 A 
HETATM    6  C4  UNL     1     -34.731  18.207   1.775  1.00 20.00     0.001 A 
HETATM    7  C3  UNL     1     -33.591  19.009   1.712  1.00 20.00     0.000 A 
HETATM    8  C5  UNL     1     -32.765  18.961   0.589  1.00 20.00     0.001 A 
HETATM    9  C7  UNL     1     -33.080  18.112  -0.472  1.00 20.00     0.020 A 
ENDBRANCH   1   4
TORSDOF 1
ENDMDL
MODEL 9
REMARK VINA RESULT:      -4.3     11.663     12.405
REMARK  1 active torsions:
REMARK  status: ('A' for Active; 'I' for Inactive)
REMARK    1  A    between atoms: C1_1  and  C8_8 
ROOT
HETATM    1  C1  UNL     1     -34.561  16.417  -1.496  1.00 20.00    -0.067 C 
HETATM    2  C2  UNL     1     -34.828  15.674  -2.402  1.00 20.00    -0.105 C 
HETATM    3  C9  UNL     1     -35.153  14.771  -3.505  1.00 20.00     0.112 C 
ENDROOT
BRANCH   1   4
HETATM    4  C8  UNL     1     -34.245  17.302  -0.420  1.00 20.00     0.017 A 
HETATM    5  C6  UNL     1     -33.107  18.105  -0.489  1.00 20.00     0.020 A 
HETATM    6  C4  UNL     1     -32.798  18.969   0.562  1.00 20.00     0.001 A 
HETATM    7  C3  UNL     1     -33.628  19.031   1.681  1.00 20.00     0.000 A 
HETATM    8  C5  UNL     1     -34.767  18.228   1.749  1.00 20.00     0.001 A 
HETATM    9  C7  UNL     1     -35.076  17.364   0.699  1.00 20.00     0.020 A 
ENDBRANCH   1   4
TORSDOF 1
ENDMDL
