MODEL 1
REMARK VINA RESULT:      -4.7      0.000      0.000
REMARK  0 active torsions:
REMARK  status: ('A' for Active; 'I' for Inactive)
ROOT
HETATM    1  C1  UNL     1     -34.927   5.053   3.947  1.00 20.00     0.035 A 
HETATM    2  C2  UNL     1     -34.186   5.578   2.861  1.00 20.00     0.035 A 
HETATM    3  C3  UNL     1     -34.364   5.583   5.085  1.00 20.00     0.049 A 
HETATM    4  C4  UNL     1     -33.223   6.391   3.413  1.00 20.00     0.049 A 
HETATM    5  C5  UNL     1     -34.663   5.438   6.516  1.00 20.00     0.076 C 
HETATM    6  C6  UNL     1     -32.152   7.215   2.836  1.00 20.00     0.076 C 
HETATM    7  O7  UNL     1     -33.325   6.399   4.768  1.00 20.00    -0.320 OA
ENDROOT
TORSDOF 0
ENDMDL
MODEL 2
REMARK VINA RESULT:      -4.7      0.005      2.916
REMARK  0 active torsions:
REMARK  status: ('A' for Active; 'I' for Inactive)
ROOT
HETATM    1  C1  UNL     1     -34.187   5.581   2.861  1.00 20.00     0.035 A 
HETATM    2  C2  UNL     1     -34.929   5.059   3.948  1.00 20.00     0.035 A 
HETATM    3  C3  UNL     1     -33.221   6.390   3.413  1.00 20.00     0.049 A 
HETATM    4  C4  UNL     1     -34.362   5.586   5.085  1.00 20.00     0.049 A 
HETATM    5  C5  UNL     1     -32.147   7.211   2.836  1.00 20.00     0.076 C 
HETATM    6  C6  UNL     1     -34.661   5.440   6.517  1.00 20.00     0.076 C 
HETATM    7  O7  UNL     1     -33.320   6.398   4.767  1.00 20.00    -0.320 OA
ENDROOT
TORSDOF 0
ENDMDL
MODEL 3
REMARK VINA RESULT:      -4.6      1.386      2.103
REMARK  0 active torsions:
REMARK  status: ('A' for Active; 'I' for Inactive)
ROOT
HETATM    1  C1  UNL     1     -34.796   5.154   6.325  1.00 20.00     0.035 A 
HETATM    2  C2  UNL     1     -35.056   4.562   5.066  1.00 20.00     0.035 A 
HETATM    3  C3  UNL     1     -34.068   6.293   6.068  1.00 20.00     0.049 A 
HETATM    4  C4  UNL     1     -34.470   5.383   4.130  1.00 20.00     0.049 A 
HETATM    5  C5  UNL     1     -33.496   7.336   6.930  1.00 20.00     0.076 C 
HETATM    6  C6  UNL     1     -34.379   5.330   2.664  1.00 20.00     0.076 C 
HETATM    7  O7  UNL     1     -33.866   6.440   4.733  1.00 20.00    -0.320 OA
ENDROOT
TORSDOF 0
ENDMDL
MODEL 4
REMARK VINA RESULT:      -4.6      1.385      2.841
REMARK  0 active torsions:
REMARK  status: ('A' for Active; 'I' for Inactive)
ROOT
HETATM    1  C1  UNL     1     -35.072   4.568   5.049  1.00 20.00     0.035 A 
HETATM    2  C2  UNL     1     -34.814   5.158   6.310  1.00 20.00     0.035 A 
HETATM    3  C3  UNL     1     -34.472   5.383   4.117  1.00 20.00     0.049 A 
HETATM    4  C4  UNL     1     -34.075   6.291   6.058  1.00 20.00     0.049 A 
HETATM    5  C5  UNL     1     -34.371   5.331   2.652  1.00 20.00     0.076 C 
HETATM    6  C6  UNL     1     -33.498   7.327   6.925  1.00 20.00     0.076 C 
HETATM    7  O7  UNL     1     -33.862   6.435   4.724  1.00 20.00    -0.320 OA
ENDROOT
TORSDOF 0
ENDMDL
MODEL 5
REMARK VINA RESULT:      -4.1      1.249      1.856
REMARK  0 active torsions:
REMARK  status: ('A' for Active; 'I' for Inactive)
ROOT
HETATM    1  C1  UNL     1     -34.133   6.214   6.307  1.00 20.00     0.035 A 
HETATM    2  C2  UNL     1     -33.339   7.082   5.520  1.00 20.00     0.035 A 
HETATM    3  C3  UNL     1     -34.463   5.155   5.493  1.00 20.00     0.049 A 
HETATM    4  C4  UNL     1     -33.239   6.490   4.282  1.00 20.00     0.049 A 
HETATM    5  C5  UNL     1     -35.254   3.935   5.701  1.00 20.00     0.076 C 
HETATM    6  C6  UNL     1     -32.561   6.876   3.036  1.00 20.00     0.076 C 
HETATM    7  O7  UNL     1     -33.921   5.315   4.258  1.00 20.00    -0.320 OA
ENDROOT
TORSDOF 0
ENDMDL
MODEL 6
REMARK VINA RESULT:      -4.0      1.249      3.405
REMARK  0 active torsions:
REMARK  status: ('A' for Active; 'I' for Inactive)
ROOT
HETATM    1  C1  UNL     1     -33.319   7.093   5.514  1.00 20.00     0.035 A 
HETATM    2  C2  UNL     1     -34.115   6.254   6.331  1.00 20.00     0.035 A 
HETATM    3  C3  UNL     1     -33.239   6.468   4.291  1.00 20.00     0.049 A 
HETATM    4  C4  UNL     1     -34.465   5.179   5.548  1.00 20.00     0.049 A 
HETATM    5  C5  UNL     1     -32.572   6.813   3.028  1.00 20.00     0.076 C 
HETATM    6  C6  UNL     1     -35.269   3.975   5.798  1.00 20.00     0.076 C 
HETATM    7  O7  UNL     1     -33.935   5.302   4.303  1.00 20.00    -0.320 OA
ENDROOT
TORSDOF 0
ENDMDL
MODEL 7
REMARK VINA RESULT:      -3.5     11.421     12.713
REMARK  0 active torsions:
REMARK  status: ('A' for Active; 'I' for Inactive)
ROOT
HETATM    1  C1  UNL     1     -34.433  13.380  -4.932  1.00 20.00     0.035 A 
HETATM    2  C2  UNL     1     -34.416  13.677  -3.548  1.00 20.00     0.035 A 
HETATM    3  C3  UNL     1     -34.469  14.592  -5.582  1.00 20.00     0.049 A 
HETATM    4  C4  UNL     1     -34.441  15.049  -3.452  1.00 20.00     0.049 A 
HETATM    5  C5  UNL     1     -34.501  14.971  -7.001  1.00 20.00     0.076 C 
HETATM    6  C6  UNL     1     -34.440  15.975  -2.311  1.00 20.00     0.076 C 
HETATM    7  O7  UNL     1     -34.474  15.614  -4.687  1.00 20.00    -0.320 OA
ENDROOT
TORSDOF 0
ENDMDL
MODEL 8
REMARK VINA RESULT:      -3.5     11.422     12.490
REMARK  0 active torsions:
REMARK  status: ('A' for Active; 'I' for Inactive)
ROOT
HETATM    1  C1  UNL     1     -34.420  13.675  -3.552  1.00 20.00     0.035 A 
HETATM    2  C2  UNL     1     -34.439  13.383  -4.937  1.00 20.00     0.035 A 
HETATM    3  C3  UNL     1     -34.442  15.047  -3.452  1.00 20.00     0.049 A 
HETATM    4  C4  UNL     1     -34.472  14.597  -5.583  1.00 20.00     0.049 A 
HETATM    5  C5  UNL     1     -34.438  15.972  -2.310  1.00 20.00     0.076 C 
HETATM    6  C6  UNL     1     -34.504  14.979  -7.002  1.00 20.00     0.076 C 
HETATM    7  O7  UNL     1     -34.474  15.616  -4.685  1.00 20.00    -0.320 OA
ENDROOT
TORSDOF 0
ENDMDL
MODEL 9
REMARK VINA RESULT:      -3.5      9.185     10.173
REMARK  0 active torsions:
REMARK  status: ('A' for Active; 'I' for Inactive)
ROOT
HETATM    1  C1  UNL     1     -40.825   5.930  -0.729  1.00 20.00     0.035 A 
HETATM    2  C2  UNL     1     -40.652   4.548  -0.982  1.00 20.00     0.035 A 
HETATM    3  C3  UNL     1     -41.708   6.384  -1.682  1.00 20.00     0.049 A 
HETATM    4  C4  UNL     1     -41.443   4.256  -2.069  1.00 20.00     0.049 A 
HETATM    5  C5  UNL     1     -42.292   7.702  -1.965  1.00 20.00     0.076 C 
HETATM    6  C6  UNL     1     -41.706   3.018  -2.816  1.00 20.00     0.076 C 
HETATM    7  O7  UNL     1     -42.090   5.370  -2.501  1.00 20.00    -0.320 OA
ENDROOT
TORSDOF 0
ENDMDL
