MODEL 1
REMARK VINA RESULT:      -5.5      0.000      0.000
REMARK  1 active torsions:
REMARK  status: ('A' for Active; 'I' for Inactive)
REMARK    1  A    between atoms: C4_4  and  C7_7 
ROOT
HETATM    1  C1  UNL     1     -35.146   4.106   5.948  1.00 20.00     0.006 A 
HETATM    2  C2  UNL     1     -35.216   4.139   4.555  1.00 20.00     0.043 A 
HETATM    3  C3  UNL     1     -34.546   5.158   6.641  1.00 20.00     0.043 A 
HETATM    4  C4  UNL     1     -34.088   6.275   4.547  1.00 20.00     0.029 A 
HETATM    5  C5  UNL     1     -34.688   5.223   3.855  1.00 20.00     0.126 A 
HETATM    6  C6  UNL     1     -34.017   6.242   5.940  1.00 20.00     0.126 A 
HETATM    7  F8  UNL     1     -34.760   5.246   2.517  1.00 20.00    -0.205 F 
HETATM    8  F9  UNL     1     -33.443   7.248   6.614  1.00 20.00    -0.205 F 
ENDROOT
BRANCH   4   9
HETATM    9  C7  UNL     1     -33.523   7.435   3.800  1.00 20.00     0.130 C 
HETATM   10 BR10 UNL     1     -31.804   6.939   3.035  1.00 20.00    -0.091 Br
ENDBRANCH   4   9
TORSDOF 1
ENDMDL
MODEL 2
REMARK VINA RESULT:      -5.5      0.033      2.616
REMARK  1 active torsions:
REMARK  status: ('A' for Active; 'I' for Inactive)
REMARK    1  A    between atoms: C4_4  and  C7_7 
ROOT
HETATM    1  C1  UNL     1     -35.178   4.140   5.962  1.00 20.00     0.006 A 
HETATM    2  C2  UNL     1     -34.582   5.197   6.650  1.00 20.00     0.043 A 
HETATM    3  C3  UNL     1     -35.233   4.158   4.568  1.00 20.00     0.043 A 
HETATM    4  C4  UNL     1     -34.094   6.289   4.552  1.00 20.00     0.029 A 
HETATM    5  C5  UNL     1     -34.040   6.271   5.945  1.00 20.00     0.126 A 
HETATM    6  C6  UNL     1     -34.691   5.233   3.863  1.00 20.00     0.126 A 
HETATM    7  F8  UNL     1     -33.469   7.282   6.615  1.00 20.00    -0.205 F 
HETATM    8  F9  UNL     1     -34.748   5.242   2.524  1.00 20.00    -0.205 F 
ENDROOT
BRANCH   4   9
HETATM    9  C7  UNL     1     -33.514   7.437   3.797  1.00 20.00     0.130 C 
HETATM   10 BR10 UNL     1     -31.795   6.921   3.048  1.00 20.00    -0.091 Br
ENDBRANCH   4   9
TORSDOF 1
ENDMDL
MODEL 3
REMARK VINA RESULT:      -4.5     12.137     12.623
REMARK  1 active torsions:
REMARK  status: ('A' for Active; 'I' for Inactive)
REMARK    1  A    between atoms: C4_4  and  C7_7 
ROOT
HETATM    1  C1  UNL     1     -35.189  13.258  -4.443  1.00 20.00     0.006 A 
HETATM    2  C2  UNL     1     -33.833  13.475  -4.196  1.00 20.00     0.043 A 
HETATM    3  C3  UNL     1     -36.130  14.217  -4.065  1.00 20.00     0.043 A 
HETATM    4  C4  UNL     1     -34.357  15.610  -3.195  1.00 20.00     0.029 A 
HETATM    5  C5  UNL     1     -33.418  14.652  -3.572  1.00 20.00     0.126 A 
HETATM    6  C6  UNL     1     -35.713  15.393  -3.441  1.00 20.00     0.126 A 
HETATM    7  F8  UNL     1     -32.112  14.851  -3.339  1.00 20.00    -0.205 F 
HETATM    8  F9  UNL     1     -36.623  16.309  -3.081  1.00 20.00    -0.205 F 
ENDROOT
BRANCH   4   9
HETATM    9  C7  UNL     1     -33.913  16.868  -2.528  1.00 20.00     0.130 C 
HETATM   10 BR10 UNL     1     -34.546  16.887  -0.688  1.00 20.00    -0.091 Br
ENDBRANCH   4   9
TORSDOF 1
ENDMDL
MODEL 4
REMARK VINA RESULT:      -4.5     12.147     12.619
REMARK  1 active torsions:
REMARK  status: ('A' for Active; 'I' for Inactive)
REMARK    1  A    between atoms: C4_4  and  C7_7 
ROOT
HETATM    1  C1  UNL     1     -35.182  13.264  -4.419  1.00 20.00     0.006 A 
HETATM    2  C2  UNL     1     -36.135  14.214  -4.052  1.00 20.00     0.043 A 
HETATM    3  C3  UNL     1     -33.828  13.505  -4.179  1.00 20.00     0.043 A 
HETATM    4  C4  UNL     1     -34.384  15.646  -3.206  1.00 20.00     0.029 A 
HETATM    5  C5  UNL     1     -35.736  15.405  -3.446  1.00 20.00     0.126 A 
HETATM    6  C6  UNL     1     -33.430  14.697  -3.573  1.00 20.00     0.126 A 
HETATM    7  F8  UNL     1     -36.660  16.312  -3.098  1.00 20.00    -0.205 F 
HETATM    8  F9  UNL     1     -32.128  14.920  -3.347  1.00 20.00    -0.205 F 
ENDROOT
BRANCH   4   9
HETATM    9  C7  UNL     1     -33.956  16.919  -2.558  1.00 20.00     0.130 C 
HETATM   10 BR10 UNL     1     -34.515  16.920  -0.694  1.00 20.00    -0.091 Br
ENDBRANCH   4   9
TORSDOF 1
ENDMDL
MODEL 5
REMARK VINA RESULT:      -4.3     12.385     13.743
REMARK  1 active torsions:
REMARK  status: ('A' for Active; 'I' for Inactive)
REMARK    1  A    between atoms: C4_4  and  C7_7 
ROOT
HETATM    1  C1  UNL     1     -34.819  14.586  -6.796  1.00 20.00     0.006 A 
HETATM    2  C2  UNL     1     -34.923  13.753  -5.682  1.00 20.00     0.043 A 
HETATM    3  C3  UNL     1     -34.205  15.834  -6.680  1.00 20.00     0.043 A 
HETATM    4  C4  UNL     1     -33.798  15.413  -4.335  1.00 20.00     0.029 A 
HETATM    5  C5  UNL     1     -34.412  14.167  -4.452  1.00 20.00     0.126 A 
HETATM    6  C6  UNL     1     -33.695  16.247  -5.449  1.00 20.00     0.126 A 
HETATM    7  F8  UNL     1     -34.517  13.359  -3.386  1.00 20.00    -0.205 F 
HETATM    8  F9  UNL     1     -33.107  17.447  -5.346  1.00 20.00    -0.205 F 
ENDROOT
BRANCH   4   9
HETATM    9  C7  UNL     1     -33.253  15.857  -3.020  1.00 20.00     0.130 C 
HETATM   10 BR10 UNL     1     -34.720  16.338  -1.836  1.00 20.00    -0.091 Br
ENDBRANCH   4   9
TORSDOF 1
ENDMDL
MODEL 6
REMARK VINA RESULT:      -4.3     12.386     13.763
REMARK  1 active torsions:
REMARK  status: ('A' for Active; 'I' for Inactive)
REMARK    1  A    between atoms: C4_4  and  C7_7 
ROOT
HETATM    1  C1  UNL     1     -34.822  14.582  -6.803  1.00 20.00     0.006 A 
HETATM    2  C2  UNL     1     -34.199  15.824  -6.685  1.00 20.00     0.043 A 
HETATM    3  C3  UNL     1     -34.937  13.750  -5.688  1.00 20.00     0.043 A 
HETATM    4  C4  UNL     1     -33.807  15.405  -4.338  1.00 20.00     0.029 A 
HETATM    5  C5  UNL     1     -33.692  16.236  -5.452  1.00 20.00     0.126 A 
HETATM    6  C6  UNL     1     -34.429  14.162  -4.456  1.00 20.00     0.126 A 
HETATM    7  F8  UNL     1     -33.095  17.432  -5.348  1.00 20.00    -0.205 F 
HETATM    8  F9  UNL     1     -34.545  13.357  -3.391  1.00 20.00    -0.205 F 
ENDROOT
BRANCH   4   9
HETATM    9  C7  UNL     1     -33.265  15.845  -3.020  1.00 20.00     0.130 C 
HETATM   10 BR10 UNL     1     -34.734  16.333  -1.842  1.00 20.00    -0.091 Br
ENDBRANCH   4   9
TORSDOF 1
ENDMDL
MODEL 7
REMARK VINA RESULT:      -4.3      9.706     10.576
REMARK  1 active torsions:
REMARK  status: ('A' for Active; 'I' for Inactive)
REMARK    1  A    between atoms: C4_4  and  C7_7 
ROOT
HETATM    1  C1  UNL     1     -40.665   4.719  -0.903  1.00 20.00     0.006 A 
HETATM    2  C2  UNL     1     -41.481   4.232  -1.925  1.00 20.00     0.043 A 
HETATM    3  C3  UNL     1     -40.745   6.060  -0.525  1.00 20.00     0.043 A 
HETATM    4  C4  UNL     1     -42.458   6.425  -2.190  1.00 20.00     0.029 A 
HETATM    5  C5  UNL     1     -42.377   5.086  -2.568  1.00 20.00     0.126 A 
HETATM    6  C6  UNL     1     -41.641   6.913  -1.169  1.00 20.00     0.126 A 
HETATM    7  F8  UNL     1     -43.157   4.608  -3.549  1.00 20.00    -0.205 F 
HETATM    8  F9  UNL     1     -41.711   8.199  -0.800  1.00 20.00    -0.205 F 
ENDROOT
BRANCH   4   9
HETATM    9  C7  UNL     1     -43.416   7.338  -2.878  1.00 20.00     0.130 C 
HETATM   10 BR10 UNL     1     -42.486   8.326  -4.272  1.00 20.00    -0.091 Br
ENDBRANCH   4   9
TORSDOF 1
ENDMDL
MODEL 8
REMARK VINA RESULT:      -4.3      9.715     10.870
REMARK  1 active torsions:
REMARK  status: ('A' for Active; 'I' for Inactive)
REMARK    1  A    between atoms: C4_4  and  C7_7 
ROOT
HETATM    1  C1  UNL     1     -40.690   4.766  -0.867  1.00 20.00     0.006 A 
HETATM    2  C2  UNL     1     -40.794   6.106  -0.491  1.00 20.00     0.043 A 
HETATM    3  C3  UNL     1     -41.475   4.271  -1.908  1.00 20.00     0.043 A 
HETATM    4  C4  UNL     1     -42.467   6.455  -2.198  1.00 20.00     0.029 A 
HETATM    5  C5  UNL     1     -41.682   6.950  -1.157  1.00 20.00     0.126 A 
HETATM    6  C6  UNL     1     -42.364   5.116  -2.574  1.00 20.00     0.126 A 
HETATM    7  F8  UNL     1     -41.776   8.236  -0.788  1.00 20.00    -0.205 F 
HETATM    8  F9  UNL     1     -43.114   4.631  -3.573  1.00 20.00    -0.205 F 
ENDROOT
BRANCH   4   9
HETATM    9  C7  UNL     1     -43.417   7.358  -2.910  1.00 20.00     0.130 C 
HETATM   10 BR10 UNL     1     -42.466   8.343  -4.292  1.00 20.00    -0.091 Br
ENDBRANCH   4   9
TORSDOF 1
ENDMDL
MODEL 9
REMARK VINA RESULT:      -4.3     12.535     14.108
REMARK  1 active torsions:
REMARK  status: ('A' for Active; 'I' for Inactive)
REMARK    1  A    between atoms: C4_4  and  C7_7 
ROOT
HETATM    1  C1  UNL     1     -33.149  15.347  -3.589  1.00 20.00     0.006 A 
HETATM    2  C2  UNL     1     -33.240  16.334  -4.571  1.00 20.00     0.043 A 
HETATM    3  C3  UNL     1     -33.715  14.090  -3.808  1.00 20.00     0.043 A 
HETATM    4  C4  UNL     1     -34.462  14.809  -5.992  1.00 20.00     0.029 A 
HETATM    5  C5  UNL     1     -33.896  16.064  -5.772  1.00 20.00     0.126 A 
HETATM    6  C6  UNL     1     -34.372  13.822  -5.009  1.00 20.00     0.126 A 
HETATM    7  F8  UNL     1     -33.979  17.019  -6.709  1.00 20.00    -0.205 F 
HETATM    8  F9  UNL     1     -34.913  12.612  -5.212  1.00 20.00    -0.205 F 
ENDROOT
BRANCH   4   9
HETATM    9  C7  UNL     1     -35.164  14.520  -7.275  1.00 20.00     0.130 C 
HETATM   10 BR10 UNL     1     -36.969  15.243  -7.206  1.00 20.00    -0.091 Br
ENDBRANCH   4   9
TORSDOF 1
ENDMDL
