MODEL 1
REMARK VINA RESULT:      -3.4      0.000      0.000
REMARK  1 active torsions:
REMARK  status: ('A' for Active; 'I' for Inactive)
REMARK    1  A    between atoms: C4_4  and  S7_7 
ROOT
HETATM    1  C1  UNL     1     -34.450   5.813   6.576  1.00 20.00     0.009 A 
HETATM    2  C2  UNL     1     -33.632   6.507   5.640  1.00 20.00     0.026 A 
HETATM    3  C3  UNL     1     -35.202   4.828   5.975  1.00 20.00     0.051 A 
HETATM    4  C4  UNL     1     -33.789   6.028   4.358  1.00 20.00     0.040 A 
HETATM    5  S6  UNL     1     -34.922   4.744   4.288  1.00 20.00    -0.095 SA
ENDROOT
BRANCH   4   6
HETATM    6  S7  UNL     1     -32.961   6.614   2.928  1.00 20.00    -0.127 SA
HETATM    7  C5  UNL     1     -31.570   7.490   3.687  1.00 20.00     0.096 C 
ENDBRANCH   4   6
TORSDOF 1
ENDMDL
MODEL 2
REMARK VINA RESULT:      -3.3      1.228      1.586
REMARK  1 active torsions:
REMARK  status: ('A' for Active; 'I' for Inactive)
REMARK    1  A    between atoms: C4_4  and  S7_7 
ROOT
HETATM    1  C1  UNL     1     -35.236   4.579   5.280  1.00 20.00     0.009 A 
HETATM    2  C2  UNL     1     -34.664   4.997   4.045  1.00 20.00     0.026 A 
HETATM    3  C3  UNL     1     -34.765   5.317   6.344  1.00 20.00     0.051 A 
HETATM    4  C4  UNL     1     -33.776   6.037   4.211  1.00 20.00     0.040 A 
HETATM    5  S6  UNL     1     -33.636   6.506   5.852  1.00 20.00    -0.095 SA
ENDROOT
BRANCH   4   6
HETATM    6  S7  UNL     1     -32.867   6.830   2.938  1.00 20.00    -0.127 SA
HETATM    7  C5  UNL     1     -31.499   7.529   3.896  1.00 20.00     0.096 C 
ENDBRANCH   4   6
TORSDOF 1
ENDMDL
MODEL 3
REMARK VINA RESULT:      -3.2     12.026     12.366
REMARK  1 active torsions:
REMARK  status: ('A' for Active; 'I' for Inactive)
REMARK    1  A    between atoms: C4_4  and  S7_7 
ROOT
HETATM    1  C1  UNL     1     -33.726  13.666  -4.002  1.00 20.00     0.009 A 
HETATM    2  C2  UNL     1     -33.761  14.880  -3.258  1.00 20.00     0.026 A 
HETATM    3  C3  UNL     1     -34.970  13.315  -4.479  1.00 20.00     0.051 A 
HETATM    4  C4  UNL     1     -35.030  15.411  -3.192  1.00 20.00     0.040 A 
HETATM    5  S6  UNL     1     -36.174  14.447  -4.027  1.00 20.00    -0.095 SA
ENDROOT
BRANCH   4   6
HETATM    6  S7  UNL     1     -35.488  16.891  -2.372  1.00 20.00    -0.127 SA
HETATM    7  C5  UNL     1     -34.581  16.702  -0.817  1.00 20.00     0.096 C 
ENDBRANCH   4   6
TORSDOF 1
ENDMDL
MODEL 4
REMARK VINA RESULT:      -3.0     12.247     13.378
REMARK  1 active torsions:
REMARK  status: ('A' for Active; 'I' for Inactive)
REMARK    1  A    between atoms: C4_4  and  S7_7 
ROOT
HETATM    1  C1  UNL     1     -33.614  13.634  -3.776  1.00 20.00     0.009 A 
HETATM    2  C2  UNL     1     -33.241  15.008  -3.809  1.00 20.00     0.026 A 
HETATM    3  C3  UNL     1     -34.457  13.301  -4.814  1.00 20.00     0.051 A 
HETATM    4  C4  UNL     1     -33.813  15.674  -4.871  1.00 20.00     0.040 A 
HETATM    5  S6  UNL     1     -34.796  14.643  -5.821  1.00 20.00    -0.095 SA
ENDROOT
BRANCH   4   6
HETATM    6  S7  UNL     1     -33.600  17.371  -5.259  1.00 20.00    -0.127 SA
HETATM    7  C5  UNL     1     -33.866  18.118  -3.631  1.00 20.00     0.096 C 
ENDBRANCH   4   6
TORSDOF 1
ENDMDL
MODEL 5
REMARK VINA RESULT:      -3.0      9.962     10.713
REMARK  1 active torsions:
REMARK  status: ('A' for Active; 'I' for Inactive)
REMARK    1  A    between atoms: C4_4  and  S7_7 
ROOT
HETATM    1  C1  UNL     1     -40.716   6.003  -0.352  1.00 20.00     0.009 A 
HETATM    2  C2  UNL     1     -41.259   4.825  -0.939  1.00 20.00     0.026 A 
HETATM    3  C3  UNL     1     -41.107   7.142  -1.021  1.00 20.00     0.051 A 
HETATM    4  C4  UNL     1     -42.043   5.107  -2.036  1.00 20.00     0.040 A 
HETATM    5  S6  UNL     1     -42.123   6.789  -2.353  1.00 20.00    -0.095 SA
ENDROOT
BRANCH   4   6
HETATM    6  S7  UNL     1     -42.887   3.935  -3.029  1.00 20.00    -0.127 SA
HETATM    7  C5  UNL     1     -41.662   2.603  -3.082  1.00 20.00     0.096 C 
ENDBRANCH   4   6
TORSDOF 1
ENDMDL
MODEL 6
REMARK VINA RESULT:      -3.0     12.469     13.644
REMARK  1 active torsions:
REMARK  status: ('A' for Active; 'I' for Inactive)
REMARK    1  A    between atoms: C4_4  and  S7_7 
ROOT
HETATM    1  C1  UNL     1     -33.667  13.832  -3.747  1.00 20.00     0.009 A 
HETATM    2  C2  UNL     1     -34.434  13.504  -4.902  1.00 20.00     0.026 A 
HETATM    3  C3  UNL     1     -33.232  15.139  -3.770  1.00 20.00     0.051 A 
HETATM    4  C4  UNL     1     -34.555  14.571  -5.764  1.00 20.00     0.040 A 
HETATM    5  S6  UNL     1     -33.746  15.963  -5.180  1.00 20.00    -0.095 SA
ENDROOT
BRANCH   4   6
HETATM    6  S7  UNL     1     -35.419  14.572  -7.289  1.00 20.00    -0.127 SA
HETATM    7  C5  UNL     1     -37.016  15.246  -6.764  1.00 20.00     0.096 C 
ENDBRANCH   4   6
TORSDOF 1
ENDMDL
MODEL 7
REMARK VINA RESULT:      -3.0     12.664     13.143
REMARK  1 active torsions:
REMARK  status: ('A' for Active; 'I' for Inactive)
REMARK    1  A    between atoms: C4_4  and  S7_7 
ROOT
HETATM    1  C1  UNL     1     -34.752  17.039  -0.247  1.00 20.00     0.009 A 
HETATM    2  C2  UNL     1     -34.568  16.328  -1.467  1.00 20.00     0.026 A 
HETATM    3  C3  UNL     1     -34.305  18.339  -0.334  1.00 20.00     0.051 A 
HETATM    4  C4  UNL     1     -33.986  17.110  -2.440  1.00 20.00     0.040 A 
HETATM    5  S6  UNL     1     -33.663  18.696  -1.880  1.00 20.00    -0.095 SA
ENDROOT
BRANCH   4   6
HETATM    6  S7  UNL     1     -33.596  16.605  -4.073  1.00 20.00    -0.127 SA
HETATM    7  C5  UNL     1     -32.914  14.958  -3.757  1.00 20.00     0.096 C 
ENDBRANCH   4   6
TORSDOF 1
ENDMDL
MODEL 8
REMARK VINA RESULT:      -2.9     11.945     13.034
REMARK  1 active torsions:
REMARK  status: ('A' for Active; 'I' for Inactive)
REMARK    1  A    between atoms: C4_4  and  S7_7 
ROOT
HETATM    1  C1  UNL     1     -33.936  17.574  -0.734  1.00 20.00     0.009 A 
HETATM    2  C2  UNL     1     -34.643  16.420  -1.176  1.00 20.00     0.026 A 
HETATM    3  C3  UNL     1     -33.556  18.381  -1.784  1.00 20.00     0.051 A 
HETATM    4  C4  UNL     1     -34.776  16.387  -2.547  1.00 20.00     0.040 A 
HETATM    5  S6  UNL     1     -34.049  17.746  -3.295  1.00 20.00    -0.095 SA
ENDROOT
BRANCH   4   6
HETATM    6  S7  UNL     1     -35.581  15.137  -3.475  1.00 20.00    -0.127 SA
HETATM    7  C5  UNL     1     -34.261  13.901  -3.580  1.00 20.00     0.096 C 
ENDBRANCH   4   6
TORSDOF 1
ENDMDL
MODEL 9
REMARK VINA RESULT:      -2.9     10.153     10.731
REMARK  1 active torsions:
REMARK  status: ('A' for Active; 'I' for Inactive)
REMARK    1  A    between atoms: C4_4  and  S7_7 
ROOT
HETATM    1  C1  UNL     1     -40.803   4.736  -0.898  1.00 20.00     0.009 A 
HETATM    2  C2  UNL     1     -41.711   4.848  -1.989  1.00 20.00     0.026 A 
HETATM    3  C3  UNL     1     -40.588   5.946  -0.276  1.00 20.00     0.051 A 
HETATM    4  C4  UNL     1     -42.156   6.141  -2.162  1.00 20.00     0.040 A 
HETATM    5  S6  UNL     1     -41.478   7.212  -1.010  1.00 20.00    -0.095 SA
ENDROOT
BRANCH   4   6
HETATM    6  S7  UNL     1     -43.279   6.690  -3.391  1.00 20.00    -0.127 SA
HETATM    7  C5  UNL     1     -42.418   8.165  -3.991  1.00 20.00     0.096 C 
ENDBRANCH   4   6
TORSDOF 1
ENDMDL
