MODEL 1
REMARK VINA RESULT:      -4.3      0.000      0.000
REMARK  3 active torsions:
REMARK  status: ('A' for Active; 'I' for Inactive)
REMARK    1  A    between atoms: C4_4  and  S10_10 
REMARK    2  A    between atoms: C5_5  and  C7_7 
REMARK    3  A    between atoms: C7_7  and  S10_10 
ROOT
HETATM    1  C1  UNL     1     -34.759  17.043  -0.371  1.00 20.00     0.009 A 
HETATM    2  C2  UNL     1     -34.553  16.219  -1.515  1.00 20.00     0.026 A 
HETATM    3  C3  UNL     1     -34.309  18.329  -0.571  1.00 20.00     0.051 A 
HETATM    4  C4  UNL     1     -33.954  16.909  -2.547  1.00 20.00     0.041 A 
HETATM    5  S9  UNL     1     -33.641  18.541  -2.133  1.00 20.00    -0.095 SA
ENDROOT
BRANCH   4   6
HETATM    6  S10 UNL     1     -33.534  16.247  -4.132  1.00 20.00    -0.115 SA
BRANCH   6   7
HETATM    7  C7  UNL     1     -33.567  14.481  -3.757  1.00 20.00     0.157 C 
BRANCH   7   8
HETATM    8  C5  UNL     1     -34.442  13.722  -4.725  1.00 20.00     0.132 C 
HETATM    9  C6  UNL     1     -34.706  14.428  -6.015  1.00 20.00     0.091 C 
HETATM   10  O8  UNL     1     -34.929  12.615  -4.534  1.00 20.00    -0.298 OA
ENDBRANCH   7   8
ENDBRANCH   6   7
ENDBRANCH   4   6
TORSDOF 3
ENDMDL
MODEL 2
REMARK VINA RESULT:      -4.2      0.869      1.216
REMARK  3 active torsions:
REMARK  status: ('A' for Active; 'I' for Inactive)
REMARK    1  A    between atoms: C4_4  and  S10_10 
REMARK    2  A    between atoms: C5_5  and  C7_7 
REMARK    3  A    between atoms: C7_7  and  S10_10 
ROOT
HETATM    1  C1  UNL     1     -34.446  17.177  -0.278  1.00 20.00     0.009 A 
HETATM    2  C2  UNL     1     -34.762  16.376  -1.414  1.00 20.00     0.026 A 
HETATM    3  C3  UNL     1     -33.902  18.391  -0.636  1.00 20.00     0.051 A 
HETATM    4  C4  UNL     1     -34.448  17.009  -2.597  1.00 20.00     0.041 A 
HETATM    5  S9  UNL     1     -33.774  18.562  -2.336  1.00 20.00    -0.095 SA
ENDROOT
BRANCH   4   6
HETATM    6  S10 UNL     1     -34.687  16.354  -4.221  1.00 20.00    -0.115 SA
BRANCH   6   7
HETATM    7  C7  UNL     1     -35.515  14.800  -3.817  1.00 20.00     0.157 C 
BRANCH   7   8
HETATM    8  C5  UNL     1     -34.629  13.609  -4.092  1.00 20.00     0.132 C 
HETATM    9  C6  UNL     1     -33.219  13.756  -3.622  1.00 20.00     0.091 C 
HETATM   10  O8  UNL     1     -34.973  12.574  -4.648  1.00 20.00    -0.298 OA
ENDBRANCH   7   8
ENDBRANCH   6   7
ENDBRANCH   4   6
TORSDOF 3
ENDMDL
MODEL 3
REMARK VINA RESULT:      -4.0     11.243     11.839
REMARK  3 active torsions:
REMARK  status: ('A' for Active; 'I' for Inactive)
REMARK    1  A    between atoms: C4_4  and  S10_10 
REMARK    2  A    between atoms: C5_5  and  C7_7 
REMARK    3  A    between atoms: C7_7  and  S10_10 
ROOT
HETATM    1  C1  UNL     1     -34.311   6.054   6.461  1.00 20.00     0.009 A 
HETATM    2  C2  UNL     1     -33.519   6.536   5.379  1.00 20.00     0.026 A 
HETATM    3  C3  UNL     1     -35.140   5.022   6.077  1.00 20.00     0.051 A 
HETATM    4  C4  UNL     1     -33.772   5.852   4.209  1.00 20.00     0.041 A 
HETATM    5  S9  UNL     1     -34.961   4.638   4.418  1.00 20.00    -0.095 SA
ENDROOT
BRANCH   4   6
HETATM    6  S10 UNL     1     -32.997   6.145   2.647  1.00 20.00    -0.115 SA
BRANCH   6   7
HETATM    7  C7  UNL     1     -32.111   7.676   3.015  1.00 20.00     0.157 C 
BRANCH   7   8
HETATM    8  C5  UNL     1     -32.051   8.587   1.813  1.00 20.00     0.132 C 
HETATM    9  C6  UNL     1     -32.764   9.890   1.980  1.00 20.00     0.091 C 
HETATM   10  O8  UNL     1     -31.482   8.344   0.757  1.00 20.00    -0.298 OA
ENDBRANCH   7   8
ENDBRANCH   6   7
ENDBRANCH   4   6
TORSDOF 3
ENDMDL
MODEL 4
REMARK VINA RESULT:      -4.0      1.388      1.581
REMARK  3 active torsions:
REMARK  status: ('A' for Active; 'I' for Inactive)
REMARK    1  A    between atoms: C4_4  and  S10_10 
REMARK    2  A    between atoms: C5_5  and  C7_7 
REMARK    3  A    between atoms: C7_7  and  S10_10 
ROOT
HETATM    1  C1  UNL     1     -34.684  17.159  -0.297  1.00 20.00     0.009 A 
HETATM    2  C2  UNL     1     -34.657  16.256  -1.399  1.00 20.00     0.026 A 
HETATM    3  C3  UNL     1     -34.287  18.428  -0.658  1.00 20.00     0.051 A 
HETATM    4  C4  UNL     1     -34.240  16.869  -2.560  1.00 20.00     0.041 A 
HETATM    5  S9  UNL     1     -33.883  18.527  -2.319  1.00 20.00    -0.095 SA
ENDROOT
BRANCH   4   6
HETATM    6  S10 UNL     1     -34.073  16.096  -4.141  1.00 20.00    -0.115 SA
BRANCH   6   7
HETATM    7  C7  UNL     1     -35.812  15.806  -4.537  1.00 20.00     0.157 C 
BRANCH   7   8
HETATM    8  C5  UNL     1     -36.240  14.405  -4.171  1.00 20.00     0.132 C 
HETATM    9  C6  UNL     1     -35.150  13.385  -4.221  1.00 20.00     0.091 C 
HETATM   10  O8  UNL     1     -37.370  14.063  -3.848  1.00 20.00    -0.298 OA
ENDBRANCH   7   8
ENDBRANCH   6   7
ENDBRANCH   4   6
TORSDOF 3
ENDMDL
MODEL 5
REMARK VINA RESULT:      -3.7     11.216     11.772
REMARK  3 active torsions:
REMARK  status: ('A' for Active; 'I' for Inactive)
REMARK    1  A    between atoms: C4_4  and  S10_10 
REMARK    2  A    between atoms: C5_5  and  C7_7 
REMARK    3  A    between atoms: C7_7  and  S10_10 
ROOT
HETATM    1  C1  UNL     1     -35.188   4.824   5.664  1.00 20.00     0.009 A 
HETATM    2  C2  UNL     1     -34.711   4.836   4.321  1.00 20.00     0.026 A 
HETATM    3  C3  UNL     1     -34.570   5.778   6.442  1.00 20.00     0.051 A 
HETATM    4  C4  UNL     1     -33.747   5.801   4.124  1.00 20.00     0.041 A 
HETATM    5  S9  UNL     1     -33.420   6.684   5.554  1.00 20.00    -0.095 SA
ENDROOT
BRANCH   4   6
HETATM    6  S10 UNL     1     -32.909   6.137   2.604  1.00 20.00    -0.115 SA
BRANCH   6   7
HETATM    7  C7  UNL     1     -32.134   7.717   3.012  1.00 20.00     0.157 C 
BRANCH   7   8
HETATM    8  C5  UNL     1     -32.032   8.617   1.804  1.00 20.00     0.132 C 
HETATM    9  C6  UNL     1     -32.740   9.926   1.939  1.00 20.00     0.091 C 
HETATM   10  O8  UNL     1     -31.435   8.359   0.767  1.00 20.00    -0.298 OA
ENDBRANCH   7   8
ENDBRANCH   6   7
ENDBRANCH   4   6
TORSDOF 3
ENDMDL
MODEL 6
REMARK VINA RESULT:      -3.7     13.107     14.245
REMARK  3 active torsions:
REMARK  status: ('A' for Active; 'I' for Inactive)
REMARK    1  A    between atoms: C4_4  and  S10_10 
REMARK    2  A    between atoms: C5_5  and  C7_7 
REMARK    3  A    between atoms: C7_7  and  S10_10 
ROOT
HETATM    1  C1  UNL     1     -40.631   5.825  -0.491  1.00 20.00     0.009 A 
HETATM    2  C2  UNL     1     -41.138   4.652  -1.121  1.00 20.00     0.026 A 
HETATM    3  C3  UNL     1     -41.134   6.976  -1.058  1.00 20.00     0.051 A 
HETATM    4  C4  UNL     1     -42.010   4.951  -2.145  1.00 20.00     0.041 A 
HETATM    5  S9  UNL     1     -42.213   6.640  -2.344  1.00 20.00    -0.095 SA
ENDROOT
BRANCH   4   6
HETATM    6  S10 UNL     1     -42.852   3.780  -3.167  1.00 20.00    -0.115 SA
BRANCH   6   7
HETATM    7  C7  UNL     1     -41.614   2.466  -3.230  1.00 20.00     0.157 C 
BRANCH   7   8
HETATM    8  C5  UNL     1     -41.919   1.465  -4.318  1.00 20.00     0.132 C 
HETATM    9  C6  UNL     1     -41.623   0.045  -3.961  1.00 20.00     0.091 C 
HETATM   10  O8  UNL     1     -42.373   1.726  -5.424  1.00 20.00    -0.298 OA
ENDBRANCH   7   8
ENDBRANCH   6   7
ENDBRANCH   4   6
TORSDOF 3
ENDMDL
MODEL 7
REMARK VINA RESULT:      -3.7      2.070      4.697
REMARK  3 active torsions:
REMARK  status: ('A' for Active; 'I' for Inactive)
REMARK    1  A    between atoms: C4_4  and  S10_10 
REMARK    2  A    between atoms: C5_5  and  C7_7 
REMARK    3  A    between atoms: C7_7  and  S10_10 
ROOT
HETATM    1  C1  UNL     1     -35.478  14.490  -7.781  1.00 20.00     0.009 A 
HETATM    2  C2  UNL     1     -34.343  14.990  -7.079  1.00 20.00     0.026 A 
HETATM    3  C3  UNL     1     -36.654  15.051  -7.333  1.00 20.00     0.051 A 
HETATM    4  C4  UNL     1     -34.696  15.916  -6.121  1.00 20.00     0.041 A 
HETATM    5  S9  UNL     1     -36.387  16.177  -6.070  1.00 20.00    -0.095 SA
ENDROOT
BRANCH   4   6
HETATM    6  S10 UNL     1     -33.584  16.768  -5.042  1.00 20.00    -0.115 SA
BRANCH   6   7
HETATM    7  C7  UNL     1     -32.957  15.380  -4.072  1.00 20.00     0.157 C 
BRANCH   7   8
HETATM    8  C5  UNL     1     -34.071  14.647  -3.363  1.00 20.00     0.132 C 
HETATM    9  C6  UNL     1     -34.899  15.496  -2.455  1.00 20.00     0.091 C 
HETATM   10  O8  UNL     1     -34.331  13.456  -3.478  1.00 20.00    -0.298 OA
ENDBRANCH   7   8
ENDBRANCH   6   7
ENDBRANCH   4   6
TORSDOF 3
ENDMDL
MODEL 8
REMARK VINA RESULT:      -3.7      2.257      4.507
REMARK  3 active torsions:
REMARK  status: ('A' for Active; 'I' for Inactive)
REMARK    1  A    between atoms: C4_4  and  S10_10 
REMARK    2  A    between atoms: C5_5  and  C7_7 
REMARK    3  A    between atoms: C7_7  and  S10_10 
ROOT
HETATM    1  C1  UNL     1     -33.421  13.643  -3.781  1.00 20.00     0.009 A 
HETATM    2  C2  UNL     1     -33.018  15.010  -3.750  1.00 20.00     0.026 A 
HETATM    3  C3  UNL     1     -34.664  13.482  -4.354  1.00 20.00     0.051 A 
HETATM    4  C4  UNL     1     -33.970  15.841  -4.300  1.00 20.00     0.041 A 
HETATM    5  S9  UNL     1     -35.341  14.975  -4.850  1.00 20.00    -0.095 SA
ENDROOT
BRANCH   4   6
HETATM    6  S10 UNL     1     -33.850  17.599  -4.451  1.00 20.00    -0.115 SA
BRANCH   6   7
HETATM    7  C7  UNL     1     -33.788  18.063  -2.707  1.00 20.00     0.157 C 
BRANCH   7   8
HETATM    8  C5  UNL     1     -34.974  17.524  -1.944  1.00 20.00     0.132 C 
HETATM    9  C6  UNL     1     -34.626  16.693  -0.752  1.00 20.00     0.091 C 
HETATM   10  O8  UNL     1     -36.151  17.714  -2.222  1.00 20.00    -0.298 OA
ENDBRANCH   7   8
ENDBRANCH   6   7
ENDBRANCH   4   6
TORSDOF 3
ENDMDL
MODEL 9
REMARK VINA RESULT:      -3.7      2.775      5.315
REMARK  3 active torsions:
REMARK  status: ('A' for Active; 'I' for Inactive)
REMARK    1  A    between atoms: C4_4  and  S10_10 
REMARK    2  A    between atoms: C5_5  and  C7_7 
REMARK    3  A    between atoms: C7_7  and  S10_10 
ROOT
HETATM    1  C1  UNL     1     -34.090  13.476  -4.438  1.00 20.00     0.009 A 
HETATM    2  C2  UNL     1     -33.412  14.537  -3.769  1.00 20.00     0.026 A 
HETATM    3  C3  UNL     1     -35.458  13.629  -4.398  1.00 20.00     0.051 A 
HETATM    4  C4  UNL     1     -34.290  15.460  -3.244  1.00 20.00     0.041 A 
HETATM    5  S9  UNL     1     -35.922  15.046  -3.556  1.00 20.00    -0.095 SA
ENDROOT
BRANCH   4   6
HETATM    6  S10 UNL     1     -33.850  16.918  -2.346  1.00 20.00    -0.115 SA
BRANCH   6   7
HETATM    7  C7  UNL     1     -34.758  16.631  -0.811  1.00 20.00     0.157 C 
BRANCH   7   8
HETATM    8  C5  UNL     1     -34.407  17.652   0.244  1.00 20.00     0.132 C 
HETATM    9  C6  UNL     1     -35.305  17.651   1.439  1.00 20.00     0.091 C 
HETATM   10  O8  UNL     1     -33.477  18.446   0.191  1.00 20.00    -0.298 OA
ENDBRANCH   7   8
ENDBRANCH   6   7
ENDBRANCH   4   6
TORSDOF 3
ENDMDL
