MODEL 1
REMARK VINA RESULT:      -4.8      0.000      0.000
REMARK  1 active torsions:
REMARK  status: ('A' for Active; 'I' for Inactive)
REMARK    1  A    between atoms: C4_4  and  C6_6 
ROOT
HETATM    1  C1  UNL     1     -35.159   4.751   6.094  1.00 20.00     0.027 A 
HETATM    2  C2  UNL     1     -34.943   4.589   4.704  1.00 20.00     0.034 A 
HETATM    3  C3  UNL     1     -34.432   5.857   6.467  1.00 20.00     0.142 A 
HETATM    4  C4  UNL     1     -34.101   5.608   4.328  1.00 20.00     0.052 A 
HETATM    5  O7  UNL     1     -33.784   6.386   5.396  1.00 20.00    -0.327 OA
ENDROOT
BRANCH   4   6
HETATM    6  C6  UNL     1     -33.506   5.996   3.041  1.00 20.00     0.060 C 
HETATM    7  C5  UNL     1     -32.224   6.828   3.196  1.00 20.00     0.012 C 
ENDBRANCH   4   6
TORSDOF 1
ENDMDL
MODEL 2
REMARK VINA RESULT:      -4.6      1.014      1.436
REMARK  1 active torsions:
REMARK  status: ('A' for Active; 'I' for Inactive)
REMARK    1  A    between atoms: C4_4  and  C6_6 
ROOT
HETATM    1  C1  UNL     1     -34.709   5.259   6.440  1.00 20.00     0.027 A 
HETATM    2  C2  UNL     1     -33.950   6.239   5.756  1.00 20.00     0.034 A 
HETATM    3  C3  UNL     1     -35.161   4.386   5.478  1.00 20.00     0.142 A 
HETATM    4  C4  UNL     1     -33.992   5.894   4.426  1.00 20.00     0.052 A 
HETATM    5  O7  UNL     1     -34.728   4.766   4.247  1.00 20.00    -0.327 OA
ENDROOT
BRANCH   4   6
HETATM    6  C6  UNL     1     -33.415   6.493   3.214  1.00 20.00     0.060 C 
HETATM    7  C5  UNL     1     -31.975   6.987   3.414  1.00 20.00     0.012 C 
ENDBRANCH   4   6
TORSDOF 1
ENDMDL
MODEL 3
REMARK VINA RESULT:      -4.2      1.025      2.836
REMARK  1 active torsions:
REMARK  status: ('A' for Active; 'I' for Inactive)
REMARK    1  A    between atoms: C4_4  and  C6_6 
ROOT
HETATM    1  C1  UNL     1     -34.258   5.377   2.776  1.00 20.00     0.027 A 
HETATM    2  C2  UNL     1     -34.932   5.238   4.013  1.00 20.00     0.034 A 
HETATM    3  C3  UNL     1     -33.103   6.073   3.046  1.00 20.00     0.142 A 
HETATM    4  C4  UNL     1     -34.140   5.858   4.951  1.00 20.00     0.052 A 
HETATM    5  O7  UNL     1     -33.023   6.371   4.370  1.00 20.00    -0.327 OA
ENDROOT
BRANCH   4   6
HETATM    6  C6  UNL     1     -34.272   6.062   6.400  1.00 20.00     0.060 C 
HETATM    7  C5  UNL     1     -33.544   7.318   6.901  1.00 20.00     0.012 C 
ENDBRANCH   4   6
TORSDOF 1
ENDMDL
MODEL 4
REMARK VINA RESULT:      -4.2      0.845      3.157
REMARK  1 active torsions:
REMARK  status: ('A' for Active; 'I' for Inactive)
REMARK    1  A    between atoms: C4_4  and  C6_6 
ROOT
HETATM    1  C1  UNL     1     -33.744   5.780   2.527  1.00 20.00     0.027 A 
HETATM    2  C2  UNL     1     -34.590   5.360   3.582  1.00 20.00     0.034 A 
HETATM    3  C3  UNL     1     -32.738   6.511   3.112  1.00 20.00     0.142 A 
HETATM    4  C4  UNL     1     -34.039   5.866   4.736  1.00 20.00     0.052 A 
HETATM    5  O7  UNL     1     -32.909   6.569   4.459  1.00 20.00    -0.327 OA
ENDROOT
BRANCH   4   6
HETATM    6  C6  UNL     1     -34.427   5.790   6.152  1.00 20.00     0.060 C 
HETATM    7  C5  UNL     1     -35.115   4.467   6.518  1.00 20.00     0.012 C 
ENDBRANCH   4   6
TORSDOF 1
ENDMDL
MODEL 5
REMARK VINA RESULT:      -4.1      1.340      3.386
REMARK  1 active torsions:
REMARK  status: ('A' for Active; 'I' for Inactive)
REMARK    1  A    between atoms: C4_4  and  C6_6 
ROOT
HETATM    1  C1  UNL     1     -32.337   6.926   3.691  1.00 20.00     0.027 A 
HETATM    2  C2  UNL     1     -33.272   6.567   4.691  1.00 20.00     0.034 A 
HETATM    3  C3  UNL     1     -32.694   6.223   2.564  1.00 20.00     0.142 A 
HETATM    4  C4  UNL     1     -34.134   5.671   4.104  1.00 20.00     0.052 A 
HETATM    5  O7  UNL     1     -33.788   5.455   2.807  1.00 20.00    -0.327 OA
ENDROOT
BRANCH   4   6
HETATM    6  C6  UNL     1     -35.307   4.934   4.596  1.00 20.00     0.060 C 
HETATM    7  C5  UNL     1     -35.069   4.263   5.956  1.00 20.00     0.012 C 
ENDBRANCH   4   6
TORSDOF 1
ENDMDL
MODEL 6
REMARK VINA RESULT:      -3.7     12.057     12.440
REMARK  1 active torsions:
REMARK  status: ('A' for Active; 'I' for Inactive)
REMARK    1  A    between atoms: C4_4  and  C6_6 
ROOT
HETATM    1  C1  UNL     1     -34.778  13.326  -4.370  1.00 20.00     0.027 A 
HETATM    2  C2  UNL     1     -33.747  14.051  -3.726  1.00 20.00     0.034 A 
HETATM    3  C3  UNL     1     -35.939  14.026  -4.139  1.00 20.00     0.142 A 
HETATM    4  C4  UNL     1     -34.351  15.143  -3.150  1.00 20.00     0.052 A 
HETATM    5  O7  UNL     1     -35.688  15.135  -3.396  1.00 20.00    -0.327 OA
ENDROOT
BRANCH   4   6
HETATM    6  C6  UNL     1     -33.843  16.267  -2.350  1.00 20.00     0.060 C 
HETATM    7  C5  UNL     1     -34.642  16.499  -1.060  1.00 20.00     0.012 C 
ENDBRANCH   4   6
TORSDOF 1
ENDMDL
MODEL 7
REMARK VINA RESULT:      -3.3      9.904     10.423
REMARK  1 active torsions:
REMARK  status: ('A' for Active; 'I' for Inactive)
REMARK    1  A    between atoms: C4_4  and  C6_6 
ROOT
HETATM    1  C1  UNL     1     -40.695   6.146  -0.340  1.00 20.00     0.027 A 
HETATM    2  C2  UNL     1     -41.426   7.068  -1.126  1.00 20.00     0.034 A 
HETATM    3  C3  UNL     1     -40.836   4.924  -0.955  1.00 20.00     0.142 A 
HETATM    4  C4  UNL     1     -41.961   6.344  -2.166  1.00 20.00     0.052 A 
HETATM    5  O7  UNL     1     -41.606   5.035  -2.069  1.00 20.00    -0.327 OA
ENDROOT
BRANCH   4   6
HETATM    6  C6  UNL     1     -42.807   6.705  -3.312  1.00 20.00     0.060 C 
HETATM    7  C5  UNL     1     -42.451   8.071  -3.917  1.00 20.00     0.012 C 
ENDBRANCH   4   6
TORSDOF 1
ENDMDL
MODEL 8
REMARK VINA RESULT:      -3.3      9.596     10.256
REMARK  1 active torsions:
REMARK  status: ('A' for Active; 'I' for Inactive)
REMARK    1  A    between atoms: C4_4  and  C6_6 
ROOT
HETATM    1  C1  UNL     1     -41.081   6.911  -1.109  1.00 20.00     0.027 A 
HETATM    2  C2  UNL     1     -41.859   6.406  -2.179  1.00 20.00     0.034 A 
HETATM    3  C3  UNL     1     -40.686   5.818  -0.375  1.00 20.00     0.142 A 
HETATM    4  C4  UNL     1     -41.882   5.040  -2.021  1.00 20.00     0.052 A 
HETATM    5  O7  UNL     1     -41.170   4.673  -0.924  1.00 20.00    -0.327 OA
ENDROOT
BRANCH   4   6
HETATM    6  C6  UNL     1     -42.507   3.951  -2.786  1.00 20.00     0.060 C 
HETATM    7  C5  UNL     1     -41.564   2.763  -3.023  1.00 20.00     0.012 C 
ENDBRANCH   4   6
TORSDOF 1
ENDMDL
MODEL 9
REMARK VINA RESULT:      -3.2      1.495      2.328
REMARK  1 active torsions:
REMARK  status: ('A' for Active; 'I' for Inactive)
REMARK    1  A    between atoms: C4_4  and  C6_6 
ROOT
HETATM    1  C1  UNL     1     -35.237   4.211   4.522  1.00 20.00     0.027 A 
HETATM    2  C2  UNL     1     -34.563   5.406   4.171  1.00 20.00     0.034 A 
HETATM    3  C3  UNL     1     -35.170   4.123   5.892  1.00 20.00     0.142 A 
HETATM    4  C4  UNL     1     -34.133   5.962   5.353  1.00 20.00     0.052 A 
HETATM    5  O7  UNL     1     -34.499   5.187   6.407  1.00 20.00    -0.327 OA
ENDROOT
BRANCH   4   6
HETATM    6  C6  UNL     1     -33.385   7.186   5.673  1.00 20.00     0.060 C 
HETATM    7  C5  UNL     1     -33.412   7.535   7.168  1.00 20.00     0.012 C 
ENDBRANCH   4   6
TORSDOF 1
ENDMDL
