MODEL 1
REMARK VINA RESULT:      -5.4      0.000      0.000
REMARK  3 active torsions:
REMARK  status: ('A' for Active; 'I' for Inactive)
REMARK    1  A    between atoms: C5_5  and  O9_9 
REMARK    2  A    between atoms: C6_6  and  O10_10 
REMARK    3  A    between atoms: C8_8  and  O10_10 
ROOT
HETATM    1  C1  UNL     1     -35.207   4.225   5.870  1.00 20.00     0.003 A 
HETATM    2  C2  UNL     1     -35.245   4.276   4.477  1.00 20.00     0.003 A 
HETATM    3  C3  UNL     1     -34.536   5.218   6.585  1.00 20.00     0.039 A 
HETATM    4  C4  UNL     1     -34.614   5.318   3.799  1.00 20.00     0.039 A 
HETATM    5  C5  UNL     1     -33.905   6.260   5.908  1.00 20.00     0.099 A 
HETATM    6  C6  UNL     1     -33.943   6.311   4.514  1.00 20.00     0.101 A 
ENDROOT
BRANCH   6   7
HETATM    7  O10 UNL     1     -33.328   7.323   3.840  1.00 20.00    -0.349 OA
BRANCH   7   8
HETATM    8  C8  UNL     1     -32.298   6.957   2.923  1.00 20.00     0.171 C 
HETATM    9  C7  UNL     1     -32.017   8.129   2.006  1.00 20.00     0.034 C 
ENDBRANCH   7   8
ENDBRANCH   6   7
BRANCH   5  10
HETATM   10  O9  UNL     1     -33.252   7.223   6.618  1.00 20.00    -0.358 OA
HETATM   11  H20 UNL     1     -33.717   7.396   7.451  1.00 20.00     0.217 HD
ENDBRANCH   5  10
TORSDOF 3
ENDMDL
MODEL 2
REMARK VINA RESULT:      -5.2      1.022      2.187
REMARK  3 active torsions:
REMARK  status: ('A' for Active; 'I' for Inactive)
REMARK    1  A    between atoms: C5_5  and  O9_9 
REMARK    2  A    between atoms: C6_6  and  O10_10 
REMARK    3  A    between atoms: C8_8  and  O10_10 
ROOT
HETATM    1  C1  UNL     1     -35.008   4.416   6.013  1.00 20.00     0.003 A 
HETATM    2  C2  UNL     1     -34.401   5.551   6.550  1.00 20.00     0.003 A 
HETATM    3  C3  UNL     1     -35.099   4.265   4.629  1.00 20.00     0.039 A 
HETATM    4  C4  UNL     1     -33.886   6.534   5.706  1.00 20.00     0.039 A 
HETATM    5  C5  UNL     1     -34.584   5.248   3.784  1.00 20.00     0.099 A 
HETATM    6  C6  UNL     1     -33.978   6.383   4.323  1.00 20.00     0.101 A 
ENDROOT
BRANCH   6   7
HETATM    7  O10 UNL     1     -33.473   7.351   3.508  1.00 20.00    -0.349 OA
BRANCH   7   8
HETATM    8  C8  UNL     1     -32.130   7.180   3.055  1.00 20.00     0.171 C 
HETATM    9  C7  UNL     1     -31.864   8.153   1.925  1.00 20.00     0.034 C 
ENDBRANCH   7   8
ENDBRANCH   6   7
BRANCH   5  10
HETATM   10  O9  UNL     1     -34.681   5.088   2.434  1.00 20.00    -0.358 OA
HETATM   11  H20 UNL     1     -34.269   4.252   2.165  1.00 20.00     0.217 HD
ENDBRANCH   5  10
TORSDOF 3
ENDMDL
MODEL 3
REMARK VINA RESULT:      -4.5     11.948     12.301
REMARK  3 active torsions:
REMARK  status: ('A' for Active; 'I' for Inactive)
REMARK    1  A    between atoms: C5_5  and  O9_9 
REMARK    2  A    between atoms: C6_6  and  O10_10 
REMARK    3  A    between atoms: C8_8  and  O10_10 
ROOT
HETATM    1  C1  UNL     1     -35.368  13.470  -4.530  1.00 20.00     0.003 A 
HETATM    2  C2  UNL     1     -36.150  14.392  -3.835  1.00 20.00     0.003 A 
HETATM    3  C3  UNL     1     -33.977  13.543  -4.459  1.00 20.00     0.039 A 
HETATM    4  C4  UNL     1     -35.542  15.386  -3.069  1.00 20.00     0.039 A 
HETATM    5  C5  UNL     1     -33.368  14.536  -3.692  1.00 20.00     0.099 A 
HETATM    6  C6  UNL     1     -34.151  15.458  -2.997  1.00 20.00     0.101 A 
ENDROOT
BRANCH   6   7
HETATM    7  O10 UNL     1     -33.569  16.435  -2.246  1.00 20.00    -0.349 OA
BRANCH   7   8
HETATM    8  C8  UNL     1     -34.272  16.860  -1.080  1.00 20.00     0.171 C 
HETATM    9  C7  UNL     1     -33.526  18.017  -0.450  1.00 20.00     0.034 C 
ENDBRANCH   7   8
ENDBRANCH   6   7
BRANCH   5  10
HETATM   10  O9  UNL     1     -32.008  14.597  -3.631  1.00 20.00    -0.358 OA
HETATM   11  H20 UNL     1     -31.730  15.067  -2.830  1.00 20.00     0.217 HD
ENDBRANCH   5  10
TORSDOF 3
ENDMDL
MODEL 4
REMARK VINA RESULT:      -4.5     12.007     13.237
REMARK  3 active torsions:
REMARK  status: ('A' for Active; 'I' for Inactive)
REMARK    1  A    between atoms: C5_5  and  O9_9 
REMARK    2  A    between atoms: C6_6  and  O10_10 
REMARK    3  A    between atoms: C8_8  and  O10_10 
ROOT
HETATM    1  C1  UNL     1     -34.536  14.941  -6.942  1.00 20.00     0.003 A 
HETATM    2  C2  UNL     1     -34.139  16.118  -6.308  1.00 20.00     0.003 A 
HETATM    3  C3  UNL     1     -34.872  13.820  -6.183  1.00 20.00     0.039 A 
HETATM    4  C4  UNL     1     -34.078  16.174  -4.916  1.00 20.00     0.039 A 
HETATM    5  C5  UNL     1     -34.812  13.876  -4.791  1.00 20.00     0.099 A 
HETATM    6  C6  UNL     1     -34.415  15.053  -4.157  1.00 20.00     0.101 A 
ENDROOT
BRANCH   6   7
HETATM    7  O10 UNL     1     -34.350  15.120  -2.798  1.00 20.00    -0.349 OA
BRANCH   7   8
HETATM    8  C8  UNL     1     -33.918  16.355  -2.230  1.00 20.00     0.171 C 
HETATM    9  C7  UNL     1     -34.641  16.574  -0.918  1.00 20.00     0.034 C 
ENDBRANCH   7   8
ENDBRANCH   6   7
BRANCH   5  10
HETATM   10  O9  UNL     1     -35.143  12.773  -4.062  1.00 20.00    -0.358 OA
HETATM   11  H20 UNL     1     -34.818  12.864  -3.152  1.00 20.00     0.217 HD
ENDBRANCH   5  10
TORSDOF 3
ENDMDL
MODEL 5
REMARK VINA RESULT:      -4.4     11.588     12.672
REMARK  3 active torsions:
REMARK  status: ('A' for Active; 'I' for Inactive)
REMARK    1  A    between atoms: C5_5  and  O9_9 
REMARK    2  A    between atoms: C6_6  and  O10_10 
REMARK    3  A    between atoms: C8_8  and  O10_10 
ROOT
HETATM    1  C1  UNL     1     -32.935  15.146  -3.511  1.00 20.00     0.003 A 
HETATM    2  C2  UNL     1     -33.772  16.181  -3.095  1.00 20.00     0.003 A 
HETATM    3  C3  UNL     1     -33.481  13.917  -3.883  1.00 20.00     0.039 A 
HETATM    4  C4  UNL     1     -35.152  15.988  -3.050  1.00 20.00     0.039 A 
HETATM    5  C5  UNL     1     -34.861  13.724  -3.840  1.00 20.00     0.099 A 
HETATM    6  C6  UNL     1     -35.697  14.760  -3.423  1.00 20.00     0.101 A 
ENDROOT
BRANCH   6   7
HETATM    7  O10 UNL     1     -37.048  14.583  -3.374  1.00 20.00    -0.349 OA
BRANCH   7   8
HETATM    8  C8  UNL     1     -37.816  15.175  -4.421  1.00 20.00     0.171 C 
HETATM    9  C7  UNL     1     -39.248  14.697  -4.310  1.00 20.00     0.034 C 
ENDBRANCH   7   8
ENDBRANCH   6   7
BRANCH   5  10
HETATM   10  O9  UNL     1     -35.381  12.518  -4.206  1.00 20.00    -0.358 OA
HETATM   11  H20 UNL     1     -35.237  12.366  -5.153  1.00 20.00     0.217 HD
ENDBRANCH   5  10
TORSDOF 3
ENDMDL
MODEL 6
REMARK VINA RESULT:      -4.3     11.695     13.563
REMARK  3 active torsions:
REMARK  status: ('A' for Active; 'I' for Inactive)
REMARK    1  A    between atoms: C5_5  and  O9_9 
REMARK    2  A    between atoms: C6_6  and  O10_10 
REMARK    3  A    between atoms: C8_8  and  O10_10 
ROOT
HETATM    1  C1  UNL     1     -33.226  15.586  -3.553  1.00 20.00     0.003 A 
HETATM    2  C2  UNL     1     -33.279  16.233  -4.787  1.00 20.00     0.003 A 
HETATM    3  C3  UNL     1     -33.870  14.360  -3.382  1.00 20.00     0.039 A 
HETATM    4  C4  UNL     1     -33.973  15.656  -5.849  1.00 20.00     0.039 A 
HETATM    5  C5  UNL     1     -34.564  13.781  -4.445  1.00 20.00     0.099 A 
HETATM    6  C6  UNL     1     -34.616  14.430  -5.679  1.00 20.00     0.101 A 
ENDROOT
BRANCH   6   7
HETATM    7  O10 UNL     1     -35.293  13.877  -6.724  1.00 20.00    -0.349 OA
BRANCH   7   8
HETATM    8  C8  UNL     1     -35.556  14.721  -7.843  1.00 20.00     0.171 C 
HETATM    9  C7  UNL     1     -37.044  14.990  -7.918  1.00 20.00     0.034 C 
ENDBRANCH   7   8
ENDBRANCH   6   7
BRANCH   5  10
HETATM   10  O9  UNL     1     -35.188  12.584  -4.264  1.00 20.00    -0.358 OA
HETATM   11  H20 UNL     1     -35.845  12.440  -4.963  1.00 20.00     0.217 HD
ENDBRANCH   5  10
TORSDOF 3
ENDMDL
MODEL 7
REMARK VINA RESULT:      -4.3     11.556     13.313
REMARK  3 active torsions:
REMARK  status: ('A' for Active; 'I' for Inactive)
REMARK    1  A    between atoms: C5_5  and  O9_9 
REMARK    2  A    between atoms: C6_6  and  O10_10 
REMARK    3  A    between atoms: C8_8  and  O10_10 
ROOT
HETATM    1  C1  UNL     1     -32.722  15.032  -3.691  1.00 20.00     0.003 A 
HETATM    2  C2  UNL     1     -33.261  16.133  -4.355  1.00 20.00     0.003 A 
HETATM    3  C3  UNL     1     -33.422  13.825  -3.663  1.00 20.00     0.039 A 
HETATM    4  C4  UNL     1     -34.499  16.029  -4.989  1.00 20.00     0.039 A 
HETATM    5  C5  UNL     1     -34.659  13.720  -4.298  1.00 20.00     0.099 A 
HETATM    6  C6  UNL     1     -35.198  14.823  -4.961  1.00 20.00     0.101 A 
ENDROOT
BRANCH   6   7
HETATM    7  O10 UNL     1     -36.407  14.734  -5.583  1.00 20.00    -0.349 OA
BRANCH   7   8
HETATM    8  C8  UNL     1     -36.508  15.308  -6.885  1.00 20.00     0.171 C 
HETATM    9  C7  UNL     1     -35.762  14.432  -7.869  1.00 20.00     0.034 C 
ENDBRANCH   7   8
ENDBRANCH   6   7
BRANCH   5  10
HETATM   10  O9  UNL     1     -35.332  12.536  -4.261  1.00 20.00    -0.358 OA
HETATM   11  H20 UNL     1     -35.263  12.086  -5.117  1.00 20.00     0.217 HD
ENDBRANCH   5  10
TORSDOF 3
ENDMDL
MODEL 8
REMARK VINA RESULT:      -4.3     11.990     12.369
REMARK  3 active torsions:
REMARK  status: ('A' for Active; 'I' for Inactive)
REMARK    1  A    between atoms: C5_5  and  O9_9 
REMARK    2  A    between atoms: C6_6  and  O10_10 
REMARK    3  A    between atoms: C8_8  and  O10_10 
ROOT
HETATM    1  C1  UNL     1     -34.143  13.675  -4.451  1.00 20.00     0.003 A 
HETATM    2  C2  UNL     1     -33.180  14.492  -3.859  1.00 20.00     0.003 A 
HETATM    3  C3  UNL     1     -35.494  13.867  -4.158  1.00 20.00     0.039 A 
HETATM    4  C4  UNL     1     -33.566  15.499  -2.975  1.00 20.00     0.039 A 
HETATM    5  C5  UNL     1     -35.880  14.875  -3.275  1.00 20.00     0.099 A 
HETATM    6  C6  UNL     1     -34.916  15.691  -2.683  1.00 20.00     0.101 A 
ENDROOT
BRANCH   6   7
HETATM    7  O10 UNL     1     -35.281  16.678  -1.817  1.00 20.00    -0.349 OA
BRANCH   7   8
HETATM    8  C8  UNL     1     -34.329  17.049  -0.821  1.00 20.00     0.171 C 
HETATM    9  C7  UNL     1     -35.062  17.380   0.461  1.00 20.00     0.034 C 
ENDBRANCH   7   8
ENDBRANCH   6   7
BRANCH   5  10
HETATM   10  O9  UNL     1     -37.203  15.051  -2.997  1.00 20.00    -0.358 OA
HETATM   11  H20 UNL     1     -37.404  14.725  -2.106  1.00 20.00     0.217 HD
ENDBRANCH   5  10
TORSDOF 3
ENDMDL
MODEL 9
REMARK VINA RESULT:      -4.1     11.737     13.071
REMARK  3 active torsions:
REMARK  status: ('A' for Active; 'I' for Inactive)
REMARK    1  A    between atoms: C5_5  and  O9_9 
REMARK    2  A    between atoms: C6_6  and  O10_10 
REMARK    3  A    between atoms: C8_8  and  O10_10 
ROOT
HETATM    1  C1  UNL     1     -34.825  13.893  -5.874  1.00 20.00     0.003 A 
HETATM    2  C2  UNL     1     -34.939  13.352  -4.594  1.00 20.00     0.003 A 
HETATM    3  C3  UNL     1     -34.274  15.164  -6.046  1.00 20.00     0.039 A 
HETATM    4  C4  UNL     1     -34.504  14.079  -3.487  1.00 20.00     0.039 A 
HETATM    5  C5  UNL     1     -33.838  15.891  -4.939  1.00 20.00     0.099 A 
HETATM    6  C6  UNL     1     -33.953  15.348  -3.659  1.00 20.00     0.101 A 
ENDROOT
BRANCH   6   7
HETATM    7  O10 UNL     1     -33.533  16.050  -2.569  1.00 20.00    -0.349 OA
BRANCH   7   8
HETATM    8  C8  UNL     1     -34.518  16.371  -1.587  1.00 20.00     0.171 C 
HETATM    9  C7  UNL     1     -33.971  17.449  -0.676  1.00 20.00     0.034 C 
ENDBRANCH   7   8
ENDBRANCH   6   7
BRANCH   5  10
HETATM   10  O9  UNL     1     -33.303  17.131  -5.120  1.00 20.00    -0.358 OA
HETATM   11  H20 UNL     1     -33.052  17.254  -6.049  1.00 20.00     0.217 HD
ENDBRANCH   5  10
TORSDOF 3
ENDMDL
