MODEL 1
REMARK VINA RESULT:      -5.9      0.000      0.000
REMARK  1 active torsions:
REMARK  status: ('A' for Active; 'I' for Inactive)
REMARK    1  A    between atoms: C6_6  and  C9_9 
ROOT
HETATM    1  C1  UNL     1     -35.234   4.194   5.887  1.00 20.00     0.001 A 
HETATM    2  C2  UNL     1     -35.218   4.171   4.492  1.00 20.00     0.001 A 
HETATM    3  C3  UNL     1     -34.603   5.230   6.575  1.00 20.00     0.007 A 
HETATM    4  C4  UNL     1     -34.572   5.185   3.786  1.00 20.00     0.007 A 
HETATM    5  C5  UNL     1     -33.957   6.246   5.869  1.00 20.00    -0.056 A 
HETATM    6  C6  UNL     1     -33.942   6.223   4.474  1.00 20.00    -0.053 A 
HETATM    7  C7  UNL     1     -33.291   7.346   6.626  1.00 20.00     0.049 C 
ENDROOT
BRANCH   6   8
HETATM    8  C9  UNL     1     -33.255   7.297   3.696  1.00 20.00     0.034 C 
HETATM    9  C8  UNL     1     -32.031   6.776   2.948  1.00 20.00     0.010 C 
ENDBRANCH   6   8
TORSDOF 1
ENDMDL
MODEL 2
REMARK VINA RESULT:      -5.5      0.745      2.392
REMARK  1 active torsions:
REMARK  status: ('A' for Active; 'I' for Inactive)
REMARK    1  A    between atoms: C6_6  and  C9_9 
ROOT
HETATM    1  C1  UNL     1     -35.096   4.714   5.979  1.00 20.00     0.001 A 
HETATM    2  C2  UNL     1     -34.356   5.783   6.485  1.00 20.00     0.001 A 
HETATM    3  C3  UNL     1     -35.142   4.487   4.603  1.00 20.00     0.007 A 
HETATM    4  C4  UNL     1     -33.663   6.626   5.616  1.00 20.00     0.007 A 
HETATM    5  C5  UNL     1     -34.448   5.329   3.733  1.00 20.00    -0.056 A 
HETATM    6  C6  UNL     1     -33.709   6.399   4.240  1.00 20.00    -0.053 A 
HETATM    7  C7  UNL     1     -34.510   5.067   2.265  1.00 20.00     0.049 C 
ENDROOT
BRANCH   6   8
HETATM    8  C9  UNL     1     -32.960   7.315   3.329  1.00 20.00     0.034 C 
HETATM    9  C8  UNL     1     -31.472   7.374   3.664  1.00 20.00     0.010 C 
ENDBRANCH   6   8
TORSDOF 1
ENDMDL
MODEL 3
REMARK VINA RESULT:      -4.8      0.929      3.222
REMARK  1 active torsions:
REMARK  status: ('A' for Active; 'I' for Inactive)
REMARK    1  A    between atoms: C6_6  and  C9_9 
ROOT
HETATM    1  C1  UNL     1     -32.061   7.020   3.129  1.00 20.00     0.001 A 
HETATM    2  C2  UNL     1     -32.785   6.114   2.353  1.00 20.00     0.001 A 
HETATM    3  C3  UNL     1     -32.424   7.248   4.456  1.00 20.00     0.007 A 
HETATM    4  C4  UNL     1     -33.871   5.436   2.905  1.00 20.00     0.007 A 
HETATM    5  C5  UNL     1     -33.511   6.570   5.008  1.00 20.00    -0.056 A 
HETATM    6  C6  UNL     1     -34.235   5.664   4.233  1.00 20.00    -0.053 A 
HETATM    7  C7  UNL     1     -33.880   6.828   6.432  1.00 20.00     0.049 C 
ENDROOT
BRANCH   6   8
HETATM    8  C9  UNL     1     -35.402   4.927   4.801  1.00 20.00     0.034 C 
HETATM    9  C8  UNL     1     -34.975   3.760   5.687  1.00 20.00     0.010 C 
ENDBRANCH   6   8
TORSDOF 1
ENDMDL
MODEL 4
REMARK VINA RESULT:      -4.7      0.472      2.721
REMARK  1 active torsions:
REMARK  status: ('A' for Active; 'I' for Inactive)
REMARK    1  A    between atoms: C6_6  and  C9_9 
ROOT
HETATM    1  C1  UNL     1     -35.238   4.171   4.443  1.00 20.00     0.001 A 
HETATM    2  C2  UNL     1     -35.278   4.313   5.830  1.00 20.00     0.001 A 
HETATM    3  C3  UNL     1     -34.493   5.064   3.671  1.00 20.00     0.007 A 
HETATM    4  C4  UNL     1     -34.573   5.347   6.446  1.00 20.00     0.007 A 
HETATM    5  C5  UNL     1     -33.788   6.098   4.288  1.00 20.00    -0.056 A 
HETATM    6  C6  UNL     1     -33.828   6.240   5.675  1.00 20.00    -0.053 A 
HETATM    7  C7  UNL     1     -32.997   7.041   3.443  1.00 20.00     0.049 C 
ENDROOT
BRANCH   6   8
HETATM    8  C9  UNL     1     -33.083   7.339   6.357  1.00 20.00     0.034 C 
HETATM    9  C8  UNL     1     -33.851   7.906   7.547  1.00 20.00     0.010 C 
ENDBRANCH   6   8
TORSDOF 1
ENDMDL
MODEL 5
REMARK VINA RESULT:      -4.7      0.817      3.509
REMARK  1 active torsions:
REMARK  status: ('A' for Active; 'I' for Inactive)
REMARK    1  A    between atoms: C6_6  and  C9_9 
ROOT
HETATM    1  C1  UNL     1     -32.945   6.027   2.345  1.00 20.00     0.001 A 
HETATM    2  C2  UNL     1     -32.290   6.930   3.182  1.00 20.00     0.001 A 
HETATM    3  C3  UNL     1     -33.988   5.246   2.842  1.00 20.00     0.007 A 
HETATM    4  C4  UNL     1     -32.677   7.052   4.517  1.00 20.00     0.007 A 
HETATM    5  C5  UNL     1     -34.376   5.368   4.177  1.00 20.00    -0.056 A 
HETATM    6  C6  UNL     1     -33.721   6.271   5.014  1.00 20.00    -0.053 A 
HETATM    7  C7  UNL     1     -35.496   4.522   4.687  1.00 20.00     0.049 C 
ENDROOT
BRANCH   6   8
HETATM    8  C9  UNL     1     -34.117   6.418   6.446  1.00 20.00     0.034 C 
HETATM    9  C8  UNL     1     -33.398   7.578   7.129  1.00 20.00     0.010 C 
ENDBRANCH   6   8
TORSDOF 1
ENDMDL
MODEL 6
REMARK VINA RESULT:      -4.5     12.125     12.521
REMARK  1 active torsions:
REMARK  status: ('A' for Active; 'I' for Inactive)
REMARK    1  A    between atoms: C6_6  and  C9_9 
ROOT
HETATM    1  C1  UNL     1     -35.645  13.471  -4.546  1.00 20.00     0.001 A 
HETATM    2  C2  UNL     1     -36.464  14.393  -3.895  1.00 20.00     0.001 A 
HETATM    3  C3  UNL     1     -34.259  13.551  -4.412  1.00 20.00     0.007 A 
HETATM    4  C4  UNL     1     -35.897  15.397  -3.110  1.00 20.00     0.007 A 
HETATM    5  C5  UNL     1     -33.691  14.555  -3.626  1.00 20.00    -0.056 A 
HETATM    6  C6  UNL     1     -34.510  15.478  -2.975  1.00 20.00    -0.053 A 
HETATM    7  C7  UNL     1     -32.206  14.621  -3.495  1.00 20.00     0.049 C 
ENDROOT
BRANCH   6   8
HETATM    8  C9  UNL     1     -33.927  16.561  -2.130  1.00 20.00     0.034 C 
HETATM    9  C8  UNL     1     -34.613  16.668  -0.771  1.00 20.00     0.010 C 
ENDBRANCH   6   8
TORSDOF 1
ENDMDL
MODEL 7
REMARK VINA RESULT:      -4.5     11.956     13.445
REMARK  1 active torsions:
REMARK  status: ('A' for Active; 'I' for Inactive)
REMARK    1  A    between atoms: C6_6  and  C9_9 
ROOT
HETATM    1  C1  UNL     1     -34.875  13.840  -5.807  1.00 20.00     0.001 A 
HETATM    2  C2  UNL     1     -34.932  13.352  -4.501  1.00 20.00     0.001 A 
HETATM    3  C3  UNL     1     -34.406  15.131  -6.050  1.00 20.00     0.007 A 
HETATM    4  C4  UNL     1     -34.520  14.156  -3.438  1.00 20.00     0.007 A 
HETATM    5  C5  UNL     1     -33.993  15.935  -4.987  1.00 20.00    -0.056 A 
HETATM    6  C6  UNL     1     -34.050  15.447  -3.681  1.00 20.00    -0.053 A 
HETATM    7  C7  UNL     1     -33.492  17.312  -5.270  1.00 20.00     0.049 C 
ENDROOT
BRANCH   6   8
HETATM    8  C9  UNL     1     -33.616  16.289  -2.527  1.00 20.00     0.034 C 
HETATM    9  C8  UNL     1     -34.673  16.353  -1.427  1.00 20.00     0.010 C 
ENDBRANCH   6   8
TORSDOF 1
ENDMDL
MODEL 8
REMARK VINA RESULT:      -4.4     12.046     12.625
REMARK  1 active torsions:
REMARK  status: ('A' for Active; 'I' for Inactive)
REMARK    1  A    between atoms: C6_6  and  C9_9 
ROOT
HETATM    1  C1  UNL     1     -34.210  13.287  -4.503  1.00 20.00     0.001 A 
HETATM    2  C2  UNL     1     -33.244  14.022  -3.814  1.00 20.00     0.001 A 
HETATM    3  C3  UNL     1     -35.554  13.649  -4.417  1.00 20.00     0.007 A 
HETATM    4  C4  UNL     1     -33.623  15.118  -3.040  1.00 20.00     0.007 A 
HETATM    5  C5  UNL     1     -35.933  14.746  -3.643  1.00 20.00    -0.056 A 
HETATM    6  C6  UNL     1     -34.968  15.481  -2.954  1.00 20.00    -0.053 A 
HETATM    7  C7  UNL     1     -37.377  15.116  -3.567  1.00 20.00     0.049 C 
ENDROOT
BRANCH   6   8
HETATM    8  C9  UNL     1     -35.349  16.657  -2.118  1.00 20.00     0.034 C 
HETATM    9  C8  UNL     1     -34.596  16.692  -0.790  1.00 20.00     0.010 C 
ENDBRANCH   6   8
TORSDOF 1
ENDMDL
MODEL 9
REMARK VINA RESULT:      -4.3      9.416     10.872
REMARK  1 active torsions:
REMARK  status: ('A' for Active; 'I' for Inactive)
REMARK    1  A    between atoms: C6_6  and  C9_9 
ROOT
HETATM    1  C1  UNL     1     -40.830   6.872  -0.534  1.00 20.00     0.001 A 
HETATM    2  C2  UNL     1     -40.570   5.517  -0.328  1.00 20.00     0.001 A 
HETATM    3  C3  UNL     1     -41.665   7.272  -1.577  1.00 20.00     0.007 A 
HETATM    4  C4  UNL     1     -41.145   4.562  -1.166  1.00 20.00     0.007 A 
HETATM    5  C5  UNL     1     -42.241   6.316  -2.415  1.00 20.00    -0.056 A 
HETATM    6  C6  UNL     1     -41.982   4.961  -2.209  1.00 20.00    -0.053 A 
HETATM    7  C7  UNL     1     -43.134   6.767  -3.524  1.00 20.00     0.049 C 
ENDROOT
BRANCH   6   8
HETATM    8  C9  UNL     1     -42.585   3.920  -3.093  1.00 20.00     0.034 C 
HETATM    9  C8  UNL     1     -41.790   2.617  -3.079  1.00 20.00     0.010 C 
ENDBRANCH   6   8
TORSDOF 1
ENDMDL
