MODEL 1
REMARK VINA RESULT:      -3.2      0.000      0.000
REMARK  0 active torsions:
REMARK  status: ('A' for Active; 'I' for Inactive)
ROOT
HETATM    1  C1  UNL     1     -34.022   6.458   6.468  1.00 20.00     0.021 C 
HETATM    2  C2  UNL     1     -34.794   4.293   5.441  1.00 20.00     0.021 C 
HETATM    3  C3  UNL     1     -34.608   5.792   5.226  1.00 20.00     0.045 C 
HETATM    4  I4  UNL     1     -33.303   6.127   3.539  1.00 20.00    -0.086 I 
ENDROOT
TORSDOF 0
ENDMDL
MODEL 2
REMARK VINA RESULT:      -3.1      0.990      1.921
REMARK  0 active torsions:
REMARK  status: ('A' for Active; 'I' for Inactive)
ROOT
HETATM    1  C1  UNL     1     -35.411   5.320   4.072  1.00 20.00     0.021 C 
HETATM    2  C2  UNL     1     -34.146   6.247   6.041  1.00 20.00     0.021 C 
HETATM    3  C3  UNL     1     -34.042   5.479   4.727  1.00 20.00     0.045 C 
HETATM    4  I4  UNL     1     -32.710   6.518   3.382  1.00 20.00    -0.086 I 
ENDROOT
TORSDOF 0
ENDMDL
MODEL 3
REMARK VINA RESULT:      -2.9      1.948      2.564
REMARK  0 active torsions:
REMARK  status: ('A' for Active; 'I' for Inactive)
ROOT
HETATM    1  C1  UNL     1     -33.133   6.263   4.017  1.00 20.00     0.021 C 
HETATM    2  C2  UNL     1     -33.587   6.902   6.409  1.00 20.00     0.021 C 
HETATM    3  C3  UNL     1     -34.173   6.306   5.133  1.00 20.00     0.045 C 
HETATM    4  I4  UNL     1     -34.897   4.310   5.528  1.00 20.00    -0.086 I 
ENDROOT
TORSDOF 0
ENDMDL
MODEL 4
REMARK VINA RESULT:      -2.8      2.329      3.016
REMARK  0 active torsions:
REMARK  status: ('A' for Active; 'I' for Inactive)
ROOT
HETATM    1  C1  UNL     1     -34.615   5.306   2.867  1.00 20.00     0.021 C 
HETATM    2  C2  UNL     1     -32.665   6.556   3.852  1.00 20.00     0.021 C 
HETATM    3  C3  UNL     1     -34.135   6.185   4.018  1.00 20.00     0.045 C 
HETATM    4  I4  UNL     1     -34.416   5.148   5.891  1.00 20.00    -0.086 I 
ENDROOT
TORSDOF 0
ENDMDL
MODEL 5
REMARK VINA RESULT:      -2.7      1.988      2.242
REMARK  0 active torsions:
REMARK  status: ('A' for Active; 'I' for Inactive)
ROOT
HETATM    1  C1  UNL     1     -33.749   6.961   6.419  1.00 20.00     0.021 C 
HETATM    2  C2  UNL     1     -33.934   6.633   3.930  1.00 20.00     0.021 C 
HETATM    3  C3  UNL     1     -33.624   5.968   5.267  1.00 20.00     0.045 C 
HETATM    4  I4  UNL     1     -34.973   4.312   5.585  1.00 20.00    -0.086 I 
ENDROOT
TORSDOF 0
ENDMDL
MODEL 6
REMARK VINA RESULT:      -2.7      2.371      2.573
REMARK  0 active torsions:
REMARK  status: ('A' for Active; 'I' for Inactive)
ROOT
HETATM    1  C1  UNL     1     -33.249   6.442   3.902  1.00 20.00     0.021 C 
HETATM    2  C2  UNL     1     -35.612   5.822   3.293  1.00 20.00     0.021 C 
HETATM    3  C3  UNL     1     -34.311   5.346   3.933  1.00 20.00     0.045 C 
HETATM    4  I4  UNL     1     -34.680   4.750   5.974  1.00 20.00    -0.086 I 
ENDROOT
TORSDOF 0
ENDMDL
MODEL 7
REMARK VINA RESULT:      -2.6      1.779      2.288
REMARK  0 active torsions:
REMARK  status: ('A' for Active; 'I' for Inactive)
ROOT
HETATM    1  C1  UNL     1     -34.871   3.816   5.570  1.00 20.00     0.021 C 
HETATM    2  C2  UNL     1     -34.787   5.342   3.570  1.00 20.00     0.021 C 
HETATM    3  C3  UNL     1     -35.080   5.240   5.064  1.00 20.00     0.045 C 
HETATM    4  I4  UNL     1     -33.797   6.594   6.150  1.00 20.00    -0.086 I 
ENDROOT
TORSDOF 0
ENDMDL
MODEL 8
REMARK VINA RESULT:      -2.4      9.309      9.492
REMARK  0 active torsions:
REMARK  status: ('A' for Active; 'I' for Inactive)
ROOT
HETATM    1  C1  UNL     1     -41.112   7.063  -0.866  1.00 20.00     0.021 C 
HETATM    2  C2  UNL     1     -40.745   4.584  -1.103  1.00 20.00     0.021 C 
HETATM    3  C3  UNL     1     -41.148   5.712  -0.158  1.00 20.00     0.045 C 
HETATM    4  I4  UNL     1     -43.135   5.345   0.604  1.00 20.00    -0.086 I 
ENDROOT
TORSDOF 0
ENDMDL
MODEL 9
REMARK VINA RESULT:      -2.3     13.061     13.492
REMARK  0 active torsions:
REMARK  status: ('A' for Active; 'I' for Inactive)
ROOT
HETATM    1  C1  UNL     1     -33.874  16.229  -2.491  1.00 20.00     0.021 C 
HETATM    2  C2  UNL     1     -33.204  16.425  -4.909  1.00 20.00     0.021 C 
HETATM    3  C3  UNL     1     -33.296  15.499  -3.700  1.00 20.00     0.045 C 
HETATM    4  I4  UNL     1     -34.533  13.796  -4.181  1.00 20.00    -0.086 I 
ENDROOT
TORSDOF 0
ENDMDL
