MODEL 1
REMARK VINA RESULT:      -5.2      0.000      0.000
REMARK  0 active torsions:
REMARK  status: ('A' for Active; 'I' for Inactive)
ROOT
HETATM    1  C1  UNL     1     -35.190   4.891   5.958  1.00 20.00     0.001 A 
HETATM    2  C2  UNL     1     -34.333   5.850   6.497  1.00 20.00     0.001 A 
HETATM    3  C3  UNL     1     -35.198   4.656   4.583  1.00 20.00     0.008 A 
HETATM    4  C4  UNL     1     -33.482   6.573   5.661  1.00 20.00     0.019 A 
HETATM    5  C5  UNL     1     -34.347   5.379   3.748  1.00 20.00    -0.045 A 
HETATM    6  C6  UNL     1     -33.489   6.338   4.287  1.00 20.00     0.012 A 
HETATM    7  C7  UNL     1     -34.398   5.084   2.283  1.00 20.00     0.049 C 
HETATM    8  I8  UNL     1     -32.188   7.457   3.090  1.00 20.00    -0.044 I 
ENDROOT
TORSDOF 0
ENDMDL
MODEL 2
REMARK VINA RESULT:      -5.1      0.668      2.487
REMARK  0 active torsions:
REMARK  status: ('A' for Active; 'I' for Inactive)
ROOT
HETATM    1  C1  UNL     1     -35.319   4.375   5.853  1.00 20.00     0.001 A 
HETATM    2  C2  UNL     1     -35.143   4.199   4.481  1.00 20.00     0.001 A 
HETATM    3  C3  UNL     1     -34.664   5.415   6.513  1.00 20.00     0.008 A 
HETATM    4  C4  UNL     1     -34.311   5.063   3.769  1.00 20.00     0.019 A 
HETATM    5  C5  UNL     1     -33.832   6.278   5.801  1.00 20.00    -0.045 A 
HETATM    6  C6  UNL     1     -33.655   6.102   4.429  1.00 20.00     0.012 A 
HETATM    7  C7  UNL     1     -33.156   7.374   6.562  1.00 20.00     0.049 C 
HETATM    8  I8  UNL     1     -32.422   7.361   3.301  1.00 20.00    -0.044 I 
ENDROOT
TORSDOF 0
ENDMDL
MODEL 3
REMARK VINA RESULT:      -3.9      9.103     10.284
REMARK  0 active torsions:
REMARK  status: ('A' for Active; 'I' for Inactive)
ROOT
HETATM    1  C1  UNL     1     -40.930   7.109  -0.670  1.00 20.00     0.001 A 
HETATM    2  C2  UNL     1     -40.504   5.849  -0.250  1.00 20.00     0.001 A 
HETATM    3  C3  UNL     1     -41.823   7.225  -1.735  1.00 20.00     0.008 A 
HETATM    4  C4  UNL     1     -40.970   4.704  -0.897  1.00 20.00     0.019 A 
HETATM    5  C5  UNL     1     -42.288   6.081  -2.381  1.00 20.00    -0.045 A 
HETATM    6  C6  UNL     1     -41.862   4.820  -1.962  1.00 20.00     0.012 A 
HETATM    7  C7  UNL     1     -43.244   6.266  -3.517  1.00 20.00     0.049 C 
HETATM    8  I8  UNL     1     -42.522   3.063  -2.887  1.00 20.00    -0.044 I 
ENDROOT
TORSDOF 0
ENDMDL
MODEL 4
REMARK VINA RESULT:      -3.9     12.516     13.565
REMARK  0 active torsions:
REMARK  status: ('A' for Active; 'I' for Inactive)
ROOT
HETATM    1  C1  UNL     1     -33.560  13.729  -3.872  1.00 20.00     0.001 A 
HETATM    2  C2  UNL     1     -33.025  14.984  -3.584  1.00 20.00     0.001 A 
HETATM    3  C3  UNL     1     -34.369  13.556  -4.994  1.00 20.00     0.008 A 
HETATM    4  C4  UNL     1     -33.298  16.067  -4.420  1.00 20.00     0.019 A 
HETATM    5  C5  UNL     1     -34.643  14.639  -5.830  1.00 20.00    -0.045 A 
HETATM    6  C6  UNL     1     -34.107  15.894  -5.543  1.00 20.00     0.012 A 
HETATM    7  C7  UNL     1     -35.516  14.394  -7.019  1.00 20.00     0.049 C 
HETATM    8  I8  UNL     1     -34.477  17.560  -6.754  1.00 20.00    -0.044 I 
ENDROOT
TORSDOF 0
ENDMDL
MODEL 5
REMARK VINA RESULT:      -3.9     12.170     13.374
REMARK  0 active torsions:
REMARK  status: ('A' for Active; 'I' for Inactive)
ROOT
HETATM    1  C1  UNL     1     -34.717  13.294  -4.543  1.00 20.00     0.001 A 
HETATM    2  C2  UNL     1     -34.789  13.845  -5.822  1.00 20.00     0.001 A 
HETATM    3  C3  UNL     1     -34.392  14.101  -3.452  1.00 20.00     0.008 A 
HETATM    4  C4  UNL     1     -34.537  15.204  -6.010  1.00 20.00     0.019 A 
HETATM    5  C5  UNL     1     -34.140  15.459  -3.641  1.00 20.00    -0.045 A 
HETATM    6  C6  UNL     1     -34.212  16.011  -4.920  1.00 20.00     0.012 A 
HETATM    7  C7  UNL     1     -33.797  16.275  -2.435  1.00 20.00     0.049 C 
HETATM    8  I8  UNL     1     -33.845  18.040  -5.273  1.00 20.00    -0.044 I 
ENDROOT
TORSDOF 0
ENDMDL
MODEL 6
REMARK VINA RESULT:      -3.9      9.104     10.214
REMARK  0 active torsions:
REMARK  status: ('A' for Active; 'I' for Inactive)
ROOT
HETATM    1  C1  UNL     1     -40.741   4.982  -0.429  1.00 20.00     0.001 A 
HETATM    2  C2  UNL     1     -40.630   6.372  -0.388  1.00 20.00     0.001 A 
HETATM    3  C3  UNL     1     -41.543   4.375  -1.395  1.00 20.00     0.008 A 
HETATM    4  C4  UNL     1     -41.321   7.155  -1.313  1.00 20.00     0.019 A 
HETATM    5  C5  UNL     1     -42.234   5.157  -2.320  1.00 20.00    -0.045 A 
HETATM    6  C6  UNL     1     -42.123   6.547  -2.279  1.00 20.00     0.012 A 
HETATM    7  C7  UNL     1     -43.078   4.451  -3.333  1.00 20.00     0.049 C 
HETATM    8  I8  UNL     1     -43.132   7.779  -3.636  1.00 20.00    -0.044 I 
ENDROOT
TORSDOF 0
ENDMDL
MODEL 7
REMARK VINA RESULT:      -3.9     12.721     13.856
REMARK  0 active torsions:
REMARK  status: ('A' for Active; 'I' for Inactive)
ROOT
HETATM    1  C1  UNL     1     -33.146  14.903  -3.550  1.00 20.00     0.001 A 
HETATM    2  C2  UNL     1     -33.791  13.740  -3.970  1.00 20.00     0.001 A 
HETATM    3  C3  UNL     1     -33.216  16.059  -4.326  1.00 20.00     0.008 A 
HETATM    4  C4  UNL     1     -34.507  13.733  -5.167  1.00 20.00     0.019 A 
HETATM    5  C5  UNL     1     -33.932  16.052  -5.523  1.00 20.00    -0.045 A 
HETATM    6  C6  UNL     1     -34.578  14.889  -5.944  1.00 20.00     0.012 A 
HETATM    7  C7  UNL     1     -33.973  17.321  -6.314  1.00 20.00     0.049 C 
HETATM    8  I8  UNL     1     -35.668  14.811  -7.728  1.00 20.00    -0.044 I 
ENDROOT
TORSDOF 0
ENDMDL
MODEL 8
REMARK VINA RESULT:      -3.8     11.906     12.362
REMARK  0 active torsions:
REMARK  status: ('A' for Active; 'I' for Inactive)
ROOT
HETATM    1  C1  UNL     1     -34.766  13.273  -4.671  1.00 20.00     0.001 A 
HETATM    2  C2  UNL     1     -33.579  13.627  -4.030  1.00 20.00     0.001 A 
HETATM    3  C3  UNL     1     -35.937  13.985  -4.416  1.00 20.00     0.008 A 
HETATM    4  C4  UNL     1     -33.564  14.695  -3.132  1.00 20.00     0.019 A 
HETATM    5  C5  UNL     1     -35.922  15.052  -3.518  1.00 20.00    -0.045 A 
HETATM    6  C6  UNL     1     -34.735  15.407  -2.876  1.00 20.00     0.012 A 
HETATM    7  C7  UNL     1     -37.207  15.780  -3.284  1.00 20.00     0.049 C 
HETATM    8  I8  UNL     1     -34.642  16.997  -1.519  1.00 20.00    -0.044 I 
ENDROOT
TORSDOF 0
ENDMDL
MODEL 9
REMARK VINA RESULT:      -3.8      9.194     10.381
REMARK  0 active torsions:
REMARK  status: ('A' for Active; 'I' for Inactive)
ROOT
HETATM    1  C1  UNL     1     -40.829   4.276  -1.078  1.00 20.00     0.001 A 
HETATM    2  C2  UNL     1     -41.688   3.920  -2.117  1.00 20.00     0.001 A 
HETATM    3  C3  UNL     1     -40.700   5.614  -0.707  1.00 20.00     0.008 A 
HETATM    4  C4  UNL     1     -42.420   4.902  -2.785  1.00 20.00     0.019 A 
HETATM    5  C5  UNL     1     -41.431   6.596  -1.374  1.00 20.00    -0.045 A 
HETATM    6  C6  UNL     1     -42.291   6.241  -2.413  1.00 20.00     0.012 A 
HETATM    7  C7  UNL     1     -41.253   8.014  -0.932  1.00 20.00     0.049 C 
HETATM    8  I8  UNL     1     -43.416   7.663  -3.456  1.00 20.00    -0.044 I 
ENDROOT
TORSDOF 0
ENDMDL
