MODEL 1
REMARK VINA RESULT:      -6.1      0.000      0.000
REMARK  0 active torsions:
REMARK  status: ('A' for Active; 'I' for Inactive)
ROOT
HETATM    1  C1  UNL     1     -35.303   4.309   5.773  1.00 20.00     0.001 A 
HETATM    2  C2  UNL     1     -34.801   5.233   6.693  1.00 20.00     0.003 A 
HETATM    3  C3  UNL     1     -34.965   4.385   4.415  1.00 20.00     0.014 A 
HETATM    4  C4  UNL     1     -33.945   6.263   6.293  1.00 20.00     0.038 A 
HETATM    5  C5  UNL     1     -33.543   5.821   2.751  1.00 20.00     0.046 A 
HETATM    6  C6  UNL     1     -34.106   5.414   3.990  1.00 20.00     0.000 A 
HETATM    7  C7  UNL     1     -33.627   6.313   4.937  1.00 20.00     0.086 A 
HETATM    8  C8  UNL     1     -32.769   6.926   3.022  1.00 20.00     0.050 A 
HETATM    9  C9  UNL     1     -31.940   7.799   2.181  1.00 20.00     0.077 C 
HETATM   10  O10 UNL     1     -32.814   7.233   4.345  1.00 20.00    -0.315 OA
ENDROOT
TORSDOF 0
ENDMDL
MODEL 2
REMARK VINA RESULT:      -4.6     10.154     11.107
REMARK  0 active torsions:
REMARK  status: ('A' for Active; 'I' for Inactive)
ROOT
HETATM    1  C1  UNL     1     -40.794   6.634  -0.443  1.00 20.00     0.001 A 
HETATM    2  C2  UNL     1     -41.601   7.498  -1.189  1.00 20.00     0.003 A 
HETATM    3  C3  UNL     1     -40.775   5.257  -0.705  1.00 20.00     0.014 A 
HETATM    4  C4  UNL     1     -42.414   7.021  -2.221  1.00 20.00     0.038 A 
HETATM    5  C5  UNL     1     -41.843   3.476  -2.298  1.00 20.00     0.046 A 
HETATM    6  C6  UNL     1     -41.586   4.755  -1.738  1.00 20.00     0.000 A 
HETATM    7  C7  UNL     1     -42.374   5.648  -2.458  1.00 20.00     0.086 A 
HETATM    8  C8  UNL     1     -42.758   3.671  -3.307  1.00 20.00     0.050 A 
HETATM    9  C9  UNL     1     -43.417   2.760  -4.252  1.00 20.00     0.077 C 
HETATM   10  O10 UNL     1     -43.087   4.985  -3.411  1.00 20.00    -0.315 OA
ENDROOT
TORSDOF 0
ENDMDL
MODEL 3
REMARK VINA RESULT:      -4.6     11.819     13.878
REMARK  0 active torsions:
REMARK  status: ('A' for Active; 'I' for Inactive)
ROOT
HETATM    1  C1  UNL     1     -34.370  13.326  -4.753  1.00 20.00     0.001 A 
HETATM    2  C2  UNL     1     -33.478  13.742  -3.761  1.00 20.00     0.003 A 
HETATM    3  C3  UNL     1     -34.816  14.213  -5.742  1.00 20.00     0.014 A 
HETATM    4  C4  UNL     1     -33.000  15.055  -3.720  1.00 20.00     0.038 A 
HETATM    5  C5  UNL     1     -34.551  16.701  -6.510  1.00 20.00     0.046 A 
HETATM    6  C6  UNL     1     -34.349  15.539  -5.719  1.00 20.00     0.000 A 
HETATM    7  C7  UNL     1     -33.462  15.914  -4.715  1.00 20.00     0.086 A 
HETATM    8  C8  UNL     1     -33.785  17.694  -5.943  1.00 20.00     0.050 A 
HETATM    9  C9  UNL     1     -33.562  19.105  -6.283  1.00 20.00     0.077 C 
HETATM   10  O10 UNL     1     -33.121  17.226  -4.853  1.00 20.00    -0.315 OA
ENDROOT
TORSDOF 0
ENDMDL
MODEL 4
REMARK VINA RESULT:      -4.5     11.593     12.693
REMARK  0 active torsions:
REMARK  status: ('A' for Active; 'I' for Inactive)
ROOT
HETATM    1  C1  UNL     1     -33.159  15.039  -3.497  1.00 20.00     0.001 A 
HETATM    2  C2  UNL     1     -33.435  13.745  -3.946  1.00 20.00     0.003 A 
HETATM    3  C3  UNL     1     -34.194  15.944  -3.223  1.00 20.00     0.014 A 
HETATM    4  C4  UNL     1     -34.749  13.308  -4.137  1.00 20.00     0.038 A 
HETATM    5  C5  UNL     1     -36.805  16.116  -3.250  1.00 20.00     0.046 A 
HETATM    6  C6  UNL     1     -35.523  15.526  -3.409  1.00 20.00     0.000 A 
HETATM    7  C7  UNL     1     -35.755  14.230  -3.857  1.00 20.00     0.086 A 
HETATM    8  C8  UNL     1     -37.721  15.153  -3.607  1.00 20.00     0.050 A 
HETATM    9  C9  UNL     1     -39.189  15.138  -3.661  1.00 20.00     0.077 C 
HETATM   10  O10 UNL     1     -37.094  14.006  -3.978  1.00 20.00    -0.315 OA
ENDROOT
TORSDOF 0
ENDMDL
MODEL 5
REMARK VINA RESULT:      -4.4     11.936     13.161
REMARK  0 active torsions:
REMARK  status: ('A' for Active; 'I' for Inactive)
ROOT
HETATM    1  C1  UNL     1     -34.844  13.726  -5.196  1.00 20.00     0.001 A 
HETATM    2  C2  UNL     1     -34.358  14.701  -6.072  1.00 20.00     0.003 A 
HETATM    3  C3  UNL     1     -34.919  13.967  -3.817  1.00 20.00     0.014 A 
HETATM    4  C4  UNL     1     -33.932  15.947  -5.606  1.00 20.00     0.038 A 
HETATM    5  C5  UNL     1     -34.412  15.828  -2.048  1.00 20.00     0.046 A 
HETATM    6  C6  UNL     1     -34.494  15.214  -3.326  1.00 20.00     0.000 A 
HETATM    7  C7  UNL     1     -34.017  16.157  -4.231  1.00 20.00     0.086 A 
HETATM    8  C8  UNL     1     -33.898  17.088  -2.256  1.00 20.00     0.050 A 
HETATM    9  C9  UNL     1     -33.576  18.201  -1.353  1.00 20.00     0.077 C 
HETATM   10  O10 UNL     1     -33.654  17.296  -3.576  1.00 20.00    -0.315 OA
ENDROOT
TORSDOF 0
ENDMDL
MODEL 6
REMARK VINA RESULT:      -4.4     11.709     13.081
REMARK  0 active torsions:
REMARK  status: ('A' for Active; 'I' for Inactive)
ROOT
HETATM    1  C1  UNL     1     -34.426  14.678  -6.160  1.00 20.00     0.001 A 
HETATM    2  C2  UNL     1     -34.821  13.661  -5.287  1.00 20.00     0.003 A 
HETATM    3  C3  UNL     1     -34.045  15.937  -5.676  1.00 20.00     0.014 A 
HETATM    4  C4  UNL     1     -34.849  13.861  -3.904  1.00 20.00     0.038 A 
HETATM    5  C5  UNL     1     -33.766  17.253  -3.431  1.00 20.00     0.046 A 
HETATM    6  C6  UNL     1     -34.066  16.162  -4.288  1.00 20.00     0.000 A 
HETATM    7  C7  UNL     1     -34.466  15.123  -3.453  1.00 20.00     0.086 A 
HETATM    8  C8  UNL     1     -33.998  16.813  -2.148  1.00 20.00     0.050 A 
HETATM    9  C9  UNL     1     -33.877  17.454  -0.831  1.00 20.00     0.077 C 
HETATM   10  O10 UNL     1     -34.424  15.523  -2.151  1.00 20.00    -0.315 OA
ENDROOT
TORSDOF 0
ENDMDL
MODEL 7
REMARK VINA RESULT:      -4.4     11.849     12.565
REMARK  0 active torsions:
REMARK  status: ('A' for Active; 'I' for Inactive)
ROOT
HETATM    1  C1  UNL     1     -34.019  13.462  -4.348  1.00 20.00     0.001 A 
HETATM    2  C2  UNL     1     -35.403  13.483  -4.535  1.00 20.00     0.003 A 
HETATM    3  C3  UNL     1     -33.381  14.433  -3.563  1.00 20.00     0.014 A 
HETATM    4  C4  UNL     1     -36.200  14.469  -3.946  1.00 20.00     0.038 A 
HETATM    5  C5  UNL     1     -33.911  16.556  -2.128  1.00 20.00     0.046 A 
HETATM    6  C6  UNL     1     -34.162  15.435  -2.963  1.00 20.00     0.000 A 
HETATM    7  C7  UNL     1     -35.537  15.421  -3.173  1.00 20.00     0.086 A 
HETATM    8  C8  UNL     1     -35.132  17.142  -1.887  1.00 20.00     0.050 A 
HETATM    9  C9  UNL     1     -35.544  18.318  -1.108  1.00 20.00     0.077 C 
HETATM   10  O10 UNL     1     -36.125  16.461  -2.518  1.00 20.00    -0.315 OA
ENDROOT
TORSDOF 0
ENDMDL
MODEL 8
REMARK VINA RESULT:      -4.3     11.901     14.027
REMARK  0 active torsions:
REMARK  status: ('A' for Active; 'I' for Inactive)
ROOT
HETATM    1  C1  UNL     1     -33.658  13.687  -3.787  1.00 20.00     0.001 A 
HETATM    2  C2  UNL     1     -34.485  13.228  -4.816  1.00 20.00     0.003 A 
HETATM    3  C3  UNL     1     -33.207  15.014  -3.760  1.00 20.00     0.014 A 
HETATM    4  C4  UNL     1     -34.893  14.075  -5.851  1.00 20.00     0.038 A 
HETATM    5  C5  UNL     1     -33.375  17.246  -5.116  1.00 20.00     0.046 A 
HETATM    6  C6  UNL     1     -33.604  15.883  -4.792  1.00 20.00     0.000 A 
HETATM    7  C7  UNL     1     -34.428  15.387  -5.797  1.00 20.00     0.086 A 
HETATM    8  C8  UNL     1     -34.065  17.488  -6.282  1.00 20.00     0.050 A 
HETATM    9  C9  UNL     1     -34.229  18.683  -7.120  1.00 20.00     0.077 C 
HETATM   10  O10 UNL     1     -34.707  16.367  -6.703  1.00 20.00    -0.315 OA
ENDROOT
TORSDOF 0
ENDMDL
MODEL 9
REMARK VINA RESULT:      -4.3     12.154     13.215
REMARK  0 active torsions:
REMARK  status: ('A' for Active; 'I' for Inactive)
ROOT
HETATM    1  C1  UNL     1     -34.279  17.812  -0.229  1.00 20.00     0.001 A 
HETATM    2  C2  UNL     1     -33.762  18.808  -1.062  1.00 20.00     0.003 A 
HETATM    3  C3  UNL     1     -34.640  16.558  -0.740  1.00 20.00     0.014 A 
HETATM    4  C4  UNL     1     -33.586  18.589  -2.431  1.00 20.00     0.038 A 
HETATM    5  C5  UNL     1     -34.706  15.223  -2.990  1.00 20.00     0.046 A 
HETATM    6  C6  UNL     1     -34.472  16.316  -2.115  1.00 20.00     0.000 A 
HETATM    7  C7  UNL     1     -33.954  17.333  -2.910  1.00 20.00     0.086 A 
HETATM    8  C8  UNL     1     -34.321  15.640  -4.243  1.00 20.00     0.050 A 
HETATM    9  C9  UNL     1     -34.313  14.986  -5.559  1.00 20.00     0.077 C 
HETATM   10  O10 UNL     1     -33.864  16.919  -4.205  1.00 20.00    -0.315 OA
ENDROOT
TORSDOF 0
ENDMDL
