MODEL 1
REMARK VINA RESULT:      -5.1      0.000      0.000
REMARK  3 active torsions:
REMARK  status: ('A' for Active; 'I' for Inactive)
REMARK    1  A    between atoms: C6_6  and  C9_9 
REMARK    2  A    between atoms: C8_8  and  C9_9 
REMARK    3  A    between atoms: C8_8  and  O10_10 
ROOT
HETATM    1  C1  UNL     1     -35.216   5.055   5.718  1.00 20.00     0.000 A 
HETATM    2  C2  UNL     1     -35.169   4.783   4.350  1.00 20.00     0.001 A 
HETATM    3  C3  UNL     1     -34.301   5.941   6.285  1.00 20.00     0.001 A 
HETATM    4  C4  UNL     1     -34.205   5.397   3.551  1.00 20.00     0.007 A 
HETATM    5  C5  UNL     1     -33.337   6.555   5.486  1.00 20.00     0.007 A 
HETATM    6  C6  UNL     1     -33.289   6.283   4.118  1.00 20.00    -0.052 A 
ENDROOT
BRANCH   6   7
HETATM    7  C9  UNL     1     -32.259   6.941   3.263  1.00 20.00     0.038 C 
HETATM    8  C7  UNL     1     -31.202   7.689   4.101  1.00 20.00     0.017 C 
BRANCH   7   9
HETATM    9  C8  UNL     1     -32.866   7.904   2.218  1.00 20.00     0.173 C 
BRANCH   9  10
HETATM   10  O10 UNL     1     -31.817   8.474   1.442  1.00 20.00    -0.400 OA
HETATM   11  H22 UNL     1     -31.171   7.766   1.286  1.00 20.00     0.209 HD
ENDBRANCH   9  10
ENDBRANCH   7   9
ENDBRANCH   6   7
TORSDOF 3
ENDMDL
MODEL 2
REMARK VINA RESULT:      -5.1      0.004      1.528
REMARK  3 active torsions:
REMARK  status: ('A' for Active; 'I' for Inactive)
REMARK    1  A    between atoms: C6_6  and  C9_9 
REMARK    2  A    between atoms: C8_8  and  C9_9 
REMARK    3  A    between atoms: C8_8  and  O10_10 
ROOT
HETATM    1  C1  UNL     1     -35.217   5.053   5.721  1.00 20.00     0.000 A 
HETATM    2  C2  UNL     1     -34.301   5.940   6.288  1.00 20.00     0.001 A 
HETATM    3  C3  UNL     1     -35.169   4.781   4.354  1.00 20.00     0.001 A 
HETATM    4  C4  UNL     1     -33.339   6.556   5.487  1.00 20.00     0.007 A 
HETATM    5  C5  UNL     1     -34.207   5.397   3.553  1.00 20.00     0.007 A 
HETATM    6  C6  UNL     1     -33.292   6.284   4.120  1.00 20.00    -0.052 A 
ENDROOT
BRANCH   6   7
HETATM    7  C9  UNL     1     -32.262   6.941   3.264  1.00 20.00     0.038 C 
HETATM    8  C7  UNL     1     -31.204   7.690   4.100  1.00 20.00     0.017 C 
BRANCH   7   9
HETATM    9  C8  UNL     1     -32.870   7.903   2.218  1.00 20.00     0.173 C 
BRANCH   9  10
HETATM   10  O10 UNL     1     -31.821   8.476   1.446  1.00 20.00    -0.400 OA
HETATM   11  H22 UNL     1     -32.115   8.460   0.521  1.00 20.00     0.209 HD
ENDBRANCH   9  10
ENDBRANCH   7   9
ENDBRANCH   6   7
TORSDOF 3
ENDMDL
MODEL 3
REMARK VINA RESULT:      -4.5     11.330     11.917
REMARK  3 active torsions:
REMARK  status: ('A' for Active; 'I' for Inactive)
REMARK    1  A    between atoms: C6_6  and  C9_9 
REMARK    2  A    between atoms: C8_8  and  C9_9 
REMARK    3  A    between atoms: C8_8  and  O10_10 
ROOT
HETATM    1  C1  UNL     1     -35.079  13.327  -4.429  1.00 20.00     0.000 A 
HETATM    2  C2  UNL     1     -36.047  14.205  -3.940  1.00 20.00     0.001 A 
HETATM    3  C3  UNL     1     -33.731  13.551  -4.153  1.00 20.00     0.001 A 
HETATM    4  C4  UNL     1     -35.665  15.307  -3.175  1.00 20.00     0.007 A 
HETATM    5  C5  UNL     1     -33.349  14.654  -3.388  1.00 20.00     0.007 A 
HETATM    6  C6  UNL     1     -34.317  15.531  -2.899  1.00 20.00    -0.052 A 
ENDROOT
BRANCH   6   7
HETATM    7  C9  UNL     1     -33.909  16.709  -2.081  1.00 20.00     0.038 C 
HETATM    8  C7  UNL     1     -34.594  16.721  -0.699  1.00 20.00     0.017 C 
BRANCH   7   9
HETATM    9  C8  UNL     1     -34.161  18.057  -2.793  1.00 20.00     0.173 C 
BRANCH   9  10
HETATM   10  O10 UNL     1     -33.545  18.030  -4.076  1.00 20.00    -0.400 OA
HETATM   11  H22 UNL     1     -32.649  18.384  -3.962  1.00 20.00     0.209 HD
ENDBRANCH   9  10
ENDBRANCH   7   9
ENDBRANCH   6   7
TORSDOF 3
ENDMDL
MODEL 4
REMARK VINA RESULT:      -4.5     11.328     11.936
REMARK  3 active torsions:
REMARK  status: ('A' for Active; 'I' for Inactive)
REMARK    1  A    between atoms: C6_6  and  C9_9 
REMARK    2  A    between atoms: C8_8  and  C9_9 
REMARK    3  A    between atoms: C8_8  and  O10_10 
ROOT
HETATM    1  C1  UNL     1     -35.071  13.326  -4.420  1.00 20.00     0.000 A 
HETATM    2  C2  UNL     1     -33.723  13.556  -4.140  1.00 20.00     0.001 A 
HETATM    3  C3  UNL     1     -36.042  14.204  -3.939  1.00 20.00     0.001 A 
HETATM    4  C4  UNL     1     -33.348  14.663  -3.379  1.00 20.00     0.007 A 
HETATM    5  C5  UNL     1     -35.667  15.311  -3.177  1.00 20.00     0.007 A 
HETATM    6  C6  UNL     1     -34.319  15.540  -2.898  1.00 20.00    -0.052 A 
ENDROOT
BRANCH   6   7
HETATM    7  C9  UNL     1     -33.918  16.725  -2.085  1.00 20.00     0.038 C 
HETATM    8  C7  UNL     1     -34.591  16.731  -0.697  1.00 20.00     0.017 C 
BRANCH   7   9
HETATM    9  C8  UNL     1     -34.191  18.068  -2.798  1.00 20.00     0.173 C 
BRANCH   9  10
HETATM   10  O10 UNL     1     -33.541  18.067  -4.064  1.00 20.00    -0.400 OA
HETATM   11  H22 UNL     1     -33.295  17.147  -4.250  1.00 20.00     0.209 HD
ENDBRANCH   9  10
ENDBRANCH   7   9
ENDBRANCH   6   7
TORSDOF 3
ENDMDL
MODEL 5
REMARK VINA RESULT:      -4.4     11.319     12.527
REMARK  3 active torsions:
REMARK  status: ('A' for Active; 'I' for Inactive)
REMARK    1  A    between atoms: C6_6  and  C9_9 
REMARK    2  A    between atoms: C8_8  and  C9_9 
REMARK    3  A    between atoms: C8_8  and  O10_10 
ROOT
HETATM    1  C1  UNL     1     -34.036  17.913  -1.642  1.00 20.00     0.000 A 
HETATM    2  C2  UNL     1     -34.453  16.632  -1.277  1.00 20.00     0.001 A 
HETATM    3  C3  UNL     1     -33.712  18.189  -2.970  1.00 20.00     0.001 A 
HETATM    4  C4  UNL     1     -34.544  15.628  -2.242  1.00 20.00     0.007 A 
HETATM    5  C5  UNL     1     -33.803  17.185  -3.934  1.00 20.00     0.007 A 
HETATM    6  C6  UNL     1     -34.220  15.904  -3.569  1.00 20.00    -0.052 A 
ENDROOT
BRANCH   6   7
HETATM    7  C9  UNL     1     -34.319  14.831  -4.601  1.00 20.00     0.038 C 
HETATM    8  C7  UNL     1     -34.295  15.400  -6.034  1.00 20.00     0.017 C 
BRANCH   7   9
HETATM    9  C8  UNL     1     -35.565  13.934  -4.422  1.00 20.00     0.173 C 
BRANCH   9  10
HETATM   10  O10 UNL     1     -35.146  12.607  -4.123  1.00 20.00    -0.400 OA
HETATM   11  H22 UNL     1     -34.351  12.440  -4.653  1.00 20.00     0.209 HD
ENDBRANCH   9  10
ENDBRANCH   7   9
ENDBRANCH   6   7
TORSDOF 3
ENDMDL
MODEL 6
REMARK VINA RESULT:      -4.4     11.324     12.523
REMARK  3 active torsions:
REMARK  status: ('A' for Active; 'I' for Inactive)
REMARK    1  A    between atoms: C6_6  and  C9_9 
REMARK    2  A    between atoms: C8_8  and  C9_9 
REMARK    3  A    between atoms: C8_8  and  O10_10 
ROOT
HETATM    1  C1  UNL     1     -34.009  17.948  -1.671  1.00 20.00     0.000 A 
HETATM    2  C2  UNL     1     -33.683  18.200  -3.004  1.00 20.00     0.001 A 
HETATM    3  C3  UNL     1     -34.438  16.678  -1.286  1.00 20.00     0.001 A 
HETATM    4  C4  UNL     1     -33.788  17.182  -3.952  1.00 20.00     0.007 A 
HETATM    5  C5  UNL     1     -34.543  15.660  -2.234  1.00 20.00     0.007 A 
HETATM    6  C6  UNL     1     -34.218  15.912  -3.567  1.00 20.00    -0.052 A 
ENDROOT
BRANCH   6   7
HETATM    7  C9  UNL     1     -34.329  14.823  -4.580  1.00 20.00     0.038 C 
HETATM    8  C7  UNL     1     -34.323  15.370  -6.022  1.00 20.00     0.017 C 
BRANCH   7   9
HETATM    9  C8  UNL     1     -35.572  13.929  -4.372  1.00 20.00     0.173 C 
BRANCH   9  10
HETATM   10  O10 UNL     1     -35.149  12.594  -4.113  1.00 20.00    -0.400 OA
HETATM   11  H22 UNL     1     -34.188  12.627  -3.983  1.00 20.00     0.209 HD
ENDBRANCH   9  10
ENDBRANCH   7   9
ENDBRANCH   6   7
TORSDOF 3
ENDMDL
MODEL 7
REMARK VINA RESULT:      -4.4     11.144     12.104
REMARK  3 active torsions:
REMARK  status: ('A' for Active; 'I' for Inactive)
REMARK    1  A    between atoms: C6_6  and  C9_9 
REMARK    2  A    between atoms: C8_8  and  C9_9 
REMARK    3  A    between atoms: C8_8  and  O10_10 
ROOT
HETATM    1  C1  UNL     1     -36.075  18.237  -1.203  1.00 20.00     0.000 A 
HETATM    2  C2  UNL     1     -35.036  17.540  -0.586  1.00 20.00     0.001 A 
HETATM    3  C3  UNL     1     -36.585  17.795  -2.423  1.00 20.00     0.001 A 
HETATM    4  C4  UNL     1     -34.506  16.401  -1.192  1.00 20.00     0.007 A 
HETATM    5  C5  UNL     1     -36.055  16.656  -3.029  1.00 20.00     0.007 A 
HETATM    6  C6  UNL     1     -35.015  15.959  -2.413  1.00 20.00    -0.052 A 
ENDROOT
BRANCH   6   7
HETATM    7  C9  UNL     1     -34.449  14.740  -3.060  1.00 20.00     0.038 C 
HETATM    8  C7  UNL     1     -33.088  15.018  -3.730  1.00 20.00     0.017 C 
BRANCH   7   9
HETATM    9  C8  UNL     1     -35.409  14.100  -4.088  1.00 20.00     0.173 C 
BRANCH   9  10
HETATM   10  O10 UNL     1     -35.174  12.697  -4.137  1.00 20.00    -0.400 OA
HETATM   11  H22 UNL     1     -35.929  12.272  -3.701  1.00 20.00     0.209 HD
ENDBRANCH   9  10
ENDBRANCH   7   9
ENDBRANCH   6   7
TORSDOF 3
ENDMDL
MODEL 8
REMARK VINA RESULT:      -4.4     11.084     11.976
REMARK  3 active torsions:
REMARK  status: ('A' for Active; 'I' for Inactive)
REMARK    1  A    between atoms: C6_6  and  C9_9 
REMARK    2  A    between atoms: C8_8  and  C9_9 
REMARK    3  A    between atoms: C8_8  and  O10_10 
ROOT
HETATM    1  C1  UNL     1     -36.067  18.049  -1.520  1.00 20.00     0.000 A 
HETATM    2  C2  UNL     1     -36.618  17.483  -2.671  1.00 20.00     0.001 A 
HETATM    3  C3  UNL     1     -34.950  17.467  -0.922  1.00 20.00     0.001 A 
HETATM    4  C4  UNL     1     -36.051  16.333  -3.221  1.00 20.00     0.007 A 
HETATM    5  C5  UNL     1     -34.383  16.317  -1.473  1.00 20.00     0.007 A 
HETATM    6  C6  UNL     1     -34.934  15.751  -2.623  1.00 20.00    -0.052 A 
ENDROOT
BRANCH   6   7
HETATM    7  C9  UNL     1     -34.327  14.522  -3.213  1.00 20.00     0.038 C 
HETATM    8  C7  UNL     1     -32.874  14.757  -3.675  1.00 20.00     0.017 C 
BRANCH   7   9
HETATM    9  C8  UNL     1     -35.153  13.941  -4.382  1.00 20.00     0.173 C 
BRANCH   9  10
HETATM   10  O10 UNL     1     -35.407  12.563  -4.136  1.00 20.00    -0.400 OA
HETATM   11  H22 UNL     1     -36.056  12.276  -4.798  1.00 20.00     0.209 HD
ENDBRANCH   9  10
ENDBRANCH   7   9
ENDBRANCH   6   7
TORSDOF 3
ENDMDL
MODEL 9
REMARK VINA RESULT:      -4.3     11.318     12.477
REMARK  3 active torsions:
REMARK  status: ('A' for Active; 'I' for Inactive)
REMARK    1  A    between atoms: C6_6  and  C9_9 
REMARK    2  A    between atoms: C8_8  and  C9_9 
REMARK    3  A    between atoms: C8_8  and  O10_10 
ROOT
HETATM    1  C1  UNL     1     -34.045  18.269  -0.109  1.00 20.00     0.000 A 
HETATM    2  C2  UNL     1     -33.509  18.756  -1.302  1.00 20.00     0.001 A 
HETATM    3  C3  UNL     1     -34.714  17.046  -0.093  1.00 20.00     0.001 A 
HETATM    4  C4  UNL     1     -33.644  18.019  -2.479  1.00 20.00     0.007 A 
HETATM    5  C5  UNL     1     -34.849  16.309  -1.270  1.00 20.00     0.007 A 
HETATM    6  C6  UNL     1     -34.313  16.796  -2.463  1.00 20.00    -0.052 A 
ENDROOT
BRANCH   6   7
HETATM    7  C9  UNL     1     -34.456  16.008  -3.721  1.00 20.00     0.038 C 
HETATM    8  C7  UNL     1     -34.396  14.488  -3.463  1.00 20.00     0.017 C 
BRANCH   7   9
HETATM    9  C8  UNL     1     -33.414  16.390  -4.796  1.00 20.00     0.173 C 
BRANCH   9  10
HETATM   10  O10 UNL     1     -32.233  15.620  -4.598  1.00 20.00    -0.400 OA
HETATM   11  H22 UNL     1     -32.258  15.304  -3.681  1.00 20.00     0.209 HD
ENDBRANCH   9  10
ENDBRANCH   7   9
ENDBRANCH   6   7
TORSDOF 3
ENDMDL
