MODEL 1
REMARK VINA RESULT:      -5.5      0.000      0.000
REMARK  1 active torsions:
REMARK  status: ('A' for Active; 'I' for Inactive)
REMARK    1  A    between atoms: C6_6  and  C9_9 
ROOT
HETATM    1  C1  UNL     1     -34.680   5.090   2.957  1.00 20.00     0.001 A 
HETATM    2  C2  UNL     1     -35.066   4.936   4.288  1.00 20.00     0.007 A 
HETATM    3  C3  UNL     1     -33.603   5.915   2.634  1.00 20.00     0.007 A 
HETATM    4  C4  UNL     1     -33.298   6.433   4.974  1.00 20.00     0.013 A 
HETATM    5  C5  UNL     1     -34.375   5.608   5.297  1.00 20.00    -0.061 A 
HETATM    6  C6  UNL     1     -32.912   6.586   3.642  1.00 20.00    -0.058 A 
HETATM    7  C7  UNL     1     -34.787   5.443   6.720  1.00 20.00     0.048 C 
ENDROOT
BRANCH   6   8
HETATM    8  C9  UNL     1     -31.760   7.470   3.296  1.00 20.00     0.034 C 
HETATM    9  C8  UNL     1     -31.996   8.254   2.008  1.00 20.00     0.010 C 
ENDBRANCH   6   8
TORSDOF 1
ENDMDL
MODEL 2
REMARK VINA RESULT:      -5.3      1.234      2.144
REMARK  1 active torsions:
REMARK  status: ('A' for Active; 'I' for Inactive)
REMARK    1  A    between atoms: C6_6  and  C9_9 
ROOT
HETATM    1  C1  UNL     1     -35.164   4.409   5.786  1.00 20.00     0.001 A 
HETATM    2  C2  UNL     1     -34.778   5.378   6.712  1.00 20.00     0.007 A 
HETATM    3  C3  UNL     1     -34.777   4.527   4.451  1.00 20.00     0.007 A 
HETATM    4  C4  UNL     1     -33.619   6.583   4.969  1.00 20.00     0.013 A 
HETATM    5  C5  UNL     1     -34.006   6.466   6.303  1.00 20.00    -0.061 A 
HETATM    6  C6  UNL     1     -34.004   5.614   4.042  1.00 20.00    -0.058 A 
HETATM    7  C7  UNL     1     -33.593   7.501   7.294  1.00 20.00     0.048 C 
ENDROOT
BRANCH   6   8
HETATM    8  C9  UNL     1     -33.591   5.741   2.614  1.00 20.00     0.034 C 
HETATM    9  C8  UNL     1     -32.410   6.690   2.433  1.00 20.00     0.010 C 
ENDBRANCH   6   8
TORSDOF 1
ENDMDL
MODEL 3
REMARK VINA RESULT:      -4.9      1.041      2.094
REMARK  1 active torsions:
REMARK  status: ('A' for Active; 'I' for Inactive)
REMARK    1  A    between atoms: C6_6  and  C9_9 
ROOT
HETATM    1  C1  UNL     1     -33.531   7.041   6.292  1.00 20.00     0.001 A 
HETATM    2  C2  UNL     1     -34.353   5.922   6.418  1.00 20.00     0.007 A 
HETATM    3  C3  UNL     1     -32.884   7.297   5.082  1.00 20.00     0.007 A 
HETATM    4  C4  UNL     1     -33.883   5.316   4.127  1.00 20.00     0.013 A 
HETATM    5  C5  UNL     1     -34.529   5.059   5.336  1.00 20.00    -0.061 A 
HETATM    6  C6  UNL     1     -33.060   6.436   4.000  1.00 20.00    -0.058 A 
HETATM    7  C7  UNL     1     -35.410   3.863   5.472  1.00 20.00     0.048 C 
ENDROOT
BRANCH   6   8
HETATM    8  C9  UNL     1     -32.368   6.710   2.708  1.00 20.00     0.034 C 
HETATM    9  C8  UNL     1     -32.194   8.204   2.447  1.00 20.00     0.010 C 
ENDBRANCH   6   8
TORSDOF 1
ENDMDL
MODEL 4
REMARK VINA RESULT:      -4.8      0.619      3.698
REMARK  1 active torsions:
REMARK  status: ('A' for Active; 'I' for Inactive)
REMARK    1  A    between atoms: C6_6  and  C9_9 
ROOT
HETATM    1  C1  UNL     1     -34.347   5.285   2.661  1.00 20.00     0.001 A 
HETATM    2  C2  UNL     1     -33.245   6.103   2.411  1.00 20.00     0.007 A 
HETATM    3  C3  UNL     1     -34.818   5.129   3.964  1.00 20.00     0.007 A 
HETATM    4  C4  UNL     1     -33.086   6.609   4.768  1.00 20.00     0.013 A 
HETATM    5  C5  UNL     1     -32.614   6.765   3.465  1.00 20.00    -0.061 A 
HETATM    6  C6  UNL     1     -34.188   5.791   5.018  1.00 20.00    -0.058 A 
HETATM    7  C7  UNL     1     -31.437   7.640   3.197  1.00 20.00     0.048 C 
ENDROOT
BRANCH   6   8
HETATM    8  C9  UNL     1     -34.692   5.623   6.412  1.00 20.00     0.034 C 
HETATM    9  C8  UNL     1     -35.275   4.233   6.655  1.00 20.00     0.010 C 
ENDBRANCH   6   8
TORSDOF 1
ENDMDL
MODEL 5
REMARK VINA RESULT:      -4.6     11.255     11.799
REMARK  1 active torsions:
REMARK  status: ('A' for Active; 'I' for Inactive)
REMARK    1  A    between atoms: C6_6  and  C9_9 
ROOT
HETATM    1  C1  UNL     1     -34.229  13.708  -4.146  1.00 20.00     0.001 A 
HETATM    2  C2  UNL     1     -35.602  13.712  -4.387  1.00 20.00     0.007 A 
HETATM    3  C3  UNL     1     -33.664  14.676  -3.316  1.00 20.00     0.007 A 
HETATM    4  C4  UNL     1     -35.846  15.652  -2.968  1.00 20.00     0.013 A 
HETATM    5  C5  UNL     1     -36.411  14.685  -3.798  1.00 20.00    -0.061 A 
HETATM    6  C6  UNL     1     -34.472  15.647  -2.726  1.00 20.00    -0.058 A 
HETATM    7  C7  UNL     1     -37.880  14.688  -4.056  1.00 20.00     0.048 C 
ENDROOT
BRANCH   6   8
HETATM    8  C9  UNL     1     -33.867  16.683  -1.839  1.00 20.00     0.034 C 
HETATM    9  C8  UNL     1     -34.645  16.859  -0.537  1.00 20.00     0.010 C 
ENDBRANCH   6   8
TORSDOF 1
ENDMDL
MODEL 6
REMARK VINA RESULT:      -4.5      1.709      3.448
REMARK  1 active torsions:
REMARK  status: ('A' for Active; 'I' for Inactive)
REMARK    1  A    between atoms: C6_6  and  C9_9 
ROOT
HETATM    1  C1  UNL     1     -35.192   4.282   5.878  1.00 20.00     0.001 A 
HETATM    2  C2  UNL     1     -35.138   4.296   4.484  1.00 20.00     0.007 A 
HETATM    3  C3  UNL     1     -34.568   5.292   6.610  1.00 20.00     0.007 A 
HETATM    4  C4  UNL     1     -33.836   6.330   4.555  1.00 20.00     0.013 A 
HETATM    5  C5  UNL     1     -34.459   5.320   3.823  1.00 20.00    -0.061 A 
HETATM    6  C6  UNL     1     -33.891   6.316   5.949  1.00 20.00    -0.058 A 
HETATM    7  C7  UNL     1     -34.402   5.335   2.333  1.00 20.00     0.048 C 
ENDROOT
BRANCH   6   8
HETATM    8  C9  UNL     1     -33.222   7.396   6.733  1.00 20.00     0.034 C 
HETATM    9  C8  UNL     1     -34.167   8.059   7.731  1.00 20.00     0.010 C 
ENDBRANCH   6   8
TORSDOF 1
ENDMDL
MODEL 7
REMARK VINA RESULT:      -4.4      8.975     10.522
REMARK  1 active torsions:
REMARK  status: ('A' for Active; 'I' for Inactive)
REMARK    1  A    between atoms: C6_6  and  C9_9 
ROOT
HETATM    1  C1  UNL     1     -40.643   5.931  -0.386  1.00 20.00     0.001 A 
HETATM    2  C2  UNL     1     -40.822   4.663  -0.939  1.00 20.00     0.007 A 
HETATM    3  C3  UNL     1     -41.280   7.035  -0.954  1.00 20.00     0.007 A 
HETATM    4  C4  UNL     1     -42.273   5.602  -2.626  1.00 20.00     0.013 A 
HETATM    5  C5  UNL     1     -41.636   4.498  -2.059  1.00 20.00    -0.061 A 
HETATM    6  C6  UNL     1     -42.095   6.870  -2.073  1.00 20.00    -0.058 A 
HETATM    7  C7  UNL     1     -41.827   3.142  -2.649  1.00 20.00     0.048 C 
ENDROOT
BRANCH   6   8
HETATM    8  C9  UNL     1     -42.775   8.051  -2.681  1.00 20.00     0.034 C 
HETATM    9  C8  UNL     1     -42.609   8.100  -4.197  1.00 20.00     0.010 C 
ENDBRANCH   6   8
TORSDOF 1
ENDMDL
MODEL 8
REMARK VINA RESULT:      -4.4     11.061     12.697
REMARK  1 active torsions:
REMARK  status: ('A' for Active; 'I' for Inactive)
REMARK    1  A    between atoms: C6_6  and  C9_9 
ROOT
HETATM    1  C1  UNL     1     -34.825  13.353  -4.411  1.00 20.00     0.001 A 
HETATM    2  C2  UNL     1     -34.850  13.864  -5.708  1.00 20.00     0.007 A 
HETATM    3  C3  UNL     1     -34.437  14.168  -3.347  1.00 20.00     0.007 A 
HETATM    4  C4  UNL     1     -34.098  16.005  -4.879  1.00 20.00     0.013 A 
HETATM    5  C5  UNL     1     -34.486  15.191  -5.942  1.00 20.00    -0.061 A 
HETATM    6  C6  UNL     1     -34.073  15.494  -3.581  1.00 20.00    -0.058 A 
HETATM    7  C7  UNL     1     -34.514  15.737  -7.329  1.00 20.00     0.048 C 
ENDROOT
BRANCH   6   8
HETATM    8  C9  UNL     1     -33.656  16.364  -2.444  1.00 20.00     0.034 C 
HETATM    9  C8  UNL     1     -34.696  16.399  -1.327  1.00 20.00     0.010 C 
ENDBRANCH   6   8
TORSDOF 1
ENDMDL
MODEL 9
REMARK VINA RESULT:      -4.4     11.365     12.517
REMARK  1 active torsions:
REMARK  status: ('A' for Active; 'I' for Inactive)
REMARK    1  A    between atoms: C6_6  and  C9_9 
ROOT
HETATM    1  C1  UNL     1     -33.517  16.829  -4.709  1.00 20.00     0.001 A 
HETATM    2  C2  UNL     1     -33.818  15.554  -5.187  1.00 20.00     0.007 A 
HETATM    3  C3  UNL     1     -33.761  17.148  -3.373  1.00 20.00     0.007 A 
HETATM    4  C4  UNL     1     -34.607  14.918  -2.995  1.00 20.00     0.013 A 
HETATM    5  C5  UNL     1     -34.364  14.598  -4.330  1.00 20.00    -0.061 A 
HETATM    6  C6  UNL     1     -34.305  16.193  -2.516  1.00 20.00    -0.058 A 
HETATM    7  C7  UNL     1     -34.684  13.235  -4.842  1.00 20.00     0.048 C 
ENDROOT
BRANCH   6   8
HETATM    8  C9  UNL     1     -34.567  16.535  -1.088  1.00 20.00     0.034 C 
HETATM    9  C8  UNL     1     -33.723  17.712  -0.608  1.00 20.00     0.010 C 
ENDBRANCH   6   8
TORSDOF 1
ENDMDL
