MODEL 1
REMARK VINA RESULT:      -4.1      0.000      0.000
REMARK  0 active torsions:
REMARK  status: ('A' for Active; 'I' for Inactive)
ROOT
HETATM    1  C1  UNL     1     -33.771   6.815   6.594  1.00 20.00     0.002 A 
HETATM    2  C2  UNL     1     -34.514   5.647   6.430  1.00 20.00     0.007 A 
HETATM    3  C3  UNL     1     -33.078   7.360   5.513  1.00 20.00     0.018 A 
HETATM    4  C4  UNL     1     -33.870   5.566   4.102  1.00 20.00     0.025 A 
HETATM    5  C5  UNL     1     -34.563   5.021   5.183  1.00 20.00    -0.061 A 
HETATM    6  C6  UNL     1     -33.127   6.735   4.267  1.00 20.00     0.006 A 
HETATM    7  C7  UNL     1     -35.358   3.771   5.008  1.00 20.00     0.048 C 
HETATM    8  I8  UNL     1     -32.096   7.547   2.656  1.00 20.00    -0.045 I 
ENDROOT
TORSDOF 0
ENDMDL
MODEL 2
REMARK VINA RESULT:      -4.0     10.223     11.099
REMARK  0 active torsions:
REMARK  status: ('A' for Active; 'I' for Inactive)
ROOT
HETATM    1  C1  UNL     1     -40.702   5.758  -0.660  1.00 20.00     0.002 A 
HETATM    2  C2  UNL     1     -41.255   6.916  -1.204  1.00 20.00     0.007 A 
HETATM    3  C3  UNL     1     -41.034   4.511  -1.189  1.00 20.00     0.018 A 
HETATM    4  C4  UNL     1     -42.474   5.580  -2.807  1.00 20.00     0.025 A 
HETATM    5  C5  UNL     1     -42.142   6.828  -2.278  1.00 20.00    -0.061 A 
HETATM    6  C6  UNL     1     -41.921   4.422  -2.262  1.00 20.00     0.006 A 
HETATM    7  C7  UNL     1     -42.734   8.067  -2.859  1.00 20.00     0.048 C 
HETATM    8  I8  UNL     1     -42.414   2.564  -3.050  1.00 20.00    -0.045 I 
ENDROOT
TORSDOF 0
ENDMDL
MODEL 3
REMARK VINA RESULT:      -3.9     12.255     12.822
REMARK  0 active torsions:
REMARK  status: ('A' for Active; 'I' for Inactive)
ROOT
HETATM    1  C1  UNL     1     -34.475  13.687  -4.077  1.00 20.00     0.002 A 
HETATM    2  C2  UNL     1     -33.832  14.611  -3.255  1.00 20.00     0.007 A 
HETATM    3  C3  UNL     1     -35.843  13.805  -4.324  1.00 20.00     0.018 A 
HETATM    4  C4  UNL     1     -35.925  15.773  -2.925  1.00 20.00     0.025 A 
HETATM    5  C5  UNL     1     -34.558  15.655  -2.678  1.00 20.00    -0.061 A 
HETATM    6  C6  UNL     1     -36.568  14.848  -3.748  1.00 20.00     0.006 A 
HETATM    7  C7  UNL     1     -33.869  16.643  -1.798  1.00 20.00     0.048 C 
HETATM    8  I8  UNL     1     -38.605  15.025  -4.117  1.00 20.00    -0.045 I 
ENDROOT
TORSDOF 0
ENDMDL
MODEL 4
REMARK VINA RESULT:      -3.9      9.991     10.745
REMARK  0 active torsions:
REMARK  status: ('A' for Active; 'I' for Inactive)
ROOT
HETATM    1  C1  UNL     1     -40.857   6.306  -0.512  1.00 20.00     0.002 A 
HETATM    2  C2  UNL     1     -40.872   4.972  -0.916  1.00 20.00     0.007 A 
HETATM    3  C3  UNL     1     -41.586   7.259  -1.224  1.00 20.00     0.018 A 
HETATM    4  C4  UNL     1     -42.345   5.542  -2.744  1.00 20.00     0.025 A 
HETATM    5  C5  UNL     1     -41.616   4.589  -2.033  1.00 20.00    -0.061 A 
HETATM    6  C6  UNL     1     -42.330   6.877  -2.340  1.00 20.00     0.006 A 
HETATM    7  C7  UNL     1     -41.631   3.162  -2.464  1.00 20.00     0.048 C 
HETATM    8  I8  UNL     1     -43.417   8.296  -3.400  1.00 20.00    -0.045 I 
ENDROOT
TORSDOF 0
ENDMDL
MODEL 5
REMARK VINA RESULT:      -3.9     12.140     13.263
REMARK  0 active torsions:
REMARK  status: ('A' for Active; 'I' for Inactive)
ROOT
HETATM    1  C1  UNL     1     -33.656  17.758  -3.758  1.00 20.00     0.002 A 
HETATM    2  C2  UNL     1     -33.928  17.926  -2.402  1.00 20.00     0.007 A 
HETATM    3  C3  UNL     1     -33.890  16.526  -4.370  1.00 20.00     0.018 A 
HETATM    4  C4  UNL     1     -34.669  15.629  -2.267  1.00 20.00     0.025 A 
HETATM    5  C5  UNL     1     -34.435  16.861  -1.655  1.00 20.00    -0.061 A 
HETATM    6  C6  UNL     1     -34.396  15.462  -3.624  1.00 20.00     0.006 A 
HETATM    7  C7  UNL     1     -34.726  17.041  -0.203  1.00 20.00     0.048 C 
HETATM    8  I8  UNL     1     -34.747  13.628  -4.536  1.00 20.00    -0.045 I 
ENDROOT
TORSDOF 0
ENDMDL
MODEL 6
REMARK VINA RESULT:      -3.9      0.976      2.337
REMARK  0 active torsions:
REMARK  status: ('A' for Active; 'I' for Inactive)
ROOT
HETATM    1  C1  UNL     1     -35.038   4.858   3.281  1.00 20.00     0.002 A 
HETATM    2  C2  UNL     1     -35.189   4.868   4.667  1.00 20.00     0.007 A 
HETATM    3  C3  UNL     1     -34.096   5.690   2.676  1.00 20.00     0.018 A 
HETATM    4  C4  UNL     1     -33.457   6.544   4.843  1.00 20.00     0.025 A 
HETATM    5  C5  UNL     1     -34.399   5.712   5.449  1.00 20.00    -0.061 A 
HETATM    6  C6  UNL     1     -33.306   6.533   3.457  1.00 20.00     0.006 A 
HETATM    7  C7  UNL     1     -34.562   5.722   6.931  1.00 20.00     0.048 C 
HETATM    8  I8  UNL     1     -31.902   7.772   2.555  1.00 20.00    -0.045 I 
ENDROOT
TORSDOF 0
ENDMDL
MODEL 7
REMARK VINA RESULT:      -3.8     12.236     13.323
REMARK  0 active torsions:
REMARK  status: ('A' for Active; 'I' for Inactive)
ROOT
HETATM    1  C1  UNL     1     -33.521  16.799  -5.029  1.00 20.00     0.002 A 
HETATM    2  C2  UNL     1     -33.846  15.478  -5.333  1.00 20.00     0.007 A 
HETATM    3  C3  UNL     1     -33.712  17.285  -3.735  1.00 20.00     0.018 A 
HETATM    4  C4  UNL     1     -34.555  15.127  -3.050  1.00 20.00     0.025 A 
HETATM    5  C5  UNL     1     -34.364  14.641  -4.343  1.00 20.00    -0.061 A 
HETATM    6  C6  UNL     1     -34.230  16.449  -2.746  1.00 20.00     0.006 A 
HETATM    7  C7  UNL     1     -34.712  13.228  -4.670  1.00 20.00     0.048 C 
HETATM    8  I8  UNL     1     -34.514  17.172  -0.818  1.00 20.00    -0.045 I 
ENDROOT
TORSDOF 0
ENDMDL
MODEL 8
REMARK VINA RESULT:      -3.8     12.338     13.630
REMARK  0 active torsions:
REMARK  status: ('A' for Active; 'I' for Inactive)
ROOT
HETATM    1  C1  UNL     1     -34.671  13.349  -4.600  1.00 20.00     0.002 A 
HETATM    2  C2  UNL     1     -34.640  13.976  -5.845  1.00 20.00     0.007 A 
HETATM    3  C3  UNL     1     -34.615  14.111  -3.433  1.00 20.00     0.018 A 
HETATM    4  C4  UNL     1     -34.497  16.129  -4.756  1.00 20.00     0.025 A 
HETATM    5  C5  UNL     1     -34.553  15.367  -5.923  1.00 20.00    -0.061 A 
HETATM    6  C6  UNL     1     -34.527  15.501  -3.511  1.00 20.00     0.006 A 
HETATM    7  C7  UNL     1     -34.519  16.037  -7.255  1.00 20.00     0.048 C 
HETATM    8  I8  UNL     1     -34.445  16.636  -1.772  1.00 20.00    -0.045 I 
ENDROOT
TORSDOF 0
ENDMDL
MODEL 9
REMARK VINA RESULT:      -3.7     12.278     13.464
REMARK  0 active torsions:
REMARK  status: ('A' for Active; 'I' for Inactive)
ROOT
HETATM    1  C1  UNL     1     -34.576  13.319  -4.638  1.00 20.00     0.002 A 
HETATM    2  C2  UNL     1     -34.436  13.967  -3.412  1.00 20.00     0.007 A 
HETATM    3  C3  UNL     1     -34.768  14.063  -5.803  1.00 20.00     0.018 A 
HETATM    4  C4  UNL     1     -34.680  16.104  -4.514  1.00 20.00     0.025 A 
HETATM    5  C5  UNL     1     -34.489  15.361  -3.350  1.00 20.00    -0.061 A 
HETATM    6  C6  UNL     1     -34.820  15.455  -5.741  1.00 20.00     0.006 A 
HETATM    7  C7  UNL     1     -34.340  16.053  -2.037  1.00 20.00     0.048 C 
HETATM    8  I8  UNL     1     -35.104  16.563  -7.476  1.00 20.00    -0.045 I 
ENDROOT
TORSDOF 0
ENDMDL
