MODEL 1
REMARK VINA RESULT:      -5.4      0.000      0.000
REMARK  2 active torsions:
REMARK  status: ('A' for Active; 'I' for Inactive)
REMARK    1  A    between atoms: C6_6  and  C8_8 
REMARK    2  A    between atoms: C8_8  and  N10_10 
ROOT
HETATM    1  N9  UNL     1     -32.185   9.191   1.054  1.00 20.00     0.068 N 
HETATM    2  N10 UNL     1     -31.966   7.415   2.629  1.00 20.00    -0.111 NA
HETATM    3  N11 UNL     1     -32.085   8.338   1.805  1.00 20.00    -0.167 NA
ENDROOT
BRANCH   2   4
HETATM    4  C8  UNL     1     -32.962   6.340   2.527  1.00 20.00     0.227 C 
BRANCH   4   5
HETATM    5  C6  UNL     1     -33.599   6.035   3.840  1.00 20.00    -0.035 A 
HETATM    6  C3  UNL     1     -34.472   4.953   3.957  1.00 20.00     0.009 A 
HETATM    7  C1  UNL     1     -35.069   4.669   5.186  1.00 20.00     0.001 A 
HETATM    8  C2  UNL     1     -34.792   5.465   6.296  1.00 20.00     0.007 A 
HETATM    9  C5  UNL     1     -33.919   6.547   6.180  1.00 20.00    -0.061 A 
HETATM   10  C4  UNL     1     -33.322   6.832   4.952  1.00 20.00     0.015 A 
HETATM   11  C7  UNL     1     -33.622   7.396   7.369  1.00 20.00     0.048 C 
ENDBRANCH   4   5
ENDBRANCH   2   4
TORSDOF 2
ENDMDL
MODEL 2
REMARK VINA RESULT:      -5.0      0.706      2.053
REMARK  2 active torsions:
REMARK  status: ('A' for Active; 'I' for Inactive)
REMARK    1  A    between atoms: C6_6  and  C8_8 
REMARK    2  A    between atoms: C8_8  and  N10_10 
ROOT
HETATM    1  N9  UNL     1     -32.481   9.628   1.072  1.00 20.00     0.068 N 
HETATM    2  N10 UNL     1     -31.781   8.051   2.715  1.00 20.00    -0.111 NA
HETATM    3  N11 UNL     1     -32.151   8.869   1.856  1.00 20.00    -0.167 NA
ENDROOT
BRANCH   2   4
HETATM    4  C8  UNL     1     -32.496   6.767   2.718  1.00 20.00     0.227 C 
BRANCH   4   5
HETATM    5  C6  UNL     1     -33.128   6.476   4.038  1.00 20.00    -0.035 A 
HETATM    6  C3  UNL     1     -32.907   7.327   5.120  1.00 20.00     0.009 A 
HETATM    7  C1  UNL     1     -33.498   7.052   6.354  1.00 20.00     0.001 A 
HETATM    8  C2  UNL     1     -34.310   5.929   6.504  1.00 20.00     0.007 A 
HETATM    9  C5  UNL     1     -34.530   5.078   5.421  1.00 20.00    -0.061 A 
HETATM   10  C4  UNL     1     -33.940   5.351   4.188  1.00 20.00     0.015 A 
HETATM   11  C7  UNL     1     -35.401   3.877   5.583  1.00 20.00     0.048 C 
ENDBRANCH   4   5
ENDBRANCH   2   4
TORSDOF 2
ENDMDL
MODEL 3
REMARK VINA RESULT:      -4.6     11.745     12.413
REMARK  2 active torsions:
REMARK  status: ('A' for Active; 'I' for Inactive)
REMARK    1  A    between atoms: C6_6  and  C8_8 
REMARK    2  A    between atoms: C8_8  and  N10_10 
ROOT
HETATM    1  N9  UNL     1     -40.129  14.360  -4.689  1.00 20.00     0.068 N 
HETATM    2  N10 UNL     1     -37.921  14.329  -3.794  1.00 20.00    -0.111 NA
HETATM    3  N11 UNL     1     -39.070  14.347  -4.266  1.00 20.00    -0.167 NA
ENDROOT
BRANCH   2   4
HETATM    4  C8  UNL     1     -36.842  14.651  -4.738  1.00 20.00     0.227 C 
BRANCH   4   5
HETATM    5  C6  UNL     1     -35.618  15.152  -4.047  1.00 20.00    -0.035 A 
HETATM    6  C3  UNL     1     -34.382  15.095  -4.690  1.00 20.00     0.009 A 
HETATM    7  C1  UNL     1     -33.238  15.562  -4.042  1.00 20.00     0.001 A 
HETATM    8  C2  UNL     1     -33.331  16.086  -2.753  1.00 20.00     0.007 A 
HETATM    9  C5  UNL     1     -34.567  16.143  -2.111  1.00 20.00    -0.061 A 
HETATM   10  C4  UNL     1     -35.712  15.676  -2.757  1.00 20.00     0.015 A 
HETATM   11  C7  UNL     1     -34.665  16.707  -0.733  1.00 20.00     0.048 C 
ENDBRANCH   4   5
ENDBRANCH   2   4
TORSDOF 2
ENDMDL
MODEL 4
REMARK VINA RESULT:      -4.5     10.664     11.515
REMARK  2 active torsions:
REMARK  status: ('A' for Active; 'I' for Inactive)
REMARK    1  A    between atoms: C6_6  and  C8_8 
REMARK    2  A    between atoms: C8_8  and  N10_10 
ROOT
HETATM    1  N9  UNL     1     -41.726   0.191  -4.146  1.00 20.00     0.068 N 
HETATM    2  N10 UNL     1     -41.277   2.412  -3.407  1.00 20.00    -0.111 NA
HETATM    3  N11 UNL     1     -41.517   1.254  -3.789  1.00 20.00    -0.167 NA
ENDROOT
BRANCH   2   4
HETATM    4  C8  UNL     1     -42.305   3.025  -2.556  1.00 20.00     0.227 C 
BRANCH   4   5
HETATM    5  C6  UNL     1     -41.924   4.395  -2.107  1.00 20.00    -0.035 A 
HETATM    6  C3  UNL     1     -41.051   4.559  -1.031  1.00 20.00     0.009 A 
HETATM    7  C1  UNL     1     -40.695   5.841  -0.612  1.00 20.00     0.001 A 
HETATM    8  C2  UNL     1     -41.212   6.958  -1.268  1.00 20.00     0.007 A 
HETATM    9  C5  UNL     1     -42.084   6.794  -2.343  1.00 20.00    -0.061 A 
HETATM   10  C4  UNL     1     -42.441   5.513  -2.763  1.00 20.00     0.015 A 
HETATM   11  C7  UNL     1     -42.634   7.990  -3.046  1.00 20.00     0.048 C 
ENDBRANCH   4   5
ENDBRANCH   2   4
TORSDOF 2
ENDMDL
MODEL 5
REMARK VINA RESULT:      -4.5     11.152     12.626
REMARK  2 active torsions:
REMARK  status: ('A' for Active; 'I' for Inactive)
REMARK    1  A    between atoms: C6_6  and  C8_8 
REMARK    2  A    between atoms: C8_8  and  N10_10 
ROOT
HETATM    1  N9  UNL     1     -34.345  17.697   0.453  1.00 20.00     0.068 N 
HETATM    2  N10 UNL     1     -34.726  16.240  -1.394  1.00 20.00    -0.111 NA
HETATM    3  N11 UNL     1     -34.522  17.002  -0.433  1.00 20.00    -0.167 NA
ENDROOT
BRANCH   2   4
HETATM    4  C8  UNL     1     -33.721  16.285  -2.464  1.00 20.00     0.227 C 
BRANCH   4   5
HETATM    5  C6  UNL     1     -34.103  15.440  -3.633  1.00 20.00    -0.035 A 
HETATM    6  C3  UNL     1     -34.389  14.087  -3.451  1.00 20.00     0.009 A 
HETATM    7  C1  UNL     1     -34.745  13.298  -4.545  1.00 20.00     0.001 A 
HETATM    8  C2  UNL     1     -34.815  13.861  -5.818  1.00 20.00     0.007 A 
HETATM    9  C5  UNL     1     -34.528  15.213  -6.000  1.00 20.00    -0.061 A 
HETATM   10  C4  UNL     1     -34.173  16.004  -4.907  1.00 20.00     0.015 A 
HETATM   11  C7  UNL     1     -34.606  15.815  -7.363  1.00 20.00     0.048 C 
ENDBRANCH   4   5
ENDBRANCH   2   4
TORSDOF 2
ENDMDL
MODEL 6
REMARK VINA RESULT:      -4.4     11.373     11.966
REMARK  2 active torsions:
REMARK  status: ('A' for Active; 'I' for Inactive)
REMARK    1  A    between atoms: C6_6  and  C8_8 
REMARK    2  A    between atoms: C8_8  and  N10_10 
ROOT
HETATM    1  N9  UNL     1     -33.703  18.636   0.658  1.00 20.00     0.068 N 
HETATM    2  N10 UNL     1     -34.475  16.828  -0.689  1.00 20.00    -0.111 NA
HETATM    3  N11 UNL     1     -34.068  17.772   0.009  1.00 20.00    -0.167 NA
ENDROOT
BRANCH   2   4
HETATM    4  C8  UNL     1     -33.776  16.635  -1.966  1.00 20.00     0.227 C 
BRANCH   4   5
HETATM    5  C6  UNL     1     -34.426  15.594  -2.815  1.00 20.00    -0.035 A 
HETATM    6  C3  UNL     1     -33.653  14.599  -3.411  1.00 20.00     0.009 A 
HETATM    7  C1  UNL     1     -34.261  13.626  -4.205  1.00 20.00     0.001 A 
HETATM    8  C2  UNL     1     -35.642  13.649  -4.401  1.00 20.00     0.007 A 
HETATM    9  C5  UNL     1     -36.415  14.644  -3.804  1.00 20.00    -0.061 A 
HETATM   10  C4  UNL     1     -35.807  15.617  -3.010  1.00 20.00     0.015 A 
HETATM   11  C7  UNL     1     -37.892  14.666  -4.012  1.00 20.00     0.048 C 
ENDBRANCH   4   5
ENDBRANCH   2   4
TORSDOF 2
ENDMDL
MODEL 7
REMARK VINA RESULT:      -4.3     11.266     12.383
REMARK  2 active torsions:
REMARK  status: ('A' for Active; 'I' for Inactive)
REMARK    1  A    between atoms: C6_6  and  C8_8 
REMARK    2  A    between atoms: C8_8  and  N10_10 
ROOT
HETATM    1  N9  UNL     1     -35.307  14.239  -7.015  1.00 20.00     0.068 N 
HETATM    2  N10 UNL     1     -34.962  13.446  -4.794  1.00 20.00    -0.111 NA
HETATM    3  N11 UNL     1     -35.137  13.863  -5.952  1.00 20.00    -0.167 NA
ENDROOT
BRANCH   2   4
HETATM    4  C8  UNL     1     -33.720  13.881  -4.143  1.00 20.00     0.227 C 
BRANCH   4   5
HETATM    5  C6  UNL     1     -33.814  15.274  -3.618  1.00 20.00    -0.035 A 
HETATM    6  C3  UNL     1     -33.475  16.352  -4.434  1.00 20.00     0.009 A 
HETATM    7  C1  UNL     1     -33.563  17.654  -3.942  1.00 20.00     0.001 A 
HETATM    8  C2  UNL     1     -33.991  17.878  -2.634  1.00 20.00     0.007 A 
HETATM    9  C5  UNL     1     -34.331  16.800  -1.817  1.00 20.00    -0.061 A 
HETATM   10  C4  UNL     1     -34.243  15.497  -2.309  1.00 20.00     0.015 A 
HETATM   11  C7  UNL     1     -34.792  17.040  -0.419  1.00 20.00     0.048 C 
ENDBRANCH   4   5
ENDBRANCH   2   4
TORSDOF 2
ENDMDL
MODEL 8
REMARK VINA RESULT:      -4.2     11.548     12.643
REMARK  2 active torsions:
REMARK  status: ('A' for Active; 'I' for Inactive)
REMARK    1  A    between atoms: C6_6  and  C8_8 
REMARK    2  A    between atoms: C8_8  and  N10_10 
ROOT
HETATM    1  N9  UNL     1     -33.839  18.478   1.648  1.00 20.00     0.068 N 
HETATM    2  N10 UNL     1     -33.656  17.839  -0.640  1.00 20.00    -0.111 NA
HETATM    3  N11 UNL     1     -33.755  18.167   0.554  1.00 20.00    -0.167 NA
ENDROOT
BRANCH   2   4
HETATM    4  C8  UNL     1     -34.425  16.653  -1.038  1.00 20.00     0.227 C 
BRANCH   4   5
HETATM    5  C6  UNL     1     -34.215  16.298  -2.472  1.00 20.00    -0.035 A 
HETATM    6  C3  UNL     1     -33.743  17.259  -3.366  1.00 20.00     0.009 A 
HETATM    7  C1  UNL     1     -33.548  16.927  -4.707  1.00 20.00     0.001 A 
HETATM    8  C2  UNL     1     -33.823  15.635  -5.153  1.00 20.00     0.007 A 
HETATM    9  C5  UNL     1     -34.295  14.674  -4.258  1.00 20.00    -0.061 A 
HETATM   10  C4  UNL     1     -34.491  15.005  -2.918  1.00 20.00     0.015 A 
HETATM   11  C7  UNL     1     -34.587  13.291  -4.736  1.00 20.00     0.048 C 
ENDBRANCH   4   5
ENDBRANCH   2   4
TORSDOF 2
ENDMDL
MODEL 9
REMARK VINA RESULT:      -4.2     11.153     12.721
REMARK  2 active torsions:
REMARK  status: ('A' for Active; 'I' for Inactive)
REMARK    1  A    between atoms: C6_6  and  C8_8 
REMARK    2  A    between atoms: C8_8  and  N10_10 
ROOT
HETATM    1  N9  UNL     1     -35.174  13.968  -6.512  1.00 20.00     0.068 N 
HETATM    2  N10 UNL     1     -34.425  13.188  -4.389  1.00 20.00    -0.111 NA
HETATM    3  N11 UNL     1     -34.811  13.600  -5.495  1.00 20.00    -0.167 NA
ENDROOT
BRANCH   2   4
HETATM    4  C8  UNL     1     -33.353  13.970  -3.759  1.00 20.00     0.227 C 
BRANCH   4   5
HETATM    5  C6  UNL     1     -33.786  15.359  -3.428  1.00 20.00    -0.035 A 
HETATM    6  C3  UNL     1     -34.554  15.596  -2.288  1.00 20.00     0.009 A 
HETATM    7  C1  UNL     1     -34.959  16.895  -1.979  1.00 20.00     0.001 A 
HETATM    8  C2  UNL     1     -34.597  17.955  -2.810  1.00 20.00     0.007 A 
HETATM    9  C5  UNL     1     -33.830  17.717  -3.950  1.00 20.00    -0.061 A 
HETATM   10  C4  UNL     1     -33.424  16.419  -4.259  1.00 20.00     0.015 A 
HETATM   11  C7  UNL     1     -33.441  18.852  -4.836  1.00 20.00     0.048 C 
ENDBRANCH   4   5
ENDBRANCH   2   4
TORSDOF 2
ENDMDL
