MODEL 1
REMARK VINA RESULT:      -5.4      0.000      0.000
REMARK  4 active torsions:
REMARK  status: ('A' for Active; 'I' for Inactive)
REMARK    1  A    between atoms: C6_6  and  C7_7 
REMARK    2  A    between atoms: C7_7  and  C8_8 
REMARK    3  A    between atoms: C8_8  and  C9_9 
REMARK    4  A    between atoms: C9_9  and  S10_10 
ROOT
HETATM    1  C1  UNL     1     -35.056   5.025   6.360  1.00 20.00     0.000 A 
HETATM    2  C2  UNL     1     -35.277   4.338   5.166  1.00 20.00     0.001 A 
HETATM    3  C3  UNL     1     -34.184   6.114   6.388  1.00 20.00     0.001 A 
HETATM    4  C4  UNL     1     -34.626   4.741   3.999  1.00 20.00     0.007 A 
HETATM    5  C5  UNL     1     -33.534   6.516   5.221  1.00 20.00     0.007 A 
HETATM    6  C6  UNL     1     -33.756   5.830   4.027  1.00 20.00    -0.058 A 
ENDROOT
BRANCH   6   7
HETATM    7  C7  UNL     1     -33.060   6.261   2.780  1.00 20.00     0.039 C 
BRANCH   7   8
HETATM    8  C8  UNL     1     -32.189   7.523   2.940  1.00 20.00     0.014 C 
BRANCH   8   9
HETATM    9  C9  UNL     1     -31.838   8.162   1.597  1.00 20.00     0.071 C 
BRANCH   9  10
HETATM   10  S10 UNL     1     -32.506   9.849   1.496  1.00 20.00    -0.182 SA
HETATM   11  H22 UNL     1     -31.319  10.470   1.488  1.00 20.00     0.101 HD
ENDBRANCH   9  10
ENDBRANCH   8   9
ENDBRANCH   7   8
ENDBRANCH   6   7
TORSDOF 4
ENDMDL
MODEL 2
REMARK VINA RESULT:      -5.4      0.047      1.529
REMARK  4 active torsions:
REMARK  status: ('A' for Active; 'I' for Inactive)
REMARK    1  A    between atoms: C6_6  and  C7_7 
REMARK    2  A    between atoms: C7_7  and  C8_8 
REMARK    3  A    between atoms: C8_8  and  C9_9 
REMARK    4  A    between atoms: C9_9  and  S10_10 
ROOT
HETATM    1  C1  UNL     1     -35.082   5.035   6.394  1.00 20.00     0.000 A 
HETATM    2  C2  UNL     1     -34.218   6.129   6.421  1.00 20.00     0.001 A 
HETATM    3  C3  UNL     1     -35.285   4.335   5.204  1.00 20.00     0.001 A 
HETATM    4  C4  UNL     1     -33.555   6.523   5.259  1.00 20.00     0.007 A 
HETATM    5  C5  UNL     1     -34.622   4.728   4.042  1.00 20.00     0.007 A 
HETATM    6  C6  UNL     1     -33.757   5.822   4.070  1.00 20.00    -0.058 A 
ENDROOT
BRANCH   6   7
HETATM    7  C7  UNL     1     -33.048   6.243   2.826  1.00 20.00     0.039 C 
BRANCH   7   8
HETATM    8  C8  UNL     1     -32.178   7.505   2.985  1.00 20.00     0.014 C 
BRANCH   8   9
HETATM    9  C9  UNL     1     -31.827   8.143   1.641  1.00 20.00     0.071 C 
BRANCH   9  10
HETATM   10  S10 UNL     1     -32.539   9.811   1.519  1.00 20.00    -0.182 SA
HETATM   11  H22 UNL     1     -33.185   9.603   0.364  1.00 20.00     0.101 HD
ENDBRANCH   9  10
ENDBRANCH   8   9
ENDBRANCH   7   8
ENDBRANCH   6   7
TORSDOF 4
ENDMDL
MODEL 3
REMARK VINA RESULT:      -4.3     11.224     11.811
REMARK  4 active torsions:
REMARK  status: ('A' for Active; 'I' for Inactive)
REMARK    1  A    between atoms: C6_6  and  C7_7 
REMARK    2  A    between atoms: C7_7  and  C8_8 
REMARK    3  A    between atoms: C8_8  and  C9_9 
REMARK    4  A    between atoms: C9_9  and  S10_10 
ROOT
HETATM    1  C1  UNL     1     -35.080  13.327  -4.533  1.00 20.00     0.000 A 
HETATM    2  C2  UNL     1     -33.740  13.512  -4.195  1.00 20.00     0.001 A 
HETATM    3  C3  UNL     1     -36.049  14.208  -4.052  1.00 20.00     0.001 A 
HETATM    4  C4  UNL     1     -33.367  14.579  -3.378  1.00 20.00     0.007 A 
HETATM    5  C5  UNL     1     -35.677  15.275  -3.235  1.00 20.00     0.007 A 
HETATM    6  C6  UNL     1     -34.336  15.461  -2.898  1.00 20.00    -0.058 A 
ENDROOT
BRANCH   6   7
HETATM    7  C7  UNL     1     -33.939  16.601  -2.023  1.00 20.00     0.039 C 
BRANCH   7   8
HETATM    8  C8  UNL     1     -34.685  16.662  -0.676  1.00 20.00     0.014 C 
BRANCH   8   9
HETATM    9  C9  UNL     1     -34.252  17.853   0.178  1.00 20.00     0.071 C 
BRANCH   9  10
HETATM   10  S10 UNL     1     -35.250  17.951   1.693  1.00 20.00    -0.182 SA
HETATM   11  H22 UNL     1     -35.163  19.280   1.832  1.00 20.00     0.101 HD
ENDBRANCH   9  10
ENDBRANCH   8   9
ENDBRANCH   7   8
ENDBRANCH   6   7
TORSDOF 4
ENDMDL
MODEL 4
REMARK VINA RESULT:      -4.3     11.299     11.885
REMARK  4 active torsions:
REMARK  status: ('A' for Active; 'I' for Inactive)
REMARK    1  A    between atoms: C6_6  and  C7_7 
REMARK    2  A    between atoms: C7_7  and  C8_8 
REMARK    3  A    between atoms: C8_8  and  C9_9 
REMARK    4  A    between atoms: C9_9  and  S10_10 
ROOT
HETATM    1  C1  UNL     1     -35.044  13.395  -4.445  1.00 20.00     0.000 A 
HETATM    2  C2  UNL     1     -36.031  14.254  -3.962  1.00 20.00     0.001 A 
HETATM    3  C3  UNL     1     -33.704  13.625  -4.130  1.00 20.00     0.001 A 
HETATM    4  C4  UNL     1     -35.679  15.342  -3.163  1.00 20.00     0.007 A 
HETATM    5  C5  UNL     1     -33.352  14.713  -3.332  1.00 20.00     0.007 A 
HETATM    6  C6  UNL     1     -34.340  15.571  -2.848  1.00 20.00    -0.058 A 
ENDROOT
BRANCH   6   7
HETATM    7  C7  UNL     1     -33.962  16.735  -1.995  1.00 20.00     0.039 C 
BRANCH   7   8
HETATM    8  C8  UNL     1     -34.636  16.754  -0.609  1.00 20.00     0.014 C 
BRANCH   8   9
HETATM    9  C9  UNL     1     -34.387  18.061   0.143  1.00 20.00     0.071 C 
BRANCH   9  10
HETATM   10  S10 UNL     1     -32.853  18.848  -0.432  1.00 20.00    -0.182 SA
HETATM   11  H22 UNL     1     -32.057  18.298   0.494  1.00 20.00     0.101 HD
ENDBRANCH   9  10
ENDBRANCH   8   9
ENDBRANCH   7   8
ENDBRANCH   6   7
TORSDOF 4
ENDMDL
MODEL 5
REMARK VINA RESULT:      -4.2     11.330     12.127
REMARK  4 active torsions:
REMARK  status: ('A' for Active; 'I' for Inactive)
REMARK    1  A    between atoms: C6_6  and  C7_7 
REMARK    2  A    between atoms: C7_7  and  C8_8 
REMARK    3  A    between atoms: C8_8  and  C9_9 
REMARK    4  A    between atoms: C9_9  and  S10_10 
ROOT
HETATM    1  C1  UNL     1     -34.098  18.456   1.462  1.00 20.00     0.000 A 
HETATM    2  C2  UNL     1     -33.035  18.833   0.643  1.00 20.00     0.001 A 
HETATM    3  C3  UNL     1     -35.030  17.522   1.010  1.00 20.00     0.001 A 
HETATM    4  C4  UNL     1     -32.902  18.276  -0.629  1.00 20.00     0.007 A 
HETATM    5  C5  UNL     1     -34.897  16.964  -0.262  1.00 20.00     0.007 A 
HETATM    6  C6  UNL     1     -33.833  17.341  -1.081  1.00 20.00    -0.058 A 
ENDROOT
BRANCH   6   7
HETATM    7  C7  UNL     1     -33.692  16.744  -2.440  1.00 20.00     0.039 C 
BRANCH   7   8
HETATM    8  C8  UNL     1     -34.507  15.454  -2.658  1.00 20.00     0.014 C 
BRANCH   8   9
HETATM    9  C9  UNL     1     -33.818  14.484  -3.617  1.00 20.00     0.071 C 
BRANCH   9  10
HETATM   10  S10 UNL     1     -35.041  13.424  -4.444  1.00 20.00    -0.182 SA
HETATM   11  H22 UNL     1     -34.866  12.361  -3.648  1.00 20.00     0.101 HD
ENDBRANCH   9  10
ENDBRANCH   8   9
ENDBRANCH   7   8
ENDBRANCH   6   7
TORSDOF 4
ENDMDL
MODEL 6
REMARK VINA RESULT:      -4.2     11.318     12.061
REMARK  4 active torsions:
REMARK  status: ('A' for Active; 'I' for Inactive)
REMARK    1  A    between atoms: C6_6  and  C7_7 
REMARK    2  A    between atoms: C7_7  and  C8_8 
REMARK    3  A    between atoms: C8_8  and  C9_9 
REMARK    4  A    between atoms: C9_9  and  S10_10 
ROOT
HETATM    1  C1  UNL     1     -34.060  18.455   1.452  1.00 20.00     0.000 A 
HETATM    2  C2  UNL     1     -35.007  17.535   1.006  1.00 20.00     0.001 A 
HETATM    3  C3  UNL     1     -32.994  18.817   0.626  1.00 20.00     0.001 A 
HETATM    4  C4  UNL     1     -34.892  16.976  -0.267  1.00 20.00     0.007 A 
HETATM    5  C5  UNL     1     -32.879  18.257  -0.646  1.00 20.00     0.007 A 
HETATM    6  C6  UNL     1     -33.828  17.338  -1.093  1.00 20.00    -0.058 A 
ENDROOT
BRANCH   6   7
HETATM    7  C7  UNL     1     -33.703  16.740  -2.454  1.00 20.00     0.039 C 
BRANCH   7   8
HETATM    8  C8  UNL     1     -34.501  15.437  -2.653  1.00 20.00     0.014 C 
BRANCH   8   9
HETATM    9  C9  UNL     1     -33.799  14.462  -3.598  1.00 20.00     0.071 C 
BRANCH   9  10
HETATM   10  S10 UNL     1     -35.014  13.442  -4.484  1.00 20.00    -0.182 SA
HETATM   11  H22 UNL     1     -35.498  14.431  -5.248  1.00 20.00     0.101 HD
ENDBRANCH   9  10
ENDBRANCH   8   9
ENDBRANCH   7   8
ENDBRANCH   6   7
TORSDOF 4
ENDMDL
MODEL 7
REMARK VINA RESULT:      -4.1     11.218     12.398
REMARK  4 active torsions:
REMARK  status: ('A' for Active; 'I' for Inactive)
REMARK    1  A    between atoms: C6_6  and  C7_7 
REMARK    2  A    between atoms: C7_7  and  C8_8 
REMARK    3  A    between atoms: C8_8  and  C9_9 
REMARK    4  A    between atoms: C9_9  and  S10_10 
ROOT
HETATM    1  C1  UNL     1     -34.827  13.816  -5.858  1.00 20.00     0.000 A 
HETATM    2  C2  UNL     1     -34.868  13.292  -4.567  1.00 20.00     0.001 A 
HETATM    3  C3  UNL     1     -34.414  15.133  -6.064  1.00 20.00     0.001 A 
HETATM    4  C4  UNL     1     -34.495  14.083  -3.480  1.00 20.00     0.007 A 
HETATM    5  C5  UNL     1     -34.041  15.924  -4.978  1.00 20.00     0.007 A 
HETATM    6  C6  UNL     1     -34.080  15.399  -3.686  1.00 20.00    -0.058 A 
ENDROOT
BRANCH   6   7
HETATM    7  C7  UNL     1     -33.681  16.245  -2.525  1.00 20.00     0.039 C 
BRANCH   7   8
HETATM    8  C8  UNL     1     -34.736  16.327  -1.404  1.00 20.00     0.014 C 
BRANCH   8   9
HETATM    9  C9  UNL     1     -34.376  17.364  -0.340  1.00 20.00     0.071 C 
BRANCH   9  10
HETATM   10  S10 UNL     1     -33.389  18.708  -1.062  1.00 20.00    -0.182 SA
HETATM   11  H22 UNL     1     -34.181  18.908  -2.124  1.00 20.00     0.101 HD
ENDBRANCH   9  10
ENDBRANCH   8   9
ENDBRANCH   7   8
ENDBRANCH   6   7
TORSDOF 4
ENDMDL
MODEL 8
REMARK VINA RESULT:      -4.1     10.306     11.324
REMARK  4 active torsions:
REMARK  status: ('A' for Active; 'I' for Inactive)
REMARK    1  A    between atoms: C6_6  and  C7_7 
REMARK    2  A    between atoms: C7_7  and  C8_8 
REMARK    3  A    between atoms: C8_8  and  C9_9 
REMARK    4  A    between atoms: C9_9  and  S10_10 
ROOT
HETATM    1  C1  UNL     1     -41.075   7.054  -0.893  1.00 20.00     0.000 A 
HETATM    2  C2  UNL     1     -41.970   7.225  -1.948  1.00 20.00     0.001 A 
HETATM    3  C3  UNL     1     -40.658   5.772  -0.533  1.00 20.00     0.001 A 
HETATM    4  C4  UNL     1     -42.450   6.115  -2.644  1.00 20.00     0.007 A 
HETATM    5  C5  UNL     1     -41.137   4.662  -1.228  1.00 20.00     0.007 A 
HETATM    6  C6  UNL     1     -42.032   4.834  -2.284  1.00 20.00    -0.058 A 
ENDROOT
BRANCH   6   7
HETATM    7  C7  UNL     1     -42.544   3.646  -3.027  1.00 20.00     0.039 C 
BRANCH   7   8
HETATM    8  C8  UNL     1     -41.536   2.488  -3.150  1.00 20.00     0.014 C 
BRANCH   8   9
HETATM    9  C9  UNL     1     -41.812   1.601  -4.364  1.00 20.00     0.071 C 
BRANCH   9  10
HETATM   10  S10 UNL     1     -41.961  -0.140  -3.864  1.00 20.00    -0.182 SA
HETATM   11  H22 UNL     1     -43.092   0.012  -3.163  1.00 20.00     0.101 HD
ENDBRANCH   9  10
ENDBRANCH   8   9
ENDBRANCH   7   8
ENDBRANCH   6   7
TORSDOF 4
ENDMDL
MODEL 9
REMARK VINA RESULT:      -4.1     11.180     12.355
REMARK  4 active torsions:
REMARK  status: ('A' for Active; 'I' for Inactive)
REMARK    1  A    between atoms: C6_6  and  C7_7 
REMARK    2  A    between atoms: C7_7  and  C8_8 
REMARK    3  A    between atoms: C8_8  and  C9_9 
REMARK    4  A    between atoms: C9_9  and  S10_10 
ROOT
HETATM    1  C1  UNL     1     -34.896  13.721  -5.597  1.00 20.00     0.000 A 
HETATM    2  C2  UNL     1     -34.449  14.984  -5.986  1.00 20.00     0.001 A 
HETATM    3  C3  UNL     1     -34.973  13.395  -4.243  1.00 20.00     0.001 A 
HETATM    4  C4  UNL     1     -34.080  15.921  -5.022  1.00 20.00     0.007 A 
HETATM    5  C5  UNL     1     -34.605  14.333  -3.278  1.00 20.00     0.007 A 
HETATM    6  C6  UNL     1     -34.159  15.596  -3.668  1.00 20.00    -0.058 A 
ENDROOT
BRANCH   6   7
HETATM    7  C7  UNL     1     -33.764  16.597  -2.636  1.00 20.00     0.039 C 
BRANCH   7   8
HETATM    8  C8  UNL     1     -34.533  16.479  -1.305  1.00 20.00     0.014 C 
BRANCH   8   9
HETATM    9  C9  UNL     1     -34.095  17.526  -0.283  1.00 20.00     0.071 C 
BRANCH   9  10
HETATM   10  S10 UNL     1     -35.350  17.717   1.018  1.00 20.00    -0.182 SA
HETATM   11  H22 UNL     1     -35.451  19.049   0.922  1.00 20.00     0.101 HD
ENDBRANCH   9  10
ENDBRANCH   8   9
ENDBRANCH   7   8
ENDBRANCH   6   7
TORSDOF 4
ENDMDL
