MODEL 1
REMARK VINA RESULT:      -5.8      0.000      0.000
REMARK  4 active torsions:
REMARK  status: ('A' for Active; 'I' for Inactive)
REMARK    1  A    between atoms: C6_6  and  C7_7 
REMARK    2  A    between atoms: C7_7  and  C8_8 
REMARK    3  A    between atoms: C8_8  and  C9_9 
REMARK    4  A    between atoms: C9_9  and  O10_10 
ROOT
HETATM    1  C1  UNL     1     -35.006   5.137   6.330  1.00 20.00     0.000 A 
HETATM    2  C2  UNL     1     -35.245   4.458   5.134  1.00 20.00     0.001 A 
HETATM    3  C3  UNL     1     -34.112   6.208   6.356  1.00 20.00     0.001 A 
HETATM    4  C4  UNL     1     -34.591   4.850   3.967  1.00 20.00     0.007 A 
HETATM    5  C5  UNL     1     -33.458   6.600   5.188  1.00 20.00     0.007 A 
HETATM    6  C6  UNL     1     -33.697   5.921   3.994  1.00 20.00    -0.058 A 
ENDROOT
BRANCH   6   7
HETATM    7  C7  UNL     1     -32.997   6.340   2.745  1.00 20.00     0.041 C 
BRANCH   7   8
HETATM    8  C8  UNL     1     -32.131   7.589   2.959  1.00 20.00     0.030 C 
BRANCH   8   9
HETATM    9  C9  UNL     1     -31.929   8.375   1.671  1.00 20.00     0.164 C 
BRANCH   9  10
HETATM   10  O10 UNL     1     -32.569   9.637   1.797  1.00 20.00    -0.401 OA
HETATM   11  H22 UNL     1     -32.344  10.147   1.002  1.00 20.00     0.209 HD
ENDBRANCH   9  10
ENDBRANCH   8   9
ENDBRANCH   7   8
ENDBRANCH   6   7
TORSDOF 4
ENDMDL
MODEL 2
REMARK VINA RESULT:      -5.8      0.033      1.528
REMARK  4 active torsions:
REMARK  status: ('A' for Active; 'I' for Inactive)
REMARK    1  A    between atoms: C6_6  and  C7_7 
REMARK    2  A    between atoms: C7_7  and  C8_8 
REMARK    3  A    between atoms: C8_8  and  C9_9 
REMARK    4  A    between atoms: C9_9  and  O10_10 
ROOT
HETATM    1  C1  UNL     1     -35.006   5.118   6.341  1.00 20.00     0.000 A 
HETATM    2  C2  UNL     1     -34.126   6.201   6.357  1.00 20.00     0.001 A 
HETATM    3  C3  UNL     1     -35.247   4.433   5.150  1.00 20.00     0.001 A 
HETATM    4  C4  UNL     1     -33.490   6.599   5.181  1.00 20.00     0.007 A 
HETATM    5  C5  UNL     1     -34.610   4.831   3.975  1.00 20.00     0.007 A 
HETATM    6  C6  UNL     1     -33.732   5.914   3.990  1.00 20.00    -0.058 A 
ENDROOT
BRANCH   6   7
HETATM    7  C7  UNL     1     -33.051   6.340   2.733  1.00 20.00     0.041 C 
BRANCH   7   8
HETATM    8  C8  UNL     1     -32.160   7.571   2.948  1.00 20.00     0.030 C 
BRANCH   8   9
HETATM    9  C9  UNL     1     -31.939   8.351   1.660  1.00 20.00     0.164 C 
BRANCH   9  10
HETATM   10  O10 UNL     1     -32.537   9.633   1.790  1.00 20.00    -0.401 OA
HETATM   11  H22 UNL     1     -32.993   9.645   2.647  1.00 20.00     0.209 HD
ENDBRANCH   9  10
ENDBRANCH   8   9
ENDBRANCH   7   8
ENDBRANCH   6   7
TORSDOF 4
ENDMDL
MODEL 3
REMARK VINA RESULT:      -4.5     10.968     11.924
REMARK  4 active torsions:
REMARK  status: ('A' for Active; 'I' for Inactive)
REMARK    1  A    between atoms: C6_6  and  C7_7 
REMARK    2  A    between atoms: C7_7  and  C8_8 
REMARK    3  A    between atoms: C8_8  and  C9_9 
REMARK    4  A    between atoms: C9_9  and  O10_10 
ROOT
HETATM    1  C1  UNL     1     -34.144  18.281   0.845  1.00 20.00     0.000 A 
HETATM    2  C2  UNL     1     -33.107  18.638  -0.018  1.00 20.00     0.001 A 
HETATM    3  C3  UNL     1     -35.020  17.254   0.494  1.00 20.00     0.001 A 
HETATM    4  C4  UNL     1     -32.948  17.968  -1.231  1.00 20.00     0.007 A 
HETATM    5  C5  UNL     1     -34.861  16.585  -0.719  1.00 20.00     0.007 A 
HETATM    6  C6  UNL     1     -33.826  16.941  -1.582  1.00 20.00    -0.058 A 
ENDROOT
BRANCH   6   7
HETATM    7  C7  UNL     1     -33.655  16.226  -2.879  1.00 20.00     0.041 C 
BRANCH   7   8
HETATM    8  C8  UNL     1     -34.596  15.020  -3.002  1.00 20.00     0.030 C 
BRANCH   8   9
HETATM    9  C9  UNL     1     -33.956  13.867  -3.762  1.00 20.00     0.164 C 
BRANCH   9  10
HETATM   10  O10 UNL     1     -34.897  12.808  -3.868  1.00 20.00    -0.401 OA
HETATM   11  H22 UNL     1     -34.571  12.085  -3.307  1.00 20.00     0.209 HD
ENDBRANCH   9  10
ENDBRANCH   8   9
ENDBRANCH   7   8
ENDBRANCH   6   7
TORSDOF 4
ENDMDL
MODEL 4
REMARK VINA RESULT:      -4.5     11.182     12.284
REMARK  4 active torsions:
REMARK  status: ('A' for Active; 'I' for Inactive)
REMARK    1  A    between atoms: C6_6  and  C7_7 
REMARK    2  A    between atoms: C7_7  and  C8_8 
REMARK    3  A    between atoms: C8_8  and  C9_9 
REMARK    4  A    between atoms: C9_9  and  O10_10 
ROOT
HETATM    1  C1  UNL     1     -33.564  18.796  -0.846  1.00 20.00     0.000 A 
HETATM    2  C2  UNL     1     -34.115  17.735  -0.126  1.00 20.00     0.001 A 
HETATM    3  C3  UNL     1     -33.477  18.725  -2.236  1.00 20.00     0.001 A 
HETATM    4  C4  UNL     1     -34.578  16.604  -0.798  1.00 20.00     0.007 A 
HETATM    5  C5  UNL     1     -33.941  17.594  -2.907  1.00 20.00     0.007 A 
HETATM    6  C6  UNL     1     -34.491  16.534  -2.189  1.00 20.00    -0.058 A 
ENDROOT
BRANCH   6   7
HETATM    7  C7  UNL     1     -34.987  15.323  -2.906  1.00 20.00     0.041 C 
BRANCH   7   8
HETATM    8  C8  UNL     1     -33.840  14.482  -3.481  1.00 20.00     0.030 C 
BRANCH   8   9
HETATM    9  C9  UNL     1     -34.278  13.656  -4.682  1.00 20.00     0.164 C 
BRANCH   9  10
HETATM   10  O10 UNL     1     -35.093  12.585  -4.230  1.00 20.00    -0.401 OA
HETATM   11  H22 UNL     1     -35.256  12.734  -3.285  1.00 20.00     0.209 HD
ENDBRANCH   9  10
ENDBRANCH   8   9
ENDBRANCH   7   8
ENDBRANCH   6   7
TORSDOF 4
ENDMDL
MODEL 5
REMARK VINA RESULT:      -4.4     11.195     12.284
REMARK  4 active torsions:
REMARK  status: ('A' for Active; 'I' for Inactive)
REMARK    1  A    between atoms: C6_6  and  C7_7 
REMARK    2  A    between atoms: C7_7  and  C8_8 
REMARK    3  A    between atoms: C8_8  and  C9_9 
REMARK    4  A    between atoms: C9_9  and  O10_10 
ROOT
HETATM    1  C1  UNL     1     -34.563  18.123  -0.855  1.00 20.00     0.000 A 
HETATM    2  C2  UNL     1     -34.036  18.696  -2.013  1.00 20.00     0.001 A 
HETATM    3  C3  UNL     1     -34.756  16.743  -0.786  1.00 20.00     0.001 A 
HETATM    4  C4  UNL     1     -33.701  17.888  -3.100  1.00 20.00     0.007 A 
HETATM    5  C5  UNL     1     -34.421  15.936  -1.872  1.00 20.00     0.007 A 
HETATM    6  C6  UNL     1     -33.894  16.508  -3.029  1.00 20.00    -0.058 A 
ENDROOT
BRANCH   6   7
HETATM    7  C7  UNL     1     -33.537  15.645  -4.192  1.00 20.00     0.041 C 
BRANCH   7   8
HETATM    8  C8  UNL     1     -33.584  14.152  -3.840  1.00 20.00     0.030 C 
BRANCH   8   9
HETATM    9  C9  UNL     1     -34.434  13.356  -4.820  1.00 20.00     0.164 C 
BRANCH   9  10
HETATM   10  O10 UNL     1     -35.369  12.576  -4.089  1.00 20.00    -0.401 OA
HETATM   11  H22 UNL     1     -35.189  11.646  -4.304  1.00 20.00     0.209 HD
ENDBRANCH   9  10
ENDBRANCH   8   9
ENDBRANCH   7   8
ENDBRANCH   6   7
TORSDOF 4
ENDMDL
MODEL 6
REMARK VINA RESULT:      -4.4     11.655     12.277
REMARK  4 active torsions:
REMARK  status: ('A' for Active; 'I' for Inactive)
REMARK    1  A    between atoms: C6_6  and  C7_7 
REMARK    2  A    between atoms: C7_7  and  C8_8 
REMARK    3  A    between atoms: C8_8  and  C9_9 
REMARK    4  A    between atoms: C9_9  and  O10_10 
ROOT
HETATM    1  C1  UNL     1     -33.384  18.828   1.261  1.00 20.00     0.000 A 
HETATM    2  C2  UNL     1     -34.561  18.098   1.434  1.00 20.00     0.001 A 
HETATM    3  C3  UNL     1     -32.668  18.724   0.068  1.00 20.00     0.001 A 
HETATM    4  C4  UNL     1     -35.021  17.266   0.414  1.00 20.00     0.007 A 
HETATM    5  C5  UNL     1     -33.128  17.891  -0.951  1.00 20.00     0.007 A 
HETATM    6  C6  UNL     1     -34.304  17.162  -0.779  1.00 20.00    -0.058 A 
ENDROOT
BRANCH   6   7
HETATM    7  C7  UNL     1     -34.795  16.271  -1.869  1.00 20.00     0.041 C 
BRANCH   7   8
HETATM    8  C8  UNL     1     -33.656  15.776  -2.770  1.00 20.00     0.030 C 
BRANCH   8   9
HETATM    9  C9  UNL     1     -33.810  16.254  -4.207  1.00 20.00     0.164 C 
BRANCH   9  10
HETATM   10  O10 UNL     1     -32.588  16.038  -4.897  1.00 20.00    -0.401 OA
HETATM   11  H22 UNL     1     -32.655  15.167  -5.322  1.00 20.00     0.209 HD
ENDBRANCH   9  10
ENDBRANCH   8   9
ENDBRANCH   7   8
ENDBRANCH   6   7
TORSDOF 4
ENDMDL
MODEL 7
REMARK VINA RESULT:      -4.4     11.289     11.863
REMARK  4 active torsions:
REMARK  status: ('A' for Active; 'I' for Inactive)
REMARK    1  A    between atoms: C6_6  and  C7_7 
REMARK    2  A    between atoms: C7_7  and  C8_8 
REMARK    3  A    between atoms: C8_8  and  C9_9 
REMARK    4  A    between atoms: C9_9  and  O10_10 
ROOT
HETATM    1  C1  UNL     1     -35.172  13.428  -4.470  1.00 20.00     0.000 A 
HETATM    2  C2  UNL     1     -36.113  14.301  -3.923  1.00 20.00     0.001 A 
HETATM    3  C3  UNL     1     -33.814  13.620  -4.217  1.00 20.00     0.001 A 
HETATM    4  C4  UNL     1     -35.695  15.366  -3.125  1.00 20.00     0.007 A 
HETATM    5  C5  UNL     1     -33.396  14.684  -3.419  1.00 20.00     0.007 A 
HETATM    6  C6  UNL     1     -34.336  15.558  -2.873  1.00 20.00    -0.058 A 
ENDROOT
BRANCH   6   7
HETATM    7  C7  UNL     1     -33.889  16.697  -2.020  1.00 20.00     0.041 C 
BRANCH   7   8
HETATM    8  C8  UNL     1     -34.618  16.729  -0.671  1.00 20.00     0.030 C 
BRANCH   8   9
HETATM    9  C9  UNL     1     -35.383  18.028  -0.462  1.00 20.00     0.164 C 
BRANCH   9  10
HETATM   10  O10 UNL     1     -36.766  17.788  -0.679  1.00 20.00    -0.401 OA
HETATM   11  H22 UNL     1     -37.189  17.769   0.195  1.00 20.00     0.209 HD
ENDBRANCH   9  10
ENDBRANCH   8   9
ENDBRANCH   7   8
ENDBRANCH   6   7
TORSDOF 4
ENDMDL
MODEL 8
REMARK VINA RESULT:      -4.3     10.149     11.222
REMARK  4 active torsions:
REMARK  status: ('A' for Active; 'I' for Inactive)
REMARK    1  A    between atoms: C6_6  and  C7_7 
REMARK    2  A    between atoms: C7_7  and  C8_8 
REMARK    3  A    between atoms: C8_8  and  C9_9 
REMARK    4  A    between atoms: C9_9  and  O10_10 
ROOT
HETATM    1  C1  UNL     1     -41.070   7.036  -1.020  1.00 20.00     0.000 A 
HETATM    2  C2  UNL     1     -41.929   6.990  -2.118  1.00 20.00     0.001 A 
HETATM    3  C3  UNL     1     -40.643   5.852  -0.419  1.00 20.00     0.001 A 
HETATM    4  C4  UNL     1     -42.362   5.760  -2.614  1.00 20.00     0.007 A 
HETATM    5  C5  UNL     1     -41.075   4.623  -0.914  1.00 20.00     0.007 A 
HETATM    6  C6  UNL     1     -41.934   4.576  -2.011  1.00 20.00    -0.058 A 
ENDROOT
BRANCH   6   7
HETATM    7  C7  UNL     1     -42.397   3.261  -2.541  1.00 20.00     0.041 C 
BRANCH   7   8
HETATM    8  C8  UNL     1     -41.285   2.516  -3.291  1.00 20.00     0.030 C 
BRANCH   8   9
HETATM    9  C9  UNL     1     -41.807   1.283  -4.016  1.00 20.00     0.164 C 
BRANCH   9  10
HETATM   10  O10 UNL     1     -42.322   1.677  -5.280  1.00 20.00    -0.401 OA
HETATM   11  H22 UNL     1     -43.030   2.318  -5.108  1.00 20.00     0.209 HD
ENDBRANCH   9  10
ENDBRANCH   8   9
ENDBRANCH   7   8
ENDBRANCH   6   7
TORSDOF 4
ENDMDL
MODEL 9
REMARK VINA RESULT:      -4.2     11.155     12.314
REMARK  4 active torsions:
REMARK  status: ('A' for Active; 'I' for Inactive)
REMARK    1  A    between atoms: C6_6  and  C7_7 
REMARK    2  A    between atoms: C7_7  and  C8_8 
REMARK    3  A    between atoms: C8_8  and  C9_9 
REMARK    4  A    between atoms: C9_9  and  O10_10 
ROOT
HETATM    1  C1  UNL     1     -34.849  13.946  -6.015  1.00 20.00     0.000 A 
HETATM    2  C2  UNL     1     -34.923  13.372  -4.745  1.00 20.00     0.001 A 
HETATM    3  C3  UNL     1     -34.379  15.251  -6.164  1.00 20.00     0.001 A 
HETATM    4  C4  UNL     1     -34.526  14.104  -3.626  1.00 20.00     0.007 A 
HETATM    5  C5  UNL     1     -33.982  15.982  -5.045  1.00 20.00     0.007 A 
HETATM    6  C6  UNL     1     -34.056  15.409  -3.776  1.00 20.00    -0.058 A 
ENDROOT
BRANCH   6   7
HETATM    7  C7  UNL     1     -33.633  16.191  -2.579  1.00 20.00     0.041 C 
BRANCH   7   8
HETATM    8  C8  UNL     1     -34.746  16.285  -1.527  1.00 20.00     0.030 C 
BRANCH   8   9
HETATM    9  C9  UNL     1     -34.408  17.272  -0.419  1.00 20.00     0.164 C 
BRANCH   9  10
HETATM   10  O10 UNL     1     -35.368  17.144   0.620  1.00 20.00    -0.401 OA
HETATM   11  H22 UNL     1     -35.746  16.253   0.546  1.00 20.00     0.209 HD
ENDBRANCH   9  10
ENDBRANCH   8   9
ENDBRANCH   7   8
ENDBRANCH   6   7
TORSDOF 4
ENDMDL
