MODEL 1
REMARK VINA RESULT:      -4.4      0.000      0.000
REMARK  2 active torsions:
REMARK  status: ('A' for Active; 'I' for Inactive)
REMARK    1  A    between atoms: C5_5  and  N8_8 
REMARK    2  A    between atoms: C6_6  and  S11_11 
ROOT
HETATM    1  C1  UNL     1     -33.466  15.776  -4.158  1.00 20.00     0.037 A 
HETATM    2  C2  UNL     1     -34.484  14.910  -6.171  1.00 20.00     0.037 A 
HETATM    3  C3  UNL     1     -33.458  17.055  -4.712  1.00 20.00     0.021 A 
HETATM    4  C4  UNL     1     -34.478  16.190  -6.725  1.00 20.00     0.021 A 
HETATM    5  C5  UNL     1     -33.978  14.703  -4.888  1.00 20.00     0.102 A 
HETATM    6  C6  UNL     1     -33.964  17.263  -5.997  1.00 20.00    -0.000 A 
ENDROOT
BRANCH   5   7
HETATM    7  N8  UNL     1     -33.985  13.400  -4.323  1.00 20.00    -0.116 N 
HETATM    8  O9  UNL     1     -35.023  12.702  -4.416  1.00 20.00    -0.532 OA
HETATM    9  O10 UNL     1     -32.953  12.983  -3.744  1.00 20.00    -0.532 OA
ENDBRANCH   5   7
BRANCH   6  10
HETATM   10  S11 UNL     1     -33.955  18.898  -6.704  1.00 20.00    -0.134 SA
HETATM   11  C7  UNL     1     -35.605  18.918  -7.439  1.00 20.00     0.095 C 
ENDBRANCH   6  10
TORSDOF 2
ENDMDL
MODEL 2
REMARK VINA RESULT:      -4.3      2.422      3.493
REMARK  2 active torsions:
REMARK  status: ('A' for Active; 'I' for Inactive)
REMARK    1  A    between atoms: C5_5  and  N8_8 
REMARK    2  A    between atoms: C6_6  and  S11_11 
ROOT
HETATM    1  C1  UNL     1     -33.913  16.057  -5.054  1.00 20.00     0.037 A 
HETATM    2  C2  UNL     1     -34.765  14.888  -3.119  1.00 20.00     0.037 A 
HETATM    3  C3  UNL     1     -33.637  17.169  -4.261  1.00 20.00     0.021 A 
HETATM    4  C4  UNL     1     -34.488  16.000  -2.324  1.00 20.00     0.021 A 
HETATM    5  C5  UNL     1     -34.478  14.915  -4.483  1.00 20.00     0.102 A 
HETATM    6  C6  UNL     1     -33.924  17.141  -2.895  1.00 20.00    -0.000 A 
ENDROOT
BRANCH   5   7
HETATM    7  N8  UNL     1     -34.759  13.783  -5.292  1.00 20.00    -0.116 N 
HETATM    8  O9  UNL     1     -34.693  12.639  -4.782  1.00 20.00    -0.532 OA
HETATM    9  O10 UNL     1     -35.066  13.957  -6.497  1.00 20.00    -0.532 OA
ENDBRANCH   5   7
BRANCH   6  10
HETATM   10  S11 UNL     1     -33.571  18.563  -1.882  1.00 20.00    -0.134 SA
HETATM   11  C7  UNL     1     -33.929  17.869  -0.252  1.00 20.00     0.095 C 
ENDBRANCH   6  10
TORSDOF 2
ENDMDL
MODEL 3
REMARK VINA RESULT:      -4.3      2.991      3.602
REMARK  2 active torsions:
REMARK  status: ('A' for Active; 'I' for Inactive)
REMARK    1  A    between atoms: C5_5  and  N8_8 
REMARK    2  A    between atoms: C6_6  and  S11_11 
ROOT
HETATM    1  C1  UNL     1     -33.739  15.499  -2.942  1.00 20.00     0.037 A 
HETATM    2  C2  UNL     1     -35.966  14.851  -3.622  1.00 20.00     0.037 A 
HETATM    3  C3  UNL     1     -34.242  16.698  -2.440  1.00 20.00     0.021 A 
HETATM    4  C4  UNL     1     -36.469  16.050  -3.119  1.00 20.00     0.021 A 
HETATM    5  C5  UNL     1     -34.601  14.575  -3.535  1.00 20.00     0.102 A 
HETATM    6  C6  UNL     1     -35.607  16.975  -2.528  1.00 20.00    -0.000 A 
ENDROOT
BRANCH   5   7
HETATM    7  N8  UNL     1     -34.089  13.354  -4.046  1.00 20.00    -0.116 N 
HETATM    8  O9  UNL     1     -32.914  13.019  -3.760  1.00 20.00    -0.532 OA
HETATM    9  O10 UNL     1     -34.825  12.642  -4.772  1.00 20.00    -0.532 OA
ENDBRANCH   5   7
BRANCH   6  10
HETATM   10  S11 UNL     1     -36.248  18.507  -1.886  1.00 20.00    -0.134 SA
HETATM   11  C7  UNL     1     -35.954  18.242  -0.122  1.00 20.00     0.095 C 
ENDBRANCH   6  10
TORSDOF 2
ENDMDL
MODEL 4
REMARK VINA RESULT:      -4.3      3.019      3.841
REMARK  2 active torsions:
REMARK  status: ('A' for Active; 'I' for Inactive)
REMARK    1  A    between atoms: C5_5  and  N8_8 
REMARK    2  A    between atoms: C6_6  and  S11_11 
ROOT
HETATM    1  C1  UNL     1     -35.988  14.846  -3.610  1.00 20.00     0.037 A 
HETATM    2  C2  UNL     1     -33.771  15.500  -2.903  1.00 20.00     0.037 A 
HETATM    3  C3  UNL     1     -36.501  16.039  -3.102  1.00 20.00     0.021 A 
HETATM    4  C4  UNL     1     -34.285  16.693  -2.396  1.00 20.00     0.021 A 
HETATM    5  C5  UNL     1     -34.623  14.576  -3.510  1.00 20.00     0.102 A 
HETATM    6  C6  UNL     1     -35.650  16.963  -2.494  1.00 20.00    -0.000 A 
ENDROOT
BRANCH   5   7
HETATM    7  N8  UNL     1     -34.100  13.362  -4.027  1.00 20.00    -0.116 N 
HETATM    8  O9  UNL     1     -32.926  13.031  -3.737  1.00 20.00    -0.532 OA
HETATM    9  O10 UNL     1     -34.828  12.651  -4.763  1.00 20.00    -0.532 OA
ENDBRANCH   5   7
BRANCH   6  10
HETATM   10  S11 UNL     1     -36.306  18.487  -1.846  1.00 20.00    -0.134 SA
HETATM   11  C7  UNL     1     -35.990  18.227  -0.086  1.00 20.00     0.095 C 
ENDBRANCH   6  10
TORSDOF 2
ENDMDL
MODEL 5
REMARK VINA RESULT:      -4.3      2.439      3.405
REMARK  2 active torsions:
REMARK  status: ('A' for Active; 'I' for Inactive)
REMARK    1  A    between atoms: C5_5  and  N8_8 
REMARK    2  A    between atoms: C6_6  and  S11_11 
ROOT
HETATM    1  C1  UNL     1     -34.853  14.864  -3.125  1.00 20.00     0.037 A 
HETATM    2  C2  UNL     1     -33.911  16.009  -5.033  1.00 20.00     0.037 A 
HETATM    3  C3  UNL     1     -34.571  15.969  -2.323  1.00 20.00     0.021 A 
HETATM    4  C4  UNL     1     -33.630  17.115  -4.231  1.00 20.00     0.021 A 
HETATM    5  C5  UNL     1     -34.522  14.883  -4.481  1.00 20.00     0.102 A 
HETATM    6  C6  UNL     1     -33.960  17.095  -2.876  1.00 20.00    -0.000 A 
ENDROOT
BRANCH   5   7
HETATM    7  N8  UNL     1     -34.809  13.758  -5.297  1.00 20.00    -0.116 N 
HETATM    8  O9  UNL     1     -34.746  12.610  -4.795  1.00 20.00    -0.532 OA
HETATM    9  O10 UNL     1     -35.117  13.942  -6.500  1.00 20.00    -0.532 OA
ENDBRANCH   5   7
BRANCH   6  10
HETATM   10  S11 UNL     1     -33.600  18.507  -1.851  1.00 20.00    -0.134 SA
HETATM   11  C7  UNL     1     -34.010  17.815  -0.232  1.00 20.00     0.095 C 
ENDBRANCH   6  10
TORSDOF 2
ENDMDL
MODEL 6
REMARK VINA RESULT:      -4.2      2.130      2.881
REMARK  2 active torsions:
REMARK  status: ('A' for Active; 'I' for Inactive)
REMARK    1  A    between atoms: C5_5  and  N8_8 
REMARK    2  A    between atoms: C6_6  and  S11_11 
ROOT
HETATM    1  C1  UNL     1     -33.489  15.723  -4.602  1.00 20.00     0.037 A 
HETATM    2  C2  UNL     1     -34.748  15.223  -2.601  1.00 20.00     0.037 A 
HETATM    3  C3  UNL     1     -33.637  17.087  -4.354  1.00 20.00     0.021 A 
HETATM    4  C4  UNL     1     -34.895  16.587  -2.353  1.00 20.00     0.021 A 
HETATM    5  C5  UNL     1     -34.045  14.790  -3.726  1.00 20.00     0.102 A 
HETATM    6  C6  UNL     1     -34.340  17.520  -3.229  1.00 20.00    -0.000 A 
ENDROOT
BRANCH   5   7
HETATM    7  N8  UNL     1     -33.894  13.402  -3.979  1.00 20.00    -0.116 N 
HETATM    8  O9  UNL     1     -34.862  12.760  -4.453  1.00 20.00    -0.532 OA
HETATM    9  O10 UNL     1     -32.795  12.853  -3.720  1.00 20.00    -0.532 OA
ENDBRANCH   5   7
BRANCH   6  10
HETATM   10  S11 UNL     1     -34.528  19.263  -2.913  1.00 20.00    -0.134 SA
HETATM   11  C7  UNL     1     -35.755  19.198  -1.587  1.00 20.00     0.095 C 
ENDBRANCH   6  10
TORSDOF 2
ENDMDL
MODEL 7
REMARK VINA RESULT:      -4.1      3.156      3.668
REMARK  2 active torsions:
REMARK  status: ('A' for Active; 'I' for Inactive)
REMARK    1  A    between atoms: C5_5  and  N8_8 
REMARK    2  A    between atoms: C6_6  and  S11_11 
ROOT
HETATM    1  C1  UNL     1     -36.310  14.983  -3.676  1.00 20.00     0.037 A 
HETATM    2  C2  UNL     1     -34.188  15.624  -2.715  1.00 20.00     0.037 A 
HETATM    3  C3  UNL     1     -36.873  16.177  -3.228  1.00 20.00     0.021 A 
HETATM    4  C4  UNL     1     -34.751  16.819  -2.268  1.00 20.00     0.021 A 
HETATM    5  C5  UNL     1     -34.966  14.706  -3.419  1.00 20.00     0.102 A 
HETATM    6  C6  UNL     1     -36.094  17.096  -2.524  1.00 20.00    -0.000 A 
ENDROOT
BRANCH   5   7
HETATM    7  N8  UNL     1     -34.393  13.490  -3.875  1.00 20.00    -0.116 N 
HETATM    8  O9  UNL     1     -35.110  12.679  -4.509  1.00 20.00    -0.532 OA
HETATM    9  O10 UNL     1     -33.184  13.259  -3.632  1.00 20.00    -0.532 OA
ENDBRANCH   5   7
BRANCH   6  10
HETATM   10  S11 UNL     1     -36.815  18.621  -1.952  1.00 20.00    -0.134 SA
HETATM   11  C7  UNL     1     -38.549  18.121  -1.865  1.00 20.00     0.095 C 
ENDBRANCH   6  10
TORSDOF 2
ENDMDL
MODEL 8
REMARK VINA RESULT:      -3.9      4.295      5.273
REMARK  2 active torsions:
REMARK  status: ('A' for Active; 'I' for Inactive)
REMARK    1  A    between atoms: C5_5  and  N8_8 
REMARK    2  A    between atoms: C6_6  and  S11_11 
ROOT
HETATM    1  C1  UNL     1     -33.581  18.210  -2.716  1.00 20.00     0.037 A 
HETATM    2  C2  UNL     1     -34.521  16.157  -1.856  1.00 20.00     0.037 A 
HETATM    3  C3  UNL     1     -33.678  18.785  -1.450  1.00 20.00     0.021 A 
HETATM    4  C4  UNL     1     -34.617  16.731  -0.589  1.00 20.00     0.021 A 
HETATM    5  C5  UNL     1     -34.004  16.895  -2.920  1.00 20.00     0.102 A 
HETATM    6  C6  UNL     1     -34.197  18.045  -0.385  1.00 20.00    -0.000 A 
ENDROOT
BRANCH   5   7
HETATM    7  N8  UNL     1     -33.905  16.311  -4.210  1.00 20.00    -0.116 N 
HETATM    8  O9  UNL     1     -34.826  15.559  -4.610  1.00 20.00    -0.532 OA
HETATM    9  O10 UNL     1     -32.897  16.561  -4.915  1.00 20.00    -0.532 OA
ENDBRANCH   5   7
BRANCH   6  10
HETATM   10  S11 UNL     1     -34.320  18.780   1.233  1.00 20.00    -0.134 SA
HETATM   11  C7  UNL     1     -35.445  17.602   2.014  1.00 20.00     0.095 C 
ENDBRANCH   6  10
TORSDOF 2
ENDMDL
MODEL 9
REMARK VINA RESULT:      -3.8      5.786      6.916
REMARK  2 active torsions:
REMARK  status: ('A' for Active; 'I' for Inactive)
REMARK    1  A    between atoms: C5_5  and  N8_8 
REMARK    2  A    between atoms: C6_6  and  S11_11 
ROOT
HETATM    1  C1  UNL     1     -34.889  16.996  -0.397  1.00 20.00     0.037 A 
HETATM    2  C2  UNL     1     -32.940  18.403  -0.646  1.00 20.00     0.037 A 
HETATM    3  C3  UNL     1     -35.038  17.436   0.918  1.00 20.00     0.021 A 
HETATM    4  C4  UNL     1     -33.090  18.844   0.668  1.00 20.00     0.021 A 
HETATM    5  C5  UNL     1     -33.839  17.479  -1.179  1.00 20.00     0.102 A 
HETATM    6  C6  UNL     1     -34.138  18.360   1.451  1.00 20.00    -0.000 A 
ENDROOT
BRANCH   5   7
HETATM    7  N8  UNL     1     -33.688  17.031  -2.518  1.00 20.00    -0.116 N 
HETATM    8  O9  UNL     1     -33.596  15.800  -2.741  1.00 20.00    -0.532 OA
HETATM    9  O10 UNL     1     -33.649  17.879  -3.442  1.00 20.00    -0.532 OA
ENDBRANCH   5   7
BRANCH   6  10
HETATM   10  S11 UNL     1     -34.330  18.922   3.131  1.00 20.00    -0.134 SA
HETATM   11  C7  UNL     1     -32.727  18.424   3.800  1.00 20.00     0.095 C 
ENDBRANCH   6  10
TORSDOF 2
ENDMDL
