MODEL 1
REMARK VINA RESULT:      -5.1      0.000      0.000
REMARK  1 active torsions:
REMARK  status: ('A' for Active; 'I' for Inactive)
REMARK    1  A    between atoms: C6_6  and  C9_9 
ROOT
HETATM    1  C1  UNL     1     -34.020   6.052   6.192  1.00 20.00     0.007 A 
HETATM    2  C2  UNL     1     -35.116   4.667   4.543  1.00 20.00     0.007 A 
HETATM    3  C3  UNL     1     -33.365   6.745   5.175  1.00 20.00     0.007 A 
HETATM    4  C4  UNL     1     -34.460   5.360   3.526  1.00 20.00     0.007 A 
HETATM    5  C5  UNL     1     -34.896   5.013   5.876  1.00 20.00    -0.062 A 
HETATM    6  C6  UNL     1     -33.585   6.399   3.842  1.00 20.00    -0.059 A 
HETATM    7  C7  UNL     1     -35.596   4.270   6.963  1.00 20.00     0.048 C 
ENDROOT
BRANCH   6   8
HETATM    8  C9  UNL     1     -32.885   7.142   2.754  1.00 20.00     0.034 C 
HETATM    9  C8  UNL     1     -31.511   7.647   3.189  1.00 20.00     0.010 C 
ENDBRANCH   6   8
TORSDOF 1
ENDMDL
MODEL 2
REMARK VINA RESULT:      -5.1      0.021      1.611
REMARK  1 active torsions:
REMARK  status: ('A' for Active; 'I' for Inactive)
REMARK    1  A    between atoms: C6_6  and  C9_9 
ROOT
HETATM    1  C1  UNL     1     -35.111   4.648   4.525  1.00 20.00     0.007 A 
HETATM    2  C2  UNL     1     -34.035   6.041   6.180  1.00 20.00     0.007 A 
HETATM    3  C3  UNL     1     -34.458   5.347   3.511  1.00 20.00     0.007 A 
HETATM    4  C4  UNL     1     -33.382   6.741   5.165  1.00 20.00     0.007 A 
HETATM    5  C5  UNL     1     -34.900   4.995   5.859  1.00 20.00    -0.062 A 
HETATM    6  C6  UNL     1     -33.592   6.393   3.832  1.00 20.00    -0.059 A 
HETATM    7  C7  UNL     1     -35.600   4.248   6.945  1.00 20.00     0.048 C 
ENDROOT
BRANCH   6   8
HETATM    8  C9  UNL     1     -32.893   7.140   2.746  1.00 20.00     0.034 C 
HETATM    9  C8  UNL     1     -31.519   7.645   3.182  1.00 20.00     0.010 C 
ENDBRANCH   6   8
TORSDOF 1
ENDMDL
MODEL 3
REMARK VINA RESULT:      -5.0      1.000      1.148
REMARK  1 active torsions:
REMARK  status: ('A' for Active; 'I' for Inactive)
REMARK    1  A    between atoms: C6_6  and  C9_9 
ROOT
HETATM    1  C1  UNL     1     -33.560   6.385   5.511  1.00 20.00     0.007 A 
HETATM    2  C2  UNL     1     -34.510   5.041   3.742  1.00 20.00     0.007 A 
HETATM    3  C3  UNL     1     -32.782   7.066   4.576  1.00 20.00     0.007 A 
HETATM    4  C4  UNL     1     -33.731   5.722   2.807  1.00 20.00     0.007 A 
HETATM    5  C5  UNL     1     -34.424   5.372   5.094  1.00 20.00    -0.062 A 
HETATM    6  C6  UNL     1     -32.868   6.735   3.224  1.00 20.00    -0.059 A 
HETATM    7  C7  UNL     1     -35.256   4.642   6.093  1.00 20.00     0.048 C 
ENDROOT
BRANCH   6   8
HETATM    8  C9  UNL     1     -32.036   7.465   2.224  1.00 20.00     0.034 C 
HETATM    9  C8  UNL     1     -32.480   8.916   2.049  1.00 20.00     0.010 C 
ENDBRANCH   6   8
TORSDOF 1
ENDMDL
MODEL 4
REMARK VINA RESULT:      -4.6      0.841      4.246
REMARK  1 active torsions:
REMARK  status: ('A' for Active; 'I' for Inactive)
REMARK    1  A    between atoms: C6_6  and  C9_9 
ROOT
HETATM    1  C1  UNL     1     -33.406   5.991   2.302  1.00 20.00     0.007 A 
HETATM    2  C2  UNL     1     -32.855   7.105   4.374  1.00 20.00     0.007 A 
HETATM    3  C3  UNL     1     -34.260   5.131   2.991  1.00 20.00     0.007 A 
HETATM    4  C4  UNL     1     -33.709   6.244   5.063  1.00 20.00     0.007 A 
HETATM    5  C5  UNL     1     -32.704   6.978   2.993  1.00 20.00    -0.062 A 
HETATM    6  C6  UNL     1     -34.412   5.258   4.372  1.00 20.00    -0.059 A 
HETATM    7  C7  UNL     1     -31.789   7.898   2.257  1.00 20.00     0.048 C 
ENDROOT
BRANCH   6   8
HETATM    8  C9  UNL     1     -35.327   4.338   5.108  1.00 20.00     0.034 C 
HETATM    9  C8  UNL     1     -35.165   4.448   6.623  1.00 20.00     0.010 C 
ENDBRANCH   6   8
TORSDOF 1
ENDMDL
MODEL 5
REMARK VINA RESULT:      -4.5      0.838      3.942
REMARK  1 active torsions:
REMARK  status: ('A' for Active; 'I' for Inactive)
REMARK    1  A    between atoms: C6_6  and  C9_9 
ROOT
HETATM    1  C1  UNL     1     -32.860   7.107   4.393  1.00 20.00     0.007 A 
HETATM    2  C2  UNL     1     -33.404   6.001   2.315  1.00 20.00     0.007 A 
HETATM    3  C3  UNL     1     -33.714   6.243   5.077  1.00 20.00     0.007 A 
HETATM    4  C4  UNL     1     -34.258   5.138   2.999  1.00 20.00     0.007 A 
HETATM    5  C5  UNL     1     -32.704   6.987   3.012  1.00 20.00    -0.062 A 
HETATM    6  C6  UNL     1     -34.413   5.258   4.379  1.00 20.00    -0.059 A 
HETATM    7  C7  UNL     1     -31.792   7.912   2.280  1.00 20.00     0.048 C 
ENDROOT
BRANCH   6   8
HETATM    8  C9  UNL     1     -35.326   4.333   5.112  1.00 20.00     0.034 C 
HETATM    9  C8  UNL     1     -35.166   4.440   6.627  1.00 20.00     0.010 C 
ENDBRANCH   6   8
TORSDOF 1
ENDMDL
MODEL 6
REMARK VINA RESULT:      -4.2     12.188     12.614
REMARK  1 active torsions:
REMARK  status: ('A' for Active; 'I' for Inactive)
REMARK    1  A    between atoms: C6_6  and  C9_9 
ROOT
HETATM    1  C1  UNL     1     -35.708  14.839  -3.514  1.00 20.00     0.007 A 
HETATM    2  C2  UNL     1     -33.331  14.702  -3.926  1.00 20.00     0.007 A 
HETATM    3  C3  UNL     1     -35.487  15.837  -2.566  1.00 20.00     0.007 A 
HETATM    4  C4  UNL     1     -33.110  15.700  -2.977  1.00 20.00     0.007 A 
HETATM    5  C5  UNL     1     -34.631  14.271  -4.194  1.00 20.00    -0.062 A 
HETATM    6  C6  UNL     1     -34.187  16.268  -2.298  1.00 20.00    -0.059 A 
HETATM    7  C7  UNL     1     -34.867  13.203  -5.208  1.00 20.00     0.048 C 
ENDROOT
BRANCH   6   8
HETATM    8  C9  UNL     1     -33.951  17.337  -1.285  1.00 20.00     0.034 C 
HETATM    9  C8  UNL     1     -34.807  17.149  -0.034  1.00 20.00     0.010 C 
ENDBRANCH   6   8
TORSDOF 1
ENDMDL
MODEL 7
REMARK VINA RESULT:      -4.2     12.223     12.609
REMARK  1 active torsions:
REMARK  status: ('A' for Active; 'I' for Inactive)
REMARK    1  A    between atoms: C6_6  and  C9_9 
ROOT
HETATM    1  C1  UNL     1     -33.345  14.797  -3.950  1.00 20.00     0.007 A 
HETATM    2  C2  UNL     1     -35.708  14.873  -3.450  1.00 20.00     0.007 A 
HETATM    3  C3  UNL     1     -33.110  15.774  -2.985  1.00 20.00     0.007 A 
HETATM    4  C4  UNL     1     -35.472  15.852  -2.485  1.00 20.00     0.007 A 
HETATM    5  C5  UNL     1     -34.645  14.346  -4.183  1.00 20.00    -0.062 A 
HETATM    6  C6  UNL     1     -34.173  16.302  -2.252  1.00 20.00    -0.059 A 
HETATM    7  C7  UNL     1     -34.898  13.301  -5.217  1.00 20.00     0.048 C 
ENDROOT
BRANCH   6   8
HETATM    8  C9  UNL     1     -33.919  17.347  -1.218  1.00 20.00     0.034 C 
HETATM    9  C8  UNL     1     -34.821  17.185   0.004  1.00 20.00     0.010 C 
ENDBRANCH   6   8
TORSDOF 1
ENDMDL
MODEL 8
REMARK VINA RESULT:      -4.2      9.539     10.953
REMARK  1 active torsions:
REMARK  status: ('A' for Active; 'I' for Inactive)
REMARK    1  A    between atoms: C6_6  and  C9_9 
ROOT
HETATM    1  C1  UNL     1     -40.810   5.188  -1.049  1.00 20.00     0.007 A 
HETATM    2  C2  UNL     1     -42.531   6.099  -2.479  1.00 20.00     0.007 A 
HETATM    3  C3  UNL     1     -41.062   3.914  -1.556  1.00 20.00     0.007 A 
HETATM    4  C4  UNL     1     -42.784   4.824  -2.986  1.00 20.00     0.007 A 
HETATM    5  C5  UNL     1     -41.544   6.281  -1.510  1.00 20.00    -0.062 A 
HETATM    6  C6  UNL     1     -42.049   3.732  -2.525  1.00 20.00    -0.059 A 
HETATM    7  C7  UNL     1     -41.276   7.644  -0.967  1.00 20.00     0.048 C 
ENDROOT
BRANCH   6   8
HETATM    8  C9  UNL     1     -42.317   2.369  -3.068  1.00 20.00     0.034 C 
HETATM    9  C8  UNL     1     -41.174   1.858  -3.943  1.00 20.00     0.010 C 
ENDBRANCH   6   8
TORSDOF 1
ENDMDL
MODEL 9
REMARK VINA RESULT:      -4.2     12.220     13.545
REMARK  1 active torsions:
REMARK  status: ('A' for Active; 'I' for Inactive)
REMARK    1  A    between atoms: C6_6  and  C9_9 
ROOT
HETATM    1  C1  UNL     1     -33.561  16.362  -5.053  1.00 20.00     0.007 A 
HETATM    2  C2  UNL     1     -35.260  14.670  -4.757  1.00 20.00     0.007 A 
HETATM    3  C3  UNL     1     -33.630  16.669  -3.695  1.00 20.00     0.007 A 
HETATM    4  C4  UNL     1     -35.330  14.979  -3.398  1.00 20.00     0.007 A 
HETATM    5  C5  UNL     1     -34.376  15.362  -5.584  1.00 20.00    -0.062 A 
HETATM    6  C6  UNL     1     -34.515  15.977  -2.867  1.00 20.00    -0.059 A 
HETATM    7  C7  UNL     1     -34.303  15.033  -7.037  1.00 20.00     0.048 C 
ENDROOT
BRANCH   6   8
HETATM    8  C9  UNL     1     -34.587  16.306  -1.414  1.00 20.00     0.034 C 
HETATM    9  C8  UNL     1     -33.681  17.477  -1.039  1.00 20.00     0.010 C 
ENDBRANCH   6   8
TORSDOF 1
ENDMDL
