MODEL 1
REMARK VINA RESULT:      -4.3      0.000      0.000
REMARK  0 active torsions:
REMARK  status: ('A' for Active; 'I' for Inactive)
ROOT
HETATM    1  C1  UNL     1     -33.943   6.134   6.124  1.00 20.00     0.008 A 
HETATM    2  C2  UNL     1     -34.866   4.825   4.315  1.00 20.00     0.008 A 
HETATM    3  C3  UNL     1     -33.222   6.896   5.205  1.00 20.00     0.019 A 
HETATM    4  C4  UNL     1     -34.144   5.588   3.395  1.00 20.00     0.019 A 
HETATM    5  C5  UNL     1     -34.765   5.098   5.679  1.00 20.00    -0.062 A 
HETATM    6  C6  UNL     1     -33.323   6.623   3.841  1.00 20.00     0.006 A 
HETATM    7  C7  UNL     1     -35.535   4.282   6.661  1.00 20.00     0.048 C 
HETATM    8  I8  UNL     1     -32.246   7.757   2.473  1.00 20.00    -0.045 I 
ENDROOT
TORSDOF 0
ENDMDL
MODEL 2
REMARK VINA RESULT:      -3.9      9.822     10.802
REMARK  0 active torsions:
REMARK  status: ('A' for Active; 'I' for Inactive)
ROOT
HETATM    1  C1  UNL     1     -42.441   6.168  -2.434  1.00 20.00     0.008 A 
HETATM    2  C2  UNL     1     -40.793   5.188  -0.964  1.00 20.00     0.008 A 
HETATM    3  C3  UNL     1     -42.668   4.918  -3.012  1.00 20.00     0.019 A 
HETATM    4  C4  UNL     1     -41.019   3.938  -1.543  1.00 20.00     0.019 A 
HETATM    5  C5  UNL     1     -41.503   6.302  -1.410  1.00 20.00    -0.062 A 
HETATM    6  C6  UNL     1     -41.957   3.804  -2.566  1.00 20.00     0.006 A 
HETATM    7  C7  UNL     1     -41.259   7.638  -0.793  1.00 20.00     0.048 C 
HETATM    8  I8  UNL     1     -42.293   1.945  -3.430  1.00 20.00    -0.045 I 
ENDROOT
TORSDOF 0
ENDMDL
MODEL 3
REMARK VINA RESULT:      -3.8     12.497     13.206
REMARK  0 active torsions:
REMARK  status: ('A' for Active; 'I' for Inactive)
ROOT
HETATM    1  C1  UNL     1     -33.483  15.963  -2.937  1.00 20.00     0.008 A 
HETATM    2  C2  UNL     1     -35.891  16.158  -2.910  1.00 20.00     0.008 A 
HETATM    3  C3  UNL     1     -33.527  15.611  -4.286  1.00 20.00     0.019 A 
HETATM    4  C4  UNL     1     -35.935  15.805  -4.260  1.00 20.00     0.019 A 
HETATM    5  C5  UNL     1     -34.665  16.236  -2.249  1.00 20.00    -0.062 A 
HETATM    6  C6  UNL     1     -34.753  15.533  -4.947  1.00 20.00     0.006 A 
HETATM    7  C7  UNL     1     -34.619  16.610  -0.806  1.00 20.00     0.048 C 
HETATM    8  I8  UNL     1     -34.817  15.006  -6.956  1.00 20.00    -0.045 I 
ENDROOT
TORSDOF 0
ENDMDL
MODEL 4
REMARK VINA RESULT:      -3.8     12.504     13.242
REMARK  0 active torsions:
REMARK  status: ('A' for Active; 'I' for Inactive)
ROOT
HETATM    1  C1  UNL     1     -35.881  16.310  -2.943  1.00 20.00     0.008 A 
HETATM    2  C2  UNL     1     -33.515  15.825  -2.890  1.00 20.00     0.008 A 
HETATM    3  C3  UNL     1     -35.923  15.958  -4.292  1.00 20.00     0.019 A 
HETATM    4  C4  UNL     1     -33.556  15.474  -4.240  1.00 20.00     0.019 A 
HETATM    5  C5  UNL     1     -34.677  16.243  -2.242  1.00 20.00    -0.062 A 
HETATM    6  C6  UNL     1     -34.760  15.540  -4.940  1.00 20.00     0.006 A 
HETATM    7  C7  UNL     1     -34.631  16.621  -0.800  1.00 20.00     0.048 C 
HETATM    8  I8  UNL     1     -34.823  15.020  -6.950  1.00 20.00    -0.045 I 
ENDROOT
TORSDOF 0
ENDMDL
MODEL 5
REMARK VINA RESULT:      -3.7     12.686     13.899
REMARK  0 active torsions:
REMARK  status: ('A' for Active; 'I' for Inactive)
ROOT
HETATM    1  C1  UNL     1     -33.641  16.469  -5.423  1.00 20.00     0.008 A 
HETATM    2  C2  UNL     1     -35.271  14.772  -4.870  1.00 20.00     0.008 A 
HETATM    3  C3  UNL     1     -33.656  16.914  -4.101  1.00 20.00     0.019 A 
HETATM    4  C4  UNL     1     -35.286  15.218  -3.547  1.00 20.00     0.019 A 
HETATM    5  C5  UNL     1     -34.449  15.398  -5.808  1.00 20.00    -0.062 A 
HETATM    6  C6  UNL     1     -34.478  16.288  -3.164  1.00 20.00     0.006 A 
HETATM    7  C7  UNL     1     -34.435  14.923  -7.221  1.00 20.00     0.048 C 
HETATM    8  I8  UNL     1     -34.502  16.954  -1.196  1.00 20.00    -0.045 I 
ENDROOT
TORSDOF 0
ENDMDL
MODEL 6
REMARK VINA RESULT:      -3.6     12.506     12.664
REMARK  0 active torsions:
REMARK  status: ('A' for Active; 'I' for Inactive)
ROOT
HETATM    1  C1  UNL     1     -35.841  14.806  -3.620  1.00 20.00     0.008 A 
HETATM    2  C2  UNL     1     -33.436  14.786  -3.854  1.00 20.00     0.008 A 
HETATM    3  C3  UNL     1     -35.735  15.773  -2.620  1.00 20.00     0.019 A 
HETATM    4  C4  UNL     1     -33.331  15.754  -2.853  1.00 20.00     0.019 A 
HETATM    5  C5  UNL     1     -34.691  14.312  -4.236  1.00 20.00    -0.062 A 
HETATM    6  C6  UNL     1     -34.480  16.246  -2.237  1.00 20.00     0.006 A 
HETATM    7  C7  UNL     1     -34.802  13.277  -5.304  1.00 20.00     0.048 C 
HETATM    8  I8  UNL     1     -34.325  17.684  -0.745  1.00 20.00    -0.045 I 
ENDROOT
TORSDOF 0
ENDMDL
MODEL 7
REMARK VINA RESULT:      -3.6     12.489     13.245
REMARK  0 active torsions:
REMARK  status: ('A' for Active; 'I' for Inactive)
ROOT
HETATM    1  C1  UNL     1     -34.952  16.971  -0.210  1.00 20.00     0.008 A 
HETATM    2  C2  UNL     1     -32.943  18.268  -0.562  1.00 20.00     0.008 A 
HETATM    3  C3  UNL     1     -35.083  17.522   1.064  1.00 20.00     0.019 A 
HETATM    4  C4  UNL     1     -33.075  18.819   0.714  1.00 20.00     0.019 A 
HETATM    5  C5  UNL     1     -33.881  17.344  -1.023  1.00 20.00    -0.062 A 
HETATM    6  C6  UNL     1     -34.146  18.446   1.526  1.00 20.00     0.006 A 
HETATM    7  C7  UNL     1     -33.738  16.755  -2.386  1.00 20.00     0.048 C 
HETATM    8  I8  UNL     1     -34.342  19.263   3.426  1.00 20.00    -0.045 I 
ENDROOT
TORSDOF 0
ENDMDL
MODEL 8
REMARK VINA RESULT:      -3.6     12.429     13.422
REMARK  0 active torsions:
REMARK  status: ('A' for Active; 'I' for Inactive)
ROOT
HETATM    1  C1  UNL     1     -33.695  17.464  -3.288  1.00 20.00     0.008 A 
HETATM    2  C2  UNL     1     -34.855  15.554  -2.369  1.00 20.00     0.008 A 
HETATM    3  C3  UNL     1     -33.876  16.954  -4.574  1.00 20.00     0.019 A 
HETATM    4  C4  UNL     1     -35.036  15.044  -3.656  1.00 20.00     0.019 A 
HETATM    5  C5  UNL     1     -34.184  16.763  -2.186  1.00 20.00    -0.062 A 
HETATM    6  C6  UNL     1     -34.547  15.745  -4.757  1.00 20.00     0.006 A 
HETATM    7  C7  UNL     1     -33.990  17.306  -0.810  1.00 20.00     0.048 C 
HETATM    8  I8  UNL     1     -34.813  14.985  -6.673  1.00 20.00    -0.045 I 
ENDROOT
TORSDOF 0
ENDMDL
MODEL 9
REMARK VINA RESULT:      -3.6     12.274     12.719
REMARK  0 active torsions:
REMARK  status: ('A' for Active; 'I' for Inactive)
ROOT
HETATM    1  C1  UNL     1     -34.629  13.684  -4.308  1.00 20.00     0.008 A 
HETATM    2  C2  UNL     1     -34.476  15.625  -2.877  1.00 20.00     0.008 A 
HETATM    3  C3  UNL     1     -36.010  13.860  -4.398  1.00 20.00     0.019 A 
HETATM    4  C4  UNL     1     -35.858  15.801  -2.968  1.00 20.00     0.019 A 
HETATM    5  C5  UNL     1     -33.862  14.567  -3.547  1.00 20.00    -0.062 A 
HETATM    6  C6  UNL     1     -36.624  14.918  -3.729  1.00 20.00     0.006 A 
HETATM    7  C7  UNL     1     -32.386  14.379  -3.447  1.00 20.00     0.048 C 
HETATM    8  I8  UNL     1     -38.681  15.177  -3.862  1.00 20.00    -0.045 I 
ENDROOT
TORSDOF 0
ENDMDL
