MODEL 1
REMARK VINA RESULT:      -5.3      0.000      0.000
REMARK  3 active torsions:
REMARK  status: ('A' for Active; 'I' for Inactive)
REMARK    1  A    between atoms: C2_2  and  C7_7 
REMARK    2  A    between atoms: C3_3  and  C8_8 
REMARK    3  A    between atoms: C7_7  and  C8_8 
ROOT
HETATM    1  C3  UNL     1     -34.464   5.315   4.178  1.00 20.00    -0.024 C 
HETATM    2  C4  UNL     1     -34.533   5.376   5.522  1.00 20.00    -0.091 C 
HETATM    3  C5  UNL     1     -35.164   4.256   6.303  1.00 20.00     0.042 C 
HETATM    4  C6  UNL     1     -34.006   6.501   6.367  1.00 20.00     0.042 C 
ENDROOT
BRANCH   1   5
HETATM    5  C8  UNL     1     -33.897   6.338   3.232  1.00 20.00     0.031 C 
BRANCH   5   6
HETATM    6  C7  UNL     1     -32.368   6.275   3.148  1.00 20.00     0.030 C 
BRANCH   6   7
HETATM    7  C2  UNL     1     -31.747   7.616   2.880  1.00 20.00    -0.037 C 
HETATM    8  C1  UNL     1     -32.095   8.412   1.863  1.00 20.00     0.007 C 
ENDBRANCH   6   7
ENDBRANCH   5   6
ENDBRANCH   1   5
TORSDOF 3
ENDMDL
MODEL 2
REMARK VINA RESULT:      -5.2      0.905      1.698
REMARK  3 active torsions:
REMARK  status: ('A' for Active; 'I' for Inactive)
REMARK    1  A    between atoms: C2_2  and  C7_7 
REMARK    2  A    between atoms: C3_3  and  C8_8 
REMARK    3  A    between atoms: C7_7  and  C8_8 
ROOT
HETATM    1  C3  UNL     1     -33.205   6.387   4.463  1.00 20.00    -0.024 C 
HETATM    2  C4  UNL     1     -34.275   5.725   4.945  1.00 20.00    -0.091 C 
HETATM    3  C5  UNL     1     -34.527   5.666   6.427  1.00 20.00     0.042 C 
HETATM    4  C6  UNL     1     -35.303   5.014   4.112  1.00 20.00     0.042 C 
ENDROOT
BRANCH   1   5
HETATM    5  C8  UNL     1     -32.777   6.535   3.028  1.00 20.00     0.031 C 
BRANCH   5   6
HETATM    6  C7  UNL     1     -31.816   7.711   2.821  1.00 20.00     0.030 C 
BRANCH   6   7
HETATM    7  C2  UNL     1     -32.029   8.408   1.509  1.00 20.00    -0.037 C 
HETATM    8  C1  UNL     1     -32.408   9.686   1.392  1.00 20.00     0.007 C 
ENDBRANCH   6   7
ENDBRANCH   5   6
ENDBRANCH   1   5
TORSDOF 3
ENDMDL
MODEL 3
REMARK VINA RESULT:      -4.8      0.890      4.351
REMARK  3 active torsions:
REMARK  status: ('A' for Active; 'I' for Inactive)
REMARK    1  A    between atoms: C2_2  and  C7_7 
REMARK    2  A    between atoms: C3_3  and  C8_8 
REMARK    3  A    between atoms: C7_7  and  C8_8 
ROOT
HETATM    1  C3  UNL     1     -32.793   6.252   3.620  1.00 20.00    -0.024 C 
HETATM    2  C4  UNL     1     -32.052   7.315   3.254  1.00 20.00    -0.091 C 
HETATM    3  C5  UNL     1     -30.977   7.843   4.167  1.00 20.00     0.042 C 
HETATM    4  C6  UNL     1     -32.184   8.059   1.956  1.00 20.00     0.042 C 
ENDROOT
BRANCH   1   5
HETATM    5  C8  UNL     1     -33.918   5.601   2.861  1.00 20.00     0.031 C 
BRANCH   5   6
HETATM    6  C7  UNL     1     -35.163   5.385   3.728  1.00 20.00     0.030 C 
BRANCH   6   7
HETATM    7  C2  UNL     1     -34.838   5.270   5.189  1.00 20.00    -0.037 C 
HETATM    8  C1  UNL     1     -34.881   4.124   5.878  1.00 20.00     0.007 C 
ENDBRANCH   6   7
ENDBRANCH   5   6
ENDBRANCH   1   5
TORSDOF 3
ENDMDL
MODEL 4
REMARK VINA RESULT:      -4.7      1.037      4.618
REMARK  3 active torsions:
REMARK  status: ('A' for Active; 'I' for Inactive)
REMARK    1  A    between atoms: C2_2  and  C7_7 
REMARK    2  A    between atoms: C3_3  and  C8_8 
REMARK    3  A    between atoms: C7_7  and  C8_8 
ROOT
HETATM    1  C3  UNL     1     -33.150   6.789   2.852  1.00 20.00    -0.024 C 
HETATM    2  C4  UNL     1     -32.109   7.638   2.755  1.00 20.00    -0.091 C 
HETATM    3  C5  UNL     1     -31.876   8.414   1.487  1.00 20.00     0.042 C 
HETATM    4  C6  UNL     1     -31.110   7.913   3.843  1.00 20.00     0.042 C 
ENDROOT
BRANCH   1   5
HETATM    5  C8  UNL     1     -33.529   5.917   4.018  1.00 20.00     0.031 C 
BRANCH   5   6
HETATM    6  C7  UNL     1     -34.908   5.272   3.845  1.00 20.00     0.030 C 
BRANCH   6   7
HETATM    7  C2  UNL     1     -35.265   4.355   4.979  1.00 20.00    -0.037 C 
HETATM    8  C1  UNL     1     -34.903   4.560   6.250  1.00 20.00     0.007 C 
ENDBRANCH   6   7
ENDBRANCH   5   6
ENDBRANCH   1   5
TORSDOF 3
ENDMDL
MODEL 5
REMARK VINA RESULT:      -4.4      0.749      4.039
REMARK  3 active torsions:
REMARK  status: ('A' for Active; 'I' for Inactive)
REMARK    1  A    between atoms: C2_2  and  C7_7 
REMARK    2  A    between atoms: C3_3  and  C8_8 
REMARK    3  A    between atoms: C7_7  and  C8_8 
ROOT
HETATM    1  C3  UNL     1     -34.183   6.461   3.536  1.00 20.00    -0.024 C 
HETATM    2  C4  UNL     1     -32.917   6.492   3.078  1.00 20.00    -0.091 C 
HETATM    3  C5  UNL     1     -32.296   7.793   2.645  1.00 20.00     0.042 C 
HETATM    4  C6  UNL     1     -32.007   5.302   2.961  1.00 20.00     0.042 C 
ENDROOT
BRANCH   1   5
HETATM    5  C8  UNL     1     -34.976   5.265   3.988  1.00 20.00     0.031 C 
BRANCH   5   6
HETATM    6  C7  UNL     1     -34.502   4.725   5.342  1.00 20.00     0.030 C 
BRANCH   6   7
HETATM    7  C2  UNL     1     -34.638   5.734   6.446  1.00 20.00    -0.037 C 
HETATM    8  C1  UNL     1     -33.792   6.751   6.640  1.00 20.00     0.007 C 
ENDBRANCH   6   7
ENDBRANCH   5   6
ENDBRANCH   1   5
TORSDOF 3
ENDMDL
MODEL 6
REMARK VINA RESULT:      -4.3      1.178      4.909
REMARK  3 active torsions:
REMARK  status: ('A' for Active; 'I' for Inactive)
REMARK    1  A    between atoms: C2_2  and  C7_7 
REMARK    2  A    between atoms: C3_3  and  C8_8 
REMARK    3  A    between atoms: C7_7  and  C8_8 
ROOT
HETATM    1  C3  UNL     1     -32.467   7.885   2.879  1.00 20.00    -0.024 C 
HETATM    2  C4  UNL     1     -32.254   8.669   1.805  1.00 20.00    -0.091 C 
HETATM    3  C5  UNL     1     -32.596  10.134   1.852  1.00 20.00     0.042 C 
HETATM    4  C6  UNL     1     -31.669   8.211   0.499  1.00 20.00     0.042 C 
ENDROOT
BRANCH   1   5
HETATM    5  C8  UNL     1     -32.214   6.408   3.013  1.00 20.00     0.031 C 
BRANCH   5   6
HETATM    6  C7  UNL     1     -33.509   5.588   3.006  1.00 20.00     0.030 C 
BRANCH   6   7
HETATM    7  C2  UNL     1     -34.311   5.761   4.264  1.00 20.00    -0.037 C 
HETATM    8  C1  UNL     1     -35.209   4.874   4.707  1.00 20.00     0.007 C 
ENDBRANCH   6   7
ENDBRANCH   5   6
ENDBRANCH   1   5
TORSDOF 3
ENDMDL
MODEL 7
REMARK VINA RESULT:      -4.1      0.813      4.475
REMARK  3 active torsions:
REMARK  status: ('A' for Active; 'I' for Inactive)
REMARK    1  A    between atoms: C2_2  and  C7_7 
REMARK    2  A    between atoms: C3_3  and  C8_8 
REMARK    3  A    between atoms: C7_7  and  C8_8 
ROOT
HETATM    1  C3  UNL     1     -33.847   7.228   3.525  1.00 20.00    -0.024 C 
HETATM    2  C4  UNL     1     -32.651   7.017   2.942  1.00 20.00    -0.091 C 
HETATM    3  C5  UNL     1     -31.988   8.111   2.149  1.00 20.00     0.042 C 
HETATM    4  C6  UNL     1     -31.863   5.740   3.016  1.00 20.00     0.042 C 
ENDROOT
BRANCH   1   5
HETATM    5  C8  UNL     1     -34.669   6.258   4.329  1.00 20.00     0.031 C 
BRANCH   5   6
HETATM    6  C7  UNL     1     -34.253   6.219   5.804  1.00 20.00     0.030 C 
BRANCH   6   7
HETATM    7  C2  UNL     1     -34.428   4.860   6.418  1.00 20.00    -0.037 C 
HETATM    8  C1  UNL     1     -34.925   3.802   5.767  1.00 20.00     0.007 C 
ENDBRANCH   6   7
ENDBRANCH   5   6
ENDBRANCH   1   5
TORSDOF 3
ENDMDL
MODEL 8
REMARK VINA RESULT:      -4.0     11.311     11.912
REMARK  3 active torsions:
REMARK  status: ('A' for Active; 'I' for Inactive)
REMARK    1  A    between atoms: C2_2  and  C7_7 
REMARK    2  A    between atoms: C3_3  and  C8_8 
REMARK    3  A    between atoms: C7_7  and  C8_8 
ROOT
HETATM    1  C3  UNL     1     -34.713  16.477  -1.029  1.00 20.00    -0.024 C 
HETATM    2  C4  UNL     1     -34.350  17.441  -0.161  1.00 20.00    -0.091 C 
HETATM    3  C5  UNL     1     -35.148  17.675   1.093  1.00 20.00     0.042 C 
HETATM    4  C6  UNL     1     -33.160  18.345  -0.317  1.00 20.00     0.042 C 
ENDROOT
BRANCH   1   5
HETATM    5  C8  UNL     1     -34.060  16.113  -2.335  1.00 20.00     0.031 C 
BRANCH   5   6
HETATM    6  C7  UNL     1     -34.888  15.109  -3.144  1.00 20.00     0.030 C 
BRANCH   6   7
HETATM    7  C2  UNL     1     -34.051  14.009  -3.732  1.00 20.00    -0.037 C 
HETATM    8  C1  UNL     1     -34.453  13.213  -4.729  1.00 20.00     0.007 C 
ENDBRANCH   6   7
ENDBRANCH   5   6
ENDBRANCH   1   5
TORSDOF 3
ENDMDL
MODEL 9
REMARK VINA RESULT:      -3.9     11.226     12.043
REMARK  3 active torsions:
REMARK  status: ('A' for Active; 'I' for Inactive)
REMARK    1  A    between atoms: C2_2  and  C7_7 
REMARK    2  A    between atoms: C3_3  and  C8_8 
REMARK    3  A    between atoms: C7_7  and  C8_8 
ROOT
HETATM    1  C3  UNL     1     -33.510  15.908  -2.581  1.00 20.00    -0.024 C 
HETATM    2  C4  UNL     1     -34.695  16.293  -2.069  1.00 20.00    -0.091 C 
HETATM    3  C5  UNL     1     -34.764  16.921  -0.703  1.00 20.00     0.042 C 
HETATM    4  C6  UNL     1     -36.022  16.166  -2.761  1.00 20.00     0.042 C 
ENDROOT
BRANCH   1   5
HETATM    5  C8  UNL     1     -33.245  15.247  -3.907  1.00 20.00     0.031 C 
BRANCH   5   6
HETATM    6  C7  UNL     1     -33.461  13.730  -3.859  1.00 20.00     0.030 C 
BRANCH   6   7
HETATM    7  C2  UNL     1     -34.518  13.266  -4.820  1.00 20.00    -0.037 C 
HETATM    8  C1  UNL     1     -35.073  14.044  -5.756  1.00 20.00     0.007 C 
ENDBRANCH   6   7
ENDBRANCH   5   6
ENDBRANCH   1   5
TORSDOF 3
ENDMDL
