MODEL 1
REMARK VINA RESULT:      -4.2      0.000      0.000
REMARK  4 active torsions:
REMARK  status: ('A' for Active; 'I' for Inactive)
REMARK    1  A    between atoms: C2_2  and  C4_4 
REMARK    2  A    between atoms: C4_4  and  O7_7 
REMARK    3  A    between atoms: C5_5  and  C6_6 
REMARK    4  A    between atoms: C6_6  and  O7_7 
ROOT
HETATM    1  O7  UNL     1     -34.673   5.981   3.937  1.00 20.00    -0.388 OA
ENDROOT
BRANCH   1   2
HETATM    2  C4  UNL     1     -33.688   5.700   2.951  1.00 20.00     0.194 C 
BRANCH   2   3
HETATM    3  C2  UNL     1     -32.468   6.508   3.249  1.00 20.00    -0.011 C 
HETATM    4  C1  UNL     1     -32.132   7.624   2.593  1.00 20.00     0.009 C 
ENDBRANCH   2   3
ENDBRANCH   1   2
BRANCH   1   5
HETATM    5  C6  UNL     1     -35.226   4.788   4.475  1.00 20.00     0.167 C 
BRANCH   5   6
HETATM    6  C5  UNL     1     -34.822   4.676   5.938  1.00 20.00     0.022 C 
HETATM    7  C3  UNL     1     -34.338   6.004   6.494  1.00 20.00     0.007 C 
ENDBRANCH   5   6
ENDBRANCH   1   5
TORSDOF 4
ENDMDL
MODEL 2
REMARK VINA RESULT:      -4.2      0.773      1.009
REMARK  4 active torsions:
REMARK  status: ('A' for Active; 'I' for Inactive)
REMARK    1  A    between atoms: C2_2  and  C4_4 
REMARK    2  A    between atoms: C4_4  and  O7_7 
REMARK    3  A    between atoms: C5_5  and  C6_6 
REMARK    4  A    between atoms: C6_6  and  O7_7 
ROOT
HETATM    1  O7  UNL     1     -33.808   6.403   3.995  1.00 20.00    -0.388 OA
ENDROOT
BRANCH   1   2
HETATM    2  C4  UNL     1     -32.641   6.177   3.214  1.00 20.00     0.194 C 
BRANCH   2   3
HETATM    3  C2  UNL     1     -31.927   7.475   3.031  1.00 20.00    -0.011 C 
HETATM    4  C1  UNL     1     -32.094   8.278   1.974  1.00 20.00     0.009 C 
ENDBRANCH   2   3
ENDBRANCH   1   2
BRANCH   1   5
HETATM    5  C6  UNL     1     -34.815   5.440   3.719  1.00 20.00     0.167 C 
BRANCH   5   6
HETATM    6  C5  UNL     1     -35.073   4.626   4.979  1.00 20.00     0.022 C 
HETATM    7  C3  UNL     1     -34.621   5.359   6.229  1.00 20.00     0.007 C 
ENDBRANCH   5   6
ENDBRANCH   1   5
TORSDOF 4
ENDMDL
MODEL 3
REMARK VINA RESULT:      -4.2      0.805      3.900
REMARK  4 active torsions:
REMARK  status: ('A' for Active; 'I' for Inactive)
REMARK    1  A    between atoms: C2_2  and  C4_4 
REMARK    2  A    between atoms: C4_4  and  O7_7 
REMARK    3  A    between atoms: C5_5  and  C6_6 
REMARK    4  A    between atoms: C6_6  and  O7_7 
ROOT
HETATM    1  O7  UNL     1     -33.866   6.412   3.943  1.00 20.00    -0.388 OA
ENDROOT
BRANCH   1   2
HETATM    2  C4  UNL     1     -34.842   5.419   3.654  1.00 20.00     0.194 C 
BRANCH   2   3
HETATM    3  C2  UNL     1     -35.121   4.645   4.900  1.00 20.00    -0.011 C 
HETATM    4  C1  UNL     1     -34.762   5.046   6.125  1.00 20.00     0.009 C 
ENDBRANCH   2   3
ENDBRANCH   1   2
BRANCH   1   5
HETATM    5  C6  UNL     1     -32.647   6.159   3.260  1.00 20.00     0.167 C 
BRANCH   5   6
HETATM    6  C5  UNL     1     -31.824   7.439   3.234  1.00 20.00     0.022 C 
HETATM    7  C3  UNL     1     -32.083   8.253   1.979  1.00 20.00     0.007 C 
ENDBRANCH   5   6
ENDBRANCH   1   5
TORSDOF 4
ENDMDL
MODEL 4
REMARK VINA RESULT:      -4.1      0.771      3.870
REMARK  4 active torsions:
REMARK  status: ('A' for Active; 'I' for Inactive)
REMARK    1  A    between atoms: C2_2  and  C4_4 
REMARK    2  A    between atoms: C4_4  and  O7_7 
REMARK    3  A    between atoms: C5_5  and  C6_6 
REMARK    4  A    between atoms: C6_6  and  O7_7 
ROOT
HETATM    1  O7  UNL     1     -34.313   6.157   3.983  1.00 20.00    -0.388 OA
ENDROOT
BRANCH   1   2
HETATM    2  C4  UNL     1     -33.825   6.300   5.311  1.00 20.00     0.194 C 
BRANCH   2   3
HETATM    3  C2  UNL     1     -34.600   5.391   6.207  1.00 20.00    -0.011 C 
HETATM    4  C1  UNL     1     -35.006   4.166   5.857  1.00 20.00     0.009 C 
ENDBRANCH   2   3
ENDBRANCH   1   2
BRANCH   1   5
HETATM    5  C6  UNL     1     -33.256   5.943   3.059  1.00 20.00     0.167 C 
BRANCH   5   6
HETATM    6  C5  UNL     1     -32.149   6.949   3.338  1.00 20.00     0.022 C 
HETATM    7  C3  UNL     1     -32.082   8.026   2.271  1.00 20.00     0.007 C 
ENDBRANCH   5   6
ENDBRANCH   1   5
TORSDOF 4
ENDMDL
MODEL 5
REMARK VINA RESULT:      -3.8      1.513      4.519
REMARK  4 active torsions:
REMARK  status: ('A' for Active; 'I' for Inactive)
REMARK    1  A    between atoms: C2_2  and  C4_4 
REMARK    2  A    between atoms: C4_4  and  O7_7 
REMARK    3  A    between atoms: C5_5  and  C6_6 
REMARK    4  A    between atoms: C6_6  and  O7_7 
ROOT
HETATM    1  O7  UNL     1     -32.968   6.654   2.671  1.00 20.00    -0.388 OA
ENDROOT
BRANCH   1   2
HETATM    2  C4  UNL     1     -33.305   6.170   3.965  1.00 20.00     0.194 C 
BRANCH   2   3
HETATM    3  C2  UNL     1     -34.638   5.500   3.893  1.00 20.00    -0.011 C 
HETATM    4  C1  UNL     1     -35.198   4.839   4.913  1.00 20.00     0.009 C 
ENDBRANCH   2   3
ENDBRANCH   1   2
BRANCH   1   5
HETATM    5  C6  UNL     1     -32.010   7.700   2.740  1.00 20.00     0.167 C 
BRANCH   5   6
HETATM    6  C5  UNL     1     -31.956   8.406   1.393  1.00 20.00     0.022 C 
HETATM    7  C3  UNL     1     -32.468   9.833   1.482  1.00 20.00     0.007 C 
ENDBRANCH   5   6
ENDBRANCH   1   5
TORSDOF 4
ENDMDL
MODEL 6
REMARK VINA RESULT:      -3.2     11.595     12.355
REMARK  4 active torsions:
REMARK  status: ('A' for Active; 'I' for Inactive)
REMARK    1  A    between atoms: C2_2  and  C4_4 
REMARK    2  A    between atoms: C4_4  and  O7_7 
REMARK    3  A    between atoms: C5_5  and  C6_6 
REMARK    4  A    between atoms: C6_6  and  O7_7 
ROOT
HETATM    1  O7  UNL     1     -34.137  15.984  -3.674  1.00 20.00    -0.388 OA
ENDROOT
BRANCH   1   2
HETATM    2  C4  UNL     1     -34.065  16.955  -2.639  1.00 20.00     0.194 C 
BRANCH   2   3
HETATM    3  C2  UNL     1     -34.574  16.347  -1.374  1.00 20.00    -0.011 C 
HETATM    4  C1  UNL     1     -34.747  17.026  -0.235  1.00 20.00     0.009 C 
ENDBRANCH   2   3
ENDBRANCH   1   2
BRANCH   1   5
HETATM    5  C6  UNL     1     -32.975  15.168  -3.706  1.00 20.00     0.167 C 
BRANCH   5   6
HETATM    6  C5  UNL     1     -33.401  13.708  -3.755  1.00 20.00     0.022 C 
HETATM    7  C3  UNL     1     -34.878  13.560  -4.073  1.00 20.00     0.007 C 
ENDBRANCH   5   6
ENDBRANCH   1   5
TORSDOF 4
ENDMDL
MODEL 7
REMARK VINA RESULT:      -3.2     11.616     12.127
REMARK  4 active torsions:
REMARK  status: ('A' for Active; 'I' for Inactive)
REMARK    1  A    between atoms: C2_2  and  C4_4 
REMARK    2  A    between atoms: C4_4  and  O7_7 
REMARK    3  A    between atoms: C5_5  and  C6_6 
REMARK    4  A    between atoms: C6_6  and  O7_7 
ROOT
HETATM    1  O7  UNL     1     -33.971  16.064  -3.475  1.00 20.00    -0.388 OA
ENDROOT
BRANCH   1   2
HETATM    2  C4  UNL     1     -32.932  15.124  -3.716  1.00 20.00     0.194 C 
BRANCH   2   3
HETATM    3  C2  UNL     1     -33.528  13.757  -3.781  1.00 20.00    -0.011 C 
HETATM    4  C1  UNL     1     -34.812  13.514  -4.067  1.00 20.00     0.009 C 
ENDBRANCH   2   3
ENDBRANCH   1   2
BRANCH   1   5
HETATM    5  C6  UNL     1     -33.741  16.802  -2.284  1.00 20.00     0.167 C 
BRANCH   5   6
HETATM    6  C5  UNL     1     -34.753  16.367  -1.234  1.00 20.00     0.022 C 
HETATM    7  C3  UNL     1     -34.707  17.255  -0.003  1.00 20.00     0.007 C 
ENDBRANCH   5   6
ENDBRANCH   1   5
TORSDOF 4
ENDMDL
MODEL 8
REMARK VINA RESULT:      -3.1     11.628     12.226
REMARK  4 active torsions:
REMARK  status: ('A' for Active; 'I' for Inactive)
REMARK    1  A    between atoms: C2_2  and  C4_4 
REMARK    2  A    between atoms: C4_4  and  O7_7 
REMARK    3  A    between atoms: C5_5  and  C6_6 
REMARK    4  A    between atoms: C6_6  and  O7_7 
ROOT
HETATM    1  O7  UNL     1     -35.096  15.740  -3.682  1.00 20.00    -0.388 OA
ENDROOT
BRANCH   1   2
HETATM    2  C4  UNL     1     -35.613  16.444  -2.559  1.00 20.00     0.194 C 
BRANCH   2   3
HETATM    3  C2  UNL     1     -34.642  16.326  -1.432  1.00 20.00    -0.011 C 
HETATM    4  C1  UNL     1     -34.711  17.047  -0.307  1.00 20.00     0.009 C 
ENDBRANCH   2   3
ENDBRANCH   1   2
BRANCH   1   5
HETATM    5  C6  UNL     1     -35.917  14.634  -4.027  1.00 20.00     0.167 C 
BRANCH   5   6
HETATM    6  C5  UNL     1     -35.043  13.396  -4.157  1.00 20.00     0.022 C 
HETATM    7  C3  UNL     1     -33.576  13.714  -3.932  1.00 20.00     0.007 C 
ENDBRANCH   5   6
ENDBRANCH   1   5
TORSDOF 4
ENDMDL
MODEL 9
REMARK VINA RESULT:      -3.0     11.541     13.236
REMARK  4 active torsions:
REMARK  status: ('A' for Active; 'I' for Inactive)
REMARK    1  A    between atoms: C2_2  and  C4_4 
REMARK    2  A    between atoms: C4_4  and  O7_7 
REMARK    3  A    between atoms: C5_5  and  C6_6 
REMARK    4  A    between atoms: C6_6  and  O7_7 
ROOT
HETATM    1  O7  UNL     1     -34.842  13.267  -5.557  1.00 20.00    -0.388 OA
ENDROOT
BRANCH   1   2
HETATM    2  C4  UNL     1     -34.845  13.518  -4.157  1.00 20.00     0.194 C 
BRANCH   2   3
HETATM    3  C2  UNL     1     -33.448  13.816  -3.722  1.00 20.00    -0.011 C 
HETATM    4  C1  UNL     1     -32.934  15.049  -3.654  1.00 20.00     0.009 C 
ENDBRANCH   2   3
ENDBRANCH   1   2
BRANCH   1   5
HETATM    5  C6  UNL     1     -35.481  14.313  -6.276  1.00 20.00     0.167 C 
BRANCH   5   6
HETATM    6  C5  UNL     1     -34.451  14.999  -7.161  1.00 20.00     0.022 C 
HETATM    7  C3  UNL     1     -34.331  16.479  -6.846  1.00 20.00     0.007 C 
ENDBRANCH   5   6
ENDBRANCH   1   5
TORSDOF 4
ENDMDL
