MODEL 1
REMARK VINA RESULT:      -6.2      0.000      0.000
REMARK  4 active torsions:
REMARK  status: ('A' for Active; 'I' for Inactive)
REMARK    1  A    between atoms: C6_6  and  C8_8 
REMARK    2  A    between atoms: C8_8  and  C10_10 
REMARK    3  A    between atoms: C9_9  and  C11_11 
REMARK    4  A    between atoms: C10_10  and  C11_11 
ROOT
HETATM    1  C1  UNL     1     -35.031   4.713   6.625  1.00 20.00     0.000 A 
HETATM    2  C2  UNL     1     -34.368   5.939   6.568  1.00 20.00     0.001 A 
HETATM    3  C3  UNL     1     -35.238   3.976   5.459  1.00 20.00     0.001 A 
HETATM    4  C4  UNL     1     -33.913   6.428   5.344  1.00 20.00     0.007 A 
HETATM    5  C5  UNL     1     -34.782   4.465   4.235  1.00 20.00     0.007 A 
HETATM    6  C6  UNL     1     -34.120   5.691   4.178  1.00 20.00    -0.058 A 
ENDROOT
BRANCH   6   7
HETATM    7  C8  UNL     1     -33.631   6.217   2.863  1.00 20.00     0.038 C 
BRANCH   7   8
HETATM    8  C10 UNL     1     -32.117   6.445   2.821  1.00 20.00     0.005 C 
BRANCH   8   9
HETATM    9  C11 UNL     1     -31.731   7.925   2.735  1.00 20.00    -0.000 C 
BRANCH   9  10
HETATM   10  C9  UNL     1     -31.854   8.447   1.302  1.00 20.00    -0.005 C 
HETATM   11  C7  UNL     1     -32.457   9.843   1.267  1.00 20.00     0.005 C 
ENDBRANCH   9  10
ENDBRANCH   8   9
ENDBRANCH   7   8
ENDBRANCH   6   7
TORSDOF 4
ENDMDL
MODEL 2
REMARK VINA RESULT:      -5.5      0.987      2.014
REMARK  4 active torsions:
REMARK  status: ('A' for Active; 'I' for Inactive)
REMARK    1  A    between atoms: C6_6  and  C8_8 
REMARK    2  A    between atoms: C8_8  and  C10_10 
REMARK    3  A    between atoms: C9_9  and  C11_11 
REMARK    4  A    between atoms: C10_10  and  C11_11 
ROOT
HETATM    1  C1  UNL     1     -35.303   5.011   5.085  1.00 20.00     0.000 A 
HETATM    2  C2  UNL     1     -34.998   5.026   3.724  1.00 20.00     0.001 A 
HETATM    3  C3  UNL     1     -34.503   5.712   5.987  1.00 20.00     0.001 A 
HETATM    4  C4  UNL     1     -33.893   5.742   3.266  1.00 20.00     0.007 A 
HETATM    5  C5  UNL     1     -33.398   6.428   5.529  1.00 20.00     0.007 A 
HETATM    6  C6  UNL     1     -33.093   6.443   4.168  1.00 20.00    -0.058 A 
ENDROOT
BRANCH   6   7
HETATM    7  C8  UNL     1     -31.905   7.212   3.676  1.00 20.00     0.038 C 
BRANCH   7   8
HETATM    8  C10 UNL     1     -32.074   7.753   2.253  1.00 20.00     0.005 C 
BRANCH   8   9
HETATM    9  C11 UNL     1     -32.491   9.226   2.212  1.00 20.00    -0.000 C 
BRANCH   9  10
HETATM   10  C9  UNL     1     -32.321   9.810   0.808  1.00 20.00    -0.005 C 
HETATM   11  C7  UNL     1     -32.426   8.733  -0.260  1.00 20.00     0.005 C 
ENDBRANCH   9  10
ENDBRANCH   8   9
ENDBRANCH   7   8
ENDBRANCH   6   7
TORSDOF 4
ENDMDL
MODEL 3
REMARK VINA RESULT:      -5.0     11.247     12.058
REMARK  4 active torsions:
REMARK  status: ('A' for Active; 'I' for Inactive)
REMARK    1  A    between atoms: C6_6  and  C8_8 
REMARK    2  A    between atoms: C8_8  and  C10_10 
REMARK    3  A    between atoms: C9_9  and  C11_11 
REMARK    4  A    between atoms: C10_10  and  C11_11 
ROOT
HETATM    1  C1  UNL     1     -35.203  13.435  -4.464  1.00 20.00     0.000 A 
HETATM    2  C2  UNL     1     -36.142  14.308  -3.914  1.00 20.00     0.001 A 
HETATM    3  C3  UNL     1     -33.844  13.628  -4.220  1.00 20.00     0.001 A 
HETATM    4  C4  UNL     1     -35.720  15.374  -3.119  1.00 20.00     0.007 A 
HETATM    5  C5  UNL     1     -33.422  14.694  -3.426  1.00 20.00     0.007 A 
HETATM    6  C6  UNL     1     -34.361  15.567  -2.875  1.00 20.00    -0.058 A 
ENDROOT
BRANCH   6   7
HETATM    7  C8  UNL     1     -33.907  16.712  -2.023  1.00 20.00     0.038 C 
BRANCH   7   8
HETATM    8  C10 UNL     1     -34.598  16.767  -0.656  1.00 20.00     0.005 C 
BRANCH   8   9
HETATM    9  C11 UNL     1     -34.106  17.920   0.224  1.00 20.00    -0.000 C 
BRANCH   9  10
HETATM   10  C9  UNL     1     -32.855  18.573  -0.366  1.00 20.00    -0.005 C 
HETATM   11  C7  UNL     1     -31.870  18.973   0.721  1.00 20.00     0.005 C 
ENDBRANCH   9  10
ENDBRANCH   8   9
ENDBRANCH   7   8
ENDBRANCH   6   7
TORSDOF 4
ENDMDL
MODEL 4
REMARK VINA RESULT:      -5.0     11.316     12.072
REMARK  4 active torsions:
REMARK  status: ('A' for Active; 'I' for Inactive)
REMARK    1  A    between atoms: C6_6  and  C8_8 
REMARK    2  A    between atoms: C8_8  and  C10_10 
REMARK    3  A    between atoms: C9_9  and  C11_11 
REMARK    4  A    between atoms: C10_10  and  C11_11 
ROOT
HETATM    1  C1  UNL     1     -35.366  13.507  -4.516  1.00 20.00     0.000 A 
HETATM    2  C2  UNL     1     -33.994  13.641  -4.305  1.00 20.00     0.001 A 
HETATM    3  C3  UNL     1     -36.256  14.392  -3.907  1.00 20.00     0.001 A 
HETATM    4  C4  UNL     1     -33.511  14.661  -3.486  1.00 20.00     0.007 A 
HETATM    5  C5  UNL     1     -35.773  15.412  -3.087  1.00 20.00     0.007 A 
HETATM    6  C6  UNL     1     -34.401  15.546  -2.877  1.00 20.00    -0.058 A 
ENDROOT
BRANCH   6   7
HETATM    7  C8  UNL     1     -33.883  16.641  -1.995  1.00 20.00     0.038 C 
BRANCH   7   8
HETATM    8  C10 UNL     1     -34.676  16.804  -0.695  1.00 20.00     0.005 C 
BRANCH   8   9
HETATM    9  C11 UNL     1     -34.098  17.874   0.236  1.00 20.00    -0.000 C 
BRANCH   9  10
HETATM   10  C9  UNL     1     -32.885  18.560  -0.395  1.00 20.00    -0.005 C 
HETATM   11  C7  UNL     1     -31.857  18.953   0.655  1.00 20.00     0.005 C 
ENDBRANCH   9  10
ENDBRANCH   8   9
ENDBRANCH   7   8
ENDBRANCH   6   7
TORSDOF 4
ENDMDL
MODEL 5
REMARK VINA RESULT:      -4.8     10.985     12.173
REMARK  4 active torsions:
REMARK  status: ('A' for Active; 'I' for Inactive)
REMARK    1  A    between atoms: C6_6  and  C8_8 
REMARK    2  A    between atoms: C8_8  and  C10_10 
REMARK    3  A    between atoms: C9_9  and  C11_11 
REMARK    4  A    between atoms: C10_10  and  C11_11 
ROOT
HETATM    1  C1  UNL     1     -33.517  18.903   1.328  1.00 20.00     0.000 A 
HETATM    2  C2  UNL     1     -34.681  18.145   1.454  1.00 20.00     0.001 A 
HETATM    3  C3  UNL     1     -32.724  18.780   0.187  1.00 20.00     0.001 A 
HETATM    4  C4  UNL     1     -35.052  17.264   0.438  1.00 20.00     0.007 A 
HETATM    5  C5  UNL     1     -33.095  17.899  -0.828  1.00 20.00     0.007 A 
HETATM    6  C6  UNL     1     -34.259  17.141  -0.702  1.00 20.00    -0.058 A 
ENDROOT
BRANCH   6   7
HETATM    7  C8  UNL     1     -34.657  16.194  -1.793  1.00 20.00     0.038 C 
BRANCH   7   8
HETATM    8  C10 UNL     1     -33.820  16.345  -3.067  1.00 20.00     0.005 C 
BRANCH   8   9
HETATM    9  C11 UNL     1     -33.264  15.015  -3.586  1.00 20.00    -0.000 C 
BRANCH   9  10
HETATM   10  C9  UNL     1     -34.316  13.908  -3.509  1.00 20.00    -0.005 C 
HETATM   11  C7  UNL     1     -34.548  13.265  -4.868  1.00 20.00     0.005 C 
ENDBRANCH   9  10
ENDBRANCH   8   9
ENDBRANCH   7   8
ENDBRANCH   6   7
TORSDOF 4
ENDMDL
MODEL 6
REMARK VINA RESULT:      -4.8     10.981     12.135
REMARK  4 active torsions:
REMARK  status: ('A' for Active; 'I' for Inactive)
REMARK    1  A    between atoms: C6_6  and  C8_8 
REMARK    2  A    between atoms: C8_8  and  C10_10 
REMARK    3  A    between atoms: C9_9  and  C11_11 
REMARK    4  A    between atoms: C10_10  and  C11_11 
ROOT
HETATM    1  C1  UNL     1     -33.586  18.894   1.416  1.00 20.00     0.000 A 
HETATM    2  C2  UNL     1     -32.784  18.796   0.279  1.00 20.00     0.001 A 
HETATM    3  C3  UNL     1     -34.740  18.117   1.525  1.00 20.00     0.001 A 
HETATM    4  C4  UNL     1     -33.135  17.921  -0.748  1.00 20.00     0.007 A 
HETATM    5  C5  UNL     1     -35.090  17.242   0.498  1.00 20.00     0.007 A 
HETATM    6  C6  UNL     1     -34.288  17.144  -0.639  1.00 20.00    -0.058 A 
ENDROOT
BRANCH   6   7
HETATM    7  C8  UNL     1     -34.667  16.204  -1.743  1.00 20.00     0.038 C 
BRANCH   7   8
HETATM    8  C10 UNL     1     -33.858  16.414  -3.027  1.00 20.00     0.005 C 
BRANCH   8   9
HETATM    9  C11 UNL     1     -33.270  15.117  -3.590  1.00 20.00    -0.000 C 
BRANCH   9  10
HETATM   10  C9  UNL     1     -34.259  13.958  -3.458  1.00 20.00    -0.005 C 
HETATM   11  C7  UNL     1     -34.545  13.313  -4.806  1.00 20.00     0.005 C 
ENDBRANCH   9  10
ENDBRANCH   8   9
ENDBRANCH   7   8
ENDBRANCH   6   7
TORSDOF 4
ENDMDL
MODEL 7
REMARK VINA RESULT:      -4.6     11.125     12.475
REMARK  4 active torsions:
REMARK  status: ('A' for Active; 'I' for Inactive)
REMARK    1  A    between atoms: C6_6  and  C8_8 
REMARK    2  A    between atoms: C8_8  and  C10_10 
REMARK    3  A    between atoms: C9_9  and  C11_11 
REMARK    4  A    between atoms: C10_10  and  C11_11 
ROOT
HETATM    1  C1  UNL     1     -34.902  13.795  -5.847  1.00 20.00     0.000 A 
HETATM    2  C2  UNL     1     -34.942  13.313  -4.539  1.00 20.00     0.001 A 
HETATM    3  C3  UNL     1     -34.435  15.084  -6.102  1.00 20.00     0.001 A 
HETATM    4  C4  UNL     1     -34.515  14.121  -3.485  1.00 20.00     0.007 A 
HETATM    5  C5  UNL     1     -34.008  15.892  -5.049  1.00 20.00     0.007 A 
HETATM    6  C6  UNL     1     -34.048  15.411  -3.740  1.00 20.00    -0.058 A 
ENDROOT
BRANCH   6   7
HETATM    7  C8  UNL     1     -33.590  16.280  -2.609  1.00 20.00     0.038 C 
BRANCH   7   8
HETATM    8  C10 UNL     1     -34.596  16.360  -1.456  1.00 20.00     0.005 C 
BRANCH   8   9
HETATM    9  C11 UNL     1     -34.211  17.391  -0.390  1.00 20.00    -0.000 C 
BRANCH   9  10
HETATM   10  C9  UNL     1     -35.236  17.422   0.745  1.00 20.00    -0.005 C 
HETATM   11  C7  UNL     1     -34.692  18.142   1.969  1.00 20.00     0.005 C 
ENDBRANCH   9  10
ENDBRANCH   8   9
ENDBRANCH   7   8
ENDBRANCH   6   7
TORSDOF 4
ENDMDL
MODEL 8
REMARK VINA RESULT:      -4.5     11.206     12.499
REMARK  4 active torsions:
REMARK  status: ('A' for Active; 'I' for Inactive)
REMARK    1  A    between atoms: C6_6  and  C8_8 
REMARK    2  A    between atoms: C8_8  and  C10_10 
REMARK    3  A    between atoms: C9_9  and  C11_11 
REMARK    4  A    between atoms: C10_10  and  C11_11 
ROOT
HETATM    1  C1  UNL     1     -34.965  13.338  -4.595  1.00 20.00     0.000 A 
HETATM    2  C2  UNL     1     -33.706  13.669  -4.095  1.00 20.00     0.001 A 
HETATM    3  C3  UNL     1     -36.089  14.058  -4.191  1.00 20.00     0.001 A 
HETATM    4  C4  UNL     1     -33.571  14.721  -3.189  1.00 20.00     0.007 A 
HETATM    5  C5  UNL     1     -35.954  15.110  -3.285  1.00 20.00     0.007 A 
HETATM    6  C6  UNL     1     -34.695  15.442  -2.785  1.00 20.00    -0.058 A 
ENDROOT
BRANCH   6   7
HETATM    7  C8  UNL     1     -34.551  16.572  -1.811  1.00 20.00     0.038 C 
BRANCH   7   8
HETATM    8  C10 UNL     1     -33.804  17.780  -2.385  1.00 20.00     0.005 C 
BRANCH   8   9
HETATM    9  C11 UNL     1     -34.463  18.356  -3.643  1.00 20.00    -0.000 C 
BRANCH   9  10
HETATM   10  C9  UNL     1     -33.513  18.302  -4.840  1.00 20.00    -0.005 C 
HETATM   11  C7  UNL     1     -33.985  17.298  -5.881  1.00 20.00     0.005 C 
ENDBRANCH   9  10
ENDBRANCH   8   9
ENDBRANCH   7   8
ENDBRANCH   6   7
TORSDOF 4
ENDMDL
MODEL 9
REMARK VINA RESULT:      -4.5     10.082     11.620
REMARK  4 active torsions:
REMARK  status: ('A' for Active; 'I' for Inactive)
REMARK    1  A    between atoms: C6_6  and  C8_8 
REMARK    2  A    between atoms: C8_8  and  C10_10 
REMARK    3  A    between atoms: C9_9  and  C11_11 
REMARK    4  A    between atoms: C10_10  and  C11_11 
ROOT
HETATM    1  C1  UNL     1     -41.060   7.011  -0.901  1.00 20.00     0.000 A 
HETATM    2  C2  UNL     1     -40.637   5.736  -0.525  1.00 20.00     0.001 A 
HETATM    3  C3  UNL     1     -41.945   7.166  -1.967  1.00 20.00     0.001 A 
HETATM    4  C4  UNL     1     -41.100   4.616  -1.216  1.00 20.00     0.007 A 
HETATM    5  C5  UNL     1     -42.408   6.047  -2.658  1.00 20.00     0.007 A 
HETATM    6  C6  UNL     1     -41.986   4.772  -2.282  1.00 20.00    -0.058 A 
ENDROOT
BRANCH   6   7
HETATM    7  C8  UNL     1     -42.482   3.569  -3.026  1.00 20.00     0.038 C 
BRANCH   7   8
HETATM    8  C10 UNL     1     -41.422   2.478  -3.199  1.00 20.00     0.005 C 
BRANCH   8   9
HETATM    9  C11 UNL     1     -41.785   1.447  -4.272  1.00 20.00    -0.000 C 
BRANCH   9  10
HETATM   10  C9  UNL     1     -42.196   0.115  -3.644  1.00 20.00    -0.005 C 
HETATM   11  C7  UNL     1     -41.294  -1.020  -4.103  1.00 20.00     0.005 C 
ENDBRANCH   9  10
ENDBRANCH   8   9
ENDBRANCH   7   8
ENDBRANCH   6   7
TORSDOF 4
ENDMDL
