MODEL 1
REMARK VINA RESULT:      -5.4      0.000      0.000
REMARK  1 active torsions:
REMARK  status: ('A' for Active; 'I' for Inactive)
REMARK    1  A    between atoms: C6_6  and  O8_8 
ROOT
HETATM    1  C1  UNL     1     -35.113   4.672   6.023  1.00 20.00     0.000 A 
HETATM    2  C2  UNL     1     -34.304   5.738   6.415  1.00 20.00     0.003 A 
HETATM    3  C3  UNL     1     -35.290   4.393   4.668  1.00 20.00     0.003 A 
HETATM    4  C4  UNL     1     -33.670   6.524   5.453  1.00 20.00     0.037 A 
HETATM    5  C5  UNL     1     -34.656   5.179   3.705  1.00 20.00     0.037 A 
HETATM    6  C6  UNL     1     -33.847   6.245   4.098  1.00 20.00     0.068 A 
ENDROOT
BRANCH   6   7
HETATM    7  O8  UNL     1     -33.230   7.012   3.158  1.00 20.00    -0.356 OA
HETATM    8  C7  UNL     1     -31.844   7.285   3.350  1.00 20.00     0.210 C 
ENDBRANCH   6   7
TORSDOF 1
ENDMDL
MODEL 2
REMARK VINA RESULT:      -5.4      0.019      1.708
REMARK  1 active torsions:
REMARK  status: ('A' for Active; 'I' for Inactive)
REMARK    1  A    between atoms: C6_6  and  O8_8 
ROOT
HETATM    1  C1  UNL     1     -35.119   4.686   6.031  1.00 20.00     0.000 A 
HETATM    2  C2  UNL     1     -35.299   4.399   4.678  1.00 20.00     0.003 A 
HETATM    3  C3  UNL     1     -34.310   5.755   6.416  1.00 20.00     0.003 A 
HETATM    4  C4  UNL     1     -34.671   5.182   3.710  1.00 20.00     0.037 A 
HETATM    5  C5  UNL     1     -33.682   6.538   5.448  1.00 20.00     0.037 A 
HETATM    6  C6  UNL     1     -33.862   6.251   4.095  1.00 20.00     0.068 A 
ENDROOT
BRANCH   6   7
HETATM    7  O8  UNL     1     -33.247   7.015   3.150  1.00 20.00    -0.356 OA
HETATM    8  C7  UNL     1     -31.857   7.276   3.332  1.00 20.00     0.210 C 
ENDBRANCH   6   7
TORSDOF 1
ENDMDL
MODEL 3
REMARK VINA RESULT:      -4.0      1.450      2.375
REMARK  1 active torsions:
REMARK  status: ('A' for Active; 'I' for Inactive)
REMARK    1  A    between atoms: C6_6  and  O8_8 
ROOT
HETATM    1  C1  UNL     1     -35.358   4.307   4.417  1.00 20.00     0.000 A 
HETATM    2  C2  UNL     1     -35.148   4.272   5.796  1.00 20.00     0.003 A 
HETATM    3  C3  UNL     1     -34.790   5.325   3.652  1.00 20.00     0.003 A 
HETATM    4  C4  UNL     1     -34.369   5.253   6.408  1.00 20.00     0.037 A 
HETATM    5  C5  UNL     1     -34.011   6.307   4.264  1.00 20.00     0.037 A 
HETATM    6  C6  UNL     1     -33.801   6.271   5.643  1.00 20.00     0.068 A 
ENDROOT
BRANCH   6   7
HETATM    7  O8  UNL     1     -33.043   7.231   6.240  1.00 20.00    -0.356 OA
HETATM    8  C7  UNL     1     -33.547   7.799   7.447  1.00 20.00     0.210 C 
ENDBRANCH   6   7
TORSDOF 1
ENDMDL
MODEL 4
REMARK VINA RESULT:      -4.0      1.457      2.572
REMARK  1 active torsions:
REMARK  status: ('A' for Active; 'I' for Inactive)
REMARK    1  A    between atoms: C6_6  and  O8_8 
ROOT
HETATM    1  C1  UNL     1     -35.359   4.297   4.412  1.00 20.00     0.000 A 
HETATM    2  C2  UNL     1     -34.807   5.329   3.652  1.00 20.00     0.003 A 
HETATM    3  C3  UNL     1     -35.132   4.246   5.787  1.00 20.00     0.003 A 
HETATM    4  C4  UNL     1     -34.028   6.308   4.267  1.00 20.00     0.037 A 
HETATM    5  C5  UNL     1     -34.353   5.225   6.402  1.00 20.00     0.037 A 
HETATM    6  C6  UNL     1     -33.800   6.256   5.642  1.00 20.00     0.068 A 
ENDROOT
BRANCH   6   7
HETATM    7  O8  UNL     1     -33.038   7.211   6.243  1.00 20.00    -0.356 OA
HETATM    8  C7  UNL     1     -33.561   7.808   7.428  1.00 20.00     0.210 C 
ENDBRANCH   6   7
TORSDOF 1
ENDMDL
MODEL 5
REMARK VINA RESULT:      -3.9     11.951     12.474
REMARK  1 active torsions:
REMARK  status: ('A' for Active; 'I' for Inactive)
REMARK    1  A    between atoms: C6_6  and  O8_8 
ROOT
HETATM    1  C1  UNL     1     -33.335  14.799  -3.538  1.00 20.00     0.000 A 
HETATM    2  C2  UNL     1     -34.221  15.706  -2.957  1.00 20.00     0.003 A 
HETATM    3  C3  UNL     1     -33.825  13.678  -4.208  1.00 20.00     0.003 A 
HETATM    4  C4  UNL     1     -35.597  15.493  -3.047  1.00 20.00     0.037 A 
HETATM    5  C5  UNL     1     -35.200  13.465  -4.298  1.00 20.00     0.037 A 
HETATM    6  C6  UNL     1     -36.086  14.372  -3.717  1.00 20.00     0.068 A 
ENDROOT
BRANCH   6   7
HETATM    7  O8  UNL     1     -37.428  14.162  -3.803  1.00 20.00    -0.356 OA
HETATM    8  C7  UNL     1     -38.275  15.299  -3.645  1.00 20.00     0.210 C 
ENDBRANCH   6   7
TORSDOF 1
ENDMDL
MODEL 6
REMARK VINA RESULT:      -3.9      9.700     10.735
REMARK  1 active torsions:
REMARK  status: ('A' for Active; 'I' for Inactive)
REMARK    1  A    between atoms: C6_6  and  O8_8 
ROOT
HETATM    1  C1  UNL     1     -40.687   5.710  -0.465  1.00 20.00     0.000 A 
HETATM    2  C2  UNL     1     -41.169   4.645  -1.225  1.00 20.00     0.003 A 
HETATM    3  C3  UNL     1     -41.029   7.019  -0.802  1.00 20.00     0.003 A 
HETATM    4  C4  UNL     1     -41.994   4.889  -2.323  1.00 20.00     0.037 A 
HETATM    5  C5  UNL     1     -41.854   7.263  -1.900  1.00 20.00     0.037 A 
HETATM    6  C6  UNL     1     -42.336   6.198  -2.660  1.00 20.00     0.068 A 
ENDROOT
BRANCH   6   7
HETATM    7  O8  UNL     1     -43.140   6.437  -3.732  1.00 20.00    -0.356 OA
HETATM    8  C7  UNL     1     -43.294   7.796  -4.138  1.00 20.00     0.210 C 
ENDBRANCH   6   7
TORSDOF 1
ENDMDL
MODEL 7
REMARK VINA RESULT:      -3.8      9.361     10.479
REMARK  1 active torsions:
REMARK  status: ('A' for Active; 'I' for Inactive)
REMARK    1  A    between atoms: C6_6  and  O8_8 
ROOT
HETATM    1  C1  UNL     1     -41.085   7.073  -0.844  1.00 20.00     0.000 A 
HETATM    2  C2  UNL     1     -40.667   5.786  -0.503  1.00 20.00     0.003 A 
HETATM    3  C3  UNL     1     -41.963   7.260  -1.911  1.00 20.00     0.003 A 
HETATM    4  C4  UNL     1     -41.127   4.688  -1.229  1.00 20.00     0.037 A 
HETATM    5  C5  UNL     1     -42.423   6.162  -2.637  1.00 20.00     0.037 A 
HETATM    6  C6  UNL     1     -42.004   4.876  -2.296  1.00 20.00     0.068 A 
ENDROOT
BRANCH   6   7
HETATM    7  O8  UNL     1     -42.452   3.804  -3.007  1.00 20.00    -0.356 OA
HETATM    8  C7  UNL     1     -41.587   2.674  -3.091  1.00 20.00     0.210 C 
ENDBRANCH   6   7
TORSDOF 1
ENDMDL
MODEL 8
REMARK VINA RESULT:      -3.8      1.127      1.498
REMARK  1 active torsions:
REMARK  status: ('A' for Active; 'I' for Inactive)
REMARK    1  A    between atoms: C6_6  and  O8_8 
ROOT
HETATM    1  C1  UNL     1     -34.795   5.361   6.755  1.00 20.00     0.000 A 
HETATM    2  C2  UNL     1     -33.997   6.456   6.421  1.00 20.00     0.003 A 
HETATM    3  C3  UNL     1     -35.203   4.468   5.765  1.00 20.00     0.003 A 
HETATM    4  C4  UNL     1     -33.606   6.656   5.098  1.00 20.00     0.037 A 
HETATM    5  C5  UNL     1     -34.812   4.668   4.441  1.00 20.00     0.037 A 
HETATM    6  C6  UNL     1     -34.014   5.763   4.108  1.00 20.00     0.068 A 
ENDROOT
BRANCH   6   7
HETATM    7  O8  UNL     1     -33.635   5.958   2.815  1.00 20.00    -0.356 OA
HETATM    8  C7  UNL     1     -34.054   4.985   1.861  1.00 20.00     0.210 C 
ENDBRANCH   6   7
TORSDOF 1
ENDMDL
MODEL 9
REMARK VINA RESULT:      -3.8     11.953     13.542
REMARK  1 active torsions:
REMARK  status: ('A' for Active; 'I' for Inactive)
REMARK    1  A    between atoms: C6_6  and  O8_8 
ROOT
HETATM    1  C1  UNL     1     -34.779  13.267  -4.735  1.00 20.00     0.000 A 
HETATM    2  C2  UNL     1     -34.957  14.060  -5.869  1.00 20.00     0.003 A 
HETATM    3  C3  UNL     1     -33.993  13.727  -3.680  1.00 20.00     0.003 A 
HETATM    4  C4  UNL     1     -34.350  15.313  -5.946  1.00 20.00     0.037 A 
HETATM    5  C5  UNL     1     -33.386  14.980  -3.757  1.00 20.00     0.037 A 
HETATM    6  C6  UNL     1     -33.564  15.773  -4.891  1.00 20.00     0.068 A 
ENDROOT
BRANCH   6   7
HETATM    7  O8  UNL     1     -32.969  16.995  -4.966  1.00 20.00    -0.356 OA
HETATM    8  C7  UNL     1     -33.671  18.016  -5.672  1.00 20.00     0.210 C 
ENDBRANCH   6   7
TORSDOF 1
ENDMDL
