MODEL 1
REMARK VINA RESULT:      -4.9      0.000      0.000
REMARK  2 active torsions:
REMARK  status: ('A' for Active; 'I' for Inactive)
REMARK    1  A    between atoms: C6_6  and  C7_7 
REMARK    2  A    between atoms: C7_7  and  S8_8 
ROOT
HETATM    1  C1  UNL     1     -35.102   4.739   6.215  1.00 20.00     0.000 A 
HETATM    2  C2  UNL     1     -34.303   5.857   6.454  1.00 20.00     0.001 A 
HETATM    3  C3  UNL     1     -35.306   4.295   4.908  1.00 20.00     0.001 A 
HETATM    4  C4  UNL     1     -33.709   6.531   5.387  1.00 20.00     0.008 A 
HETATM    5  C5  UNL     1     -34.711   4.968   3.841  1.00 20.00     0.008 A 
HETATM    6  C6  UNL     1     -33.913   6.087   4.081  1.00 20.00    -0.049 A 
ENDROOT
BRANCH   6   7
HETATM    7  C7  UNL     1     -33.277   6.806   2.940  1.00 20.00     0.109 C 
BRANCH   7   8
HETATM    8  S8  UNL     1     -31.642   7.482   3.366  1.00 20.00    -0.178 SA
HETATM    9  H16 UNL     1     -31.595   8.372   2.367  1.00 20.00     0.101 HD
ENDBRANCH   7   8
ENDBRANCH   6   7
TORSDOF 2
ENDMDL
MODEL 2
REMARK VINA RESULT:      -4.9      0.004      1.708
REMARK  2 active torsions:
REMARK  status: ('A' for Active; 'I' for Inactive)
REMARK    1  A    between atoms: C6_6  and  C7_7 
REMARK    2  A    between atoms: C7_7  and  S8_8 
ROOT
HETATM    1  C1  UNL     1     -35.101   4.739   6.217  1.00 20.00     0.000 A 
HETATM    2  C2  UNL     1     -35.308   4.294   4.911  1.00 20.00     0.001 A 
HETATM    3  C3  UNL     1     -34.302   5.858   6.453  1.00 20.00     0.001 A 
HETATM    4  C4  UNL     1     -34.714   4.965   3.843  1.00 20.00     0.008 A 
HETATM    5  C5  UNL     1     -33.709   6.530   5.385  1.00 20.00     0.008 A 
HETATM    6  C6  UNL     1     -33.914   6.083   4.079  1.00 20.00    -0.049 A 
ENDROOT
BRANCH   6   7
HETATM    7  C7  UNL     1     -33.279   6.803   2.938  1.00 20.00     0.109 C 
BRANCH   7   8
HETATM    8  S8  UNL     1     -31.644   7.478   3.361  1.00 20.00    -0.178 SA
HETATM    9  H16 UNL     1     -30.977   6.849   2.386  1.00 20.00     0.101 HD
ENDBRANCH   7   8
ENDBRANCH   6   7
TORSDOF 2
ENDMDL
MODEL 3
REMARK VINA RESULT:      -3.8     12.004     12.370
REMARK  2 active torsions:
REMARK  status: ('A' for Active; 'I' for Inactive)
REMARK    1  A    between atoms: C6_6  and  C7_7 
REMARK    2  A    between atoms: C7_7  and  S8_8 
ROOT
HETATM    1  C1  UNL     1     -35.251  13.451  -4.394  1.00 20.00     0.000 A 
HETATM    2  C2  UNL     1     -33.879  13.613  -4.203  1.00 20.00     0.001 A 
HETATM    3  C3  UNL     1     -36.145  14.369  -3.841  1.00 20.00     0.001 A 
HETATM    4  C4  UNL     1     -33.401  14.690  -3.458  1.00 20.00     0.008 A 
HETATM    5  C5  UNL     1     -35.666  15.447  -3.097  1.00 20.00     0.008 A 
HETATM    6  C6  UNL     1     -34.294  15.608  -2.905  1.00 20.00    -0.049 A 
ENDROOT
BRANCH   6   7
HETATM    7  C7  UNL     1     -33.783  16.761  -2.110  1.00 20.00     0.109 C 
BRANCH   7   8
HETATM    8  S8  UNL     1     -34.681  16.980  -0.543  1.00 20.00    -0.178 SA
HETATM    9  H16 UNL     1     -34.281  15.828   0.009  1.00 20.00     0.101 HD
ENDBRANCH   7   8
ENDBRANCH   6   7
TORSDOF 2
ENDMDL
MODEL 4
REMARK VINA RESULT:      -3.8     12.027     12.394
REMARK  2 active torsions:
REMARK  status: ('A' for Active; 'I' for Inactive)
REMARK    1  A    between atoms: C6_6  and  C7_7 
REMARK    2  A    between atoms: C7_7  and  S8_8 
ROOT
HETATM    1  C1  UNL     1     -35.218  13.470  -4.393  1.00 20.00     0.000 A 
HETATM    2  C2  UNL     1     -36.121  14.366  -3.822  1.00 20.00     0.001 A 
HETATM    3  C3  UNL     1     -33.847  13.656  -4.217  1.00 20.00     0.001 A 
HETATM    4  C4  UNL     1     -35.654  15.448  -3.076  1.00 20.00     0.008 A 
HETATM    5  C5  UNL     1     -33.379  14.737  -3.470  1.00 20.00     0.008 A 
HETATM    6  C6  UNL     1     -34.283  15.634  -2.900  1.00 20.00    -0.049 A 
ENDROOT
BRANCH   6   7
HETATM    7  C7  UNL     1     -33.783  16.790  -2.102  1.00 20.00     0.109 C 
BRANCH   7   8
HETATM    8  S8  UNL     1     -34.677  16.992  -0.530  1.00 20.00    -0.178 SA
HETATM    9  H16 UNL     1     -34.202  18.214  -0.257  1.00 20.00     0.101 HD
ENDBRANCH   7   8
ENDBRANCH   6   7
TORSDOF 2
ENDMDL
MODEL 5
REMARK VINA RESULT:      -3.8      9.725     10.623
REMARK  2 active torsions:
REMARK  status: ('A' for Active; 'I' for Inactive)
REMARK    1  A    between atoms: C6_6  and  C7_7 
REMARK    2  A    between atoms: C7_7  and  S8_8 
ROOT
HETATM    1  C1  UNL     1     -41.243   7.168  -0.880  1.00 20.00     0.000 A 
HETATM    2  C2  UNL     1     -42.056   7.025  -2.005  1.00 20.00     0.001 A 
HETATM    3  C3  UNL     1     -40.634   6.048  -0.315  1.00 20.00     0.001 A 
HETATM    4  C4  UNL     1     -42.261   5.763  -2.562  1.00 20.00     0.008 A 
HETATM    5  C5  UNL     1     -40.837   4.786  -0.872  1.00 20.00     0.008 A 
HETATM    6  C6  UNL     1     -41.652   4.643  -1.996  1.00 20.00    -0.049 A 
ENDROOT
BRANCH   6   7
HETATM    7  C7  UNL     1     -41.870   3.294  -2.592  1.00 20.00     0.109 C 
BRANCH   7   8
HETATM    8  S8  UNL     1     -43.398   3.204  -3.576  1.00 20.00    -0.178 SA
HETATM    9  H16 UNL     1     -42.850   2.577  -4.625  1.00 20.00     0.101 HD
ENDBRANCH   7   8
ENDBRANCH   6   7
TORSDOF 2
ENDMDL
MODEL 6
REMARK VINA RESULT:      -3.8      9.729     10.569
REMARK  2 active torsions:
REMARK  status: ('A' for Active; 'I' for Inactive)
REMARK    1  A    between atoms: C6_6  and  C7_7 
REMARK    2  A    between atoms: C7_7  and  S8_8 
ROOT
HETATM    1  C1  UNL     1     -41.246   7.120  -0.879  1.00 20.00     0.000 A 
HETATM    2  C2  UNL     1     -40.646   5.995  -0.314  1.00 20.00     0.001 A 
HETATM    3  C3  UNL     1     -42.042   6.987  -2.017  1.00 20.00     0.001 A 
HETATM    4  C4  UNL     1     -40.840   4.739  -0.887  1.00 20.00     0.008 A 
HETATM    5  C5  UNL     1     -42.238   5.731  -2.590  1.00 20.00     0.008 A 
HETATM    6  C6  UNL     1     -41.636   4.606  -2.024  1.00 20.00    -0.049 A 
ENDROOT
BRANCH   6   7
HETATM    7  C7  UNL     1     -41.845   3.262  -2.637  1.00 20.00     0.109 C 
BRANCH   7   8
HETATM    8  S8  UNL     1     -43.393   3.162  -3.587  1.00 20.00    -0.178 SA
HETATM    9  H16 UNL     1     -43.312   1.851  -3.846  1.00 20.00     0.101 HD
ENDBRANCH   7   8
ENDBRANCH   6   7
TORSDOF 2
ENDMDL
MODEL 7
REMARK VINA RESULT:      -3.7      9.728     10.405
REMARK  2 active torsions:
REMARK  status: ('A' for Active; 'I' for Inactive)
REMARK    1  A    between atoms: C6_6  and  C7_7 
REMARK    2  A    between atoms: C7_7  and  S8_8 
ROOT
HETATM    1  C1  UNL     1     -40.760   4.754  -0.904  1.00 20.00     0.000 A 
HETATM    2  C2  UNL     1     -40.631   6.040  -0.378  1.00 20.00     0.001 A 
HETATM    3  C3  UNL     1     -41.620   4.524  -1.977  1.00 20.00     0.001 A 
HETATM    4  C4  UNL     1     -41.362   7.094  -0.925  1.00 20.00     0.008 A 
HETATM    5  C5  UNL     1     -42.351   5.577  -2.525  1.00 20.00     0.008 A 
HETATM    6  C6  UNL     1     -42.222   6.863  -1.999  1.00 20.00    -0.049 A 
ENDROOT
BRANCH   6   7
HETATM    7  C7  UNL     1     -43.004   7.990  -2.585  1.00 20.00     0.109 C 
BRANCH   7   8
HETATM    8  S8  UNL     1     -42.531   8.346  -4.305  1.00 20.00    -0.178 SA
HETATM    9  H16 UNL     1     -41.289   7.854  -4.212  1.00 20.00     0.101 HD
ENDBRANCH   7   8
ENDBRANCH   6   7
TORSDOF 2
ENDMDL
MODEL 8
REMARK VINA RESULT:      -3.7      9.727     10.543
REMARK  2 active torsions:
REMARK  status: ('A' for Active; 'I' for Inactive)
REMARK    1  A    between atoms: C6_6  and  C7_7 
REMARK    2  A    between atoms: C7_7  and  S8_8 
ROOT
HETATM    1  C1  UNL     1     -40.755   4.746  -0.908  1.00 20.00     0.000 A 
HETATM    2  C2  UNL     1     -41.621   4.515  -1.977  1.00 20.00     0.001 A 
HETATM    3  C3  UNL     1     -40.622   6.032  -0.385  1.00 20.00     0.001 A 
HETATM    4  C4  UNL     1     -42.352   5.570  -2.523  1.00 20.00     0.008 A 
HETATM    5  C5  UNL     1     -41.354   7.087  -0.930  1.00 20.00     0.008 A 
HETATM    6  C6  UNL     1     -42.219   6.856  -2.000  1.00 20.00    -0.049 A 
ENDROOT
BRANCH   6   7
HETATM    7  C7  UNL     1     -43.001   7.984  -2.582  1.00 20.00     0.109 C 
BRANCH   7   8
HETATM    8  S8  UNL     1     -42.536   8.340  -4.305  1.00 20.00    -0.178 SA
HETATM    9  H16 UNL     1     -41.797   7.237  -4.479  1.00 20.00     0.101 HD
ENDBRANCH   7   8
ENDBRANCH   6   7
TORSDOF 2
ENDMDL
MODEL 9
REMARK VINA RESULT:      -3.6     12.355     13.772
REMARK  2 active torsions:
REMARK  status: ('A' for Active; 'I' for Inactive)
REMARK    1  A    between atoms: C6_6  and  C7_7 
REMARK    2  A    between atoms: C7_7  and  S8_8 
ROOT
HETATM    1  C1  UNL     1     -33.066  15.093  -3.636  1.00 20.00     0.000 A 
HETATM    2  C2  UNL     1     -33.681  13.854  -3.814  1.00 20.00     0.001 A 
HETATM    3  C3  UNL     1     -33.212  16.089  -4.602  1.00 20.00     0.001 A 
HETATM    4  C4  UNL     1     -34.438  13.609  -4.959  1.00 20.00     0.008 A 
HETATM    5  C5  UNL     1     -33.970  15.845  -5.747  1.00 20.00     0.008 A 
HETATM    6  C6  UNL     1     -34.583  14.604  -5.926  1.00 20.00    -0.049 A 
ENDROOT
BRANCH   6   7
HETATM    7  C7  UNL     1     -35.394  14.344  -7.150  1.00 20.00     0.109 C 
BRANCH   7   8
HETATM    8  S8  UNL     1     -36.938  15.306  -7.182  1.00 20.00    -0.178 SA
HETATM    9  H16 UNL     1     -36.506  16.233  -8.046  1.00 20.00     0.101 HD
ENDBRANCH   7   8
ENDBRANCH   6   7
TORSDOF 2
ENDMDL
