MODEL 1
REMARK VINA RESULT:      -5.6      0.000      0.000
REMARK  0 active torsions:
REMARK  status: ('A' for Active; 'I' for Inactive)
ROOT
HETATM    1  C1  UNL     1     -35.296   4.618   5.721  1.00 20.00     0.001 A 
HETATM    2  C2  UNL     1     -34.677   5.492   6.617  1.00 20.00     0.003 A 
HETATM    3  C3  UNL     1     -34.964   4.624   4.358  1.00 20.00     0.014 A 
HETATM    4  C4  UNL     1     -33.706   6.403   6.189  1.00 20.00     0.038 A 
HETATM    5  C5  UNL     1     -33.393   5.842   2.655  1.00 20.00     0.039 A 
HETATM    6  C6  UNL     1     -32.489   6.850   2.896  1.00 20.00     0.143 A 
HETATM    7  C7  UNL     1     -33.989   5.531   3.906  1.00 20.00    -0.001 A 
HETATM    8  C8  UNL     1     -33.397   6.385   4.830  1.00 20.00     0.085 A 
HETATM    9  O9  UNL     1     -32.484   7.187   4.213  1.00 20.00    -0.322 OA
ENDROOT
TORSDOF 0
ENDMDL
MODEL 2
REMARK VINA RESULT:      -5.5      0.904      1.950
REMARK  0 active torsions:
REMARK  status: ('A' for Active; 'I' for Inactive)
ROOT
HETATM    1  C1  UNL     1     -34.665   5.573   6.653  1.00 20.00     0.001 A 
HETATM    2  C2  UNL     1     -35.293   4.655   5.807  1.00 20.00     0.003 A 
HETATM    3  C3  UNL     1     -33.707   6.472   6.161  1.00 20.00     0.014 A 
HETATM    4  C4  UNL     1     -34.989   4.600   4.444  1.00 20.00     0.038 A 
HETATM    5  C5  UNL     1     -32.508   7.146   3.935  1.00 20.00     0.039 A 
HETATM    6  C6  UNL     1     -32.675   6.612   2.678  1.00 20.00     0.143 A 
HETATM    7  C7  UNL     1     -33.388   6.434   4.792  1.00 20.00    -0.001 A 
HETATM    8  C8  UNL     1     -34.035   5.505   3.984  1.00 20.00     0.085 A 
HETATM    9  O9  UNL     1     -33.600   5.616   2.698  1.00 20.00    -0.322 OA
ENDROOT
TORSDOF 0
ENDMDL
MODEL 3
REMARK VINA RESULT:      -4.6      1.058      3.077
REMARK  0 active torsions:
REMARK  status: ('A' for Active; 'I' for Inactive)
ROOT
HETATM    1  C1  UNL     1     -33.383   5.844   2.285  1.00 20.00     0.001 A 
HETATM    2  C2  UNL     1     -32.567   6.795   2.901  1.00 20.00     0.003 A 
HETATM    3  C3  UNL     1     -34.314   5.101   3.025  1.00 20.00     0.014 A 
HETATM    4  C4  UNL     1     -32.649   7.041   4.275  1.00 20.00     0.038 A 
HETATM    5  C5  UNL     1     -35.199   4.813   5.472  1.00 20.00     0.039 A 
HETATM    6  C6  UNL     1     -34.801   5.477   6.608  1.00 20.00     0.143 A 
HETATM    7  C7  UNL     1     -34.415   5.333   4.408  1.00 20.00    -0.001 A 
HETATM    8  C8  UNL     1     -33.584   6.289   4.984  1.00 20.00     0.085 A 
HETATM    9  O9  UNL     1     -33.821   6.374   6.323  1.00 20.00    -0.322 OA
ENDROOT
TORSDOF 0
ENDMDL
MODEL 4
REMARK VINA RESULT:      -4.6      1.471      3.653
REMARK  0 active torsions:
REMARK  status: ('A' for Active; 'I' for Inactive)
ROOT
HETATM    1  C1  UNL     1     -32.585   6.820   3.019  1.00 20.00     0.001 A 
HETATM    2  C2  UNL     1     -33.362   5.915   2.292  1.00 20.00     0.003 A 
HETATM    3  C3  UNL     1     -32.750   6.964   4.404  1.00 20.00     0.014 A 
HETATM    4  C4  UNL     1     -34.329   5.123   2.917  1.00 20.00     0.038 A 
HETATM    5  C5  UNL     1     -34.176   6.028   6.389  1.00 20.00     0.039 A 
HETATM    6  C6  UNL     1     -35.163   5.071   6.356  1.00 20.00     0.143 A 
HETATM    7  C7  UNL     1     -33.717   6.176   5.054  1.00 20.00    -0.001 A 
HETATM    8  C8  UNL     1     -34.470   5.288   4.294  1.00 20.00     0.085 A 
HETATM    9  O9  UNL     1     -35.350   4.616   5.088  1.00 20.00    -0.322 OA
ENDROOT
TORSDOF 0
ENDMDL
MODEL 5
REMARK VINA RESULT:      -4.5      9.884     10.778
REMARK  0 active torsions:
REMARK  status: ('A' for Active; 'I' for Inactive)
ROOT
HETATM    1  C1  UNL     1     -40.602   6.126  -0.372  1.00 20.00     0.001 A 
HETATM    2  C2  UNL     1     -41.248   7.182  -1.020  1.00 20.00     0.003 A 
HETATM    3  C3  UNL     1     -40.817   4.797  -0.765  1.00 20.00     0.014 A 
HETATM    4  C4  UNL     1     -42.130   6.952  -2.080  1.00 20.00     0.038 A 
HETATM    5  C5  UNL     1     -42.170   3.386  -2.505  1.00 20.00     0.039 A 
HETATM    6  C6  UNL     1     -43.036   3.830  -3.477  1.00 20.00     0.143 A 
HETATM    7  C7  UNL     1     -41.699   4.543  -1.830  1.00 20.00    -0.001 A 
HETATM    8  C8  UNL     1     -42.323   5.622  -2.448  1.00 20.00     0.085 A 
HETATM    9  O9  UNL     1     -43.136   5.185  -3.450  1.00 20.00    -0.322 OA
ENDROOT
TORSDOF 0
ENDMDL
MODEL 6
REMARK VINA RESULT:      -4.5     10.103     10.902
REMARK  0 active torsions:
REMARK  status: ('A' for Active; 'I' for Inactive)
ROOT
HETATM    1  C1  UNL     1     -40.627   5.789  -0.418  1.00 20.00     0.001 A 
HETATM    2  C2  UNL     1     -41.018   4.578  -0.996  1.00 20.00     0.003 A 
HETATM    3  C3  UNL     1     -41.078   7.013  -0.932  1.00 20.00     0.014 A 
HETATM    4  C4  UNL     1     -41.869   4.544  -2.104  1.00 20.00     0.038 A 
HETATM    5  C5  UNL     1     -42.587   7.986  -2.836  1.00 20.00     0.039 A 
HETATM    6  C6  UNL     1     -43.297   7.305  -3.797  1.00 20.00     0.143 A 
HETATM    7  C7  UNL     1     -41.936   7.003  -2.046  1.00 20.00    -0.001 A 
HETATM    8  C8  UNL     1     -42.300   5.776  -2.592  1.00 20.00     0.085 A 
HETATM    9  O9  UNL     1     -43.129   5.963  -3.657  1.00 20.00    -0.322 OA
ENDROOT
TORSDOF 0
ENDMDL
MODEL 7
REMARK VINA RESULT:      -4.3     12.067     13.720
REMARK  0 active torsions:
REMARK  status: ('A' for Active; 'I' for Inactive)
ROOT
HETATM    1  C1  UNL     1     -34.448  13.332  -4.883  1.00 20.00     0.001 A 
HETATM    2  C2  UNL     1     -33.618  13.691  -3.819  1.00 20.00     0.003 A 
HETATM    3  C3  UNL     1     -34.798  14.262  -5.873  1.00 20.00     0.014 A 
HETATM    4  C4  UNL     1     -33.107  14.987  -3.702  1.00 20.00     0.038 A 
HETATM    5  C5  UNL     1     -34.406  16.761  -6.541  1.00 20.00     0.039 A 
HETATM    6  C6  UNL     1     -33.654  17.712  -5.892  1.00 20.00     0.143 A 
HETATM    7  C7  UNL     1     -34.294  15.571  -5.776  1.00 20.00    -0.001 A 
HETATM    8  C8  UNL     1     -33.471  15.888  -4.701  1.00 20.00     0.085 A 
HETATM    9  O9  UNL     1     -33.083  17.192  -4.773  1.00 20.00    -0.322 OA
ENDROOT
TORSDOF 0
ENDMDL
MODEL 8
REMARK VINA RESULT:      -4.3     12.064     13.810
REMARK  0 active torsions:
REMARK  status: ('A' for Active; 'I' for Inactive)
ROOT
HETATM    1  C1  UNL     1     -33.132  15.279  -3.676  1.00 20.00     0.001 A 
HETATM    2  C2  UNL     1     -33.694  14.002  -3.620  1.00 20.00     0.003 A 
HETATM    3  C3  UNL     1     -33.297  16.093  -4.807  1.00 20.00     0.014 A 
HETATM    4  C4  UNL     1     -34.438  13.489  -4.687  1.00 20.00     0.038 A 
HETATM    5  C5  UNL     1     -34.427  16.085  -7.168  1.00 20.00     0.039 A 
HETATM    6  C6  UNL     1     -35.168  15.088  -7.758  1.00 20.00     0.143 A 
HETATM    7  C7  UNL     1     -34.043  15.597  -5.891  1.00 20.00    -0.001 A 
HETATM    8  C8  UNL     1     -34.585  14.319  -5.796  1.00 20.00     0.085 A 
HETATM    9  O9  UNL     1     -35.269  14.012  -6.933  1.00 20.00    -0.322 OA
ENDROOT
TORSDOF 0
ENDMDL
MODEL 9
REMARK VINA RESULT:      -4.2     11.971     12.558
REMARK  0 active torsions:
REMARK  status: ('A' for Active; 'I' for Inactive)
ROOT
HETATM    1  C1  UNL     1     -33.923  13.458  -4.295  1.00 20.00     0.001 A 
HETATM    2  C2  UNL     1     -35.308  13.456  -4.481  1.00 20.00     0.003 A 
HETATM    3  C3  UNL     1     -33.298  14.459  -3.537  1.00 20.00     0.014 A 
HETATM    4  C4  UNL     1     -36.117  14.448  -3.921  1.00 20.00     0.038 A 
HETATM    5  C5  UNL     1     -33.857  16.614  -2.161  1.00 20.00     0.039 A 
HETATM    6  C6  UNL     1     -35.085  17.190  -1.936  1.00 20.00     0.143 A 
HETATM    7  C7  UNL     1     -34.093  15.467  -2.964  1.00 20.00    -0.001 A 
HETATM    8  C8  UNL     1     -35.468  15.429  -3.173  1.00 20.00     0.085 A 
HETATM    9  O9  UNL     1     -36.069  16.478  -2.546  1.00 20.00    -0.322 OA
ENDROOT
TORSDOF 0
ENDMDL
