MODEL 1
REMARK VINA RESULT:      -5.2      0.000      0.000
REMARK  0 active torsions:
REMARK  status: ('A' for Active; 'I' for Inactive)
ROOT
HETATM    1  C1  UNL     1     -34.339   5.594   6.427  1.00 20.00     0.000 A 
HETATM    2  C2  UNL     1     -35.057   4.501   5.944  1.00 20.00     0.000 A 
HETATM    3  C3  UNL     1     -33.822   6.538   5.539  1.00 20.00     0.000 A 
HETATM    4  C4  UNL     1     -35.260   4.351   4.572  1.00 20.00     0.000 A 
HETATM    5  C5  UNL     1     -34.024   6.388   4.167  1.00 20.00     0.000 A 
HETATM    6  C6  UNL     1     -34.743   5.295   3.684  1.00 20.00     0.000 A 
ENDROOT
TORSDOF 0
ENDMDL
MODEL 2
REMARK VINA RESULT:      -5.2      0.001      1.973
REMARK  0 active torsions:
REMARK  status: ('A' for Active; 'I' for Inactive)
ROOT
HETATM    1  C1  UNL     1     -34.339   5.596   6.427  1.00 20.00     0.000 A 
HETATM    2  C2  UNL     1     -33.823   6.539   5.539  1.00 20.00     0.000 A 
HETATM    3  C3  UNL     1     -35.058   4.502   5.944  1.00 20.00     0.000 A 
HETATM    4  C4  UNL     1     -34.024   6.389   4.167  1.00 20.00     0.000 A 
HETATM    5  C5  UNL     1     -35.259   4.352   4.571  1.00 20.00     0.000 A 
HETATM    6  C6  UNL     1     -34.743   5.295   3.684  1.00 20.00     0.000 A 
ENDROOT
TORSDOF 0
ENDMDL
MODEL 3
REMARK VINA RESULT:      -5.2      0.006      1.973
REMARK  0 active torsions:
REMARK  status: ('A' for Active; 'I' for Inactive)
ROOT
HETATM    1  C1  UNL     1     -35.054   4.501   5.945  1.00 20.00     0.000 A 
HETATM    2  C2  UNL     1     -34.339   5.597   6.429  1.00 20.00     0.000 A 
HETATM    3  C3  UNL     1     -35.252   4.347   4.573  1.00 20.00     0.000 A 
HETATM    4  C4  UNL     1     -33.823   6.540   5.540  1.00 20.00     0.000 A 
HETATM    5  C5  UNL     1     -34.736   5.290   3.684  1.00 20.00     0.000 A 
HETATM    6  C6  UNL     1     -34.022   6.386   4.168  1.00 20.00     0.000 A 
ENDROOT
TORSDOF 0
ENDMDL
MODEL 4
REMARK VINA RESULT:      -5.2      0.044      1.379
REMARK  0 active torsions:
REMARK  status: ('A' for Active; 'I' for Inactive)
ROOT
HETATM    1  C1  UNL     1     -33.855   6.512   5.571  1.00 20.00     0.000 A 
HETATM    2  C2  UNL     1     -34.358   5.546   6.443  1.00 20.00     0.000 A 
HETATM    3  C3  UNL     1     -34.052   6.381   4.196  1.00 20.00     0.000 A 
HETATM    4  C4  UNL     1     -35.056   4.449   5.940  1.00 20.00     0.000 A 
HETATM    5  C5  UNL     1     -34.750   5.283   3.693  1.00 20.00     0.000 A 
HETATM    6  C6  UNL     1     -35.252   4.318   4.566  1.00 20.00     0.000 A 
ENDROOT
TORSDOF 0
ENDMDL
MODEL 5
REMARK VINA RESULT:      -5.2      0.026      2.423
REMARK  0 active torsions:
REMARK  status: ('A' for Active; 'I' for Inactive)
ROOT
HETATM    1  C1  UNL     1     -35.248   4.363   4.541  1.00 20.00     0.000 A 
HETATM    2  C2  UNL     1     -34.726   5.313   3.663  1.00 20.00     0.000 A 
HETATM    3  C3  UNL     1     -35.051   4.500   5.915  1.00 20.00     0.000 A 
HETATM    4  C4  UNL     1     -34.007   6.400   4.159  1.00 20.00     0.000 A 
HETATM    5  C5  UNL     1     -34.332   5.588   6.411  1.00 20.00     0.000 A 
HETATM    6  C6  UNL     1     -33.811   6.537   5.533  1.00 20.00     0.000 A 
ENDROOT
TORSDOF 0
ENDMDL
MODEL 6
REMARK VINA RESULT:      -5.2      0.053      1.973
REMARK  0 active torsions:
REMARK  status: ('A' for Active; 'I' for Inactive)
ROOT
HETATM    1  C1  UNL     1     -34.013   6.379   4.199  1.00 20.00     0.000 A 
HETATM    2  C2  UNL     1     -34.723   5.298   3.675  1.00 20.00     0.000 A 
HETATM    3  C3  UNL     1     -33.837   6.495   5.578  1.00 20.00     0.000 A 
HETATM    4  C4  UNL     1     -35.256   4.333   4.530  1.00 20.00     0.000 A 
HETATM    5  C5  UNL     1     -34.370   5.530   6.433  1.00 20.00     0.000 A 
HETATM    6  C6  UNL     1     -35.079   4.450   5.909  1.00 20.00     0.000 A 
ENDROOT
TORSDOF 0
ENDMDL
MODEL 7
REMARK VINA RESULT:      -5.2      0.137      2.788
REMARK  0 active torsions:
REMARK  status: ('A' for Active; 'I' for Inactive)
ROOT
HETATM    1  C1  UNL     1     -34.648   5.400   3.724  1.00 20.00     0.000 A 
HETATM    2  C2  UNL     1     -33.945   6.447   4.320  1.00 20.00     0.000 A 
HETATM    3  C3  UNL     1     -35.226   4.408   4.516  1.00 20.00     0.000 A 
HETATM    4  C4  UNL     1     -33.820   6.502   5.708  1.00 20.00     0.000 A 
HETATM    5  C5  UNL     1     -35.101   4.462   5.904  1.00 20.00     0.000 A 
HETATM    6  C6  UNL     1     -34.398   5.509   6.500  1.00 20.00     0.000 A 
ENDROOT
TORSDOF 0
ENDMDL
MODEL 8
REMARK VINA RESULT:      -5.2      0.171      1.972
REMARK  0 active torsions:
REMARK  status: ('A' for Active; 'I' for Inactive)
ROOT
HETATM    1  C1  UNL     1     -34.577   5.402   3.702  1.00 20.00     0.000 A 
HETATM    2  C2  UNL     1     -35.182   4.403   4.465  1.00 20.00     0.000 A 
HETATM    3  C3  UNL     1     -33.905   6.450   4.330  1.00 20.00     0.000 A 
HETATM    4  C4  UNL     1     -35.116   4.453   5.857  1.00 20.00     0.000 A 
HETATM    5  C5  UNL     1     -33.839   6.500   5.723  1.00 20.00     0.000 A 
HETATM    6  C6  UNL     1     -34.444   5.502   6.486  1.00 20.00     0.000 A 
ENDROOT
TORSDOF 0
ENDMDL
MODEL 9
REMARK VINA RESULT:      -3.5      8.676      9.633
REMARK  0 active torsions:
REMARK  status: ('A' for Active; 'I' for Inactive)
ROOT
HETATM    1  C1  UNL     1     -40.645   5.824  -0.442  1.00 20.00     0.000 A 
HETATM    2  C2  UNL     1     -41.035   4.652  -1.091  1.00 20.00     0.000 A 
HETATM    3  C3  UNL     1     -41.112   7.059  -0.891  1.00 20.00     0.000 A 
HETATM    4  C4  UNL     1     -41.892   4.716  -2.189  1.00 20.00     0.000 A 
HETATM    5  C5  UNL     1     -41.969   7.123  -1.990  1.00 20.00     0.000 A 
HETATM    6  C6  UNL     1     -42.359   5.952  -2.638  1.00 20.00     0.000 A 
ENDROOT
TORSDOF 0
ENDMDL
