MODEL 1
REMARK VINA RESULT:      -5.7      0.000      0.000
REMARK  3 active torsions:
REMARK  status: ('A' for Active; 'I' for Inactive)
REMARK    1  A    between atoms: C6_6  and  O9_9 
REMARK    2  A    between atoms: C7_7  and  C8_8 
REMARK    3  A    between atoms: C7_7  and  O9_9 
ROOT
HETATM    1  C1  UNL     1     -34.925   5.026   6.223  1.00 20.00     0.000 A 
HETATM    2  C2  UNL     1     -35.224   4.475   4.977  1.00 20.00     0.003 A 
HETATM    3  C3  UNL     1     -34.080   6.133   6.313  1.00 20.00     0.003 A 
HETATM    4  C4  UNL     1     -34.679   5.032   3.821  1.00 20.00     0.037 A 
HETATM    5  C5  UNL     1     -33.535   6.689   5.155  1.00 20.00     0.037 A 
HETATM    6  C6  UNL     1     -33.834   6.139   3.909  1.00 20.00     0.068 A 
ENDROOT
BRANCH   6   7
HETATM    7  O9  UNL     1     -33.301   6.680   2.781  1.00 20.00    -0.350 OA
BRANCH   7   8
HETATM    8  C7  UNL     1     -32.141   7.497   2.937  1.00 20.00     0.190 C 
BRANCH   8   9
HETATM    9  C8  UNL     1     -31.887   8.277   1.661  1.00 20.00     0.141 C 
HETATM   10 CL10 UNL     1     -32.609   9.903   1.758  1.00 20.00    -0.128 Cl
ENDBRANCH   8   9
ENDBRANCH   7   8
ENDBRANCH   6   7
TORSDOF 3
ENDMDL
MODEL 2
REMARK VINA RESULT:      -5.7      0.016      1.528
REMARK  3 active torsions:
REMARK  status: ('A' for Active; 'I' for Inactive)
REMARK    1  A    between atoms: C6_6  and  O9_9 
REMARK    2  A    between atoms: C7_7  and  C8_8 
REMARK    3  A    between atoms: C7_7  and  O9_9 
ROOT
HETATM    1  C1  UNL     1     -34.939   5.027   6.217  1.00 20.00     0.000 A 
HETATM    2  C2  UNL     1     -34.105   6.140   6.313  1.00 20.00     0.003 A 
HETATM    3  C3  UNL     1     -35.221   4.471   4.970  1.00 20.00     0.003 A 
HETATM    4  C4  UNL     1     -33.553   6.698   5.160  1.00 20.00     0.037 A 
HETATM    5  C5  UNL     1     -34.669   5.029   3.817  1.00 20.00     0.037 A 
HETATM    6  C6  UNL     1     -33.835   6.143   3.911  1.00 20.00     0.068 A 
ENDROOT
BRANCH   6   7
HETATM    7  O9  UNL     1     -33.298   6.687   2.787  1.00 20.00    -0.350 OA
BRANCH   7   8
HETATM    8  C7  UNL     1     -32.131   7.492   2.947  1.00 20.00     0.190 C 
BRANCH   8   9
HETATM    9  C8  UNL     1     -31.868   8.276   1.675  1.00 20.00     0.141 C 
HETATM   10 CL10 UNL     1     -32.602   9.896   1.764  1.00 20.00    -0.128 Cl
ENDBRANCH   8   9
ENDBRANCH   7   8
ENDBRANCH   6   7
TORSDOF 3
ENDMDL
MODEL 3
REMARK VINA RESULT:      -4.7      1.267      2.005
REMARK  3 active torsions:
REMARK  status: ('A' for Active; 'I' for Inactive)
REMARK    1  A    between atoms: C6_6  and  O9_9 
REMARK    2  A    between atoms: C7_7  and  C8_8 
REMARK    3  A    between atoms: C7_7  and  O9_9 
ROOT
HETATM    1  C1  UNL     1     -35.006   4.543   6.474  1.00 20.00     0.000 A 
HETATM    2  C2  UNL     1     -34.358   5.770   6.621  1.00 20.00     0.003 A 
HETATM    3  C3  UNL     1     -35.267   4.040   5.200  1.00 20.00     0.003 A 
HETATM    4  C4  UNL     1     -33.971   6.492   5.493  1.00 20.00     0.037 A 
HETATM    5  C5  UNL     1     -34.879   4.763   4.072  1.00 20.00     0.037 A 
HETATM    6  C6  UNL     1     -34.231   5.989   4.218  1.00 20.00     0.068 A 
ENDROOT
BRANCH   6   7
HETATM    7  O9  UNL     1     -33.855   6.695   3.117  1.00 20.00    -0.350 OA
BRANCH   7   8
HETATM    8  C7  UNL     1     -32.533   6.480   2.628  1.00 20.00     0.190 C 
BRANCH   8   9
HETATM    9  C8  UNL     1     -31.756   7.783   2.657  1.00 20.00     0.141 C 
HETATM   10 CL10 UNL     1     -30.964   8.015   4.236  1.00 20.00    -0.128 Cl
ENDBRANCH   8   9
ENDBRANCH   7   8
ENDBRANCH   6   7
TORSDOF 3
ENDMDL
MODEL 4
REMARK VINA RESULT:      -4.1     10.040     11.172
REMARK  3 active torsions:
REMARK  status: ('A' for Active; 'I' for Inactive)
REMARK    1  A    between atoms: C6_6  and  O9_9 
REMARK    2  A    between atoms: C7_7  and  C8_8 
REMARK    3  A    between atoms: C7_7  and  O9_9 
ROOT
HETATM    1  C1  UNL     1     -41.102   7.091  -0.784  1.00 20.00     0.000 A 
HETATM    2  C2  UNL     1     -40.659   5.805  -0.476  1.00 20.00     0.003 A 
HETATM    3  C3  UNL     1     -41.976   7.291  -1.852  1.00 20.00     0.003 A 
HETATM    4  C4  UNL     1     -41.092   4.719  -1.236  1.00 20.00     0.037 A 
HETATM    5  C5  UNL     1     -42.408   6.204  -2.613  1.00 20.00     0.037 A 
HETATM    6  C6  UNL     1     -41.966   4.918  -2.305  1.00 20.00     0.068 A 
ENDROOT
BRANCH   6   7
HETATM    7  O9  UNL     1     -42.386   3.859  -3.048  1.00 20.00    -0.350 OA
BRANCH   7   8
HETATM    8  C7  UNL     1     -43.023   2.788  -2.352  1.00 20.00     0.190 C 
BRANCH   8   9
HETATM    9  C8  UNL     1     -42.647   1.465  -2.991  1.00 20.00     0.141 C 
HETATM   10 CL10 UNL     1     -41.227   1.651  -4.049  1.00 20.00    -0.128 Cl
ENDBRANCH   8   9
ENDBRANCH   7   8
ENDBRANCH   6   7
TORSDOF 3
ENDMDL
MODEL 5
REMARK VINA RESULT:      -4.1     11.097     12.146
REMARK  3 active torsions:
REMARK  status: ('A' for Active; 'I' for Inactive)
REMARK    1  A    between atoms: C6_6  and  O9_9 
REMARK    2  A    between atoms: C7_7  and  C8_8 
REMARK    3  A    between atoms: C7_7  and  O9_9 
ROOT
HETATM    1  C1  UNL     1     -34.700  13.416  -3.986  1.00 20.00     0.000 A 
HETATM    2  C2  UNL     1     -33.363  13.748  -3.768  1.00 20.00     0.003 A 
HETATM    3  C3  UNL     1     -35.659  14.423  -4.101  1.00 20.00     0.003 A 
HETATM    4  C4  UNL     1     -32.985  15.087  -3.664  1.00 20.00     0.037 A 
HETATM    5  C5  UNL     1     -35.280  15.761  -3.998  1.00 20.00     0.037 A 
HETATM    6  C6  UNL     1     -33.944  16.094  -3.779  1.00 20.00     0.068 A 
ENDROOT
BRANCH   6   7
HETATM    7  O9  UNL     1     -33.576  17.399  -3.676  1.00 20.00    -0.350 OA
BRANCH   7   8
HETATM    8  C7  UNL     1     -34.235  18.185  -2.684  1.00 20.00     0.190 C 
BRANCH   8   9
HETATM    9  C8  UNL     1     -33.631  17.903  -1.321  1.00 20.00     0.141 C 
HETATM   10 CL10 UNL     1     -34.659  16.786  -0.391  1.00 20.00    -0.128 Cl
ENDBRANCH   8   9
ENDBRANCH   7   8
ENDBRANCH   6   7
TORSDOF 3
ENDMDL
MODEL 6
REMARK VINA RESULT:      -4.0     11.112     12.086
REMARK  3 active torsions:
REMARK  status: ('A' for Active; 'I' for Inactive)
REMARK    1  A    between atoms: C6_6  and  O9_9 
REMARK    2  A    between atoms: C7_7  and  C8_8 
REMARK    3  A    between atoms: C7_7  and  O9_9 
ROOT
HETATM    1  C1  UNL     1     -34.997  13.405  -4.122  1.00 20.00     0.000 A 
HETATM    2  C2  UNL     1     -35.851  14.504  -4.213  1.00 20.00     0.003 A 
HETATM    3  C3  UNL     1     -33.637  13.596  -3.875  1.00 20.00     0.003 A 
HETATM    4  C4  UNL     1     -35.344  15.795  -4.059  1.00 20.00     0.037 A 
HETATM    5  C5  UNL     1     -33.131  14.887  -3.721  1.00 20.00     0.037 A 
HETATM    6  C6  UNL     1     -33.984  15.987  -3.812  1.00 20.00     0.068 A 
ENDROOT
BRANCH   6   7
HETATM    7  O9  UNL     1     -33.490  17.245  -3.663  1.00 20.00    -0.350 OA
BRANCH   7   8
HETATM    8  C7  UNL     1     -34.114  18.077  -2.687  1.00 20.00     0.190 C 
BRANCH   8   9
HETATM    9  C8  UNL     1     -33.584  17.737  -1.307  1.00 20.00     0.141 C 
HETATM   10 CL10 UNL     1     -34.733  16.701  -0.424  1.00 20.00    -0.128 Cl
ENDBRANCH   8   9
ENDBRANCH   7   8
ENDBRANCH   6   7
TORSDOF 3
ENDMDL
MODEL 7
REMARK VINA RESULT:      -4.0     11.122     12.249
REMARK  3 active torsions:
REMARK  status: ('A' for Active; 'I' for Inactive)
REMARK    1  A    between atoms: C6_6  and  O9_9 
REMARK    2  A    between atoms: C7_7  and  C8_8 
REMARK    3  A    between atoms: C7_7  and  O9_9 
ROOT
HETATM    1  C1  UNL     1     -34.803  13.994  -6.094  1.00 20.00     0.000 A 
HETATM    2  C2  UNL     1     -34.373  15.319  -6.167  1.00 20.00     0.003 A 
HETATM    3  C3  UNL     1     -34.821  13.332  -4.866  1.00 20.00     0.003 A 
HETATM    4  C4  UNL     1     -33.961  15.982  -5.010  1.00 20.00     0.037 A 
HETATM    5  C5  UNL     1     -34.410  13.996  -3.710  1.00 20.00     0.037 A 
HETATM    6  C6  UNL     1     -33.979  15.321  -3.782  1.00 20.00     0.068 A 
ENDROOT
BRANCH   6   7
HETATM    7  O9  UNL     1     -33.577  15.967  -2.655  1.00 20.00    -0.350 OA
BRANCH   7   8
HETATM    8  C7  UNL     1     -34.567  16.217  -1.659  1.00 20.00     0.190 C 
BRANCH   8   9
HETATM    9  C8  UNL     1     -34.082  17.296  -0.710  1.00 20.00     0.141 C 
HETATM   10 CL10 UNL     1     -35.108  17.372   0.744  1.00 20.00    -0.128 Cl
ENDBRANCH   8   9
ENDBRANCH   7   8
ENDBRANCH   6   7
TORSDOF 3
ENDMDL
MODEL 8
REMARK VINA RESULT:      -4.0     11.469     11.939
REMARK  3 active torsions:
REMARK  status: ('A' for Active; 'I' for Inactive)
REMARK    1  A    between atoms: C6_6  and  O9_9 
REMARK    2  A    between atoms: C7_7  and  C8_8 
REMARK    3  A    between atoms: C7_7  and  O9_9 
ROOT
HETATM    1  C1  UNL     1     -34.338  18.353   1.637  1.00 20.00     0.000 A 
HETATM    2  C2  UNL     1     -35.131  17.392   1.010  1.00 20.00     0.003 A 
HETATM    3  C3  UNL     1     -33.260  18.920   0.959  1.00 20.00     0.003 A 
HETATM    4  C4  UNL     1     -34.843  16.998  -0.296  1.00 20.00     0.037 A 
HETATM    5  C5  UNL     1     -32.973  18.525  -0.348  1.00 20.00     0.037 A 
HETATM    6  C6  UNL     1     -33.765  17.563  -0.976  1.00 20.00     0.068 A 
ENDROOT
BRANCH   6   7
HETATM    7  O9  UNL     1     -33.484  17.177  -2.250  1.00 20.00    -0.350 OA
BRANCH   7   8
HETATM    8  C7  UNL     1     -34.017  15.927  -2.683  1.00 20.00     0.190 C 
BRANCH   8   9
HETATM    9  C8  UNL     1     -33.088  15.299  -3.705  1.00 20.00     0.141 C 
HETATM   10 CL10 UNL     1     -33.340  13.538  -3.793  1.00 20.00    -0.128 Cl
ENDBRANCH   8   9
ENDBRANCH   7   8
ENDBRANCH   6   7
TORSDOF 3
ENDMDL
MODEL 9
REMARK VINA RESULT:      -3.9     11.418     12.277
REMARK  3 active torsions:
REMARK  status: ('A' for Active; 'I' for Inactive)
REMARK    1  A    between atoms: C6_6  and  O9_9 
REMARK    2  A    between atoms: C7_7  and  C8_8 
REMARK    3  A    between atoms: C7_7  and  O9_9 
ROOT
HETATM    1  C1  UNL     1     -33.284  14.870  -3.528  1.00 20.00     0.000 A 
HETATM    2  C2  UNL     1     -34.226  15.764  -3.020  1.00 20.00     0.003 A 
HETATM    3  C3  UNL     1     -33.702  13.691  -4.144  1.00 20.00     0.003 A 
HETATM    4  C4  UNL     1     -35.587  15.478  -3.128  1.00 20.00     0.037 A 
HETATM    5  C5  UNL     1     -35.063  13.405  -4.252  1.00 20.00     0.037 A 
HETATM    6  C6  UNL     1     -36.006  14.298  -3.744  1.00 20.00     0.068 A 
ENDROOT
BRANCH   6   7
HETATM    7  O9  UNL     1     -37.333  14.018  -3.848  1.00 20.00    -0.350 OA
BRANCH   7   8
HETATM    8  C7  UNL     1     -38.236  15.121  -3.793  1.00 20.00     0.190 C 
BRANCH   8   9
HETATM    9  C8  UNL     1     -38.984  15.239  -5.108  1.00 20.00     0.141 C 
HETATM   10 CL10 UNL     1     -37.920  15.871  -6.389  1.00 20.00    -0.128 Cl
ENDBRANCH   8   9
ENDBRANCH   7   8
ENDBRANCH   6   7
TORSDOF 3
ENDMDL
