MODEL 1
REMARK VINA RESULT:      -2.6      0.000      0.000
REMARK  0 active torsions:
REMARK  status: ('A' for Active; 'I' for Inactive)
ROOT
HETATM    1  C1  UNL     1     -34.160   6.226   6.421  1.00 20.00     0.016 C 
HETATM    2  C2  UNL     1     -34.849   5.062   5.748  1.00 20.00     0.081 C 
HETATM    3 BR3  UNL     1     -34.928   5.360   3.829  1.00 20.00    -0.097 Br
ENDROOT
TORSDOF 0
ENDMDL
MODEL 2
REMARK VINA RESULT:      -2.6      2.239      2.252
REMARK  0 active torsions:
REMARK  status: ('A' for Active; 'I' for Inactive)
ROOT
HETATM    1  C1  UNL     1     -33.780   5.997   3.724  1.00 20.00     0.016 C 
HETATM    2  C2  UNL     1     -35.045   5.245   4.066  1.00 20.00     0.081 C 
HETATM    3 BR3  UNL     1     -34.891   4.466   5.841  1.00 20.00    -0.097 Br
ENDROOT
TORSDOF 0
ENDMDL
MODEL 3
REMARK VINA RESULT:      -2.6      1.358      1.507
REMARK  0 active torsions:
REMARK  status: ('A' for Active; 'I' for Inactive)
ROOT
HETATM    1  C1  UNL     1     -34.887   4.564   5.979  1.00 20.00     0.016 C 
HETATM    2  C2  UNL     1     -35.216   4.937   4.553  1.00 20.00     0.081 C 
HETATM    3 BR3  UNL     1     -33.812   6.068   3.824  1.00 20.00    -0.097 Br
ENDROOT
TORSDOF 0
ENDMDL
MODEL 4
REMARK VINA RESULT:      -2.5      2.160      2.404
REMARK  0 active torsions:
REMARK  status: ('A' for Active; 'I' for Inactive)
ROOT
HETATM    1  C1  UNL     1     -34.762   5.418   3.479  1.00 20.00     0.016 C 
HETATM    2  C2  UNL     1     -35.184   4.676   4.725  1.00 20.00     0.081 C 
HETATM    3 BR3  UNL     1     -34.469   5.566   6.299  1.00 20.00    -0.097 Br
ENDROOT
TORSDOF 0
ENDMDL
MODEL 5
REMARK VINA RESULT:      -2.4      2.260      2.562
REMARK  0 active torsions:
REMARK  status: ('A' for Active; 'I' for Inactive)
ROOT
HETATM    1  C1  UNL     1     -35.002   5.384   3.798  1.00 20.00     0.016 C 
HETATM    2  C2  UNL     1     -33.881   6.118   4.497  1.00 20.00     0.081 C 
HETATM    3 BR3  UNL     1     -32.448   6.490   3.237  1.00 20.00    -0.097 Br
ENDROOT
TORSDOF 0
ENDMDL
MODEL 6
REMARK VINA RESULT:      -2.3      2.453      2.502
REMARK  0 active torsions:
REMARK  status: ('A' for Active; 'I' for Inactive)
ROOT
HETATM    1  C1  UNL     1     -32.554   6.192   3.178  1.00 20.00     0.016 C 
HETATM    2  C2  UNL     1     -33.506   6.379   4.336  1.00 20.00     0.081 C 
HETATM    3 BR3  UNL     1     -35.013   5.163   4.155  1.00 20.00    -0.097 Br
ENDROOT
TORSDOF 0
ENDMDL
MODEL 7
REMARK VINA RESULT:      -2.0      3.581      3.682
REMARK  0 active torsions:
REMARK  status: ('A' for Active; 'I' for Inactive)
ROOT
HETATM    1  C1  UNL     1     -33.646   6.148   3.649  1.00 20.00     0.016 C 
HETATM    2  C2  UNL     1     -32.206   6.445   3.301  1.00 20.00     0.081 C 
HETATM    3 BR3  UNL     1     -32.107   8.053   2.212  1.00 20.00    -0.097 Br
ENDROOT
TORSDOF 0
ENDMDL
MODEL 8
REMARK VINA RESULT:      -1.9      5.362      5.462
REMARK  0 active torsions:
REMARK  status: ('A' for Active; 'I' for Inactive)
ROOT
HETATM    1  C1  UNL     1     -32.522   9.749   1.560  1.00 20.00     0.016 C 
HETATM    2  C2  UNL     1     -31.835   8.415   1.393  1.00 20.00     0.081 C 
HETATM    3 BR3  UNL     1     -32.277   7.252   2.887  1.00 20.00    -0.097 Br
ENDROOT
TORSDOF 0
ENDMDL
MODEL 9
REMARK VINA RESULT:      -1.8      8.808      9.081
REMARK  0 active torsions:
REMARK  status: ('A' for Active; 'I' for Inactive)
ROOT
HETATM    1  C1  UNL     1     -41.187   7.216  -0.915  1.00 20.00     0.016 C 
HETATM    2  C2  UNL     1     -40.762   5.882  -0.348  1.00 20.00     0.081 C 
HETATM    3 BR3  UNL     1     -41.309   4.450  -1.545  1.00 20.00    -0.097 Br
ENDROOT
TORSDOF 0
ENDMDL
