MODEL 1
REMARK VINA RESULT:      -5.1      0.000      0.000
REMARK  0 active torsions:
REMARK  status: ('A' for Active; 'I' for Inactive)
ROOT
HETATM    1  C1  UNL     1     -34.294   5.835   6.459  1.00 20.00    -0.030 C 
HETATM    2  C2  UNL     1     -33.763   6.601   5.495  1.00 20.00    -0.030 C 
HETATM    3  C3  UNL     1     -35.125   4.619   6.174  1.00 20.00     0.026 C 
HETATM    4  C4  UNL     1     -33.973   6.341   4.034  1.00 20.00     0.026 C 
HETATM    5  C5  UNL     1     -35.037   4.156   4.718  1.00 20.00     0.004 C 
HETATM    6  C6  UNL     1     -35.098   5.340   3.756  1.00 20.00     0.004 C 
ENDROOT
TORSDOF 0
ENDMDL
MODEL 2
REMARK VINA RESULT:      -5.1      0.052      2.082
REMARK  0 active torsions:
REMARK  status: ('A' for Active; 'I' for Inactive)
ROOT
HETATM    1  C1  UNL     1     -33.718   6.612   5.456  1.00 20.00    -0.030 C 
HETATM    2  C2  UNL     1     -34.263   5.886   6.442  1.00 20.00    -0.030 C 
HETATM    3  C3  UNL     1     -33.943   6.319   4.002  1.00 20.00     0.026 C 
HETATM    4  C4  UNL     1     -35.126   4.685   6.194  1.00 20.00     0.026 C 
HETATM    5  C5  UNL     1     -35.091   5.338   3.756  1.00 20.00     0.004 C 
HETATM    6  C6  UNL     1     -35.054   4.180   4.751  1.00 20.00     0.004 C 
ENDROOT
TORSDOF 0
ENDMDL
MODEL 3
REMARK VINA RESULT:      -5.0      0.582      1.081
REMARK  0 active torsions:
REMARK  status: ('A' for Active; 'I' for Inactive)
ROOT
HETATM    1  C1  UNL     1     -33.711   6.532   5.694  1.00 20.00    -0.030 C 
HETATM    2  C2  UNL     1     -33.648   6.501   4.354  1.00 20.00    -0.030 C 
HETATM    3  C3  UNL     1     -34.504   5.547   6.499  1.00 20.00     0.026 C 
HETATM    4  C4  UNL     1     -34.390   5.499   3.523  1.00 20.00     0.026 C 
HETATM    5  C5  UNL     1     -34.957   4.331   5.688  1.00 20.00     0.004 C 
HETATM    6  C6  UNL     1     -35.465   4.743   4.308  1.00 20.00     0.004 C 
ENDROOT
TORSDOF 0
ENDMDL
MODEL 4
REMARK VINA RESULT:      -5.0      0.513      2.084
REMARK  0 active torsions:
REMARK  status: ('A' for Active; 'I' for Inactive)
ROOT
HETATM    1  C1  UNL     1     -35.059   4.232   5.757  1.00 20.00    -0.030 C 
HETATM    2  C2  UNL     1     -35.275   4.388   4.443  1.00 20.00    -0.030 C 
HETATM    3  C3  UNL     1     -34.259   5.202   6.576  1.00 20.00     0.026 C 
HETATM    4  C4  UNL     1     -34.711   5.528   3.649  1.00 20.00     0.026 C 
HETATM    5  C5  UNL     1     -33.996   6.526   5.855  1.00 20.00     0.004 C 
HETATM    6  C6  UNL     1     -33.617   6.297   4.394  1.00 20.00     0.004 C 
ENDROOT
TORSDOF 0
ENDMDL
MODEL 5
REMARK VINA RESULT:      -5.0      0.546      2.706
REMARK  0 active torsions:
REMARK  status: ('A' for Active; 'I' for Inactive)
ROOT
HETATM    1  C1  UNL     1     -35.293   4.466   4.408  1.00 20.00    -0.030 C 
HETATM    2  C2  UNL     1     -35.102   4.271   5.721  1.00 20.00    -0.030 C 
HETATM    3  C3  UNL     1     -34.689   5.613   3.654  1.00 20.00     0.026 C 
HETATM    4  C4  UNL     1     -34.294   5.198   6.578  1.00 20.00     0.026 C 
HETATM    5  C5  UNL     1     -33.592   6.338   4.438  1.00 20.00     0.004 C 
HETATM    6  C6  UNL     1     -33.992   6.536   5.898  1.00 20.00     0.004 C 
ENDROOT
TORSDOF 0
ENDMDL
MODEL 6
REMARK VINA RESULT:      -4.6      0.353      2.081
REMARK  0 active torsions:
REMARK  status: ('A' for Active; 'I' for Inactive)
ROOT
HETATM    1  C1  UNL     1     -34.673   5.339   3.680  1.00 20.00    -0.030 C 
HETATM    2  C2  UNL     1     -34.086   6.427   4.199  1.00 20.00    -0.030 C 
HETATM    3  C3  UNL     1     -35.165   4.195   4.517  1.00 20.00     0.026 C 
HETATM    4  C4  UNL     1     -33.830   6.598   5.667  1.00 20.00     0.026 C 
HETATM    5  C5  UNL     1     -35.231   4.526   6.010  1.00 20.00     0.004 C 
HETATM    6  C6  UNL     1     -33.994   5.300   6.461  1.00 20.00     0.004 C 
ENDROOT
TORSDOF 0
ENDMDL
MODEL 7
REMARK VINA RESULT:      -3.4      8.394      9.683
REMARK  0 active torsions:
REMARK  status: ('A' for Active; 'I' for Inactive)
ROOT
HETATM    1  C1  UNL     1     -41.177   7.150  -0.918  1.00 20.00    -0.030 C 
HETATM    2  C2  UNL     1     -41.915   7.096  -2.036  1.00 20.00    -0.030 C 
HETATM    3  C3  UNL     1     -40.662   5.927  -0.217  1.00 20.00     0.026 C 
HETATM    4  C4  UNL     1     -42.330   5.809  -2.682  1.00 20.00     0.026 C 
HETATM    5  C5  UNL     1     -40.777   4.656  -1.061  1.00 20.00     0.004 C 
HETATM    6  C6  UNL     1     -42.121   4.588  -1.782  1.00 20.00     0.004 C 
ENDROOT
TORSDOF 0
ENDMDL
MODEL 8
REMARK VINA RESULT:      -3.4      8.422      9.787
REMARK  0 active torsions:
REMARK  status: ('A' for Active; 'I' for Inactive)
ROOT
HETATM    1  C1  UNL     1     -41.906   7.154  -2.031  1.00 20.00    -0.030 C 
HETATM    2  C2  UNL     1     -41.176   7.168  -0.906  1.00 20.00    -0.030 C 
HETATM    3  C3  UNL     1     -42.338   5.889  -2.711  1.00 20.00     0.026 C 
HETATM    4  C4  UNL     1     -40.688   5.922  -0.231  1.00 20.00     0.026 C 
HETATM    5  C5  UNL     1     -42.153   4.644  -1.841  1.00 20.00     0.004 C 
HETATM    6  C6  UNL     1     -40.814   4.674  -1.108  1.00 20.00     0.004 C 
ENDROOT
TORSDOF 0
ENDMDL
MODEL 9
REMARK VINA RESULT:      -3.4     12.214     12.794
REMARK  0 active torsions:
REMARK  status: ('A' for Active; 'I' for Inactive)
ROOT
HETATM    1  C1  UNL     1     -35.809  14.417  -3.793  1.00 20.00    -0.030 C 
HETATM    2  C2  UNL     1     -35.466  15.483  -3.054  1.00 20.00    -0.030 C 
HETATM    3  C3  UNL     1     -34.806  13.469  -4.379  1.00 20.00     0.026 C 
HETATM    4  C4  UNL     1     -34.042  15.855  -2.766  1.00 20.00     0.026 C 
HETATM    5  C5  UNL     1     -33.402  13.639  -3.793  1.00 20.00     0.004 C 
HETATM    6  C6  UNL     1     -33.036  15.114  -3.651  1.00 20.00     0.004 C 
ENDROOT
TORSDOF 0
ENDMDL
