MODEL 1
REMARK VINA RESULT:      -3.2      0.000      0.000
REMARK  3 active torsions:
REMARK  status: ('A' for Active; 'I' for Inactive)
REMARK    1  A    between atoms: C3_3  and  S5_5 
REMARK    2  A    between atoms: C4_4  and  S6_6 
REMARK    3  A    between atoms: S5_5  and  S6_6 
ROOT
HETATM    1  S5  UNL     1     -33.920   6.423   5.833  1.00 20.00    -0.098 SA
ENDROOT
BRANCH   1   2
HETATM    2  C3  UNL     1     -34.829   4.971   6.412  1.00 20.00     0.081 C 
HETATM    3  C1  UNL     1     -34.967   3.949   5.299  1.00 20.00     0.017 C 
ENDBRANCH   1   2
BRANCH   1   4
HETATM    4  S6  UNL     1     -33.884   6.110   3.800  1.00 20.00    -0.098 SA
BRANCH   4   5
HETATM    5  C4  UNL     1     -32.183   6.570   3.388  1.00 20.00     0.081 C 
HETATM    6  C2  UNL     1     -32.167   7.773   2.464  1.00 20.00     0.017 C 
ENDBRANCH   4   5
ENDBRANCH   1   4
TORSDOF 3
ENDMDL
MODEL 2
REMARK VINA RESULT:      -3.2      0.749      1.430
REMARK  3 active torsions:
REMARK  status: ('A' for Active; 'I' for Inactive)
REMARK    1  A    between atoms: C3_3  and  S5_5 
REMARK    2  A    between atoms: C4_4  and  S6_6 
REMARK    3  A    between atoms: S5_5  and  S6_6 
ROOT
HETATM    1  S5  UNL     1     -34.937   5.334   3.668  1.00 20.00    -0.098 SA
ENDROOT
BRANCH   1   2
HETATM    2  C3  UNL     1     -35.177   4.204   5.059  1.00 20.00     0.081 C 
HETATM    3  C1  UNL     1     -34.682   4.833   6.348  1.00 20.00     0.017 C 
ENDBRANCH   1   2
BRANCH   1   4
HETATM    4  S6  UNL     1     -33.477   6.588   4.395  1.00 20.00    -0.098 SA
BRANCH   4   5
HETATM    5  C4  UNL     1     -32.232   6.501   3.084  1.00 20.00     0.081 C 
HETATM    6  C2  UNL     1     -32.099   7.842   2.387  1.00 20.00     0.017 C 
ENDBRANCH   4   5
ENDBRANCH   1   4
TORSDOF 3
ENDMDL
MODEL 3
REMARK VINA RESULT:      -3.2      0.747      4.162
REMARK  3 active torsions:
REMARK  status: ('A' for Active; 'I' for Inactive)
REMARK    1  A    between atoms: C3_3  and  S5_5 
REMARK    2  A    between atoms: C4_4  and  S6_6 
REMARK    3  A    between atoms: S5_5  and  S6_6 
ROOT
HETATM    1  S5  UNL     1     -33.451   6.532   4.417  1.00 20.00    -0.098 SA
ENDROOT
BRANCH   1   2
HETATM    2  C3  UNL     1     -32.274   6.469   3.046  1.00 20.00     0.081 C 
HETATM    3  C1  UNL     1     -32.103   7.843   2.426  1.00 20.00     0.017 C 
ENDBRANCH   1   2
BRANCH   1   4
HETATM    4  S6  UNL     1     -34.975   5.342   3.715  1.00 20.00    -0.098 SA
BRANCH   4   5
HETATM    5  C4  UNL     1     -35.176   4.162   5.072  1.00 20.00     0.081 C 
HETATM    6  C2  UNL     1     -34.657   4.751   6.370  1.00 20.00     0.017 C 
ENDBRANCH   4   5
ENDBRANCH   1   4
TORSDOF 3
ENDMDL
MODEL 4
REMARK VINA RESULT:      -2.8      1.750      2.244
REMARK  3 active torsions:
REMARK  status: ('A' for Active; 'I' for Inactive)
REMARK    1  A    between atoms: C3_3  and  S5_5 
REMARK    2  A    between atoms: C4_4  and  S6_6 
REMARK    3  A    between atoms: S5_5  and  S6_6 
ROOT
HETATM    1  S5  UNL     1     -33.180   5.993   3.189  1.00 20.00    -0.098 SA
ENDROOT
BRANCH   1   2
HETATM    2  C3  UNL     1     -34.012   6.105   4.790  1.00 20.00     0.081 C 
HETATM    3  C1  UNL     1     -34.990   4.957   4.965  1.00 20.00     0.017 C 
ENDBRANCH   1   2
BRANCH   1   4
HETATM    4  S6  UNL     1     -31.855   7.563   3.297  1.00 20.00    -0.098 SA
BRANCH   4   5
HETATM    5  C4  UNL     1     -31.952   8.242   1.622  1.00 20.00     0.081 C 
HETATM    6  C2  UNL     1     -32.487   9.661   1.654  1.00 20.00     0.017 C 
ENDBRANCH   4   5
ENDBRANCH   1   4
TORSDOF 3
ENDMDL
MODEL 5
REMARK VINA RESULT:      -2.7      1.920      4.794
REMARK  3 active torsions:
REMARK  status: ('A' for Active; 'I' for Inactive)
REMARK    1  A    between atoms: C3_3  and  S5_5 
REMARK    2  A    between atoms: C4_4  and  S6_6 
REMARK    3  A    between atoms: S5_5  and  S6_6 
ROOT
HETATM    1  S5  UNL     1     -31.826   7.846   3.240  1.00 20.00    -0.098 SA
ENDROOT
BRANCH   1   2
HETATM    2  C3  UNL     1     -32.009   8.403   1.530  1.00 20.00     0.081 C 
HETATM    3  C1  UNL     1     -32.475   9.846   1.485  1.00 20.00     0.017 C 
ENDBRANCH   1   2
BRANCH   1   4
HETATM    4  S6  UNL     1     -32.817   6.043   3.200  1.00 20.00    -0.098 SA
BRANCH   4   5
HETATM    5  C4  UNL     1     -33.835   6.151   4.692  1.00 20.00     0.081 C 
HETATM    6  C2  UNL     1     -34.951   5.124   4.650  1.00 20.00     0.017 C 
ENDBRANCH   4   5
ENDBRANCH   1   4
TORSDOF 3
ENDMDL
MODEL 6
REMARK VINA RESULT:      -2.7     11.860     12.300
REMARK  3 active torsions:
REMARK  status: ('A' for Active; 'I' for Inactive)
REMARK    1  A    between atoms: C3_3  and  S5_5 
REMARK    2  A    between atoms: C4_4  and  S6_6 
REMARK    3  A    between atoms: S5_5  and  S6_6 
ROOT
HETATM    1  S5  UNL     1     -34.869  15.979  -2.490  1.00 20.00    -0.098 SA
ENDROOT
BRANCH   1   2
HETATM    2  C3  UNL     1     -34.002  17.018  -1.291  1.00 20.00     0.081 C 
HETATM    3  C1  UNL     1     -34.817  17.161  -0.020  1.00 20.00     0.017 C 
ENDBRANCH   1   2
BRANCH   1   4
HETATM    4  S6  UNL     1     -33.348  15.465  -3.776  1.00 20.00    -0.098 SA
BRANCH   4   5
HETATM    5  C4  UNL     1     -33.529  13.667  -3.861  1.00 20.00     0.081 C 
HETATM    6  C2  UNL     1     -34.745  13.293  -4.686  1.00 20.00     0.017 C 
ENDBRANCH   4   5
ENDBRANCH   1   4
TORSDOF 3
ENDMDL
MODEL 7
REMARK VINA RESULT:      -2.6     12.582     12.824
REMARK  3 active torsions:
REMARK  status: ('A' for Active; 'I' for Inactive)
REMARK    1  A    between atoms: C3_3  and  S5_5 
REMARK    2  A    between atoms: C4_4  and  S6_6 
REMARK    3  A    between atoms: S5_5  and  S6_6 
ROOT
HETATM    1  S5  UNL     1     -33.352  16.164  -4.566  1.00 20.00    -0.098 SA
ENDROOT
BRANCH   1   2
HETATM    2  C3  UNL     1     -33.335  14.560  -3.732  1.00 20.00     0.081 C 
HETATM    3  C1  UNL     1     -34.222  13.569  -4.463  1.00 20.00     0.017 C 
ENDBRANCH   1   2
BRANCH   1   4
HETATM    4  S6  UNL     1     -34.091  17.394  -3.092  1.00 20.00    -0.098 SA
BRANCH   4   5
HETATM    5  C4  UNL     1     -34.519  16.202  -1.799  1.00 20.00     0.081 C 
HETATM    6  C2  UNL     1     -34.642  16.896  -0.456  1.00 20.00     0.017 C 
ENDBRANCH   4   5
ENDBRANCH   1   4
TORSDOF 3
ENDMDL
MODEL 8
REMARK VINA RESULT:      -2.6     12.101     12.894
REMARK  3 active torsions:
REMARK  status: ('A' for Active; 'I' for Inactive)
REMARK    1  A    between atoms: C3_3  and  S5_5 
REMARK    2  A    between atoms: C4_4  and  S6_6 
REMARK    3  A    between atoms: S5_5  and  S6_6 
ROOT
HETATM    1  S5  UNL     1     -33.819  13.823  -3.874  1.00 20.00    -0.098 SA
ENDROOT
BRANCH   1   2
HETATM    2  C3  UNL     1     -34.804  13.852  -5.389  1.00 20.00     0.081 C 
HETATM    3  C1  UNL     1     -34.420  15.039  -6.253  1.00 20.00     0.017 C 
ENDBRANCH   1   2
BRANCH   1   4
HETATM    4  S6  UNL     1     -33.661  15.828  -3.440  1.00 20.00    -0.098 SA
BRANCH   4   5
HETATM    5  C4  UNL     1     -35.060  16.072  -2.318  1.00 20.00     0.081 C 
HETATM    6  C2  UNL     1     -34.583  16.606  -0.981  1.00 20.00     0.017 C 
ENDBRANCH   4   5
ENDBRANCH   1   4
TORSDOF 3
ENDMDL
MODEL 9
REMARK VINA RESULT:      -2.6     12.173     12.759
REMARK  3 active torsions:
REMARK  status: ('A' for Active; 'I' for Inactive)
REMARK    1  A    between atoms: C3_3  and  S5_5 
REMARK    2  A    between atoms: C4_4  and  S6_6 
REMARK    3  A    between atoms: S5_5  and  S6_6 
ROOT
HETATM    1  S5  UNL     1     -33.541  15.528  -3.491  1.00 20.00    -0.098 SA
ENDROOT
BRANCH   1   2
HETATM    2  C3  UNL     1     -34.977  15.887  -2.453  1.00 20.00     0.081 C 
HETATM    3  C1  UNL     1     -34.545  16.539  -1.152  1.00 20.00     0.017 C 
ENDBRANCH   1   2
BRANCH   1   4
HETATM    4  S6  UNL     1     -34.028  13.679  -4.252  1.00 20.00    -0.098 SA
BRANCH   4   5
HETATM    5  C4  UNL     1     -35.128  14.122  -5.619  1.00 20.00     0.081 C 
HETATM    6  C2  UNL     1     -34.396  14.977  -6.636  1.00 20.00     0.017 C 
ENDBRANCH   4   5
ENDBRANCH   1   4
TORSDOF 3
ENDMDL
