MODEL 1
REMARK VINA RESULT:      -3.5      0.000      0.000
REMARK  3 active torsions:
REMARK  status: ('A' for Active; 'I' for Inactive)
REMARK    1  A    between atoms: C5_5  and  S7_7 
REMARK    2  A    between atoms: C6_6  and  S8_8 
REMARK    3  A    between atoms: S7_7  and  S8_8 
ROOT
HETATM    1  S7  UNL     1     -34.537   5.754   3.724  1.00 20.00    -0.093 SA
ENDROOT
BRANCH   1   2
HETATM    2  C5  UNL     1     -34.088   5.272   5.425  1.00 20.00     0.050 C 
HETATM    3  C1  UNL     1     -34.044   6.509   6.314  1.00 20.00     0.022 C 
HETATM    4  C2  UNL     1     -35.085   4.246   5.949  1.00 20.00     0.022 C 
ENDBRANCH   1   2
BRANCH   1   5
HETATM    5  S8  UNL     1     -32.688   5.895   2.843  1.00 20.00    -0.093 SA
BRANCH   5   6
HETATM    6  C6  UNL     1     -32.318   7.654   3.040  1.00 20.00     0.050 C 
HETATM    7  C3  UNL     1     -31.177   7.832   4.035  1.00 20.00     0.022 C 
HETATM    8  C4  UNL     1     -31.974   8.262   1.685  1.00 20.00     0.022 C 
ENDBRANCH   5   6
ENDBRANCH   1   5
TORSDOF 3
ENDMDL
MODEL 2
REMARK VINA RESULT:      -3.5      0.077      4.428
REMARK  3 active torsions:
REMARK  status: ('A' for Active; 'I' for Inactive)
REMARK    1  A    between atoms: C5_5  and  S7_7 
REMARK    2  A    between atoms: C6_6  and  S8_8 
REMARK    3  A    between atoms: S7_7  and  S8_8 
ROOT
HETATM    1  S7  UNL     1     -32.583   5.875   2.936  1.00 20.00    -0.093 SA
ENDROOT
BRANCH   1   2
HETATM    2  C5  UNL     1     -32.272   7.667   3.079  1.00 20.00     0.050 C 
HETATM    3  C1  UNL     1     -31.131   7.913   4.059  1.00 20.00     0.022 C 
HETATM    4  C2  UNL     1     -31.960   8.246   1.705  1.00 20.00     0.022 C 
ENDBRANCH   1   2
BRANCH   1   5
HETATM    5  S8  UNL     1     -34.464   5.726   3.745  1.00 20.00    -0.093 SA
BRANCH   5   6
HETATM    6  C6  UNL     1     -34.097   5.237   5.447  1.00 20.00     0.050 C 
HETATM    7  C3  UNL     1     -34.061   6.472   6.341  1.00 20.00     0.022 C 
HETATM    8  C4  UNL     1     -35.137   4.233   5.930  1.00 20.00     0.022 C 
ENDBRANCH   5   6
ENDBRANCH   1   5
TORSDOF 3
ENDMDL
MODEL 3
REMARK VINA RESULT:      -3.2     11.662     12.924
REMARK  3 active torsions:
REMARK  status: ('A' for Active; 'I' for Inactive)
REMARK    1  A    between atoms: C5_5  and  S7_7 
REMARK    2  A    between atoms: C6_6  and  S8_8 
REMARK    3  A    between atoms: S7_7  and  S8_8 
ROOT
HETATM    1  S7  UNL     1     -34.908  13.627  -4.915  1.00 20.00    -0.093 SA
ENDROOT
BRANCH   1   2
HETATM    2  C5  UNL     1     -35.415  14.297  -6.534  1.00 20.00     0.050 C 
HETATM    3  C1  UNL     1     -36.668  15.148  -6.368  1.00 20.00     0.022 C 
HETATM    4  C2  UNL     1     -34.271  15.102  -7.138  1.00 20.00     0.022 C 
ENDBRANCH   1   2
BRANCH   1   5
HETATM    5  S8  UNL     1     -35.880  14.899  -3.630  1.00 20.00    -0.093 SA
BRANCH   5   6
HETATM    6  C6  UNL     1     -34.545  16.014  -3.134  1.00 20.00     0.050 C 
HETATM    7  C3  UNL     1     -34.603  16.249  -1.629  1.00 20.00     0.022 C 
HETATM    8  C4  UNL     1     -33.202  15.428  -3.554  1.00 20.00     0.022 C 
ENDBRANCH   5   6
ENDBRANCH   1   5
TORSDOF 3
ENDMDL
MODEL 4
REMARK VINA RESULT:      -3.2     11.676     12.740
REMARK  3 active torsions:
REMARK  status: ('A' for Active; 'I' for Inactive)
REMARK    1  A    between atoms: C5_5  and  S7_7 
REMARK    2  A    between atoms: C6_6  and  S8_8 
REMARK    3  A    between atoms: S7_7  and  S8_8 
ROOT
HETATM    1  S7  UNL     1     -35.863  14.806  -3.662  1.00 20.00    -0.093 SA
ENDROOT
BRANCH   1   2
HETATM    2  C5  UNL     1     -34.536  15.955  -3.165  1.00 20.00     0.050 C 
HETATM    3  C1  UNL     1     -34.630  16.231  -1.669  1.00 20.00     0.022 C 
HETATM    4  C2  UNL     1     -33.180  15.368  -3.539  1.00 20.00     0.022 C 
ENDBRANCH   1   2
BRANCH   1   5
HETATM    5  S8  UNL     1     -34.877  13.609  -5.008  1.00 20.00    -0.093 SA
BRANCH   5   6
HETATM    6  C6  UNL     1     -35.388  14.328  -6.586  1.00 20.00     0.050 C 
HETATM    7  C3  UNL     1     -36.653  15.156  -6.388  1.00 20.00     0.022 C 
HETATM    8  C4  UNL     1     -34.255  15.171  -7.159  1.00 20.00     0.022 C 
ENDBRANCH   5   6
ENDBRANCH   1   5
TORSDOF 3
ENDMDL
MODEL 5
REMARK VINA RESULT:      -3.2     11.538     12.240
REMARK  3 active torsions:
REMARK  status: ('A' for Active; 'I' for Inactive)
REMARK    1  A    between atoms: C5_5  and  S7_7 
REMARK    2  A    between atoms: C6_6  and  S8_8 
REMARK    3  A    between atoms: S7_7  and  S8_8 
ROOT
HETATM    1  S7  UNL     1     -34.062  17.542  -2.871  1.00 20.00    -0.093 SA
ENDROOT
BRANCH   1   2
HETATM    2  C5  UNL     1     -33.594  17.419  -1.112  1.00 20.00     0.050 C 
HETATM    3  C1  UNL     1     -33.032  18.753  -0.636  1.00 20.00     0.022 C 
HETATM    4  C2  UNL     1     -34.804  16.998  -0.287  1.00 20.00     0.022 C 
ENDBRANCH   1   2
BRANCH   1   5
HETATM    5  S8  UNL     1     -35.392  15.987  -3.045  1.00 20.00    -0.093 SA
BRANCH   5   6
HETATM    6  C6  UNL     1     -34.282  14.570  -3.224  1.00 20.00     0.050 C 
HETATM    7  C3  UNL     1     -34.923  13.525  -4.130  1.00 20.00     0.022 C 
HETATM    8  C4  UNL     1     -32.939  15.035  -3.775  1.00 20.00     0.022 C 
ENDBRANCH   5   6
ENDBRANCH   1   5
TORSDOF 3
ENDMDL
MODEL 6
REMARK VINA RESULT:      -3.1     11.767     12.799
REMARK  3 active torsions:
REMARK  status: ('A' for Active; 'I' for Inactive)
REMARK    1  A    between atoms: C5_5  and  S7_7 
REMARK    2  A    between atoms: C6_6  and  S8_8 
REMARK    3  A    between atoms: S7_7  and  S8_8 
ROOT
HETATM    1  S7  UNL     1     -33.294  16.353  -4.742  1.00 20.00    -0.093 SA
ENDROOT
BRANCH   1   2
HETATM    2  C5  UNL     1     -34.330  14.859  -4.592  1.00 20.00     0.050 C 
HETATM    3  C1  UNL     1     -34.747  14.382  -5.978  1.00 20.00     0.022 C 
HETATM    4  C2  UNL     1     -33.567  13.778  -3.837  1.00 20.00     0.022 C 
ENDBRANCH   1   2
BRANCH   1   5
HETATM    5  S8  UNL     1     -34.319  17.677  -3.553  1.00 20.00    -0.093 SA
BRANCH   5   6
HETATM    6  C6  UNL     1     -33.681  17.269  -1.911  1.00 20.00     0.050 C 
HETATM    7  C3  UNL     1     -33.340  18.550  -1.159  1.00 20.00     0.022 C 
HETATM    8  C4  UNL     1     -34.708  16.436  -1.152  1.00 20.00     0.022 C 
ENDBRANCH   5   6
ENDBRANCH   1   5
TORSDOF 3
ENDMDL
MODEL 7
REMARK VINA RESULT:      -3.1     11.732     12.948
REMARK  3 active torsions:
REMARK  status: ('A' for Active; 'I' for Inactive)
REMARK    1  A    between atoms: C5_5  and  S7_7 
REMARK    2  A    between atoms: C6_6  and  S8_8 
REMARK    3  A    between atoms: S7_7  and  S8_8 
ROOT
HETATM    1  S7  UNL     1     -35.846  16.056  -5.136  1.00 20.00    -0.093 SA
ENDROOT
BRANCH   1   2
HETATM    2  C5  UNL     1     -35.407  14.578  -6.111  1.00 20.00     0.050 C 
HETATM    3  C1  UNL     1     -34.417  14.960  -7.205  1.00 20.00     0.022 C 
HETATM    4  C2  UNL     1     -34.833  13.507  -5.191  1.00 20.00     0.022 C 
ENDBRANCH   1   2
BRANCH   1   5
HETATM    5  S8  UNL     1     -35.886  15.287  -3.233  1.00 20.00    -0.093 SA
BRANCH   5   6
HETATM    6  C6  UNL     1     -34.347  15.936  -2.539  1.00 20.00     0.050 C 
HETATM    7  C3  UNL     1     -33.765  16.989  -3.475  1.00 20.00     0.022 C 
HETATM    8  C4  UNL     1     -34.610  16.510  -1.151  1.00 20.00     0.022 C 
ENDBRANCH   5   6
ENDBRANCH   1   5
TORSDOF 3
ENDMDL
MODEL 8
REMARK VINA RESULT:      -3.1     11.529     12.751
REMARK  3 active torsions:
REMARK  status: ('A' for Active; 'I' for Inactive)
REMARK    1  A    between atoms: C5_5  and  S7_7 
REMARK    2  A    between atoms: C6_6  and  S8_8 
REMARK    3  A    between atoms: S7_7  and  S8_8 
ROOT
HETATM    1  S7  UNL     1     -33.142  15.078  -3.722  1.00 20.00    -0.093 SA
ENDROOT
BRANCH   1   2
HETATM    2  C5  UNL     1     -34.149  14.134  -4.915  1.00 20.00     0.050 C 
HETATM    3  C1  UNL     1     -35.324  13.485  -4.193  1.00 20.00     0.022 C 
HETATM    4  C2  UNL     1     -34.623  15.057  -6.031  1.00 20.00     0.022 C 
ENDBRANCH   1   2
BRANCH   1   5
HETATM    5  S8  UNL     1     -33.801  16.992  -4.063  1.00 20.00    -0.093 SA
BRANCH   5   6
HETATM    6  C6  UNL     1     -35.002  17.213  -2.729  1.00 20.00     0.050 C 
HETATM    7  C3  UNL     1     -36.407  16.937  -3.252  1.00 20.00     0.022 C 
HETATM    8  C4  UNL     1     -34.652  16.293  -1.565  1.00 20.00     0.022 C 
ENDBRANCH   5   6
ENDBRANCH   1   5
TORSDOF 3
ENDMDL
MODEL 9
REMARK VINA RESULT:      -3.1     11.736     12.684
REMARK  3 active torsions:
REMARK  status: ('A' for Active; 'I' for Inactive)
REMARK    1  A    between atoms: C5_5  and  S7_7 
REMARK    2  A    between atoms: C6_6  and  S8_8 
REMARK    3  A    between atoms: S7_7  and  S8_8 
ROOT
HETATM    1  S7  UNL     1     -34.230  17.694  -3.511  1.00 20.00    -0.093 SA
ENDROOT
BRANCH   1   2
HETATM    2  C5  UNL     1     -33.673  17.189  -1.849  1.00 20.00     0.050 C 
HETATM    3  C1  UNL     1     -33.270  18.421  -1.047  1.00 20.00     0.022 C 
HETATM    4  C2  UNL     1     -34.780  16.408  -1.151  1.00 20.00     0.022 C 
ENDBRANCH   1   2
BRANCH   1   5
HETATM    5  S8  UNL     1     -33.274  16.313  -4.693  1.00 20.00    -0.093 SA
BRANCH   5   6
HETATM    6  C6  UNL     1     -34.404  14.904  -4.602  1.00 20.00     0.050 C 
HETATM    7  C3  UNL     1     -34.749  14.428  -6.009  1.00 20.00     0.022 C 
HETATM    8  C4  UNL     1     -33.769  13.789  -3.778  1.00 20.00     0.022 C 
ENDBRANCH   5   6
ENDBRANCH   1   5
TORSDOF 3
ENDMDL
