MODEL 1
REMARK VINA RESULT:      -5.9      0.000      0.000
REMARK  1 active torsions:
REMARK  status: ('A' for Active; 'I' for Inactive)
REMARK    1  A    between atoms: C6_6  and  C8_8 
ROOT
HETATM    1  C1  UNL     1     -35.125   4.806   6.082  1.00 20.00     0.000 A 
HETATM    2  C2  UNL     1     -34.297   5.881   6.405  1.00 20.00     0.001 A 
HETATM    3  C3  UNL     1     -35.269   4.412   4.752  1.00 20.00     0.001 A 
HETATM    4  C4  UNL     1     -33.613   6.562   5.398  1.00 20.00     0.007 A 
HETATM    5  C5  UNL     1     -34.584   5.093   3.745  1.00 20.00     0.007 A 
HETATM    6  C6  UNL     1     -33.757   6.169   4.067  1.00 20.00    -0.059 A 
ENDROOT
BRANCH   6   7
HETATM    7  C8  UNL     1     -33.025   6.896   2.990  1.00 20.00     0.034 C 
HETATM    8  C7  UNL     1     -31.667   7.411   3.457  1.00 20.00     0.010 C 
ENDBRANCH   6   7
TORSDOF 1
ENDMDL
MODEL 2
REMARK VINA RESULT:      -5.9      0.002      1.708
REMARK  1 active torsions:
REMARK  status: ('A' for Active; 'I' for Inactive)
REMARK    1  A    between atoms: C6_6  and  C8_8 
ROOT
HETATM    1  C1  UNL     1     -35.123   4.807   6.084  1.00 20.00     0.000 A 
HETATM    2  C2  UNL     1     -35.268   4.411   4.754  1.00 20.00     0.001 A 
HETATM    3  C3  UNL     1     -34.295   5.882   6.405  1.00 20.00     0.001 A 
HETATM    4  C4  UNL     1     -34.585   5.091   3.746  1.00 20.00     0.007 A 
HETATM    5  C5  UNL     1     -33.612   6.562   5.397  1.00 20.00     0.007 A 
HETATM    6  C6  UNL     1     -33.756   6.166   4.067  1.00 20.00    -0.059 A 
ENDROOT
BRANCH   6   7
HETATM    7  C8  UNL     1     -33.025   6.893   2.989  1.00 20.00     0.034 C 
HETATM    8  C7  UNL     1     -31.666   7.410   3.457  1.00 20.00     0.010 C 
ENDBRANCH   6   7
TORSDOF 1
ENDMDL
MODEL 3
REMARK VINA RESULT:      -4.5      0.852      3.708
REMARK  1 active torsions:
REMARK  status: ('A' for Active; 'I' for Inactive)
REMARK    1  A    between atoms: C6_6  and  C8_8 
ROOT
HETATM    1  C1  UNL     1     -32.924   6.194   2.427  1.00 20.00     0.000 A 
HETATM    2  C2  UNL     1     -34.048   5.388   2.606  1.00 20.00     0.001 A 
HETATM    3  C3  UNL     1     -32.352   6.846   3.519  1.00 20.00     0.001 A 
HETATM    4  C4  UNL     1     -34.600   5.234   3.878  1.00 20.00     0.007 A 
HETATM    5  C5  UNL     1     -32.904   6.691   4.790  1.00 20.00     0.007 A 
HETATM    6  C6  UNL     1     -34.028   5.886   4.970  1.00 20.00    -0.059 A 
ENDROOT
BRANCH   6   7
HETATM    7  C8  UNL     1     -34.618   5.721   6.331  1.00 20.00     0.034 C 
HETATM    8  C7  UNL     1     -35.224   4.335   6.536  1.00 20.00     0.010 C 
ENDBRANCH   6   7
TORSDOF 1
ENDMDL
MODEL 4
REMARK VINA RESULT:      -4.5      0.852      3.332
REMARK  1 active torsions:
REMARK  status: ('A' for Active; 'I' for Inactive)
REMARK    1  A    between atoms: C6_6  and  C8_8 
ROOT
HETATM    1  C1  UNL     1     -32.922   6.198   2.424  1.00 20.00     0.000 A 
HETATM    2  C2  UNL     1     -32.340   6.838   3.518  1.00 20.00     0.001 A 
HETATM    3  C3  UNL     1     -34.057   5.406   2.602  1.00 20.00     0.001 A 
HETATM    4  C4  UNL     1     -32.893   6.686   4.790  1.00 20.00     0.007 A 
HETATM    5  C5  UNL     1     -34.609   5.254   3.873  1.00 20.00     0.007 A 
HETATM    6  C6  UNL     1     -34.027   5.893   4.968  1.00 20.00    -0.059 A 
ENDROOT
BRANCH   6   7
HETATM    7  C8  UNL     1     -34.618   5.730   6.328  1.00 20.00     0.034 C 
HETATM    8  C7  UNL     1     -35.240   4.351   6.528  1.00 20.00     0.010 C 
ENDBRANCH   6   7
TORSDOF 1
ENDMDL
MODEL 5
REMARK VINA RESULT:      -4.5      1.289      2.622
REMARK  1 active torsions:
REMARK  status: ('A' for Active; 'I' for Inactive)
REMARK    1  A    between atoms: C6_6  and  C8_8 
ROOT
HETATM    1  C1  UNL     1     -35.295   4.271   4.378  1.00 20.00     0.000 A 
HETATM    2  C2  UNL     1     -35.137   4.157   5.759  1.00 20.00     0.001 A 
HETATM    3  C3  UNL     1     -34.770   5.374   3.704  1.00 20.00     0.001 A 
HETATM    4  C4  UNL     1     -34.453   5.145   6.466  1.00 20.00     0.007 A 
HETATM    5  C5  UNL     1     -34.086   6.362   4.412  1.00 20.00     0.007 A 
HETATM    6  C6  UNL     1     -33.928   6.249   5.794  1.00 20.00    -0.059 A 
ENDROOT
BRANCH   6   7
HETATM    7  C8  UNL     1     -33.197   7.306   6.550  1.00 20.00     0.034 C 
HETATM    8  C7  UNL     1     -34.068   7.963   7.617  1.00 20.00     0.010 C 
ENDBRANCH   6   7
TORSDOF 1
ENDMDL
MODEL 6
REMARK VINA RESULT:      -4.4     11.761     12.213
REMARK  1 active torsions:
REMARK  status: ('A' for Active; 'I' for Inactive)
REMARK    1  A    between atoms: C6_6  and  C8_8 
ROOT
HETATM    1  C1  UNL     1     -35.083  13.379  -4.403  1.00 20.00     0.000 A 
HETATM    2  C2  UNL     1     -33.736  13.592  -4.107  1.00 20.00     0.001 A 
HETATM    3  C3  UNL     1     -36.051  14.257  -3.917  1.00 20.00     0.001 A 
HETATM    4  C4  UNL     1     -33.359  14.682  -3.324  1.00 20.00     0.007 A 
HETATM    5  C5  UNL     1     -35.673  15.348  -3.134  1.00 20.00     0.007 A 
HETATM    6  C6  UNL     1     -34.326  15.561  -2.837  1.00 20.00    -0.059 A 
ENDROOT
BRANCH   6   7
HETATM    7  C8  UNL     1     -33.923  16.727  -2.000  1.00 20.00     0.034 C 
HETATM    8  C7  UNL     1     -34.623  16.737  -0.643  1.00 20.00     0.010 C 
ENDBRANCH   6   7
TORSDOF 1
ENDMDL
MODEL 7
REMARK VINA RESULT:      -4.3     11.755     12.238
REMARK  1 active torsions:
REMARK  status: ('A' for Active; 'I' for Inactive)
REMARK    1  A    between atoms: C6_6  and  C8_8 
ROOT
HETATM    1  C1  UNL     1     -35.056  13.363  -4.396  1.00 20.00     0.000 A 
HETATM    2  C2  UNL     1     -36.040  14.233  -3.925  1.00 20.00     0.001 A 
HETATM    3  C3  UNL     1     -33.715  13.598  -4.094  1.00 20.00     0.001 A 
HETATM    4  C4  UNL     1     -35.682  15.338  -3.153  1.00 20.00     0.007 A 
HETATM    5  C5  UNL     1     -33.358  14.703  -3.321  1.00 20.00     0.007 A 
HETATM    6  C6  UNL     1     -34.341  15.574  -2.851  1.00 20.00    -0.059 A 
ENDROOT
BRANCH   6   7
HETATM    7  C8  UNL     1     -33.958  16.755  -2.026  1.00 20.00     0.034 C 
HETATM    8  C7  UNL     1     -34.617  16.739  -0.649  1.00 20.00     0.010 C 
ENDBRANCH   6   7
TORSDOF 1
ENDMDL
MODEL 8
REMARK VINA RESULT:      -4.1      9.297     10.615
REMARK  1 active torsions:
REMARK  status: ('A' for Active; 'I' for Inactive)
REMARK    1  A    between atoms: C6_6  and  C8_8 
ROOT
HETATM    1  C1  UNL     1     -41.055   7.037  -0.880  1.00 20.00     0.000 A 
HETATM    2  C2  UNL     1     -41.945   7.225  -1.937  1.00 20.00     0.001 A 
HETATM    3  C3  UNL     1     -40.659   5.748  -0.522  1.00 20.00     0.001 A 
HETATM    4  C4  UNL     1     -42.440   6.124  -2.636  1.00 20.00     0.007 A 
HETATM    5  C5  UNL     1     -41.155   4.648  -1.221  1.00 20.00     0.007 A 
HETATM    6  C6  UNL     1     -42.046   4.835  -2.278  1.00 20.00    -0.059 A 
ENDROOT
BRANCH   6   7
HETATM    7  C8  UNL     1     -42.575   3.658  -3.025  1.00 20.00     0.034 C 
HETATM    8  C7  UNL     1     -41.537   2.547  -3.168  1.00 20.00     0.010 C 
ENDBRANCH   6   7
TORSDOF 1
ENDMDL
MODEL 9
REMARK VINA RESULT:      -4.0     11.690     12.941
REMARK  1 active torsions:
REMARK  status: ('A' for Active; 'I' for Inactive)
REMARK    1  A    between atoms: C6_6  and  C8_8 
ROOT
HETATM    1  C1  UNL     1     -34.784  13.885  -5.819  1.00 20.00     0.000 A 
HETATM    2  C2  UNL     1     -34.397  15.210  -6.022  1.00 20.00     0.001 A 
HETATM    3  C3  UNL     1     -34.798  13.352  -4.530  1.00 20.00     0.001 A 
HETATM    4  C4  UNL     1     -34.024  16.001  -4.935  1.00 20.00     0.007 A 
HETATM    5  C5  UNL     1     -34.425  14.144  -3.444  1.00 20.00     0.007 A 
HETATM    6  C6  UNL     1     -34.037  15.468  -3.646  1.00 20.00    -0.059 A 
ENDROOT
BRANCH   6   7
HETATM    7  C8  UNL     1     -33.638  16.314  -2.484  1.00 20.00     0.034 C 
HETATM    8  C7  UNL     1     -34.716  16.362  -1.405  1.00 20.00     0.010 C 
ENDBRANCH   6   7
TORSDOF 1
ENDMDL
