MODEL 1
REMARK VINA RESULT:      -5.6      0.000      0.000
REMARK  0 active torsions:
REMARK  status: ('A' for Active; 'I' for Inactive)
ROOT
HETATM    1  C1  UNL     1     -35.175   4.566   4.349  1.00 20.00     0.000 A 
HETATM    2  C2  UNL     1     -35.208   4.389   5.733  1.00 20.00     0.003 A 
HETATM    3  C3  UNL     1     -34.479   5.642   3.800  1.00 20.00     0.003 A 
HETATM    4  C4  UNL     1     -34.544   5.288   6.566  1.00 20.00     0.042 A 
HETATM    5  C5  UNL     1     -33.815   6.542   4.634  1.00 20.00     0.042 A 
HETATM    6  C6  UNL     1     -33.848   6.365   6.017  1.00 20.00     0.116 A 
HETATM    7  F7  UNL     1     -33.210   7.228   6.818  1.00 20.00    -0.206 F 
ENDROOT
TORSDOF 0
ENDMDL
MODEL 2
REMARK VINA RESULT:      -5.6      0.008      1.827
REMARK  0 active torsions:
REMARK  status: ('A' for Active; 'I' for Inactive)
ROOT
HETATM    1  C1  UNL     1     -35.175   4.559   4.346  1.00 20.00     0.000 A 
HETATM    2  C2  UNL     1     -34.482   5.639   3.798  1.00 20.00     0.003 A 
HETATM    3  C3  UNL     1     -35.206   4.378   5.728  1.00 20.00     0.003 A 
HETATM    4  C4  UNL     1     -33.820   6.538   4.633  1.00 20.00     0.042 A 
HETATM    5  C5  UNL     1     -34.544   5.279   6.564  1.00 20.00     0.042 A 
HETATM    6  C6  UNL     1     -33.851   6.358   6.017  1.00 20.00     0.116 A 
HETATM    7  F7  UNL     1     -33.215   7.222   6.818  1.00 20.00    -0.206 F 
ENDROOT
TORSDOF 0
ENDMDL
MODEL 3
REMARK VINA RESULT:      -5.6      1.912      2.628
REMARK  0 active torsions:
REMARK  status: ('A' for Active; 'I' for Inactive)
ROOT
HETATM    1  C1  UNL     1     -34.461   5.604   6.522  1.00 20.00     0.000 A 
HETATM    2  C2  UNL     1     -35.106   4.521   5.924  1.00 20.00     0.003 A 
HETATM    3  C3  UNL     1     -33.822   6.559   5.733  1.00 20.00     0.003 A 
HETATM    4  C4  UNL     1     -35.112   4.394   4.536  1.00 20.00     0.042 A 
HETATM    5  C5  UNL     1     -33.828   6.432   4.343  1.00 20.00     0.042 A 
HETATM    6  C6  UNL     1     -34.472   5.349   3.745  1.00 20.00     0.116 A 
HETATM    7  F7  UNL     1     -34.478   5.226   2.411  1.00 20.00    -0.206 F 
ENDROOT
TORSDOF 0
ENDMDL
MODEL 4
REMARK VINA RESULT:      -5.6      1.912      3.019
REMARK  0 active torsions:
REMARK  status: ('A' for Active; 'I' for Inactive)
ROOT
HETATM    1  C1  UNL     1     -34.461   5.604   6.522  1.00 20.00     0.000 A 
HETATM    2  C2  UNL     1     -33.821   6.559   5.731  1.00 20.00     0.003 A 
HETATM    3  C3  UNL     1     -35.106   4.522   5.926  1.00 20.00     0.003 A 
HETATM    4  C4  UNL     1     -33.827   6.430   4.343  1.00 20.00     0.042 A 
HETATM    5  C5  UNL     1     -35.112   4.393   4.536  1.00 20.00     0.042 A 
HETATM    6  C6  UNL     1     -34.473   5.348   3.745  1.00 20.00     0.116 A 
HETATM    7  F7  UNL     1     -34.478   5.225   2.411  1.00 20.00    -0.206 F 
ENDROOT
TORSDOF 0
ENDMDL
MODEL 5
REMARK VINA RESULT:      -5.3      1.626      2.417
REMARK  0 active torsions:
REMARK  status: ('A' for Active; 'I' for Inactive)
ROOT
HETATM    1  C1  UNL     1     -33.821   6.503   4.060  1.00 20.00     0.000 A 
HETATM    2  C2  UNL     1     -33.668   6.680   5.436  1.00 20.00     0.003 A 
HETATM    3  C3  UNL     1     -34.591   5.447   3.574  1.00 20.00     0.003 A 
HETATM    4  C4  UNL     1     -34.287   5.803   6.324  1.00 20.00     0.042 A 
HETATM    5  C5  UNL     1     -35.211   4.568   4.463  1.00 20.00     0.042 A 
HETATM    6  C6  UNL     1     -35.059   4.746   5.839  1.00 20.00     0.116 A 
HETATM    7  F7  UNL     1     -35.653   3.903   6.693  1.00 20.00    -0.206 F 
ENDROOT
TORSDOF 0
ENDMDL
MODEL 6
REMARK VINA RESULT:      -5.3      1.626      2.574
REMARK  0 active torsions:
REMARK  status: ('A' for Active; 'I' for Inactive)
ROOT
HETATM    1  C1  UNL     1     -33.819   6.500   4.059  1.00 20.00     0.000 A 
HETATM    2  C2  UNL     1     -34.592   5.444   3.574  1.00 20.00     0.003 A 
HETATM    3  C3  UNL     1     -33.667   6.680   5.433  1.00 20.00     0.003 A 
HETATM    4  C4  UNL     1     -35.211   4.568   4.465  1.00 20.00     0.042 A 
HETATM    5  C5  UNL     1     -34.287   5.803   6.325  1.00 20.00     0.042 A 
HETATM    6  C6  UNL     1     -35.059   4.747   5.840  1.00 20.00     0.116 A 
HETATM    7  F7  UNL     1     -35.655   3.906   6.695  1.00 20.00    -0.206 F 
ENDROOT
TORSDOF 0
ENDMDL
MODEL 7
REMARK VINA RESULT:      -3.9      8.907      9.708
REMARK  0 active torsions:
REMARK  status: ('A' for Active; 'I' for Inactive)
ROOT
HETATM    1  C1  UNL     1     -42.302   5.354  -2.653  1.00 20.00     0.000 A 
HETATM    2  C2  UNL     1     -41.678   4.368  -1.889  1.00 20.00     0.003 A 
HETATM    3  C3  UNL     1     -42.163   6.697  -2.308  1.00 20.00     0.003 A 
HETATM    4  C4  UNL     1     -40.914   4.726  -0.780  1.00 20.00     0.042 A 
HETATM    5  C5  UNL     1     -41.398   7.056  -1.197  1.00 20.00     0.042 A 
HETATM    6  C6  UNL     1     -40.774   6.070  -0.433  1.00 20.00     0.116 A 
HETATM    7  F7  UNL     1     -40.040   6.414   0.633  1.00 20.00    -0.206 F 
ENDROOT
TORSDOF 0
ENDMDL
MODEL 8
REMARK VINA RESULT:      -3.9      8.907      9.808
REMARK  0 active torsions:
REMARK  status: ('A' for Active; 'I' for Inactive)
ROOT
HETATM    1  C1  UNL     1     -42.307   5.361  -2.652  1.00 20.00     0.000 A 
HETATM    2  C2  UNL     1     -42.161   6.705  -2.306  1.00 20.00     0.003 A 
HETATM    3  C3  UNL     1     -41.687   4.373  -1.889  1.00 20.00     0.003 A 
HETATM    4  C4  UNL     1     -41.394   7.059  -1.197  1.00 20.00     0.042 A 
HETATM    5  C5  UNL     1     -40.919   4.727  -0.779  1.00 20.00     0.042 A 
HETATM    6  C6  UNL     1     -40.772   6.071  -0.433  1.00 20.00     0.116 A 
HETATM    7  F7  UNL     1     -40.036   6.411   0.632  1.00 20.00    -0.206 F 
ENDROOT
TORSDOF 0
ENDMDL
MODEL 9
REMARK VINA RESULT:      -3.8     12.521     12.768
REMARK  0 active torsions:
REMARK  status: ('A' for Active; 'I' for Inactive)
ROOT
HETATM    1  C1  UNL     1     -36.057  14.454  -3.798  1.00 20.00     0.000 A 
HETATM    2  C2  UNL     1     -35.440  15.503  -3.116  1.00 20.00     0.003 A 
HETATM    3  C3  UNL     1     -35.286  13.447  -4.376  1.00 20.00     0.003 A 
HETATM    4  C4  UNL     1     -34.050  15.544  -3.012  1.00 20.00     0.042 A 
HETATM    5  C5  UNL     1     -33.895  13.487  -4.272  1.00 20.00     0.042 A 
HETATM    6  C6  UNL     1     -33.277  14.536  -3.590  1.00 20.00     0.116 A 
HETATM    7  F7  UNL     1     -31.942  14.575  -3.490  1.00 20.00    -0.206 F 
ENDROOT
TORSDOF 0
ENDMDL
