MODEL 1
REMARK VINA RESULT:      -6.0      0.000      0.000
REMARK  0 active torsions:
REMARK  status: ('A' for Active; 'I' for Inactive)
ROOT
HETATM    1  C1  UNL     1     -34.608   5.644   6.703  1.00 20.00     0.001 A 
HETATM    2  C2  UNL     1     -35.292   4.681   5.941  1.00 20.00     0.001 A 
HETATM    3  C3  UNL     1     -33.673   6.495   6.106  1.00 20.00     0.012 A 
HETATM    4  C4  UNL     1     -35.053   4.550   4.571  1.00 20.00     0.008 A 
HETATM    5  C5  UNL     1     -33.442   6.358   4.749  1.00 20.00    -0.030 A 
HETATM    6  C6  UNL     1     -34.125   5.396   3.992  1.00 20.00    -0.044 A 
HETATM    7  C7  UNL     1     -32.539   7.093   3.878  1.00 20.00     0.008 A 
HETATM    8  C8  UNL     1     -32.670   6.594   2.640  1.00 20.00    -0.021 A 
HETATM    9  C9  UNL     1     -33.679   5.472   2.564  1.00 20.00     0.066 A 
ENDROOT
TORSDOF 0
ENDMDL
MODEL 2
REMARK VINA RESULT:      -5.9      0.077      1.981
REMARK  0 active torsions:
REMARK  status: ('A' for Active; 'I' for Inactive)
ROOT
HETATM    1  C1  UNL     1     -35.301   4.616   5.910  1.00 20.00     0.001 A 
HETATM    2  C2  UNL     1     -34.658   5.581   6.704  1.00 20.00     0.001 A 
HETATM    3  C3  UNL     1     -35.024   4.513   4.543  1.00 20.00     0.012 A 
HETATM    4  C4  UNL     1     -33.727   6.460   6.147  1.00 20.00     0.008 A 
HETATM    5  C5  UNL     1     -34.100   5.389   4.000  1.00 20.00    -0.030 A 
HETATM    6  C6  UNL     1     -33.460   6.351   4.794  1.00 20.00    -0.044 A 
HETATM    7  C7  UNL     1     -33.625   5.511   2.632  1.00 20.00     0.008 A 
HETATM    8  C8  UNL     1     -32.730   6.511   2.599  1.00 20.00    -0.021 A 
HETATM    9  C9  UNL     1     -32.521   7.154   3.949  1.00 20.00     0.066 A 
ENDROOT
TORSDOF 0
ENDMDL
MODEL 3
REMARK VINA RESULT:      -5.6      0.500      3.713
REMARK  0 active torsions:
REMARK  status: ('A' for Active; 'I' for Inactive)
ROOT
HETATM    1  C1  UNL     1     -32.897   6.187   2.404  1.00 20.00     0.001 A 
HETATM    2  C2  UNL     1     -32.295   7.078   3.309  1.00 20.00     0.001 A 
HETATM    3  C3  UNL     1     -33.885   5.295   2.829  1.00 20.00     0.012 A 
HETATM    4  C4  UNL     1     -32.671   7.093   4.655  1.00 20.00     0.008 A 
HETATM    5  C5  UNL     1     -34.251   5.316   4.163  1.00 20.00    -0.030 A 
HETATM    6  C6  UNL     1     -33.649   6.206   5.065  1.00 20.00    -0.044 A 
HETATM    7  C7  UNL     1     -35.233   4.514   4.874  1.00 20.00     0.008 A 
HETATM    8  C8  UNL     1     -35.226   4.903   6.158  1.00 20.00    -0.021 A 
HETATM    9  C9  UNL     1     -34.234   6.009   6.429  1.00 20.00     0.066 A 
ENDROOT
TORSDOF 0
ENDMDL
MODEL 4
REMARK VINA RESULT:      -5.6      0.496      3.142
REMARK  0 active torsions:
REMARK  status: ('A' for Active; 'I' for Inactive)
ROOT
HETATM    1  C1  UNL     1     -32.272   7.112   3.433  1.00 20.00     0.001 A 
HETATM    2  C2  UNL     1     -32.841   6.249   2.481  1.00 20.00     0.001 A 
HETATM    3  C3  UNL     1     -32.689   7.081   4.767  1.00 20.00     0.012 A 
HETATM    4  C4  UNL     1     -33.838   5.340   2.845  1.00 20.00     0.008 A 
HETATM    5  C5  UNL     1     -33.676   6.177   5.118  1.00 20.00    -0.030 A 
HETATM    6  C6  UNL     1     -34.244   5.318   4.167  1.00 20.00    -0.044 A 
HETATM    7  C7  UNL     1     -34.296   5.929   6.410  1.00 20.00     0.008 A 
HETATM    8  C8  UNL     1     -35.205   4.955   6.246  1.00 20.00    -0.021 A 
HETATM    9  C9  UNL     1     -35.279   4.457   4.822  1.00 20.00     0.066 A 
ENDROOT
TORSDOF 0
ENDMDL
MODEL 5
REMARK VINA RESULT:      -4.5     12.024     13.924
REMARK  0 active torsions:
REMARK  status: ('A' for Active; 'I' for Inactive)
ROOT
HETATM    1  C1  UNL     1     -33.652  13.839  -3.765  1.00 20.00     0.001 A 
HETATM    2  C2  UNL     1     -33.078  15.119  -3.666  1.00 20.00     0.001 A 
HETATM    3  C3  UNL     1     -34.424  13.485  -4.876  1.00 20.00     0.012 A 
HETATM    4  C4  UNL     1     -33.264  16.066  -4.675  1.00 20.00     0.008 A 
HETATM    5  C5  UNL     1     -34.603  14.430  -5.870  1.00 20.00    -0.030 A 
HETATM    6  C6  UNL     1     -34.029  15.706  -5.770  1.00 20.00    -0.044 A 
HETATM    7  C7  UNL     1     -35.344  14.342  -7.117  1.00 20.00     0.008 A 
HETATM    8  C8  UNL     1     -35.225  15.520  -7.748  1.00 20.00    -0.021 A 
HETATM    9  C9  UNL     1     -34.386  16.514  -6.979  1.00 20.00     0.066 A 
ENDROOT
TORSDOF 0
ENDMDL
MODEL 6
REMARK VINA RESULT:      -4.5     12.043     13.818
REMARK  0 active torsions:
REMARK  status: ('A' for Active; 'I' for Inactive)
ROOT
HETATM    1  C1  UNL     1     -33.084  15.113  -3.658  1.00 20.00     0.001 A 
HETATM    2  C2  UNL     1     -33.668  13.839  -3.769  1.00 20.00     0.001 A 
HETATM    3  C3  UNL     1     -33.258  16.070  -4.662  1.00 20.00     0.012 A 
HETATM    4  C4  UNL     1     -34.435  13.499  -4.886  1.00 20.00     0.008 A 
HETATM    5  C5  UNL     1     -34.020  15.724  -5.764  1.00 20.00    -0.030 A 
HETATM    6  C6  UNL     1     -34.600  14.452  -5.874  1.00 20.00    -0.044 A 
HETATM    7  C7  UNL     1     -34.363  16.503  -6.943  1.00 20.00     0.008 A 
HETATM    8  C8  UNL     1     -35.123  15.732  -7.735  1.00 20.00    -0.021 A 
HETATM    9  C9  UNL     1     -35.362  14.357  -7.160  1.00 20.00     0.066 A 
ENDROOT
TORSDOF 0
ENDMDL
MODEL 7
REMARK VINA RESULT:      -4.4      9.487     10.556
REMARK  0 active torsions:
REMARK  status: ('A' for Active; 'I' for Inactive)
ROOT
HETATM    1  C1  UNL     1     -41.164   7.243  -0.811  1.00 20.00     0.001 A 
HETATM    2  C2  UNL     1     -40.470   6.152  -0.262  1.00 20.00     0.001 A 
HETATM    3  C3  UNL     1     -42.111   7.053  -1.823  1.00 20.00     0.012 A 
HETATM    4  C4  UNL     1     -40.708   4.851  -0.713  1.00 20.00     0.008 A 
HETATM    5  C5  UNL     1     -42.340   5.761  -2.264  1.00 20.00    -0.030 A 
HETATM    6  C6  UNL     1     -41.645   4.674  -1.715  1.00 20.00    -0.044 A 
HETATM    7  C7  UNL     1     -43.250   5.273  -3.287  1.00 20.00     0.008 A 
HETATM    8  C8  UNL     1     -43.111   3.940  -3.355  1.00 20.00    -0.021 A 
HETATM    9  C9  UNL     1     -42.090   3.407  -2.378  1.00 20.00     0.066 A 
ENDROOT
TORSDOF 0
ENDMDL
MODEL 8
REMARK VINA RESULT:      -4.4      9.618     10.667
REMARK  0 active torsions:
REMARK  status: ('A' for Active; 'I' for Inactive)
ROOT
HETATM    1  C1  UNL     1     -41.917   3.408  -2.487  1.00 20.00     0.001 A 
HETATM    2  C2  UNL     1     -42.930   4.018  -3.248  1.00 20.00     0.001 A 
HETATM    3  C3  UNL     1     -41.144   4.157  -1.594  1.00 20.00     0.012 A 
HETATM    4  C4  UNL     1     -43.187   5.386  -3.130  1.00 20.00     0.008 A 
HETATM    5  C5  UNL     1     -41.406   5.511  -1.485  1.00 20.00    -0.030 A 
HETATM    6  C6  UNL     1     -42.416   6.117  -2.246  1.00 20.00    -0.044 A 
HETATM    7  C7  UNL     1     -40.771   6.520  -0.653  1.00 20.00     0.008 A 
HETATM    8  C8  UNL     1     -41.374   7.692  -0.900  1.00 20.00    -0.021 A 
HETATM    9  C9  UNL     1     -42.476   7.579  -1.926  1.00 20.00     0.066 A 
ENDROOT
TORSDOF 0
ENDMDL
MODEL 9
REMARK VINA RESULT:      -4.3      9.498     10.580
REMARK  0 active torsions:
REMARK  status: ('A' for Active; 'I' for Inactive)
ROOT
HETATM    1  C1  UNL     1     -40.485   6.140  -0.255  1.00 20.00     0.001 A 
HETATM    2  C2  UNL     1     -41.171   7.244  -0.791  1.00 20.00     0.001 A 
HETATM    3  C3  UNL     1     -40.731   4.847  -0.729  1.00 20.00     0.012 A 
HETATM    4  C4  UNL     1     -42.114   7.076  -1.807  1.00 20.00     0.008 A 
HETATM    5  C5  UNL     1     -41.666   4.691  -1.736  1.00 20.00    -0.030 A 
HETATM    6  C6  UNL     1     -42.350   5.793  -2.267  1.00 20.00    -0.044 A 
HETATM    7  C7  UNL     1     -42.118   3.484  -2.409  1.00 20.00     0.008 A 
HETATM    8  C8  UNL     1     -43.041   3.843  -3.315  1.00 20.00    -0.021 A 
HETATM    9  C9  UNL     1     -43.295   5.332  -3.334  1.00 20.00     0.066 A 
ENDROOT
TORSDOF 0
ENDMDL
