MODEL 1
REMARK VINA RESULT:      -5.4      0.000      0.000
REMARK  0 active torsions:
REMARK  status: ('A' for Active; 'I' for Inactive)
ROOT
HETATM    1  C1  UNL     1     -35.294   4.589   5.801  1.00 20.00     0.001 A 
HETATM    2  C2  UNL     1     -34.705   5.505   6.670  1.00 20.00     0.002 A 
HETATM    3  C3  UNL     1     -34.953   4.569   4.444  1.00 20.00     0.014 A 
HETATM    4  C4  UNL     1     -33.760   6.429   6.213  1.00 20.00     0.030 A 
HETATM    5  C5  UNL     1     -33.434   5.747   2.681  1.00 20.00     0.030 A 
HETATM    6  C6  UNL     1     -32.544   6.787   2.821  1.00 20.00     0.089 A 
HETATM    7  C7  UNL     1     -34.002   5.489   3.959  1.00 20.00    -0.008 A 
HETATM    8  C8  UNL     1     -33.430   6.396   4.854  1.00 20.00     0.042 A 
HETATM    9  N9  UNL     1     -32.548   7.171   4.135  1.00 20.00    -0.365 N 
HETATM   10  H16 UNL     1     -31.985   7.916   4.522  1.00 20.00     0.165 HD
ENDROOT
TORSDOF 0
ENDMDL
MODEL 2
REMARK VINA RESULT:      -4.9      1.498      3.689
REMARK  0 active torsions:
REMARK  status: ('A' for Active; 'I' for Inactive)
ROOT
HETATM    1  C1  UNL     1     -32.623   6.803   3.143  1.00 20.00     0.001 A 
HETATM    2  C2  UNL     1     -33.351   5.925   2.342  1.00 20.00     0.002 A 
HETATM    3  C3  UNL     1     -32.848   6.867   4.522  1.00 20.00     0.014 A 
HETATM    4  C4  UNL     1     -34.325   5.087   2.892  1.00 20.00     0.030 A 
HETATM    5  C5  UNL     1     -34.304   5.836   6.425  1.00 20.00     0.030 A 
HETATM    6  C6  UNL     1     -35.283   4.871   6.377  1.00 20.00     0.089 A 
HETATM    7  C7  UNL     1     -33.824   6.032   5.100  1.00 20.00    -0.008 A 
HETATM    8  C8  UNL     1     -34.539   5.163   4.272  1.00 20.00     0.042 A 
HETATM    9  N9  UNL     1     -35.417   4.470   5.075  1.00 20.00    -0.365 N 
HETATM   10  H16 UNL     1     -36.067   3.767   4.750  1.00 20.00     0.165 HD
ENDROOT
TORSDOF 0
ENDMDL
MODEL 3
REMARK VINA RESULT:      -4.6      1.213      3.132
REMARK  0 active torsions:
REMARK  status: ('A' for Active; 'I' for Inactive)
ROOT
HETATM    1  C1  UNL     1     -32.855   6.242   2.477  1.00 20.00     0.001 A 
HETATM    2  C2  UNL     1     -32.274   7.095   3.414  1.00 20.00     0.002 A 
HETATM    3  C3  UNL     1     -33.864   5.348   2.851  1.00 20.00     0.014 A 
HETATM    4  C4  UNL     1     -32.681   7.081   4.751  1.00 20.00     0.030 A 
HETATM    5  C5  UNL     1     -35.262   4.559   4.907  1.00 20.00     0.030 A 
HETATM    6  C6  UNL     1     -35.233   4.971   6.219  1.00 20.00     0.089 A 
HETATM    7  C7  UNL     1     -34.292   5.316   4.193  1.00 20.00    -0.008 A 
HETATM    8  C8  UNL     1     -33.691   6.182   5.110  1.00 20.00     0.042 A 
HETATM    9  N9  UNL     1     -34.282   5.951   6.332  1.00 20.00    -0.365 N 
HETATM   10  H16 UNL     1     -34.049   6.435   7.188  1.00 20.00     0.165 HD
ENDROOT
TORSDOF 0
ENDMDL
MODEL 4
REMARK VINA RESULT:      -4.5     12.056     12.567
REMARK  0 active torsions:
REMARK  status: ('A' for Active; 'I' for Inactive)
ROOT
HETATM    1  C1  UNL     1     -33.914  13.588  -4.282  1.00 20.00     0.001 A 
HETATM    2  C2  UNL     1     -35.298  13.507  -4.428  1.00 20.00     0.002 A 
HETATM    3  C3  UNL     1     -33.334  14.595  -3.503  1.00 20.00     0.014 A 
HETATM    4  C4  UNL     1     -36.144  14.428  -3.803  1.00 20.00     0.030 A 
HETATM    5  C5  UNL     1     -33.930  16.656  -2.019  1.00 20.00     0.030 A 
HETATM    6  C6  UNL     1     -35.151  17.200  -1.695  1.00 20.00     0.089 A 
HETATM    7  C7  UNL     1     -34.166  15.534  -2.862  1.00 20.00    -0.008 A 
HETATM    8  C8  UNL     1     -35.549  15.428  -3.027  1.00 20.00     0.042 A 
HETATM    9  N9  UNL     1     -36.122  16.453  -2.307  1.00 20.00    -0.365 N 
HETATM   10  H16 UNL     1     -37.115  16.628  -2.240  1.00 20.00     0.165 HD
ENDROOT
TORSDOF 0
ENDMDL
MODEL 5
REMARK VINA RESULT:      -4.3      9.867     10.673
REMARK  0 active torsions:
REMARK  status: ('A' for Active; 'I' for Inactive)
ROOT
HETATM    1  C1  UNL     1     -42.127   7.613  -1.703  1.00 20.00     0.001 A 
HETATM    2  C2  UNL     1     -41.150   7.195  -0.801  1.00 20.00     0.002 A 
HETATM    3  C3  UNL     1     -42.752   6.698  -2.558  1.00 20.00     0.014 A 
HETATM    4  C4  UNL     1     -40.767   5.853  -0.725  1.00 20.00     0.030 A 
HETATM    5  C5  UNL     1     -42.793   4.169  -3.196  1.00 20.00     0.030 A 
HETATM    6  C6  UNL     1     -42.066   3.111  -2.702  1.00 20.00     0.089 A 
HETATM    7  C7  UNL     1     -42.382   5.339  -2.499  1.00 20.00    -0.008 A 
HETATM    8  C8  UNL     1     -41.400   4.950  -1.586  1.00 20.00     0.042 A 
HETATM    9  N9  UNL     1     -41.229   3.591  -1.731  1.00 20.00    -0.365 N 
HETATM   10  H16 UNL     1     -40.579   3.030  -1.198  1.00 20.00     0.165 HD
ENDROOT
TORSDOF 0
ENDMDL
MODEL 6
REMARK VINA RESULT:      -4.3      9.845     10.672
REMARK  0 active torsions:
REMARK  status: ('A' for Active; 'I' for Inactive)
ROOT
HETATM    1  C1  UNL     1     -40.528   6.149  -0.285  1.00 20.00     0.001 A 
HETATM    2  C2  UNL     1     -41.196   7.218  -0.880  1.00 20.00     0.002 A 
HETATM    3  C3  UNL     1     -40.753   4.836  -0.714  1.00 20.00     0.014 A 
HETATM    4  C4  UNL     1     -42.107   7.010  -1.919  1.00 20.00     0.030 A 
HETATM    5  C5  UNL     1     -42.128   3.435  -2.431  1.00 20.00     0.030 A 
HETATM    6  C6  UNL     1     -43.037   3.831  -3.384  1.00 20.00     0.089 A 
HETATM    7  C7  UNL     1     -41.666   4.601  -1.760  1.00 20.00    -0.008 A 
HETATM    8  C8  UNL     1     -42.321   5.692  -2.337  1.00 20.00     0.042 A 
HETATM    9  N9  UNL     1     -43.146   5.195  -3.320  1.00 20.00    -0.365 N 
HETATM   10  H16 UNL     1     -43.747   5.755  -3.910  1.00 20.00     0.165 HD
ENDROOT
TORSDOF 0
ENDMDL
MODEL 7
REMARK VINA RESULT:      -4.3     12.090     13.888
REMARK  0 active torsions:
REMARK  status: ('A' for Active; 'I' for Inactive)
ROOT
HETATM    1  C1  UNL     1     -33.094  15.134  -3.694  1.00 20.00     0.001 A 
HETATM    2  C2  UNL     1     -33.664  13.862  -3.724  1.00 20.00     0.002 A 
HETATM    3  C3  UNL     1     -33.286  16.030  -4.751  1.00 20.00     0.014 A 
HETATM    4  C4  UNL     1     -34.442  13.447  -4.808  1.00 20.00     0.030 A 
HETATM    5  C5  UNL     1     -34.461  16.265  -7.068  1.00 20.00     0.030 A 
HETATM    6  C6  UNL     1     -35.236  15.372  -7.771  1.00 20.00     0.089 A 
HETATM    7  C7  UNL     1     -34.067  15.634  -5.854  1.00 20.00    -0.008 A 
HETATM    8  C8  UNL     1     -34.625  14.354  -5.857  1.00 20.00     0.042 A 
HETATM    9  N9  UNL     1     -35.330  14.222  -7.032  1.00 20.00    -0.365 N 
HETATM   10  H16 UNL     1     -35.843  13.397  -7.310  1.00 20.00     0.165 HD
ENDROOT
TORSDOF 0
ENDMDL
MODEL 8
REMARK VINA RESULT:      -4.2     11.855     13.217
REMARK  0 active torsions:
REMARK  status: ('A' for Active; 'I' for Inactive)
ROOT
HETATM    1  C1  UNL     1     -34.096  17.108  -2.341  1.00 20.00     0.001 A 
HETATM    2  C2  UNL     1     -33.670  17.691  -3.533  1.00 20.00     0.002 A 
HETATM    3  C3  UNL     1     -34.477  15.762  -2.297  1.00 20.00     0.014 A 
HETATM    4  C4  UNL     1     -33.613  16.950  -4.717  1.00 20.00     0.030 A 
HETATM    5  C5  UNL     1     -34.730  13.641  -3.794  1.00 20.00     0.030 A 
HETATM    6  C6  UNL     1     -34.485  13.460  -5.135  1.00 20.00     0.089 A 
HETATM    7  C7  UNL     1     -34.427  14.995  -3.478  1.00 20.00    -0.008 A 
HETATM    8  C8  UNL     1     -33.997  15.606  -4.658  1.00 20.00     0.042 A 
HETATM    9  N9  UNL     1     -34.042  14.650  -5.648  1.00 20.00    -0.365 N 
HETATM   10  H16 UNL     1     -33.785  14.805  -6.613  1.00 20.00     0.165 HD
ENDROOT
TORSDOF 0
ENDMDL
MODEL 9
REMARK VINA RESULT:      -4.2      9.962     10.711
REMARK  0 active torsions:
REMARK  status: ('A' for Active; 'I' for Inactive)
ROOT
HETATM    1  C1  UNL     1     -40.541   6.076  -0.174  1.00 20.00     0.001 A 
HETATM    2  C2  UNL     1     -40.839   4.804  -0.660  1.00 20.00     0.002 A 
HETATM    3  C3  UNL     1     -41.066   7.218  -0.788  1.00 20.00     0.014 A 
HETATM    4  C4  UNL     1     -41.668   4.634  -1.773  1.00 20.00     0.030 A 
HETATM    5  C5  UNL     1     -42.593   7.983  -2.760  1.00 20.00     0.030 A 
HETATM    6  C6  UNL     1     -43.265   7.246  -3.707  1.00 20.00     0.089 A 
HETATM    7  C7  UNL     1     -41.904   7.072  -1.911  1.00 20.00    -0.008 A 
HETATM    8  C8  UNL     1     -42.185   5.785  -2.376  1.00 20.00     0.042 A 
HETATM    9  N9  UNL     1     -43.014   5.921  -3.467  1.00 20.00    -0.365 N 
HETATM   10  H16 UNL     1     -43.383   5.154  -4.012  1.00 20.00     0.165 HD
ENDROOT
TORSDOF 0
ENDMDL
