MODEL 1
REMARK VINA RESULT:      -2.6      0.000      0.000
REMARK  0 active torsions:
REMARK  status: ('A' for Active; 'I' for Inactive)
ROOT
HETATM    1  C1  UNL     1     -33.326   6.160   3.476  1.00 20.00     0.016 C 
HETATM    2  C2  UNL     1     -34.664   5.483   3.715  1.00 20.00     0.075 C 
HETATM    3  I3  UNL     1     -34.776   4.699   5.693  1.00 20.00    -0.090 I 
ENDROOT
TORSDOF 0
ENDMDL
MODEL 2
REMARK VINA RESULT:      -2.6      2.194      2.581
REMARK  0 active torsions:
REMARK  status: ('A' for Active; 'I' for Inactive)
ROOT
HETATM    1  C1  UNL     1     -34.942   4.408   5.967  1.00 20.00     0.016 C 
HETATM    2  C2  UNL     1     -35.217   4.895   4.555  1.00 20.00     0.075 C 
HETATM    3  I3  UNL     1     -33.661   6.187   3.881  1.00 20.00    -0.090 I 
ENDROOT
TORSDOF 0
ENDMDL
MODEL 3
REMARK VINA RESULT:      -2.4      2.532      2.532
REMARK  0 active torsions:
REMARK  status: ('A' for Active; 'I' for Inactive)
ROOT
HETATM    1  C1  UNL     1     -33.870   6.759   6.552  1.00 20.00     0.016 C 
HETATM    2  C2  UNL     1     -34.566   5.460   6.186  1.00 20.00     0.075 C 
HETATM    3  I3  UNL     1     -34.862   5.324   4.079  1.00 20.00    -0.090 I 
ENDROOT
TORSDOF 0
ENDMDL
MODEL 4
REMARK VINA RESULT:      -2.2      2.028      2.260
REMARK  0 active torsions:
REMARK  status: ('A' for Active; 'I' for Inactive)
ROOT
HETATM    1  C1  UNL     1     -32.218   7.627   2.562  1.00 20.00     0.016 C 
HETATM    2  C2  UNL     1     -32.245   6.282   3.268  1.00 20.00     0.075 C 
HETATM    3  I3  UNL     1     -34.184   5.873   4.052  1.00 20.00    -0.090 I 
ENDROOT
TORSDOF 0
ENDMDL
MODEL 5
REMARK VINA RESULT:      -1.9     12.301     12.442
REMARK  0 active torsions:
REMARK  status: ('A' for Active; 'I' for Inactive)
ROOT
HETATM    1  C1  UNL     1     -34.514  16.177  -1.776  1.00 20.00     0.016 C 
HETATM    2  C2  UNL     1     -33.675  15.912  -3.013  1.00 20.00     0.075 C 
HETATM    3  I3  UNL     1     -34.210  14.055  -3.912  1.00 20.00    -0.090 I 
ENDROOT
TORSDOF 0
ENDMDL
MODEL 6
REMARK VINA RESULT:      -1.8      8.963      9.330
REMARK  0 active torsions:
REMARK  status: ('A' for Active; 'I' for Inactive)
ROOT
HETATM    1  C1  UNL     1     -41.577   3.900  -2.168  1.00 20.00     0.016 C 
HETATM    2  C2  UNL     1     -40.835   4.673  -1.093  1.00 20.00     0.075 C 
HETATM    3  I3  UNL     1     -41.428   6.720  -1.082  1.00 20.00    -0.090 I 
ENDROOT
TORSDOF 0
ENDMDL
MODEL 7
REMARK VINA RESULT:      -1.8     12.410     12.497
REMARK  0 active torsions:
REMARK  status: ('A' for Active; 'I' for Inactive)
ROOT
HETATM    1  C1  UNL     1     -33.732  16.072  -2.716  1.00 20.00     0.016 C 
HETATM    2  C2  UNL     1     -33.130  15.056  -3.671  1.00 20.00     0.075 C 
HETATM    3  I3  UNL     1     -34.621  13.719  -4.398  1.00 20.00    -0.090 I 
ENDROOT
TORSDOF 0
ENDMDL
MODEL 8
REMARK VINA RESULT:      -1.8      8.781      8.964
REMARK  0 active torsions:
REMARK  status: ('A' for Active; 'I' for Inactive)
ROOT
HETATM    1  C1  UNL     1     -40.778   4.517  -1.156  1.00 20.00     0.016 C 
HETATM    2  C2  UNL     1     -40.738   5.823  -0.383  1.00 20.00     0.075 C 
HETATM    3  I3  UNL     1     -41.971   7.293  -1.312  1.00 20.00    -0.090 I 
ENDROOT
TORSDOF 0
ENDMDL
MODEL 9
REMARK VINA RESULT:      -1.8     12.740     12.867
REMARK  0 active torsions:
REMARK  status: ('A' for Active; 'I' for Inactive)
ROOT
HETATM    1  C1  UNL     1     -33.742  13.741  -3.850  1.00 20.00     0.016 C 
HETATM    2  C2  UNL     1     -34.727  13.318  -4.926  1.00 20.00     0.075 C 
HETATM    3  I3  UNL     1     -34.900  14.817  -6.430  1.00 20.00    -0.090 I 
ENDROOT
TORSDOF 0
ENDMDL
