MODEL 1
REMARK VINA RESULT:      -5.2      0.000      0.000
REMARK  0 active torsions:
REMARK  status: ('A' for Active; 'I' for Inactive)
ROOT
HETATM    1  C1  UNL     1     -35.224   4.818   5.916  1.00 20.00     0.000 A 
HETATM    2  C2  UNL     1     -34.372   5.786   6.448  1.00 20.00     0.001 A 
HETATM    3  C3  UNL     1     -35.239   4.582   4.541  1.00 20.00     0.001 A 
HETATM    4  C4  UNL     1     -33.537   6.520   5.606  1.00 20.00     0.018 A 
HETATM    5  C5  UNL     1     -34.404   5.315   3.698  1.00 20.00     0.018 A 
HETATM    6  C6  UNL     1     -33.553   6.284   4.230  1.00 20.00     0.006 A 
HETATM    7  I7  UNL     1     -32.307   7.376   2.976  1.00 20.00    -0.045 I 
ENDROOT
TORSDOF 0
ENDMDL
MODEL 2
REMARK VINA RESULT:      -5.2      0.001      1.826
REMARK  0 active torsions:
REMARK  status: ('A' for Active; 'I' for Inactive)
ROOT
HETATM    1  C1  UNL     1     -35.223   4.818   5.916  1.00 20.00     0.000 A 
HETATM    2  C2  UNL     1     -35.239   4.583   4.541  1.00 20.00     0.001 A 
HETATM    3  C3  UNL     1     -34.372   5.787   6.448  1.00 20.00     0.001 A 
HETATM    4  C4  UNL     1     -34.403   5.315   3.699  1.00 20.00     0.018 A 
HETATM    5  C5  UNL     1     -33.537   6.520   5.606  1.00 20.00     0.018 A 
HETATM    6  C6  UNL     1     -33.552   6.284   4.232  1.00 20.00     0.006 A 
HETATM    7  I7  UNL     1     -32.307   7.376   2.976  1.00 20.00    -0.045 I 
ENDROOT
TORSDOF 0
ENDMDL
MODEL 3
REMARK VINA RESULT:      -3.8      9.486     10.294
REMARK  0 active torsions:
REMARK  status: ('A' for Active; 'I' for Inactive)
ROOT
HETATM    1  C1  UNL     1     -41.114   7.100  -0.903  1.00 20.00     0.000 A 
HETATM    2  C2  UNL     1     -40.652   5.894  -0.378  1.00 20.00     0.001 A 
HETATM    3  C3  UNL     1     -41.954   7.100  -2.017  1.00 20.00     0.001 A 
HETATM    4  C4  UNL     1     -41.028   4.687  -0.967  1.00 20.00     0.018 A 
HETATM    5  C5  UNL     1     -42.331   5.893  -2.606  1.00 20.00     0.018 A 
HETATM    6  C6  UNL     1     -41.869   4.687  -2.081  1.00 20.00     0.006 A 
HETATM    7  I7  UNL     1     -42.431   2.888  -2.957  1.00 20.00    -0.045 I 
ENDROOT
TORSDOF 0
ENDMDL
MODEL 4
REMARK VINA RESULT:      -3.8     12.137     12.365
REMARK  0 active torsions:
REMARK  status: ('A' for Active; 'I' for Inactive)
ROOT
HETATM    1  C1  UNL     1     -34.990  13.401  -4.599  1.00 20.00     0.000 A 
HETATM    2  C2  UNL     1     -33.731  13.707  -4.085  1.00 20.00     0.001 A 
HETATM    3  C3  UNL     1     -36.106  14.131  -4.191  1.00 20.00     0.001 A 
HETATM    4  C4  UNL     1     -33.586  14.742  -3.162  1.00 20.00     0.018 A 
HETATM    5  C5  UNL     1     -35.963  15.167  -3.268  1.00 20.00     0.018 A 
HETATM    6  C6  UNL     1     -34.703  15.472  -2.753  1.00 20.00     0.006 A 
HETATM    7  I7  UNL     1     -34.488  17.015  -1.379  1.00 20.00    -0.045 I 
ENDROOT
TORSDOF 0
ENDMDL
MODEL 5
REMARK VINA RESULT:      -3.8     12.142     12.407
REMARK  0 active torsions:
REMARK  status: ('A' for Active; 'I' for Inactive)
ROOT
HETATM    1  C1  UNL     1     -34.992  13.410  -4.595  1.00 20.00     0.000 A 
HETATM    2  C2  UNL     1     -36.107  14.138  -4.182  1.00 20.00     0.001 A 
HETATM    3  C3  UNL     1     -33.731  13.716  -4.084  1.00 20.00     0.001 A 
HETATM    4  C4  UNL     1     -35.962  15.173  -3.259  1.00 20.00     0.018 A 
HETATM    5  C5  UNL     1     -33.585  14.751  -3.160  1.00 20.00     0.018 A 
HETATM    6  C6  UNL     1     -34.700  15.479  -2.747  1.00 20.00     0.006 A 
HETATM    7  I7  UNL     1     -34.484  17.020  -1.370  1.00 20.00    -0.045 I 
ENDROOT
TORSDOF 0
ENDMDL
MODEL 6
REMARK VINA RESULT:      -3.8      9.519     10.398
REMARK  0 active torsions:
REMARK  status: ('A' for Active; 'I' for Inactive)
ROOT
HETATM    1  C1  UNL     1     -40.880   4.682  -0.752  1.00 20.00     0.000 A 
HETATM    2  C2  UNL     1     -41.682   4.259  -1.811  1.00 20.00     0.001 A 
HETATM    3  C3  UNL     1     -40.692   6.045  -0.521  1.00 20.00     0.001 A 
HETATM    4  C4  UNL     1     -42.298   5.198  -2.639  1.00 20.00     0.018 A 
HETATM    5  C5  UNL     1     -41.308   6.984  -1.348  1.00 20.00     0.018 A 
HETATM    6  C6  UNL     1     -42.111   6.561  -2.406  1.00 20.00     0.006 A 
HETATM    7  I7  UNL     1     -43.029   7.959  -3.639  1.00 20.00    -0.045 I 
ENDROOT
TORSDOF 0
ENDMDL
MODEL 7
REMARK VINA RESULT:      -3.7      9.511     10.237
REMARK  0 active torsions:
REMARK  status: ('A' for Active; 'I' for Inactive)
ROOT
HETATM    1  C1  UNL     1     -40.874   4.690  -0.746  1.00 20.00     0.000 A 
HETATM    2  C2  UNL     1     -40.694   6.052  -0.509  1.00 20.00     0.001 A 
HETATM    3  C3  UNL     1     -41.670   4.266  -1.810  1.00 20.00     0.001 A 
HETATM    4  C4  UNL     1     -41.310   6.991  -1.335  1.00 20.00     0.018 A 
HETATM    5  C5  UNL     1     -42.286   5.205  -2.637  1.00 20.00     0.018 A 
HETATM    6  C6  UNL     1     -42.106   6.567  -2.400  1.00 20.00     0.006 A 
HETATM    7  I7  UNL     1     -43.022   7.967  -3.632  1.00 20.00    -0.045 I 
ENDROOT
TORSDOF 0
ENDMDL
MODEL 8
REMARK VINA RESULT:      -3.6     12.727     13.703
REMARK  0 active torsions:
REMARK  status: ('A' for Active; 'I' for Inactive)
ROOT
HETATM    1  C1  UNL     1     -33.129  14.925  -3.632  1.00 20.00     0.000 A 
HETATM    2  C2  UNL     1     -33.120  16.040  -4.469  1.00 20.00     0.001 A 
HETATM    3  C3  UNL     1     -33.844  13.784  -3.997  1.00 20.00     0.001 A 
HETATM    4  C4  UNL     1     -33.826  16.016  -5.672  1.00 20.00     0.018 A 
HETATM    5  C5  UNL     1     -34.550  13.759  -5.200  1.00 20.00     0.018 A 
HETATM    6  C6  UNL     1     -34.541  14.874  -6.037  1.00 20.00     0.006 A 
HETATM    7  I7  UNL     1     -35.592  14.837  -7.829  1.00 20.00    -0.045 I 
ENDROOT
TORSDOF 0
ENDMDL
MODEL 9
REMARK VINA RESULT:      -3.6     12.668     13.687
REMARK  0 active torsions:
REMARK  status: ('A' for Active; 'I' for Inactive)
ROOT
HETATM    1  C1  UNL     1     -33.289  14.812  -3.562  1.00 20.00     0.000 A 
HETATM    2  C2  UNL     1     -34.058  13.718  -3.957  1.00 20.00     0.001 A 
HETATM    3  C3  UNL     1     -33.172  15.921  -4.400  1.00 20.00     0.001 A 
HETATM    4  C4  UNL     1     -34.710  13.731  -5.190  1.00 20.00     0.018 A 
HETATM    5  C5  UNL     1     -33.825  15.935  -5.633  1.00 20.00     0.018 A 
HETATM    6  C6  UNL     1     -34.594  14.841  -6.028  1.00 20.00     0.006 A 
HETATM    7  I7  UNL     1     -35.566  14.861  -7.864  1.00 20.00    -0.045 I 
ENDROOT
TORSDOF 0
ENDMDL
