MODEL 1
REMARK VINA RESULT:      -5.9      0.000      0.000
REMARK  2 active torsions:
REMARK  status: ('A' for Active; 'I' for Inactive)
REMARK    1  A    between atoms: C6_6  and  C9_9 
REMARK    2  A    between atoms: C9_9  and  C10_10 
ROOT
HETATM    1  C1  UNL     1     -35.130   4.889   6.302  1.00 20.00     0.000 A 
HETATM    2  C2  UNL     1     -34.318   6.020   6.407  1.00 20.00     0.001 A 
HETATM    3  C3  UNL     1     -35.256   4.234   5.077  1.00 20.00     0.001 A 
HETATM    4  C4  UNL     1     -33.635   6.494   5.288  1.00 20.00     0.007 A 
HETATM    5  C5  UNL     1     -34.574   4.708   3.958  1.00 20.00     0.007 A 
HETATM    6  C6  UNL     1     -33.763   5.838   4.063  1.00 20.00    -0.058 A 
ENDROOT
BRANCH   6   7
HETATM    7  C9  UNL     1     -33.023   6.351   2.851  1.00 20.00     0.042 C 
BRANCH   7   8
HETATM    8  C10 UNL     1     -32.360   7.727   3.062  1.00 20.00    -0.019 C 
HETATM    9  C7  UNL     1     -31.035   7.616   3.818  1.00 20.00     0.010 C 
HETATM   10  C8  UNL     1     -32.126   8.402   1.708  1.00 20.00     0.010 C 
ENDBRANCH   7   8
ENDBRANCH   6   7
TORSDOF 2
ENDMDL
MODEL 2
REMARK VINA RESULT:      -5.5      0.937      2.189
REMARK  2 active torsions:
REMARK  status: ('A' for Active; 'I' for Inactive)
REMARK    1  A    between atoms: C6_6  and  C9_9 
REMARK    2  A    between atoms: C9_9  and  C10_10 
ROOT
HETATM    1  C1  UNL     1     -34.881   5.224   5.023  1.00 20.00     0.000 A 
HETATM    2  C2  UNL     1     -34.720   5.091   3.643  1.00 20.00     0.001 A 
HETATM    3  C3  UNL     1     -34.080   6.117   5.734  1.00 20.00     0.001 A 
HETATM    4  C4  UNL     1     -33.760   5.850   2.975  1.00 20.00     0.007 A 
HETATM    5  C5  UNL     1     -33.119   6.876   5.067  1.00 20.00     0.007 A 
HETATM    6  C6  UNL     1     -32.959   6.743   3.688  1.00 20.00    -0.058 A 
ENDROOT
BRANCH   6   7
HETATM    7  C9  UNL     1     -31.919   7.566   2.966  1.00 20.00     0.042 C 
BRANCH   7   8
HETATM    8  C10 UNL     1     -32.490   8.428   1.823  1.00 20.00    -0.019 C 
HETATM    9  C7  UNL     1     -32.737   9.873   2.264  1.00 20.00     0.010 C 
HETATM   10  C8  UNL     1     -31.530   8.410   0.632  1.00 20.00     0.010 C 
ENDBRANCH   7   8
ENDBRANCH   6   7
TORSDOF 2
ENDMDL
MODEL 3
REMARK VINA RESULT:      -4.9     11.427     12.107
REMARK  2 active torsions:
REMARK  status: ('A' for Active; 'I' for Inactive)
REMARK    1  A    between atoms: C6_6  and  C9_9 
REMARK    2  A    between atoms: C9_9  and  C10_10 
ROOT
HETATM    1  C1  UNL     1     -34.566  13.479  -4.345  1.00 20.00     0.000 A 
HETATM    2  C2  UNL     1     -33.469  14.140  -3.792  1.00 20.00     0.001 A 
HETATM    3  C3  UNL     1     -35.855  13.960  -4.119  1.00 20.00     0.001 A 
HETATM    4  C4  UNL     1     -33.661  15.282  -3.015  1.00 20.00     0.007 A 
HETATM    5  C5  UNL     1     -36.048  15.102  -3.341  1.00 20.00     0.007 A 
HETATM    6  C6  UNL     1     -34.951  15.762  -2.789  1.00 20.00    -0.058 A 
ENDROOT
BRANCH   6   7
HETATM    7  C9  UNL     1     -35.160  16.998  -1.947  1.00 20.00     0.042 C 
BRANCH   7   8
HETATM    8  C10 UNL     1     -34.275  17.049  -0.686  1.00 20.00    -0.019 C 
HETATM    9  C7  UNL     1     -33.204  18.139  -0.780  1.00 20.00     0.010 C 
HETATM   10  C8  UNL     1     -35.147  17.290   0.549  1.00 20.00     0.010 C 
ENDBRANCH   7   8
ENDBRANCH   6   7
TORSDOF 2
ENDMDL
MODEL 4
REMARK VINA RESULT:      -4.8     11.281     12.601
REMARK  2 active torsions:
REMARK  status: ('A' for Active; 'I' for Inactive)
REMARK    1  A    between atoms: C6_6  and  C9_9 
REMARK    2  A    between atoms: C9_9  and  C10_10 
ROOT
HETATM    1  C1  UNL     1     -34.801  13.784  -5.801  1.00 20.00     0.000 A 
HETATM    2  C2  UNL     1     -34.406  15.104  -6.023  1.00 20.00     0.001 A 
HETATM    3  C3  UNL     1     -34.845  13.280  -4.501  1.00 20.00     0.001 A 
HETATM    4  C4  UNL     1     -34.056  15.918  -4.946  1.00 20.00     0.007 A 
HETATM    5  C5  UNL     1     -34.494  14.093  -3.424  1.00 20.00     0.007 A 
HETATM    6  C6  UNL     1     -34.100  15.413  -3.647  1.00 20.00    -0.058 A 
ENDROOT
BRANCH   6   7
HETATM    7  C9  UNL     1     -33.721  16.293  -2.480  1.00 20.00     0.042 C 
BRANCH   7   8
HETATM    8  C10 UNL     1     -34.875  16.546  -1.489  1.00 20.00    -0.019 C 
HETATM    9  C7  UNL     1     -34.405  17.295  -0.241  1.00 20.00     0.010 C 
HETATM   10  C8  UNL     1     -35.985  17.341  -2.180  1.00 20.00     0.010 C 
ENDBRANCH   7   8
ENDBRANCH   6   7
TORSDOF 2
ENDMDL
MODEL 5
REMARK VINA RESULT:      -4.8     11.262     12.608
REMARK  2 active torsions:
REMARK  status: ('A' for Active; 'I' for Inactive)
REMARK    1  A    between atoms: C6_6  and  C9_9 
REMARK    2  A    between atoms: C9_9  and  C10_10 
ROOT
HETATM    1  C1  UNL     1     -34.799  13.724  -5.777  1.00 20.00     0.000 A 
HETATM    2  C2  UNL     1     -34.831  13.245  -4.467  1.00 20.00     0.001 A 
HETATM    3  C3  UNL     1     -34.415  15.041  -6.028  1.00 20.00     0.001 A 
HETATM    4  C4  UNL     1     -34.479  14.082  -3.409  1.00 20.00     0.007 A 
HETATM    5  C5  UNL     1     -34.063  15.879  -4.970  1.00 20.00     0.007 A 
HETATM    6  C6  UNL     1     -34.095  15.400  -3.661  1.00 20.00    -0.058 A 
ENDROOT
BRANCH   6   7
HETATM    7  C9  UNL     1     -33.715  16.308  -2.516  1.00 20.00     0.042 C 
BRANCH   7   8
HETATM    8  C10 UNL     1     -34.852  16.543  -1.502  1.00 20.00    -0.019 C 
HETATM    9  C7  UNL     1     -34.368  17.293  -0.260  1.00 20.00     0.010 C 
HETATM   10  C8  UNL     1     -35.985  17.328  -2.169  1.00 20.00     0.010 C 
ENDBRANCH   7   8
ENDBRANCH   6   7
TORSDOF 2
ENDMDL
MODEL 6
REMARK VINA RESULT:      -4.7      9.997     11.522
REMARK  2 active torsions:
REMARK  status: ('A' for Active; 'I' for Inactive)
REMARK    1  A    between atoms: C6_6  and  C9_9 
REMARK    2  A    between atoms: C9_9  and  C10_10 
ROOT
HETATM    1  C1  UNL     1     -41.037   6.836  -1.106  1.00 20.00     0.000 A 
HETATM    2  C2  UNL     1     -41.936   7.088  -2.142  1.00 20.00     0.001 A 
HETATM    3  C3  UNL     1     -40.723   5.521  -0.762  1.00 20.00     0.001 A 
HETATM    4  C4  UNL     1     -42.520   6.028  -2.834  1.00 20.00     0.007 A 
HETATM    5  C5  UNL     1     -41.307   4.460  -1.452  1.00 20.00     0.007 A 
HETATM    6  C6  UNL     1     -42.206   4.713  -2.488  1.00 20.00    -0.058 A 
ENDROOT
BRANCH   6   7
HETATM    7  C9  UNL     1     -42.837   3.564  -3.236  1.00 20.00     0.042 C 
BRANCH   7   8
HETATM    8  C10 UNL     1     -42.220   2.191  -2.905  1.00 20.00    -0.019 C 
HETATM    9  C7  UNL     1     -43.290   1.131  -2.634  1.00 20.00     0.010 C 
HETATM   10  C8  UNL     1     -41.323   1.734  -4.059  1.00 20.00     0.010 C 
ENDBRANCH   7   8
ENDBRANCH   6   7
TORSDOF 2
ENDMDL
MODEL 7
REMARK VINA RESULT:      -4.7     11.268     12.561
REMARK  2 active torsions:
REMARK  status: ('A' for Active; 'I' for Inactive)
REMARK    1  A    between atoms: C6_6  and  C9_9 
REMARK    2  A    between atoms: C9_9  and  C10_10 
ROOT
HETATM    1  C1  UNL     1     -33.852  18.373  -0.430  1.00 20.00     0.000 A 
HETATM    2  C2  UNL     1     -34.525  17.171  -0.207  1.00 20.00     0.001 A 
HETATM    3  C3  UNL     1     -33.455  18.720  -1.720  1.00 20.00     0.001 A 
HETATM    4  C4  UNL     1     -34.800  16.318  -1.275  1.00 20.00     0.007 A 
HETATM    5  C5  UNL     1     -33.729  17.867  -2.789  1.00 20.00     0.007 A 
HETATM    6  C6  UNL     1     -34.402  16.666  -2.566  1.00 20.00    -0.058 A 
ENDROOT
BRANCH   6   7
HETATM    7  C9  UNL     1     -34.699  15.742  -3.723  1.00 20.00     0.042 C 
BRANCH   7   8
HETATM    8  C10 UNL     1     -34.376  14.262  -3.437  1.00 20.00    -0.019 C 
HETATM    9  C7  UNL     1     -35.142  13.318  -4.366  1.00 20.00     0.010 C 
HETATM   10  C8  UNL     1     -32.872  14.022  -3.586  1.00 20.00     0.010 C 
ENDBRANCH   7   8
ENDBRANCH   6   7
TORSDOF 2
ENDMDL
MODEL 8
REMARK VINA RESULT:      -4.7     11.365     12.476
REMARK  2 active torsions:
REMARK  status: ('A' for Active; 'I' for Inactive)
REMARK    1  A    between atoms: C6_6  and  C9_9 
REMARK    2  A    between atoms: C9_9  and  C10_10 
ROOT
HETATM    1  C1  UNL     1     -33.438  18.672   1.021  1.00 20.00     0.000 A 
HETATM    2  C2  UNL     1     -32.684  18.606  -0.151  1.00 20.00     0.001 A 
HETATM    3  C3  UNL     1     -34.606  17.920   1.141  1.00 20.00     0.001 A 
HETATM    4  C4  UNL     1     -33.098  17.788  -1.202  1.00 20.00     0.007 A 
HETATM    5  C5  UNL     1     -35.021  17.103   0.091  1.00 20.00     0.007 A 
HETATM    6  C6  UNL     1     -34.267  17.036  -1.081  1.00 20.00    -0.058 A 
ENDROOT
BRANCH   6   7
HETATM    7  C9  UNL     1     -34.717  16.151  -2.218  1.00 20.00     0.042 C 
BRANCH   7   8
HETATM    8  C10 UNL     1     -33.570  15.691  -3.140  1.00 20.00    -0.019 C 
HETATM    9  C7  UNL     1     -33.685  14.209  -3.503  1.00 20.00     0.010 C 
HETATM   10  C8  UNL     1     -33.562  16.535  -4.417  1.00 20.00     0.010 C 
ENDBRANCH   7   8
ENDBRANCH   6   7
TORSDOF 2
ENDMDL
MODEL 9
REMARK VINA RESULT:      -4.6     11.148     12.529
REMARK  2 active torsions:
REMARK  status: ('A' for Active; 'I' for Inactive)
REMARK    1  A    between atoms: C6_6  and  C9_9 
REMARK    2  A    between atoms: C9_9  and  C10_10 
ROOT
HETATM    1  C1  UNL     1     -34.146  18.342  -0.094  1.00 20.00     0.000 A 
HETATM    2  C2  UNL     1     -33.579  18.832  -1.271  1.00 20.00     0.001 A 
HETATM    3  C3  UNL     1     -34.741  17.081  -0.080  1.00 20.00     0.001 A 
HETATM    4  C4  UNL     1     -33.607  18.061  -2.432  1.00 20.00     0.007 A 
HETATM    5  C5  UNL     1     -34.770  16.310  -1.241  1.00 20.00     0.007 A 
HETATM    6  C6  UNL     1     -34.203  16.800  -2.417  1.00 20.00    -0.058 A 
ENDROOT
BRANCH   6   7
HETATM    7  C9  UNL     1     -34.235  15.964  -3.675  1.00 20.00     0.042 C 
BRANCH   7   8
HETATM    8  C10 UNL     1     -34.510  14.468  -3.421  1.00 20.00    -0.019 C 
HETATM    9  C7  UNL     1     -35.673  13.947  -4.269  1.00 20.00     0.010 C 
HETATM   10  C8  UNL     1     -33.250  13.652  -3.719  1.00 20.00     0.010 C 
ENDBRANCH   7   8
ENDBRANCH   6   7
TORSDOF 2
ENDMDL
