MODEL 1
REMARK VINA RESULT:      -5.7      0.000      0.000
REMARK  0 active torsions:
REMARK  status: ('A' for Active; 'I' for Inactive)
ROOT
HETATM    1  C1  UNL     1     -35.185   4.257   5.906  1.00 20.00     0.001 A 
HETATM    2  C2  UNL     1     -35.058   4.292   4.517  1.00 20.00     0.007 A 
HETATM    3  C3  UNL     1     -34.645   5.283   6.681  1.00 20.00     0.007 A 
HETATM    4  C4  UNL     1     -33.853   6.380   4.679  1.00 20.00     0.013 A 
HETATM    5  C5  UNL     1     -34.393   5.353   3.904  1.00 20.00    -0.061 A 
HETATM    6  C6  UNL     1     -33.980   6.344   6.069  1.00 20.00    -0.061 A 
HETATM    7  C7  UNL     1     -34.260   5.391   2.419  1.00 20.00     0.048 C 
HETATM    8  C8  UNL     1     -33.402   7.441   6.897  1.00 20.00     0.048 C 
ENDROOT
TORSDOF 0
ENDMDL
MODEL 2
REMARK VINA RESULT:      -5.7      0.003      3.028
REMARK  0 active torsions:
REMARK  status: ('A' for Active; 'I' for Inactive)
ROOT
HETATM    1  C1  UNL     1     -35.184   4.257   5.907  1.00 20.00     0.001 A 
HETATM    2  C2  UNL     1     -34.645   5.284   6.682  1.00 20.00     0.007 A 
HETATM    3  C3  UNL     1     -35.058   4.290   4.519  1.00 20.00     0.007 A 
HETATM    4  C4  UNL     1     -33.852   6.379   4.679  1.00 20.00     0.013 A 
HETATM    5  C5  UNL     1     -33.979   6.344   6.069  1.00 20.00    -0.061 A 
HETATM    6  C6  UNL     1     -34.392   5.351   3.904  1.00 20.00    -0.061 A 
HETATM    7  C7  UNL     1     -33.401   7.441   6.897  1.00 20.00     0.048 C 
HETATM    8  C8  UNL     1     -34.256   5.388   2.420  1.00 20.00     0.048 C 
ENDROOT
TORSDOF 0
ENDMDL
MODEL 3
REMARK VINA RESULT:      -5.1      1.283      2.988
REMARK  0 active torsions:
REMARK  status: ('A' for Active; 'I' for Inactive)
ROOT
HETATM    1  C1  UNL     1     -34.602   5.155   2.886  1.00 20.00     0.001 A 
HETATM    2  C2  UNL     1     -35.047   4.957   4.193  1.00 20.00     0.007 A 
HETATM    3  C3  UNL     1     -33.502   5.976   2.641  1.00 20.00     0.007 A 
HETATM    4  C4  UNL     1     -33.290   6.401   5.011  1.00 20.00     0.013 A 
HETATM    5  C5  UNL     1     -34.392   5.579   5.255  1.00 20.00    -0.061 A 
HETATM    6  C6  UNL     1     -32.846   6.599   3.703  1.00 20.00    -0.061 A 
HETATM    7  C7  UNL     1     -34.867   5.365   6.653  1.00 20.00     0.048 C 
HETATM    8  C8  UNL     1     -31.669   7.477   3.442  1.00 20.00     0.048 C 
ENDROOT
TORSDOF 0
ENDMDL
MODEL 4
REMARK VINA RESULT:      -5.1      1.269      2.422
REMARK  0 active torsions:
REMARK  status: ('A' for Active; 'I' for Inactive)
ROOT
HETATM    1  C1  UNL     1     -34.703   5.138   2.976  1.00 20.00     0.001 A 
HETATM    2  C2  UNL     1     -33.601   5.939   2.676  1.00 20.00     0.007 A 
HETATM    3  C3  UNL     1     -35.099   4.966   4.303  1.00 20.00     0.007 A 
HETATM    4  C4  UNL     1     -33.292   6.395   5.029  1.00 20.00     0.013 A 
HETATM    5  C5  UNL     1     -32.896   6.568   3.701  1.00 20.00    -0.061 A 
HETATM    6  C6  UNL     1     -34.394   5.594   5.329  1.00 20.00    -0.061 A 
HETATM    7  C7  UNL     1     -31.718   7.425   3.379  1.00 20.00     0.048 C 
HETATM    8  C8  UNL     1     -34.817   5.411   6.747  1.00 20.00     0.048 C 
ENDROOT
TORSDOF 0
ENDMDL
MODEL 5
REMARK VINA RESULT:      -4.8      1.250      2.711
REMARK  0 active torsions:
REMARK  status: ('A' for Active; 'I' for Inactive)
ROOT
HETATM    1  C1  UNL     1     -33.598   6.914   6.441  1.00 20.00     0.001 A 
HETATM    2  C2  UNL     1     -32.937   7.353   5.294  1.00 20.00     0.007 A 
HETATM    3  C3  UNL     1     -34.392   5.768   6.393  1.00 20.00     0.007 A 
HETATM    4  C4  UNL     1     -33.863   5.499   4.051  1.00 20.00     0.013 A 
HETATM    5  C5  UNL     1     -33.069   6.646   4.099  1.00 20.00    -0.061 A 
HETATM    6  C6  UNL     1     -34.525   5.061   5.199  1.00 20.00    -0.061 A 
HETATM    7  C7  UNL     1     -32.360   7.114   2.873  1.00 20.00     0.048 C 
HETATM    8  C8  UNL     1     -35.373   3.836   5.147  1.00 20.00     0.048 C 
ENDROOT
TORSDOF 0
ENDMDL
MODEL 6
REMARK VINA RESULT:      -4.8      1.250      2.764
REMARK  0 active torsions:
REMARK  status: ('A' for Active; 'I' for Inactive)
ROOT
HETATM    1  C1  UNL     1     -33.608   6.916   6.450  1.00 20.00     0.001 A 
HETATM    2  C2  UNL     1     -34.395   5.766   6.395  1.00 20.00     0.007 A 
HETATM    3  C3  UNL     1     -32.941   7.360   5.308  1.00 20.00     0.007 A 
HETATM    4  C4  UNL     1     -33.851   5.505   4.055  1.00 20.00     0.013 A 
HETATM    5  C5  UNL     1     -34.518   5.061   5.198  1.00 20.00    -0.061 A 
HETATM    6  C6  UNL     1     -33.063   6.656   4.111  1.00 20.00    -0.061 A 
HETATM    7  C7  UNL     1     -35.361   3.833   5.139  1.00 20.00     0.048 C 
HETATM    8  C8  UNL     1     -32.351   7.130   2.890  1.00 20.00     0.048 C 
ENDROOT
TORSDOF 0
ENDMDL
MODEL 7
REMARK VINA RESULT:      -4.2      8.747     10.360
REMARK  0 active torsions:
REMARK  status: ('A' for Active; 'I' for Inactive)
ROOT
HETATM    1  C1  UNL     1     -40.650   5.931  -0.410  1.00 20.00     0.001 A 
HETATM    2  C2  UNL     1     -40.833   4.657  -0.950  1.00 20.00     0.007 A 
HETATM    3  C3  UNL     1     -41.287   7.030  -0.986  1.00 20.00     0.007 A 
HETATM    4  C4  UNL     1     -42.290   5.584  -2.641  1.00 20.00     0.013 A 
HETATM    5  C5  UNL     1     -41.653   4.483  -2.064  1.00 20.00    -0.061 A 
HETATM    6  C6  UNL     1     -42.107   6.857  -2.100  1.00 20.00    -0.061 A 
HETATM    7  C7  UNL     1     -41.850   3.121  -2.639  1.00 20.00     0.048 C 
HETATM    8  C8  UNL     1     -42.787   8.032  -2.717  1.00 20.00     0.048 C 
ENDROOT
TORSDOF 0
ENDMDL
MODEL 8
REMARK VINA RESULT:      -4.2      8.756     10.528
REMARK  0 active torsions:
REMARK  status: ('A' for Active; 'I' for Inactive)
ROOT
HETATM    1  C1  UNL     1     -40.644   5.915  -0.431  1.00 20.00     0.001 A 
HETATM    2  C2  UNL     1     -41.273   7.017  -1.010  1.00 20.00     0.007 A 
HETATM    3  C3  UNL     1     -40.843   4.640  -0.961  1.00 20.00     0.007 A 
HETATM    4  C4  UNL     1     -42.299   5.569  -2.651  1.00 20.00     0.013 A 
HETATM    5  C5  UNL     1     -42.100   6.845  -2.120  1.00 20.00    -0.061 A 
HETATM    6  C6  UNL     1     -41.669   4.467  -2.071  1.00 20.00    -0.061 A 
HETATM    7  C7  UNL     1     -42.770   8.024  -2.741  1.00 20.00     0.048 C 
HETATM    8  C8  UNL     1     -41.882   3.105  -2.638  1.00 20.00     0.048 C 
ENDROOT
TORSDOF 0
ENDMDL
MODEL 9
REMARK VINA RESULT:      -4.1     12.426     13.818
REMARK  0 active torsions:
REMARK  status: ('A' for Active; 'I' for Inactive)
ROOT
HETATM    1  C1  UNL     1     -33.510  16.910  -4.636  1.00 20.00     0.001 A 
HETATM    2  C2  UNL     1     -33.772  17.214  -3.300  1.00 20.00     0.007 A 
HETATM    3  C3  UNL     1     -33.771  15.630  -5.124  1.00 20.00     0.007 A 
HETATM    4  C4  UNL     1     -34.559  14.958  -2.941  1.00 20.00     0.013 A 
HETATM    5  C5  UNL     1     -34.297  16.239  -2.453  1.00 20.00    -0.061 A 
HETATM    6  C6  UNL     1     -34.296  14.654  -4.277  1.00 20.00    -0.061 A 
HETATM    7  C7  UNL     1     -34.580  16.565  -1.025  1.00 20.00     0.048 C 
HETATM    8  C8  UNL     1     -34.576  13.286  -4.799  1.00 20.00     0.048 C 
ENDROOT
TORSDOF 0
ENDMDL
