MODEL 1
REMARK VINA RESULT:      -5.9      0.000      0.000
REMARK  1 active torsions:
REMARK  status: ('A' for Active; 'I' for Inactive)
REMARK    1  A    between atoms: C2_2  and  C8_8 
ROOT
HETATM    1  C1  UNL     1     -34.126   6.135   5.876  1.00 20.00    -0.081 C 
HETATM    2  C2  UNL     1     -34.090   5.991   4.541  1.00 20.00    -0.078 C 
HETATM    3  C3  UNL     1     -34.944   5.057   6.520  1.00 20.00     0.034 C 
HETATM    4  C4  UNL     1     -34.879   4.795   4.099  1.00 20.00     0.034 C 
HETATM    5  C5  UNL     1     -35.113   4.034   5.401  1.00 20.00     0.009 C 
HETATM    6  C6  UNL     1     -33.514   7.193   6.724  1.00 20.00     0.043 C 
ENDROOT
BRANCH   2   7
HETATM    7  C8  UNL     1     -33.426   6.846   3.520  1.00 20.00     0.030 C 
HETATM    8  C7  UNL     1     -32.109   6.234   3.085  1.00 20.00     0.010 C 
ENDBRANCH   2   7
TORSDOF 1
ENDMDL
MODEL 2
REMARK VINA RESULT:      -4.9      0.894      3.000
REMARK  1 active torsions:
REMARK  status: ('A' for Active; 'I' for Inactive)
REMARK    1  A    between atoms: C2_2  and  C8_8 
ROOT
HETATM    1  C1  UNL     1     -33.466   6.587   5.001  1.00 20.00    -0.081 C 
HETATM    2  C2  UNL     1     -34.167   5.727   4.243  1.00 20.00    -0.078 C 
HETATM    3  C3  UNL     1     -32.315   7.173   4.240  1.00 20.00     0.034 C 
HETATM    4  C4  UNL     1     -33.586   5.613   2.866  1.00 20.00     0.034 C 
HETATM    5  C5  UNL     1     -32.629   6.800   2.795  1.00 20.00     0.009 C 
HETATM    6  C6  UNL     1     -33.673   6.971   6.423  1.00 20.00     0.043 C 
ENDROOT
BRANCH   2   7
HETATM    7  C8  UNL     1     -35.355   4.907   4.605  1.00 20.00     0.030 C 
HETATM    8  C7  UNL     1     -34.999   3.894   5.676  1.00 20.00     0.010 C 
ENDBRANCH   2   7
TORSDOF 1
ENDMDL
MODEL 3
REMARK VINA RESULT:      -4.9      0.888      2.313
REMARK  1 active torsions:
REMARK  status: ('A' for Active; 'I' for Inactive)
REMARK    1  A    between atoms: C2_2  and  C8_8 
ROOT
HETATM    1  C1  UNL     1     -34.495   5.213   5.102  1.00 20.00    -0.081 C 
HETATM    2  C2  UNL     1     -33.668   6.064   4.472  1.00 20.00    -0.078 C 
HETATM    3  C3  UNL     1     -34.583   5.520   6.567  1.00 20.00     0.034 C 
HETATM    4  C4  UNL     1     -33.082   7.062   5.425  1.00 20.00     0.034 C 
HETATM    5  C5  UNL     1     -33.950   6.904   6.669  1.00 20.00     0.009 C 
HETATM    6  C6  UNL     1     -35.256   4.060   4.550  1.00 20.00     0.043 C 
ENDROOT
BRANCH   2   7
HETATM    7  C8  UNL     1     -33.270   6.102   3.039  1.00 20.00     0.030 C 
HETATM    8  C7  UNL     1     -32.223   7.172   2.803  1.00 20.00     0.010 C 
ENDBRANCH   2   7
TORSDOF 1
ENDMDL
MODEL 4
REMARK VINA RESULT:      -4.6      0.903      3.333
REMARK  1 active torsions:
REMARK  status: ('A' for Active; 'I' for Inactive)
REMARK    1  A    between atoms: C2_2  and  C8_8 
ROOT
HETATM    1  C1  UNL     1     -34.453   5.275   4.235  1.00 20.00    -0.081 C 
HETATM    2  C2  UNL     1     -33.858   6.169   5.042  1.00 20.00    -0.078 C 
HETATM    3  C3  UNL     1     -33.941   5.379   2.831  1.00 20.00     0.034 C 
HETATM    4  C4  UNL     1     -32.861   7.001   4.293  1.00 20.00     0.034 C 
HETATM    5  C5  UNL     1     -32.691   6.241   2.981  1.00 20.00     0.009 C 
HETATM    6  C6  UNL     1     -35.516   4.283   4.553  1.00 20.00     0.043 C 
ENDROOT
BRANCH   2   7
HETATM    7  C8  UNL     1     -34.086   6.429   6.489  1.00 20.00     0.030 C 
HETATM    8  C7  UNL     1     -33.217   7.573   6.970  1.00 20.00     0.010 C 
ENDBRANCH   2   7
TORSDOF 1
ENDMDL
MODEL 5
REMARK VINA RESULT:      -4.4      1.023      3.133
REMARK  1 active torsions:
REMARK  status: ('A' for Active; 'I' for Inactive)
REMARK    1  A    between atoms: C2_2  and  C8_8 
ROOT
HETATM    1  C1  UNL     1     -32.809   6.534   3.670  1.00 20.00    -0.081 C 
HETATM    2  C2  UNL     1     -33.757   6.150   4.540  1.00 20.00    -0.078 C 
HETATM    3  C3  UNL     1     -32.991   5.875   2.337  1.00 20.00     0.034 C 
HETATM    4  C4  UNL     1     -34.711   5.177   3.914  1.00 20.00     0.034 C 
HETATM    5  C5  UNL     1     -34.399   5.296   2.426  1.00 20.00     0.009 C 
HETATM    6  C6  UNL     1     -31.658   7.454   3.880  1.00 20.00     0.043 C 
ENDROOT
BRANCH   2   7
HETATM    7  C8  UNL     1     -33.935   6.531   5.968  1.00 20.00     0.030 C 
HETATM    8  C7  UNL     1     -34.720   5.468   6.711  1.00 20.00     0.010 C 
ENDBRANCH   2   7
TORSDOF 1
ENDMDL
MODEL 6
REMARK VINA RESULT:      -4.4      0.837      2.860
REMARK  1 active torsions:
REMARK  status: ('A' for Active; 'I' for Inactive)
REMARK    1  A    between atoms: C2_2  and  C8_8 
ROOT
HETATM    1  C1  UNL     1     -33.567   6.206   3.972  1.00 20.00    -0.081 C 
HETATM    2  C2  UNL     1     -33.788   6.186   5.296  1.00 20.00    -0.078 C 
HETATM    3  C3  UNL     1     -34.461   5.241   3.254  1.00 20.00     0.034 C 
HETATM    4  C4  UNL     1     -34.862   5.204   5.656  1.00 20.00     0.034 C 
HETATM    5  C5  UNL     1     -35.502   4.883   4.309  1.00 20.00     0.009 C 
HETATM    6  C6  UNL     1     -32.578   7.002   3.196  1.00 20.00     0.043 C 
ENDROOT
BRANCH   2   7
HETATM    7  C8  UNL     1     -33.108   6.953   6.376  1.00 20.00     0.030 C 
HETATM    8  C7  UNL     1     -34.126   7.626   7.275  1.00 20.00     0.010 C 
ENDBRANCH   2   7
TORSDOF 1
ENDMDL
MODEL 7
REMARK VINA RESULT:      -4.2     11.867     12.559
REMARK  1 active torsions:
REMARK  status: ('A' for Active; 'I' for Inactive)
REMARK    1  A    between atoms: C2_2  and  C8_8 
ROOT
HETATM    1  C1  UNL     1     -34.228  14.283  -3.522  1.00 20.00    -0.081 C 
HETATM    2  C2  UNL     1     -34.716  15.399  -2.957  1.00 20.00    -0.078 C 
HETATM    3  C3  UNL     1     -35.312  13.485  -4.181  1.00 20.00     0.034 C 
HETATM    4  C4  UNL     1     -36.198  15.509  -3.157  1.00 20.00     0.034 C 
HETATM    5  C5  UNL     1     -36.482  14.463  -4.230  1.00 20.00     0.009 C 
HETATM    6  C6  UNL     1     -32.831  13.770  -3.536  1.00 20.00     0.043 C 
ENDROOT
BRANCH   2   7
HETATM    7  C8  UNL     1     -34.004  16.450  -2.180  1.00 20.00     0.030 C 
HETATM    8  C7  UNL     1     -34.638  16.627  -0.815  1.00 20.00     0.010 C 
ENDBRANCH   2   7
TORSDOF 1
ENDMDL
MODEL 8
REMARK VINA RESULT:      -4.1     11.875     12.670
REMARK  1 active torsions:
REMARK  status: ('A' for Active; 'I' for Inactive)
REMARK    1  A    between atoms: C2_2  and  C8_8 
ROOT
HETATM    1  C1  UNL     1     -35.293  14.798  -3.533  1.00 20.00    -0.081 C 
HETATM    2  C2  UNL     1     -34.267  15.536  -3.078  1.00 20.00    -0.078 C 
HETATM    3  C3  UNL     1     -34.809  13.574  -4.251  1.00 20.00     0.034 C 
HETATM    4  C4  UNL     1     -32.949  14.913  -3.426  1.00 20.00     0.034 C 
HETATM    5  C5  UNL     1     -33.336  13.503  -3.860  1.00 20.00     0.009 C 
HETATM    6  C6  UNL     1     -36.755  15.060  -3.438  1.00 20.00     0.043 C 
ENDROOT
BRANCH   2   7
HETATM    7  C8  UNL     1     -34.293  16.832  -2.345  1.00 20.00     0.030 C 
HETATM    8  C7  UNL     1     -34.603  16.610  -0.878  1.00 20.00     0.010 C 
ENDBRANCH   2   7
TORSDOF 1
ENDMDL
MODEL 9
REMARK VINA RESULT:      -4.1      9.443     10.767
REMARK  1 active torsions:
REMARK  status: ('A' for Active; 'I' for Inactive)
REMARK    1  A    between atoms: C2_2  and  C8_8 
ROOT
HETATM    1  C1  UNL     1     -41.646   4.732  -1.973  1.00 20.00    -0.081 C 
HETATM    2  C2  UNL     1     -42.010   5.999  -2.229  1.00 20.00    -0.078 C 
HETATM    3  C3  UNL     1     -40.658   4.663  -0.848  1.00 20.00     0.034 C 
HETATM    4  C4  UNL     1     -41.318   6.962  -1.312  1.00 20.00     0.034 C 
HETATM    5  C5  UNL     1     -40.741   6.055  -0.229  1.00 20.00     0.009 C 
HETATM    6  C6  UNL     1     -42.061   3.478  -2.658  1.00 20.00     0.043 C 
ENDROOT
BRANCH   2   7
HETATM    7  C8  UNL     1     -42.936   6.520  -3.271  1.00 20.00     0.030 C 
HETATM    8  C7  UNL     1     -42.483   7.884  -3.754  1.00 20.00     0.010 C 
ENDBRANCH   2   7
TORSDOF 1
ENDMDL
