MODEL 1
REMARK VINA RESULT:      -5.4      0.000      0.000
REMARK  0 active torsions:
REMARK  status: ('A' for Active; 'I' for Inactive)
ROOT
HETATM    1  C1  UNL     1     -34.983   4.692   5.922  1.00 20.00     0.000 C 
HETATM    2  C2  UNL     1     -35.481   4.756   4.482  1.00 20.00     0.000 C 
HETATM    3  C3  UNL     1     -34.379   6.020   6.366  1.00 20.00     0.000 C 
HETATM    4  C4  UNL     1     -34.384   5.219   3.526  1.00 20.00     0.004 C 
HETATM    5  C5  UNL     1     -33.280   6.486   5.414  1.00 20.00     0.004 C 
HETATM    6  C6  UNL     1     -33.780   6.561   3.966  1.00 20.00    -0.018 C 
HETATM    7  C7  UNL     1     -32.651   6.977   3.025  1.00 20.00     0.010 C 
ENDROOT
TORSDOF 0
ENDMDL
MODEL 2
REMARK VINA RESULT:      -5.1      0.476      1.964
REMARK  0 active torsions:
REMARK  status: ('A' for Active; 'I' for Inactive)
ROOT
HETATM    1  C1  UNL     1     -35.301   4.906   5.956  1.00 20.00     0.000 C 
HETATM    2  C2  UNL     1     -34.066   5.662   6.436  1.00 20.00     0.000 C 
HETATM    3  C3  UNL     1     -35.062   4.242   4.604  1.00 20.00     0.000 C 
HETATM    4  C4  UNL     1     -33.582   6.670   5.396  1.00 20.00     0.004 C 
HETATM    5  C5  UNL     1     -34.579   5.247   3.560  1.00 20.00     0.004 C 
HETATM    6  C6  UNL     1     -33.332   6.002   4.036  1.00 20.00    -0.018 C 
HETATM    7  C7  UNL     1     -32.900   7.039   3.000  1.00 20.00     0.010 C 
ENDROOT
TORSDOF 0
ENDMDL
MODEL 3
REMARK VINA RESULT:      -5.0      1.033      2.212
REMARK  0 active torsions:
REMARK  status: ('A' for Active; 'I' for Inactive)
ROOT
HETATM    1  C1  UNL     1     -34.925   4.059   4.357  1.00 20.00     0.000 C 
HETATM    2  C2  UNL     1     -34.853   5.447   3.728  1.00 20.00     0.000 C 
HETATM    3  C3  UNL     1     -35.269   4.132   5.840  1.00 20.00     0.000 C 
HETATM    4  C4  UNL     1     -33.888   6.359   4.482  1.00 20.00     0.004 C 
HETATM    5  C5  UNL     1     -34.304   5.041   6.599  1.00 20.00     0.004 C 
HETATM    6  C6  UNL     1     -34.238   6.441   5.975  1.00 20.00    -0.018 C 
HETATM    7  C7  UNL     1     -33.227   7.315   6.717  1.00 20.00     0.010 C 
ENDROOT
TORSDOF 0
ENDMDL
MODEL 4
REMARK VINA RESULT:      -5.0      0.933      2.471
REMARK  0 active torsions:
REMARK  status: ('A' for Active; 'I' for Inactive)
ROOT
HETATM    1  C1  UNL     1     -35.349   4.638   4.166  1.00 20.00     0.000 C 
HETATM    2  C2  UNL     1     -35.011   4.174   5.580  1.00 20.00     0.000 C 
HETATM    3  C3  UNL     1     -34.262   5.543   3.598  1.00 20.00     0.000 C 
HETATM    4  C4  UNL     1     -34.725   5.355   6.506  1.00 20.00     0.004 C 
HETATM    5  C5  UNL     1     -33.974   6.726   4.520  1.00 20.00     0.004 C 
HETATM    6  C6  UNL     1     -33.625   6.264   5.941  1.00 20.00    -0.018 C 
HETATM    7  C7  UNL     1     -33.394   7.464   6.857  1.00 20.00     0.010 C 
ENDROOT
TORSDOF 0
ENDMDL
MODEL 5
REMARK VINA RESULT:      -4.3      0.785      2.827
REMARK  0 active torsions:
REMARK  status: ('A' for Active; 'I' for Inactive)
ROOT
HETATM    1  C1  UNL     1     -33.682   6.715   3.168  1.00 20.00     0.000 C 
HETATM    2  C2  UNL     1     -34.322   5.350   2.934  1.00 20.00     0.000 C 
HETATM    3  C3  UNL     1     -32.896   6.749   4.474  1.00 20.00     0.000 C 
HETATM    4  C4  UNL     1     -35.186   4.922   4.118  1.00 20.00     0.004 C 
HETATM    5  C5  UNL     1     -33.757   6.323   5.661  1.00 20.00     0.004 C 
HETATM    6  C6  UNL     1     -34.395   4.946   5.433  1.00 20.00    -0.018 C 
HETATM    7  C7  UNL     1     -35.293   4.566   6.609  1.00 20.00     0.010 C 
ENDROOT
TORSDOF 0
ENDMDL
MODEL 6
REMARK VINA RESULT:      -4.2      0.830      3.375
REMARK  0 active torsions:
REMARK  status: ('A' for Active; 'I' for Inactive)
ROOT
HETATM    1  C1  UNL     1     -33.095   6.106   3.102  1.00 20.00     0.000 C 
HETATM    2  C2  UNL     1     -33.136   6.966   4.362  1.00 20.00     0.000 C 
HETATM    3  C3  UNL     1     -34.414   5.375   2.878  1.00 20.00     0.000 C 
HETATM    4  C4  UNL     1     -33.538   6.149   5.588  1.00 20.00     0.004 C 
HETATM    5  C5  UNL     1     -34.820   4.557   4.101  1.00 20.00     0.004 C 
HETATM    6  C6  UNL     1     -34.872   5.420   5.369  1.00 20.00    -0.018 C 
HETATM    7  C7  UNL     1     -35.226   4.569   6.587  1.00 20.00     0.010 C 
ENDROOT
TORSDOF 0
ENDMDL
MODEL 7
REMARK VINA RESULT:      -3.9      8.782     10.102
REMARK  0 active torsions:
REMARK  status: ('A' for Active; 'I' for Inactive)
ROOT
HETATM    1  C1  UNL     1     -41.132   7.226  -0.914  1.00 20.00     0.000 C 
HETATM    2  C2  UNL     1     -40.781   5.987  -0.097  1.00 20.00     0.000 C 
HETATM    3  C3  UNL     1     -42.406   7.021  -1.726  1.00 20.00     0.000 C 
HETATM    4  C4  UNL     1     -40.691   4.740  -0.975  1.00 20.00     0.004 C 
HETATM    5  C5  UNL     1     -42.320   5.777  -2.606  1.00 20.00     0.004 C 
HETATM    6  C6  UNL     1     -41.976   4.526  -1.787  1.00 20.00    -0.018 C 
HETATM    7  C7  UNL     1     -41.842   3.305  -2.695  1.00 20.00     0.010 C 
ENDROOT
TORSDOF 0
ENDMDL
MODEL 8
REMARK VINA RESULT:      -3.7      8.928     10.061
REMARK  0 active torsions:
REMARK  status: ('A' for Active; 'I' for Inactive)
ROOT
HETATM    1  C1  UNL     1     -41.284   4.802  -0.286  1.00 20.00     0.000 C 
HETATM    2  C2  UNL     1     -40.670   6.194  -0.173  1.00 20.00     0.000 C 
HETATM    3  C3  UNL     1     -41.506   4.403  -1.741  1.00 20.00     0.000 C 
HETATM    4  C4  UNL     1     -41.498   7.238  -0.919  1.00 20.00     0.004 C 
HETATM    5  C5  UNL     1     -42.335   5.443  -2.491  1.00 20.00     0.004 C 
HETATM    6  C6  UNL     1     -41.716   6.843  -2.387  1.00 20.00    -0.018 C 
HETATM    7  C7  UNL     1     -42.590   7.874  -3.098  1.00 20.00     0.010 C 
ENDROOT
TORSDOF 0
ENDMDL
MODEL 9
REMARK VINA RESULT:      -3.7     11.887     12.419
REMARK  0 active torsions:
REMARK  status: ('A' for Active; 'I' for Inactive)
ROOT
HETATM    1  C1  UNL     1     -35.037  13.751  -4.868  1.00 20.00     0.000 C 
HETATM    2  C2  UNL     1     -36.169  14.255  -3.978  1.00 20.00     0.000 C 
HETATM    3  C3  UNL     1     -33.724  13.644  -4.099  1.00 20.00     0.000 C 
HETATM    4  C4  UNL     1     -35.808  15.575  -3.300  1.00 20.00     0.004 C 
HETATM    5  C5  UNL     1     -33.359  14.962  -3.421  1.00 20.00     0.004 C 
HETATM    6  C6  UNL     1     -34.491  15.467  -2.517  1.00 20.00    -0.018 C 
HETATM    7  C7  UNL     1     -34.125  16.812  -1.893  1.00 20.00     0.010 C 
ENDROOT
TORSDOF 0
ENDMDL
