MODEL 1
REMARK VINA RESULT:      -6.3      0.000      0.000
REMARK  3 active torsions:
REMARK  status: ('A' for Active; 'I' for Inactive)
REMARK    1  A    between atoms: C6_6  and  C8_8 
REMARK    2  A    between atoms: C8_8  and  C10_10 
REMARK    3  A    between atoms: C9_9  and  C10_10 
ROOT
HETATM    1  C1  UNL     1     -34.919   5.283   6.364  1.00 20.00     0.000 A 
HETATM    2  C2  UNL     1     -33.983   6.317   6.348  1.00 20.00     0.001 A 
HETATM    3  C3  UNL     1     -35.229   4.606   5.184  1.00 20.00     0.001 A 
HETATM    4  C4  UNL     1     -33.357   6.675   5.153  1.00 20.00     0.007 A 
HETATM    5  C5  UNL     1     -34.604   4.963   3.989  1.00 20.00     0.007 A 
HETATM    6  C6  UNL     1     -33.668   5.998   3.974  1.00 20.00    -0.058 A 
ENDROOT
BRANCH   6   7
HETATM    7  C8  UNL     1     -32.992   6.384   2.682  1.00 20.00     0.038 C 
BRANCH   7   8
HETATM    8  C10 UNL     1     -32.068   7.591   2.869  1.00 20.00     0.004 C 
BRANCH   8   9
HETATM    9  C9  UNL     1     -31.868   8.345   1.555  1.00 20.00    -0.004 C 
HETATM   10  C7  UNL     1     -32.523   9.716   1.595  1.00 20.00     0.005 C 
ENDBRANCH   8   9
ENDBRANCH   7   8
ENDBRANCH   6   7
TORSDOF 3
ENDMDL
MODEL 2
REMARK VINA RESULT:      -6.3      0.027      1.528
REMARK  3 active torsions:
REMARK  status: ('A' for Active; 'I' for Inactive)
REMARK    1  A    between atoms: C6_6  and  C8_8 
REMARK    2  A    between atoms: C8_8  and  C10_10 
REMARK    3  A    between atoms: C9_9  and  C10_10 
ROOT
HETATM    1  C1  UNL     1     -34.912   5.283   6.384  1.00 20.00     0.000 A 
HETATM    2  C2  UNL     1     -35.222   4.594   5.212  1.00 20.00     0.001 A 
HETATM    3  C3  UNL     1     -33.984   6.325   6.355  1.00 20.00     0.001 A 
HETATM    4  C4  UNL     1     -34.606   4.945   4.011  1.00 20.00     0.007 A 
HETATM    5  C5  UNL     1     -33.368   6.677   5.153  1.00 20.00     0.007 A 
HETATM    6  C6  UNL     1     -33.679   5.987   3.981  1.00 20.00    -0.058 A 
ENDROOT
BRANCH   6   7
HETATM    7  C8  UNL     1     -33.012   6.367   2.683  1.00 20.00     0.038 C 
BRANCH   7   8
HETATM    8  C10 UNL     1     -32.060   7.552   2.868  1.00 20.00     0.004 C 
BRANCH   8   9
HETATM    9  C9  UNL     1     -31.867   8.318   1.559  1.00 20.00    -0.004 C 
HETATM   10  C7  UNL     1     -32.537   9.682   1.608  1.00 20.00     0.005 C 
ENDBRANCH   8   9
ENDBRANCH   7   8
ENDBRANCH   6   7
TORSDOF 3
ENDMDL
MODEL 3
REMARK VINA RESULT:      -4.8     10.987     11.712
REMARK  3 active torsions:
REMARK  status: ('A' for Active; 'I' for Inactive)
REMARK    1  A    between atoms: C6_6  and  C8_8 
REMARK    2  A    between atoms: C8_8  and  C10_10 
REMARK    3  A    between atoms: C9_9  and  C10_10 
ROOT
HETATM    1  C1  UNL     1     -35.084  13.360  -4.487  1.00 20.00     0.000 A 
HETATM    2  C2  UNL     1     -36.039  14.246  -3.989  1.00 20.00     0.001 A 
HETATM    3  C3  UNL     1     -33.735  13.544  -4.181  1.00 20.00     0.001 A 
HETATM    4  C4  UNL     1     -35.647  15.316  -3.185  1.00 20.00     0.007 A 
HETATM    5  C5  UNL     1     -33.342  14.614  -3.376  1.00 20.00     0.007 A 
HETATM    6  C6  UNL     1     -34.299  15.500  -2.878  1.00 20.00    -0.058 A 
ENDROOT
BRANCH   6   7
HETATM    7  C8  UNL     1     -33.873  16.657  -2.009  1.00 20.00     0.038 C 
BRANCH   7   8
HETATM    8  C10 UNL     1     -34.673  16.703  -0.704  1.00 20.00     0.004 C 
BRANCH   8   9
HETATM    9  C9  UNL     1     -34.221  17.864   0.182  1.00 20.00    -0.004 C 
HETATM   10  C7  UNL     1     -32.903  18.449  -0.296  1.00 20.00     0.005 C 
ENDBRANCH   8   9
ENDBRANCH   7   8
ENDBRANCH   6   7
TORSDOF 3
ENDMDL
MODEL 4
REMARK VINA RESULT:      -4.7     11.018     11.699
REMARK  3 active torsions:
REMARK  status: ('A' for Active; 'I' for Inactive)
REMARK    1  A    between atoms: C6_6  and  C8_8 
REMARK    2  A    between atoms: C8_8  and  C10_10 
REMARK    3  A    between atoms: C9_9  and  C10_10 
ROOT
HETATM    1  C1  UNL     1     -35.058  13.326  -4.552  1.00 20.00     0.000 A 
HETATM    2  C2  UNL     1     -33.709  13.533  -4.264  1.00 20.00     0.001 A 
HETATM    3  C3  UNL     1     -36.022  14.193  -4.036  1.00 20.00     0.001 A 
HETATM    4  C4  UNL     1     -33.323  14.606  -3.460  1.00 20.00     0.007 A 
HETATM    5  C5  UNL     1     -35.636  15.267  -3.232  1.00 20.00     0.007 A 
HETATM    6  C6  UNL     1     -34.286  15.472  -2.944  1.00 20.00    -0.058 A 
ENDROOT
BRANCH   6   7
HETATM    7  C8  UNL     1     -33.870  16.633  -2.075  1.00 20.00     0.038 C 
BRANCH   7   8
HETATM    8  C10 UNL     1     -34.639  16.645  -0.750  1.00 20.00     0.004 C 
BRANCH   8   9
HETATM    9  C9  UNL     1     -34.209  17.820   0.129  1.00 20.00    -0.004 C 
HETATM   10  C7  UNL     1     -32.931  18.462  -0.386  1.00 20.00     0.005 C 
ENDBRANCH   8   9
ENDBRANCH   7   8
ENDBRANCH   6   7
TORSDOF 3
ENDMDL
MODEL 5
REMARK VINA RESULT:      -4.6     10.921     12.236
REMARK  3 active torsions:
REMARK  status: ('A' for Active; 'I' for Inactive)
REMARK    1  A    between atoms: C6_6  and  C8_8 
REMARK    2  A    between atoms: C8_8  and  C10_10 
REMARK    3  A    between atoms: C9_9  and  C10_10 
ROOT
HETATM    1  C1  UNL     1     -34.800  13.875  -5.835  1.00 20.00     0.000 A 
HETATM    2  C2  UNL     1     -34.457  15.213  -6.030  1.00 20.00     0.001 A 
HETATM    3  C3  UNL     1     -34.788  13.333  -4.550  1.00 20.00     0.001 A 
HETATM    4  C4  UNL     1     -34.102  16.009  -4.941  1.00 20.00     0.007 A 
HETATM    5  C5  UNL     1     -34.434  14.128  -3.460  1.00 20.00     0.007 A 
HETATM    6  C6  UNL     1     -34.091  15.467  -3.656  1.00 20.00    -0.058 A 
ENDROOT
BRANCH   6   7
HETATM    7  C8  UNL     1     -33.707  16.326  -2.477  1.00 20.00     0.038 C 
BRANCH   7   8
HETATM    8  C10 UNL     1     -34.797  16.322  -1.401  1.00 20.00     0.004 C 
BRANCH   8   9
HETATM    9  C9  UNL     1     -34.460  17.291  -0.267  1.00 20.00    -0.004 C 
HETATM   10  C7  UNL     1     -33.227  18.119  -0.590  1.00 20.00     0.005 C 
ENDBRANCH   8   9
ENDBRANCH   7   8
ENDBRANCH   6   7
TORSDOF 3
ENDMDL
MODEL 6
REMARK VINA RESULT:      -4.5     10.981     11.868
REMARK  3 active torsions:
REMARK  status: ('A' for Active; 'I' for Inactive)
REMARK    1  A    between atoms: C6_6  and  C8_8 
REMARK    2  A    between atoms: C8_8  and  C10_10 
REMARK    3  A    between atoms: C9_9  and  C10_10 
ROOT
HETATM    1  C1  UNL     1     -34.124  18.487   1.376  1.00 20.00     0.000 A 
HETATM    2  C2  UNL     1     -33.073  18.846   0.532  1.00 20.00     0.001 A 
HETATM    3  C3  UNL     1     -35.036  17.509   0.976  1.00 20.00     0.001 A 
HETATM    4  C4  UNL     1     -32.933  18.228  -0.712  1.00 20.00     0.007 A 
HETATM    5  C5  UNL     1     -34.896  16.890  -0.267  1.00 20.00     0.007 A 
HETATM    6  C6  UNL     1     -33.844  17.250  -1.110  1.00 20.00    -0.058 A 
ENDROOT
BRANCH   6   7
HETATM    7  C8  UNL     1     -33.695  16.582  -2.454  1.00 20.00     0.038 C 
BRANCH   7   8
HETATM    8  C10 UNL     1     -34.732  15.471  -2.647  1.00 20.00     0.004 C 
BRANCH   8   9
HETATM    9  C9  UNL     1     -34.152  14.305  -3.448  1.00 20.00    -0.004 C 
HETATM   10  C7  UNL     1     -35.238  13.552  -4.199  1.00 20.00     0.005 C 
ENDBRANCH   8   9
ENDBRANCH   7   8
ENDBRANCH   6   7
TORSDOF 3
ENDMDL
MODEL 7
REMARK VINA RESULT:      -4.5     10.974     11.931
REMARK  3 active torsions:
REMARK  status: ('A' for Active; 'I' for Inactive)
REMARK    1  A    between atoms: C6_6  and  C8_8 
REMARK    2  A    between atoms: C8_8  and  C10_10 
REMARK    3  A    between atoms: C9_9  and  C10_10 
ROOT
HETATM    1  C1  UNL     1     -34.054  18.464   1.360  1.00 20.00     0.000 A 
HETATM    2  C2  UNL     1     -34.998  17.516   0.969  1.00 20.00     0.001 A 
HETATM    3  C3  UNL     1     -33.004  18.797   0.503  1.00 20.00     0.001 A 
HETATM    4  C4  UNL     1     -34.894  16.899  -0.278  1.00 20.00     0.007 A 
HETATM    5  C5  UNL     1     -32.900  18.182  -0.745  1.00 20.00     0.007 A 
HETATM    6  C6  UNL     1     -33.846  17.233  -1.135  1.00 20.00    -0.058 A 
ENDROOT
BRANCH   6   7
HETATM    7  C8  UNL     1     -33.732  16.567  -2.484  1.00 20.00     0.038 C 
BRANCH   7   8
HETATM    8  C10 UNL     1     -34.750  15.433  -2.639  1.00 20.00     0.004 C 
BRANCH   8   9
HETATM    9  C9  UNL     1     -34.168  14.272  -3.445  1.00 20.00    -0.004 C 
HETATM   10  C7  UNL     1     -35.245  13.554  -4.243  1.00 20.00     0.005 C 
ENDBRANCH   8   9
ENDBRANCH   7   8
ENDBRANCH   6   7
TORSDOF 3
ENDMDL
MODEL 8
REMARK VINA RESULT:      -4.4      9.994     11.310
REMARK  3 active torsions:
REMARK  status: ('A' for Active; 'I' for Inactive)
REMARK    1  A    between atoms: C6_6  and  C8_8 
REMARK    2  A    between atoms: C8_8  and  C10_10 
REMARK    3  A    between atoms: C9_9  and  C10_10 
ROOT
HETATM    1  C1  UNL     1     -41.094   7.070  -0.838  1.00 20.00     0.000 A 
HETATM    2  C2  UNL     1     -40.688   5.788  -0.468  1.00 20.00     0.001 A 
HETATM    3  C3  UNL     1     -41.961   7.242  -1.918  1.00 20.00     0.001 A 
HETATM    4  C4  UNL     1     -41.147   4.677  -1.178  1.00 20.00     0.007 A 
HETATM    5  C5  UNL     1     -42.421   6.132  -2.628  1.00 20.00     0.007 A 
HETATM    6  C6  UNL     1     -42.013   4.850  -2.257  1.00 20.00    -0.058 A 
ENDROOT
BRANCH   6   7
HETATM    7  C8  UNL     1     -42.511   3.651  -3.025  1.00 20.00     0.038 C 
BRANCH   7   8
HETATM    8  C10 UNL     1     -41.437   2.563  -3.125  1.00 20.00     0.004 C 
BRANCH   8   9
HETATM    9  C9  UNL     1     -41.745   1.583  -4.257  1.00 20.00    -0.004 C 
HETATM   10  C7  UNL     1     -43.036   1.946  -4.972  1.00 20.00     0.005 C 
ENDBRANCH   8   9
ENDBRANCH   7   8
ENDBRANCH   6   7
TORSDOF 3
ENDMDL
MODEL 9
REMARK VINA RESULT:      -4.4     10.789     12.140
REMARK  3 active torsions:
REMARK  status: ('A' for Active; 'I' for Inactive)
REMARK    1  A    between atoms: C6_6  and  C8_8 
REMARK    2  A    between atoms: C8_8  and  C10_10 
REMARK    3  A    between atoms: C9_9  and  C10_10 
ROOT
HETATM    1  C1  UNL     1     -34.082  18.344  -0.021  1.00 20.00     0.000 A 
HETATM    2  C2  UNL     1     -33.519  18.887  -1.176  1.00 20.00     0.001 A 
HETATM    3  C3  UNL     1     -34.697  17.092  -0.068  1.00 20.00     0.001 A 
HETATM    4  C4  UNL     1     -33.571  18.180  -2.378  1.00 20.00     0.007 A 
HETATM    5  C5  UNL     1     -34.749  16.384  -1.269  1.00 20.00     0.007 A 
HETATM    6  C6  UNL     1     -34.185  16.928  -2.424  1.00 20.00    -0.058 A 
ENDROOT
BRANCH   6   7
HETATM    7  C8  UNL     1     -34.242  16.163  -3.723  1.00 20.00     0.038 C 
BRANCH   7   8
HETATM    8  C10 UNL     1     -33.040  15.227  -3.876  1.00 20.00     0.004 C 
BRANCH   8   9
HETATM    9  C9  UNL     1     -33.445  13.766  -3.678  1.00 20.00    -0.004 C 
HETATM   10  C7  UNL     1     -34.859  13.509  -4.174  1.00 20.00     0.005 C 
ENDBRANCH   8   9
ENDBRANCH   7   8
ENDBRANCH   6   7
TORSDOF 3
ENDMDL
