MODEL 1
REMARK VINA RESULT:      -6.0      0.000      0.000
REMARK  5 active torsions:
REMARK  status: ('A' for Active; 'I' for Inactive)
REMARK    1  A    between atoms: C6_6  and  C8_8 
REMARK    2  A    between atoms: C8_8  and  C10_10 
REMARK    3  A    between atoms: C9_9  and  C11_11 
REMARK    4  A    between atoms: C10_10  and  C12_12 
REMARK    5  A    between atoms: C11_11  and  C12_12 
ROOT
HETATM    1  C1  UNL     1     -35.020   4.707   6.623  1.00 20.00     0.000 A 
HETATM    2  C2  UNL     1     -34.364   5.939   6.587  1.00 20.00     0.001 A 
HETATM    3  C3  UNL     1     -35.219   3.989   5.444  1.00 20.00     0.001 A 
HETATM    4  C4  UNL     1     -33.908   6.451   5.374  1.00 20.00     0.007 A 
HETATM    5  C5  UNL     1     -34.763   4.502   4.230  1.00 20.00     0.007 A 
HETATM    6  C6  UNL     1     -34.107   5.733   4.194  1.00 20.00    -0.058 A 
ENDROOT
BRANCH   6   7
HETATM    7  C8  UNL     1     -33.618   6.283   2.890  1.00 20.00     0.038 C 
BRANCH   7   8
HETATM    8  C10 UNL     1     -32.099   6.466   2.886  1.00 20.00     0.005 C 
BRANCH   8   9
HETATM    9  C12 UNL     1     -31.718   7.925   2.622  1.00 20.00     0.000 C 
BRANCH   9  10
HETATM   10  C11 UNL     1     -31.677   8.227   1.123  1.00 20.00    -0.000 C 
BRANCH  10  11
HETATM   11  C9  UNL     1     -32.380   9.545   0.802  1.00 20.00    -0.005 C 
HETATM   12  C7  UNL     1     -32.845  10.251   2.065  1.00 20.00     0.005 C 
ENDBRANCH  10  11
ENDBRANCH   9  10
ENDBRANCH   8   9
ENDBRANCH   7   8
ENDBRANCH   6   7
TORSDOF 5
ENDMDL
MODEL 2
REMARK VINA RESULT:      -4.9     10.750     11.927
REMARK  5 active torsions:
REMARK  status: ('A' for Active; 'I' for Inactive)
REMARK    1  A    between atoms: C6_6  and  C8_8 
REMARK    2  A    between atoms: C8_8  and  C10_10 
REMARK    3  A    between atoms: C9_9  and  C11_11 
REMARK    4  A    between atoms: C10_10  and  C12_12 
REMARK    5  A    between atoms: C11_11  and  C12_12 
ROOT
HETATM    1  C1  UNL     1     -33.627  18.883   1.376  1.00 20.00     0.000 A 
HETATM    2  C2  UNL     1     -34.778  18.099   1.461  1.00 20.00     0.001 A 
HETATM    3  C3  UNL     1     -32.799  18.786   0.258  1.00 20.00     0.001 A 
HETATM    4  C4  UNL     1     -35.100  17.220   0.428  1.00 20.00     0.007 A 
HETATM    5  C5  UNL     1     -33.121  17.907  -0.775  1.00 20.00     0.007 A 
HETATM    6  C6  UNL     1     -34.272  17.123  -0.690  1.00 20.00    -0.058 A 
ENDROOT
BRANCH   6   7
HETATM    7  C8  UNL     1     -34.617  16.178  -1.799  1.00 20.00     0.038 C 
BRANCH   7   8
HETATM    8  C10 UNL     1     -33.742  16.409  -3.034  1.00 20.00     0.005 C 
BRANCH   8   9
HETATM    9  C12 UNL     1     -33.308  15.082  -3.660  1.00 20.00     0.000 C 
BRANCH   9  10
HETATM   10  C11 UNL     1     -34.384  14.008  -3.492  1.00 20.00    -0.000 C 
BRANCH  10  11
HETATM   11  C9  UNL     1     -34.649  13.276  -4.807  1.00 20.00    -0.005 C 
HETATM   12  C7  UNL     1     -34.786  14.247  -5.968  1.00 20.00     0.005 C 
ENDBRANCH  10  11
ENDBRANCH   9  10
ENDBRANCH   8   9
ENDBRANCH   7   8
ENDBRANCH   6   7
TORSDOF 5
ENDMDL
MODEL 3
REMARK VINA RESULT:      -4.9     10.750     11.913
REMARK  5 active torsions:
REMARK  status: ('A' for Active; 'I' for Inactive)
REMARK    1  A    between atoms: C6_6  and  C8_8 
REMARK    2  A    between atoms: C8_8  and  C10_10 
REMARK    3  A    between atoms: C9_9  and  C11_11 
REMARK    4  A    between atoms: C10_10  and  C12_12 
REMARK    5  A    between atoms: C11_11  and  C12_12 
ROOT
HETATM    1  C1  UNL     1     -33.552  18.923   1.477  1.00 20.00     0.000 A 
HETATM    2  C2  UNL     1     -32.748  18.805   0.342  1.00 20.00     0.001 A 
HETATM    3  C3  UNL     1     -34.723  18.174   1.584  1.00 20.00     0.001 A 
HETATM    4  C4  UNL     1     -33.116  17.937  -0.684  1.00 20.00     0.007 A 
HETATM    5  C5  UNL     1     -35.091  17.305   0.557  1.00 20.00     0.007 A 
HETATM    6  C6  UNL     1     -34.287  17.187  -0.578  1.00 20.00    -0.058 A 
ENDROOT
BRANCH   6   7
HETATM    7  C8  UNL     1     -34.684  16.254  -1.680  1.00 20.00     0.038 C 
BRANCH   7   8
HETATM    8  C10 UNL     1     -33.863  16.495  -2.949  1.00 20.00     0.005 C 
BRANCH   8   9
HETATM    9  C12 UNL     1     -33.304  15.183  -3.505  1.00 20.00     0.000 C 
BRANCH   9  10
HETATM   10  C11 UNL     1     -34.344  14.063  -3.438  1.00 20.00    -0.000 C 
BRANCH  10  11
HETATM   11  C9  UNL     1     -34.480  13.351  -4.784  1.00 20.00    -0.005 C 
HETATM   12  C7  UNL     1     -34.771  14.332  -5.907  1.00 20.00     0.005 C 
ENDBRANCH  10  11
ENDBRANCH   9  10
ENDBRANCH   8   9
ENDBRANCH   7   8
ENDBRANCH   6   7
TORSDOF 5
ENDMDL
MODEL 4
REMARK VINA RESULT:      -4.8     10.813     12.175
REMARK  5 active torsions:
REMARK  status: ('A' for Active; 'I' for Inactive)
REMARK    1  A    between atoms: C6_6  and  C8_8 
REMARK    2  A    between atoms: C8_8  and  C10_10 
REMARK    3  A    between atoms: C9_9  and  C11_11 
REMARK    4  A    between atoms: C10_10  and  C12_12 
REMARK    5  A    between atoms: C11_11  and  C12_12 
ROOT
HETATM    1  C1  UNL     1     -32.302  19.183   2.753  1.00 20.00     0.000 A 
HETATM    2  C2  UNL     1     -31.473  19.263   1.633  1.00 20.00     0.001 A 
HETATM    3  C3  UNL     1     -33.595  18.675   2.627  1.00 20.00     0.001 A 
HETATM    4  C4  UNL     1     -31.936  18.835   0.391  1.00 20.00     0.007 A 
HETATM    5  C5  UNL     1     -34.059  18.247   1.384  1.00 20.00     0.007 A 
HETATM    6  C6  UNL     1     -33.229  18.327   0.264  1.00 20.00    -0.058 A 
ENDROOT
BRANCH   6   7
HETATM    7  C8  UNL     1     -33.728  17.868  -1.070  1.00 20.00     0.038 C 
BRANCH   7   8
HETATM    8  C10 UNL     1     -34.773  16.758  -0.935  1.00 20.00     0.005 C 
BRANCH   8   9
HETATM    9  C12 UNL     1     -34.697  15.780  -2.109  1.00 20.00     0.000 C 
BRANCH   9  10
HETATM   10  C11 UNL     1     -33.640  16.213  -3.126  1.00 20.00    -0.000 C 
BRANCH  10  11
HETATM   11  C9  UNL     1     -32.967  15.005  -3.776  1.00 20.00    -0.005 C 
HETATM   12  C7  UNL     1     -33.899  13.805  -3.821  1.00 20.00     0.005 C 
ENDBRANCH  10  11
ENDBRANCH   9  10
ENDBRANCH   8   9
ENDBRANCH   7   8
ENDBRANCH   6   7
TORSDOF 5
ENDMDL
MODEL 5
REMARK VINA RESULT:      -4.8      0.718      5.590
REMARK  5 active torsions:
REMARK  status: ('A' for Active; 'I' for Inactive)
REMARK    1  A    between atoms: C6_6  and  C8_8 
REMARK    2  A    between atoms: C8_8  and  C10_10 
REMARK    3  A    between atoms: C9_9  and  C11_11 
REMARK    4  A    between atoms: C10_10  and  C12_12 
REMARK    5  A    between atoms: C11_11  and  C12_12 
ROOT
HETATM    1  C1  UNL     1     -32.259   9.920   0.711  1.00 20.00     0.000 A 
HETATM    2  C2  UNL     1     -32.719  10.069   2.020  1.00 20.00     0.001 A 
HETATM    3  C3  UNL     1     -31.799   8.679   0.271  1.00 20.00     0.001 A 
HETATM    4  C4  UNL     1     -32.719   8.978   2.887  1.00 20.00     0.007 A 
HETATM    5  C5  UNL     1     -31.800   7.587   1.138  1.00 20.00     0.007 A 
HETATM    6  C6  UNL     1     -32.260   7.736   2.447  1.00 20.00    -0.058 A 
ENDROOT
BRANCH   6   7
HETATM    7  C8  UNL     1     -32.260   6.563   3.378  1.00 20.00     0.038 C 
BRANCH   7   8
HETATM    8  C10 UNL     1     -33.372   5.568   3.037  1.00 20.00     0.005 C 
BRANCH   8   9
HETATM    9  C12 UNL     1     -34.648   5.873   3.824  1.00 20.00     0.000 C 
BRANCH   9  10
HETATM   10  C11 UNL     1     -35.154   4.634   4.564  1.00 20.00    -0.000 C 
BRANCH  10  11
HETATM   11  C9  UNL     1     -34.739   4.656   6.035  1.00 20.00    -0.005 C 
HETATM   12  C7  UNL     1     -34.312   6.048   6.472  1.00 20.00     0.005 C 
ENDBRANCH  10  11
ENDBRANCH   9  10
ENDBRANCH   8   9
ENDBRANCH   7   8
ENDBRANCH   6   7
TORSDOF 5
ENDMDL
MODEL 6
REMARK VINA RESULT:      -4.8      0.722      5.708
REMARK  5 active torsions:
REMARK  status: ('A' for Active; 'I' for Inactive)
REMARK    1  A    between atoms: C6_6  and  C8_8 
REMARK    2  A    between atoms: C8_8  and  C10_10 
REMARK    3  A    between atoms: C9_9  and  C11_11 
REMARK    4  A    between atoms: C10_10  and  C12_12 
REMARK    5  A    between atoms: C11_11  and  C12_12 
ROOT
HETATM    1  C1  UNL     1     -32.244   9.904   0.704  1.00 20.00     0.000 A 
HETATM    2  C2  UNL     1     -31.783   8.658   0.275  1.00 20.00     0.001 A 
HETATM    3  C3  UNL     1     -32.718  10.060   2.006  1.00 20.00     0.001 A 
HETATM    4  C4  UNL     1     -31.795   7.572   1.148  1.00 20.00     0.007 A 
HETATM    5  C5  UNL     1     -32.731   8.973   2.880  1.00 20.00     0.007 A 
HETATM    6  C6  UNL     1     -32.269   7.728   2.450  1.00 20.00    -0.058 A 
ENDROOT
BRANCH   6   7
HETATM    7  C8  UNL     1     -32.284   6.561   3.388  1.00 20.00     0.038 C 
BRANCH   7   8
HETATM    8  C10 UNL     1     -33.391   5.564   3.036  1.00 20.00     0.005 C 
BRANCH   8   9
HETATM    9  C12 UNL     1     -34.668   5.852   3.828  1.00 20.00     0.000 C 
BRANCH   9  10
HETATM   10  C11 UNL     1     -35.147   4.610   4.582  1.00 20.00    -0.000 C 
BRANCH  10  11
HETATM   11  C9  UNL     1     -34.679   4.628   6.036  1.00 20.00    -0.005 C 
HETATM   12  C7  UNL     1     -34.298   6.031   6.482  1.00 20.00     0.005 C 
ENDBRANCH  10  11
ENDBRANCH   9  10
ENDBRANCH   8   9
ENDBRANCH   7   8
ENDBRANCH   6   7
TORSDOF 5
ENDMDL
MODEL 7
REMARK VINA RESULT:      -4.8     10.886     12.291
REMARK  5 active torsions:
REMARK  status: ('A' for Active; 'I' for Inactive)
REMARK    1  A    between atoms: C6_6  and  C8_8 
REMARK    2  A    between atoms: C8_8  and  C10_10 
REMARK    3  A    between atoms: C9_9  and  C11_11 
REMARK    4  A    between atoms: C10_10  and  C12_12 
REMARK    5  A    between atoms: C11_11  and  C12_12 
ROOT
HETATM    1  C1  UNL     1     -35.012  13.397  -4.656  1.00 20.00     0.000 A 
HETATM    2  C2  UNL     1     -33.765  13.683  -4.099  1.00 20.00     0.001 A 
HETATM    3  C3  UNL     1     -36.141  14.099  -4.237  1.00 20.00     0.001 A 
HETATM    4  C4  UNL     1     -33.648  14.671  -3.123  1.00 20.00     0.007 A 
HETATM    5  C5  UNL     1     -36.024  15.088  -3.260  1.00 20.00     0.007 A 
HETATM    6  C6  UNL     1     -34.777  15.374  -2.703  1.00 20.00    -0.058 A 
ENDROOT
BRANCH   6   7
HETATM    7  C8  UNL     1     -34.653  16.435  -1.654  1.00 20.00     0.038 C 
BRANCH   7   8
HETATM    8  C10 UNL     1     -33.690  17.545  -2.081  1.00 20.00     0.005 C 
BRANCH   8   9
HETATM    9  C12 UNL     1     -34.318  18.443  -3.149  1.00 20.00     0.000 C 
BRANCH   9  10
HETATM   10  C11 UNL     1     -33.659  18.231  -4.513  1.00 20.00    -0.000 C 
BRANCH  10  11
HETATM   11  C9  UNL     1     -34.678  17.782  -5.559  1.00 20.00    -0.005 C 
HETATM   12  C7  UNL     1     -34.160  16.606  -6.372  1.00 20.00     0.005 C 
ENDBRANCH  10  11
ENDBRANCH   9  10
ENDBRANCH   8   9
ENDBRANCH   7   8
ENDBRANCH   6   7
TORSDOF 5
ENDMDL
MODEL 8
REMARK VINA RESULT:      -4.8     10.573     12.883
REMARK  5 active torsions:
REMARK  status: ('A' for Active; 'I' for Inactive)
REMARK    1  A    between atoms: C6_6  and  C8_8 
REMARK    2  A    between atoms: C8_8  and  C10_10 
REMARK    3  A    between atoms: C9_9  and  C11_11 
REMARK    4  A    between atoms: C10_10  and  C12_12 
REMARK    5  A    between atoms: C11_11  and  C12_12 
ROOT
HETATM    1  C1  UNL     1     -36.316  16.484  -7.139  1.00 20.00     0.000 A 
HETATM    2  C2  UNL     1     -35.090  15.956  -7.546  1.00 20.00     0.001 A 
HETATM    3  C3  UNL     1     -36.953  15.976  -6.007  1.00 20.00     0.001 A 
HETATM    4  C4  UNL     1     -34.502  14.921  -6.820  1.00 20.00     0.007 A 
HETATM    5  C5  UNL     1     -36.365  14.941  -5.281  1.00 20.00     0.007 A 
HETATM    6  C6  UNL     1     -35.139  14.413  -5.688  1.00 20.00    -0.058 A 
ENDROOT
BRANCH   6   7
HETATM    7  C8  UNL     1     -34.508  13.301  -4.909  1.00 20.00     0.038 C 
BRANCH   7   8
HETATM    8  C10 UNL     1     -34.090  13.755  -3.509  1.00 20.00     0.005 C 
BRANCH   8   9
HETATM    9  C12 UNL     1     -33.021  14.848  -3.577  1.00 20.00     0.000 C 
BRANCH   9  10
HETATM   10  C11 UNL     1     -33.521  16.155  -2.961  1.00 20.00    -0.000 C 
BRANCH  10  11
HETATM   11  C9  UNL     1     -34.724  15.915  -2.049  1.00 20.00    -0.005 C 
HETATM   12  C7  UNL     1     -34.605  16.700  -0.752  1.00 20.00     0.005 C 
ENDBRANCH  10  11
ENDBRANCH   9  10
ENDBRANCH   8   9
ENDBRANCH   7   8
ENDBRANCH   6   7
TORSDOF 5
ENDMDL
MODEL 9
REMARK VINA RESULT:      -4.7     10.739     12.685
REMARK  5 active torsions:
REMARK  status: ('A' for Active; 'I' for Inactive)
REMARK    1  A    between atoms: C6_6  and  C8_8 
REMARK    2  A    between atoms: C8_8  and  C10_10 
REMARK    3  A    between atoms: C9_9  and  C11_11 
REMARK    4  A    between atoms: C10_10  and  C12_12 
REMARK    5  A    between atoms: C11_11  and  C12_12 
ROOT
HETATM    1  C1  UNL     1     -34.393  13.193  -4.744  1.00 20.00     0.000 A 
HETATM    2  C2  UNL     1     -33.491  13.712  -3.815  1.00 20.00     0.001 A 
HETATM    3  C3  UNL     1     -34.979  14.032  -5.691  1.00 20.00     0.001 A 
HETATM    4  C4  UNL     1     -33.175  15.069  -3.833  1.00 20.00     0.007 A 
HETATM    5  C5  UNL     1     -34.663  15.391  -5.709  1.00 20.00     0.007 A 
HETATM    6  C6  UNL     1     -33.761  15.910  -4.780  1.00 20.00    -0.058 A 
ENDROOT
BRANCH   6   7
HETATM    7  C8  UNL     1     -33.423  17.368  -4.800  1.00 20.00     0.038 C 
BRANCH   7   8
HETATM    8  C10 UNL     1     -34.645  18.238  -4.495  1.00 20.00     0.005 C 
BRANCH   8   9
HETATM    9  C12 UNL     1     -34.963  18.242  -2.999  1.00 20.00     0.000 C 
BRANCH   9  10
HETATM   10  C11 UNL     1     -33.721  18.566  -2.167  1.00 20.00    -0.000 C 
BRANCH  10  11
HETATM   11  C9  UNL     1     -33.547  17.574  -1.018  1.00 20.00    -0.005 C 
HETATM   12  C7  UNL     1     -34.704  16.590  -0.951  1.00 20.00     0.005 C 
ENDBRANCH  10  11
ENDBRANCH   9  10
ENDBRANCH   8   9
ENDBRANCH   7   8
ENDBRANCH   6   7
TORSDOF 5
ENDMDL
