MODEL 1
REMARK VINA RESULT:      -5.3      0.000      0.000
REMARK  1 active torsions:
REMARK  status: ('A' for Active; 'I' for Inactive)
REMARK    1  A    between atoms: C6_6  and  N8_8 
ROOT
HETATM    1  C1  UNL     1     -35.136   4.735   6.052  1.00 20.00     0.000 A 
HETATM    2  C2  UNL     1     -35.265   4.402   4.704  1.00 20.00     0.002 A 
HETATM    3  C3  UNL     1     -34.333   5.810   6.432  1.00 20.00     0.002 A 
HETATM    4  C4  UNL     1     -34.590   5.144   3.734  1.00 20.00     0.029 A 
HETATM    5  C5  UNL     1     -33.659   6.553   5.463  1.00 20.00     0.029 A 
HETATM    6  C6  UNL     1     -33.786   6.220   4.114  1.00 20.00     0.027 A 
ENDROOT
BRANCH   6   7
HETATM    7  N8  UNL     1     -33.104   6.971   3.134  1.00 20.00    -0.394 N 
HETATM    8  C7  UNL     1     -31.739   7.375   3.277  1.00 20.00     0.146 C 
HETATM    9  H17 UNL     1     -33.620   7.220   2.313  1.00 20.00     0.159 HD
ENDBRANCH   6   7
TORSDOF 1
ENDMDL
MODEL 2
REMARK VINA RESULT:      -5.3      0.006      1.708
REMARK  1 active torsions:
REMARK  status: ('A' for Active; 'I' for Inactive)
REMARK    1  A    between atoms: C6_6  and  N8_8 
ROOT
HETATM    1  C1  UNL     1     -35.139   4.729   6.053  1.00 20.00     0.000 A 
HETATM    2  C2  UNL     1     -34.335   5.804   6.435  1.00 20.00     0.002 A 
HETATM    3  C3  UNL     1     -35.267   4.400   4.704  1.00 20.00     0.002 A 
HETATM    4  C4  UNL     1     -33.661   6.550   5.467  1.00 20.00     0.029 A 
HETATM    5  C5  UNL     1     -34.593   5.145   3.737  1.00 20.00     0.029 A 
HETATM    6  C6  UNL     1     -33.790   6.220   4.118  1.00 20.00     0.027 A 
ENDROOT
BRANCH   6   7
HETATM    7  N8  UNL     1     -33.109   6.973   3.139  1.00 20.00    -0.394 N 
HETATM    8  C7  UNL     1     -31.742   7.369   3.276  1.00 20.00     0.146 C 
HETATM    9  H17 UNL     1     -33.629   7.229   2.321  1.00 20.00     0.159 HD
ENDBRANCH   6   7
TORSDOF 1
ENDMDL
MODEL 3
REMARK VINA RESULT:      -3.9      9.292     10.399
REMARK  1 active torsions:
REMARK  status: ('A' for Active; 'I' for Inactive)
REMARK    1  A    between atoms: C6_6  and  N8_8 
ROOT
HETATM    1  C1  UNL     1     -41.455   7.248  -1.064  1.00 20.00     0.000 A 
HETATM    2  C2  UNL     1     -42.206   6.854  -2.172  1.00 20.00     0.002 A 
HETATM    3  C3  UNL     1     -40.730   6.301  -0.340  1.00 20.00     0.002 A 
HETATM    4  C4  UNL     1     -42.231   5.512  -2.555  1.00 20.00     0.029 A 
HETATM    5  C5  UNL     1     -40.755   4.961  -0.724  1.00 20.00     0.029 A 
HETATM    6  C6  UNL     1     -41.506   4.566  -1.831  1.00 20.00     0.027 A 
ENDROOT
BRANCH   6   7
HETATM    7  N8  UNL     1     -41.531   3.210  -2.218  1.00 20.00    -0.394 N 
HETATM    8  C7  UNL     1     -42.527   2.669  -3.091  1.00 20.00     0.146 C 
HETATM    9  H17 UNL     1     -40.808   2.620  -1.852  1.00 20.00     0.159 HD
ENDBRANCH   6   7
TORSDOF 1
ENDMDL
MODEL 4
REMARK VINA RESULT:      -3.9      9.449     10.445
REMARK  1 active torsions:
REMARK  status: ('A' for Active; 'I' for Inactive)
REMARK    1  A    between atoms: C6_6  and  N8_8 
ROOT
HETATM    1  C1  UNL     1     -41.017   4.657  -0.767  1.00 20.00     0.000 A 
HETATM    2  C2  UNL     1     -40.650   5.922  -0.308  1.00 20.00     0.002 A 
HETATM    3  C3  UNL     1     -41.794   4.531  -1.919  1.00 20.00     0.002 A 
HETATM    4  C4  UNL     1     -41.060   7.062  -1.001  1.00 20.00     0.029 A 
HETATM    5  C5  UNL     1     -42.203   5.670  -2.612  1.00 20.00     0.029 A 
HETATM    6  C6  UNL     1     -41.837   6.936  -2.154  1.00 20.00     0.027 A 
ENDROOT
BRANCH   6   7
HETATM    7  N8  UNL     1     -42.251   8.087  -2.855  1.00 20.00    -0.394 N 
HETATM    8  C7  UNL     1     -42.652   8.058  -4.228  1.00 20.00     0.146 C 
HETATM    9  H17 UNL     1     -42.256   8.950  -2.347  1.00 20.00     0.159 HD
ENDBRANCH   6   7
TORSDOF 1
ENDMDL
MODEL 5
REMARK VINA RESULT:      -3.8     12.091     12.283
REMARK  1 active torsions:
REMARK  status: ('A' for Active; 'I' for Inactive)
REMARK    1  A    between atoms: C6_6  and  N8_8 
ROOT
HETATM    1  C1  UNL     1     -34.238  13.594  -4.564  1.00 20.00     0.000 A 
HETATM    2  C2  UNL     1     -35.593  13.851  -4.357  1.00 20.00     0.002 A 
HETATM    3  C3  UNL     1     -33.275  14.314  -3.856  1.00 20.00     0.002 A 
HETATM    4  C4  UNL     1     -35.986  14.829  -3.442  1.00 20.00     0.029 A 
HETATM    5  C5  UNL     1     -33.668  15.291  -2.942  1.00 20.00     0.029 A 
HETATM    6  C6  UNL     1     -35.023  15.549  -2.735  1.00 20.00     0.027 A 
ENDROOT
BRANCH   6   7
HETATM    7  N8  UNL     1     -35.419  16.538  -1.810  1.00 20.00    -0.394 N 
HETATM    8  C7  UNL     1     -34.683  16.826  -0.618  1.00 20.00     0.146 C 
HETATM    9  H17 UNL     1     -36.257  17.046  -2.020  1.00 20.00     0.159 HD
ENDBRANCH   6   7
TORSDOF 1
ENDMDL
MODEL 6
REMARK VINA RESULT:      -3.8     12.079     12.362
REMARK  1 active torsions:
REMARK  status: ('A' for Active; 'I' for Inactive)
REMARK    1  A    between atoms: C6_6  and  N8_8 
ROOT
HETATM    1  C1  UNL     1     -34.224  13.600  -4.552  1.00 20.00     0.000 A 
HETATM    2  C2  UNL     1     -33.267  14.314  -3.830  1.00 20.00     0.002 A 
HETATM    3  C3  UNL     1     -35.580  13.867  -4.366  1.00 20.00     0.002 A 
HETATM    4  C4  UNL     1     -33.667  15.295  -2.921  1.00 20.00     0.029 A 
HETATM    5  C5  UNL     1     -35.980  14.847  -3.458  1.00 20.00     0.029 A 
HETATM    6  C6  UNL     1     -35.024  15.562  -2.736  1.00 20.00     0.027 A 
ENDROOT
BRANCH   6   7
HETATM    7  N8  UNL     1     -35.430  16.553  -1.818  1.00 20.00    -0.394 N 
HETATM    8  C7  UNL     1     -34.733  16.812  -0.596  1.00 20.00     0.146 C 
HETATM    9  H17 UNL     1     -36.245  17.084  -2.056  1.00 20.00     0.159 HD
ENDBRANCH   6   7
TORSDOF 1
ENDMDL
MODEL 7
REMARK VINA RESULT:      -3.8     12.092     12.547
REMARK  1 active torsions:
REMARK  status: ('A' for Active; 'I' for Inactive)
REMARK    1  A    between atoms: C6_6  and  N8_8 
ROOT
HETATM    1  C1  UNL     1     -33.249  14.485  -3.785  1.00 20.00     0.000 A 
HETATM    2  C2  UNL     1     -34.207  13.629  -4.328  1.00 20.00     0.002 A 
HETATM    3  C3  UNL     1     -33.647  15.588  -3.029  1.00 20.00     0.002 A 
HETATM    4  C4  UNL     1     -35.564  13.877  -4.116  1.00 20.00     0.029 A 
HETATM    5  C5  UNL     1     -35.003  15.835  -2.817  1.00 20.00     0.029 A 
HETATM    6  C6  UNL     1     -35.962  14.980  -3.361  1.00 20.00     0.027 A 
ENDROOT
BRANCH   6   7
HETATM    7  N8  UNL     1     -37.333  15.231  -3.146  1.00 20.00    -0.394 N 
HETATM    8  C7  UNL     1     -38.354  14.790  -4.046  1.00 20.00     0.146 C 
HETATM    9  H17 UNL     1     -37.576  15.743  -2.320  1.00 20.00     0.159 HD
ENDBRANCH   6   7
TORSDOF 1
ENDMDL
MODEL 8
REMARK VINA RESULT:      -3.8      1.563      2.545
REMARK  1 active torsions:
REMARK  status: ('A' for Active; 'I' for Inactive)
REMARK    1  A    between atoms: C6_6  and  N8_8 
ROOT
HETATM    1  C1  UNL     1     -35.259   4.393   4.317  1.00 20.00     0.000 A 
HETATM    2  C2  UNL     1     -34.627   5.447   3.657  1.00 20.00     0.002 A 
HETATM    3  C3  UNL     1     -35.162   4.280   5.704  1.00 20.00     0.002 A 
HETATM    4  C4  UNL     1     -33.899   6.389   4.384  1.00 20.00     0.029 A 
HETATM    5  C5  UNL     1     -34.435   5.222   6.431  1.00 20.00     0.029 A 
HETATM    6  C6  UNL     1     -33.802   6.277   5.771  1.00 20.00     0.027 A 
ENDROOT
BRANCH   6   7
HETATM    7  N8  UNL     1     -33.066   7.229   6.507  1.00 20.00    -0.394 N 
HETATM    8  C7  UNL     1     -33.623   7.966   7.599  1.00 20.00     0.146 C 
HETATM    9  H17 UNL     1     -32.114   7.376   6.233  1.00 20.00     0.159 HD
ENDBRANCH   6   7
TORSDOF 1
ENDMDL
MODEL 9
REMARK VINA RESULT:      -3.7     12.050     13.591
REMARK  1 active torsions:
REMARK  status: ('A' for Active; 'I' for Inactive)
REMARK    1  A    between atoms: C6_6  and  N8_8 
ROOT
HETATM    1  C1  UNL     1     -33.061  15.092  -3.631  1.00 20.00     0.000 A 
HETATM    2  C2  UNL     1     -33.642  13.833  -3.775  1.00 20.00     0.002 A 
HETATM    3  C3  UNL     1     -33.248  16.064  -4.614  1.00 20.00     0.002 A 
HETATM    4  C4  UNL     1     -34.411  13.545  -4.904  1.00 20.00     0.029 A 
HETATM    5  C5  UNL     1     -34.017  15.777  -5.741  1.00 20.00     0.029 A 
HETATM    6  C6  UNL     1     -34.599  14.517  -5.887  1.00 20.00     0.027 A 
ENDROOT
BRANCH   6   7
HETATM    7  N8  UNL     1     -35.376  14.227  -7.028  1.00 20.00    -0.394 N 
HETATM    8  C7  UNL     1     -36.552  14.963  -7.373  1.00 20.00     0.146 C 
HETATM    9  H17 UNL     1     -35.069  13.467  -7.604  1.00 20.00     0.159 HD
ENDBRANCH   6   7
TORSDOF 1
ENDMDL
