MODEL 1
REMARK VINA RESULT:      -6.1      0.000      0.000
REMARK  2 active torsions:
REMARK  status: ('A' for Active; 'I' for Inactive)
REMARK    1  A    between atoms: C6_6  and  C8_8 
REMARK    2  A    between atoms: C8_8  and  C9_9 
ROOT
HETATM    1  C1  UNL     1     -35.062   5.050   6.395  1.00 20.00     0.000 A 
HETATM    2  C2  UNL     1     -34.196   6.143   6.406  1.00 20.00     0.001 A 
HETATM    3  C3  UNL     1     -35.285   4.349   5.210  1.00 20.00     0.001 A 
HETATM    4  C4  UNL     1     -33.553   6.535   5.233  1.00 20.00     0.007 A 
HETATM    5  C5  UNL     1     -34.642   4.741   4.036  1.00 20.00     0.007 A 
HETATM    6  C6  UNL     1     -33.775   5.834   4.047  1.00 20.00    -0.058 A 
ENDROOT
BRANCH   6   7
HETATM    7  C8  UNL     1     -33.088   6.253   2.792  1.00 20.00     0.038 C 
BRANCH   7   8
HETATM    8  C9  UNL     1     -32.039   7.347   3.044  1.00 20.00     0.000 C 
HETATM    9  C7  UNL     1     -32.019   8.385   1.934  1.00 20.00     0.005 C 
ENDBRANCH   7   8
ENDBRANCH   6   7
TORSDOF 2
ENDMDL
MODEL 2
REMARK VINA RESULT:      -4.6     11.555     12.117
REMARK  2 active torsions:
REMARK  status: ('A' for Active; 'I' for Inactive)
REMARK    1  A    between atoms: C6_6  and  C8_8 
REMARK    2  A    between atoms: C8_8  and  C9_9 
ROOT
HETATM    1  C1  UNL     1     -35.111  13.349  -4.459  1.00 20.00     0.000 A 
HETATM    2  C2  UNL     1     -33.758  13.569  -4.208  1.00 20.00     0.001 A 
HETATM    3  C3  UNL     1     -36.069  14.210  -3.924  1.00 20.00     0.001 A 
HETATM    4  C4  UNL     1     -33.361  14.650  -3.423  1.00 20.00     0.007 A 
HETATM    5  C5  UNL     1     -35.673  15.292  -3.137  1.00 20.00     0.007 A 
HETATM    6  C6  UNL     1     -34.318  15.512  -2.887  1.00 20.00    -0.058 A 
ENDROOT
BRANCH   6   7
HETATM    7  C8  UNL     1     -33.895  16.669  -2.046  1.00 20.00     0.038 C 
BRANCH   7   8
HETATM    8  C9  UNL     1     -34.644  16.714  -0.705  1.00 20.00     0.000 C 
HETATM    9  C7  UNL     1     -34.177  17.866   0.170  1.00 20.00     0.005 C 
ENDBRANCH   7   8
ENDBRANCH   6   7
TORSDOF 2
ENDMDL
MODEL 3
REMARK VINA RESULT:      -4.5     11.517     12.136
REMARK  2 active torsions:
REMARK  status: ('A' for Active; 'I' for Inactive)
REMARK    1  A    between atoms: C6_6  and  C8_8 
REMARK    2  A    between atoms: C8_8  and  C9_9 
ROOT
HETATM    1  C1  UNL     1     -35.046  13.328  -4.430  1.00 20.00     0.000 A 
HETATM    2  C2  UNL     1     -36.027  14.187  -3.939  1.00 20.00     0.001 A 
HETATM    3  C3  UNL     1     -33.701  13.572  -4.151  1.00 20.00     0.001 A 
HETATM    4  C4  UNL     1     -35.665  15.291  -3.167  1.00 20.00     0.007 A 
HETATM    5  C5  UNL     1     -33.338  14.676  -3.380  1.00 20.00     0.007 A 
HETATM    6  C6  UNL     1     -34.321  15.535  -2.887  1.00 20.00    -0.058 A 
ENDROOT
BRANCH   6   7
HETATM    7  C8  UNL     1     -33.932  16.716  -2.063  1.00 20.00     0.038 C 
BRANCH   7   8
HETATM    8  C9  UNL     1     -34.614  16.709  -0.686  1.00 20.00     0.000 C 
HETATM    9  C7  UNL     1     -34.184  17.890   0.169  1.00 20.00     0.005 C 
ENDBRANCH   7   8
ENDBRANCH   6   7
TORSDOF 2
ENDMDL
MODEL 4
REMARK VINA RESULT:      -4.3     11.458     12.717
REMARK  2 active torsions:
REMARK  status: ('A' for Active; 'I' for Inactive)
REMARK    1  A    between atoms: C6_6  and  C8_8 
REMARK    2  A    between atoms: C8_8  and  C9_9 
ROOT
HETATM    1  C1  UNL     1     -34.843  13.836  -5.817  1.00 20.00     0.000 A 
HETATM    2  C2  UNL     1     -34.433  15.149  -6.044  1.00 20.00     0.001 A 
HETATM    3  C3  UNL     1     -34.874  13.330  -4.518  1.00 20.00     0.001 A 
HETATM    4  C4  UNL     1     -34.054  15.957  -4.973  1.00 20.00     0.007 A 
HETATM    5  C5  UNL     1     -34.495  14.137  -3.446  1.00 20.00     0.007 A 
HETATM    6  C6  UNL     1     -34.085  15.452  -3.673  1.00 20.00    -0.058 A 
ENDROOT
BRANCH   6   7
HETATM    7  C8  UNL     1     -33.679  16.314  -2.526  1.00 20.00     0.038 C 
BRANCH   7   8
HETATM    8  C9  UNL     1     -34.733  16.322  -1.407  1.00 20.00     0.000 C 
HETATM    9  C7  UNL     1     -34.390  17.314  -0.308  1.00 20.00     0.005 C 
ENDBRANCH   7   8
ENDBRANCH   6   7
TORSDOF 2
ENDMDL
MODEL 5
REMARK VINA RESULT:      -4.3      9.651     10.860
REMARK  2 active torsions:
REMARK  status: ('A' for Active; 'I' for Inactive)
REMARK    1  A    between atoms: C6_6  and  C8_8 
REMARK    2  A    between atoms: C8_8  and  C9_9 
ROOT
HETATM    1  C1  UNL     1     -41.087   7.061  -0.846  1.00 20.00     0.000 A 
HETATM    2  C2  UNL     1     -40.659   5.782  -0.492  1.00 20.00     0.001 A 
HETATM    3  C3  UNL     1     -41.982   7.229  -1.903  1.00 20.00     0.001 A 
HETATM    4  C4  UNL     1     -41.126   4.671  -1.193  1.00 20.00     0.007 A 
HETATM    5  C5  UNL     1     -42.449   6.118  -2.605  1.00 20.00     0.007 A 
HETATM    6  C6  UNL     1     -42.021   4.838  -2.249  1.00 20.00    -0.058 A 
ENDROOT
BRANCH   6   7
HETATM    7  C8  UNL     1     -42.521   3.650  -3.000  1.00 20.00     0.038 C 
BRANCH   7   8
HETATM    8  C9  UNL     1     -41.457   2.547  -3.111  1.00 20.00     0.000 C 
HETATM    9  C7  UNL     1     -41.732   1.604  -4.271  1.00 20.00     0.005 C 
ENDBRANCH   7   8
ENDBRANCH   6   7
TORSDOF 2
ENDMDL
MODEL 6
REMARK VINA RESULT:      -4.2     11.709     12.595
REMARK  2 active torsions:
REMARK  status: ('A' for Active; 'I' for Inactive)
REMARK    1  A    between atoms: C6_6  and  C8_8 
REMARK    2  A    between atoms: C8_8  and  C9_9 
ROOT
HETATM    1  C1  UNL     1     -33.317  18.923   1.272  1.00 20.00     0.000 A 
HETATM    2  C2  UNL     1     -34.495  18.223   1.527  1.00 20.00     0.001 A 
HETATM    3  C3  UNL     1     -32.650  18.749   0.059  1.00 20.00     0.001 A 
HETATM    4  C4  UNL     1     -35.008  17.349   0.570  1.00 20.00     0.007 A 
HETATM    5  C5  UNL     1     -33.163  17.874  -0.899  1.00 20.00     0.007 A 
HETATM    6  C6  UNL     1     -34.343  17.174  -0.644  1.00 20.00    -0.058 A 
ENDROOT
BRANCH   6   7
HETATM    7  C8  UNL     1     -34.890  16.238  -1.668  1.00 20.00     0.038 C 
BRANCH   7   8
HETATM    8  C9  UNL     1     -33.851  15.886  -2.744  1.00 20.00     0.000 C 
HETATM    9  C7  UNL     1     -34.182  14.582  -3.451  1.00 20.00     0.005 C 
ENDBRANCH   7   8
ENDBRANCH   6   7
TORSDOF 2
ENDMDL
MODEL 7
REMARK VINA RESULT:      -4.1      9.949     10.631
REMARK  2 active torsions:
REMARK  status: ('A' for Active; 'I' for Inactive)
REMARK    1  A    between atoms: C6_6  and  C8_8 
REMARK    2  A    between atoms: C8_8  and  C9_9 
ROOT
HETATM    1  C1  UNL     1     -40.800   4.688  -0.843  1.00 20.00     0.000 A 
HETATM    2  C2  UNL     1     -40.614   5.977  -0.347  1.00 20.00     0.001 A 
HETATM    3  C3  UNL     1     -41.630   4.477  -1.945  1.00 20.00     0.001 A 
HETATM    4  C4  UNL     1     -41.256   7.057  -0.952  1.00 20.00     0.007 A 
HETATM    5  C5  UNL     1     -42.273   5.557  -2.550  1.00 20.00     0.007 A 
HETATM    6  C6  UNL     1     -42.085   6.848  -2.053  1.00 20.00    -0.058 A 
ENDROOT
BRANCH   6   7
HETATM    7  C8  UNL     1     -42.773   8.002  -2.700  1.00 20.00     0.038 C 
BRANCH   7   8
HETATM    8  C9  UNL     1     -42.882   7.830  -4.224  1.00 20.00     0.000 C 
HETATM    9  C7  UNL     1     -42.042   8.851  -4.974  1.00 20.00     0.005 C 
ENDBRANCH   7   8
ENDBRANCH   6   7
TORSDOF 2
ENDMDL
MODEL 8
REMARK VINA RESULT:      -4.0     11.465     12.765
REMARK  2 active torsions:
REMARK  status: ('A' for Active; 'I' for Inactive)
REMARK    1  A    between atoms: C6_6  and  C8_8 
REMARK    2  A    between atoms: C8_8  and  C9_9 
ROOT
HETATM    1  C1  UNL     1     -33.648  18.981  -0.132  1.00 20.00     0.000 A 
HETATM    2  C2  UNL     1     -33.277  18.957  -1.475  1.00 20.00     0.001 A 
HETATM    3  C3  UNL     1     -34.358  17.912   0.415  1.00 20.00     0.001 A 
HETATM    4  C4  UNL     1     -33.615  17.864  -2.273  1.00 20.00     0.007 A 
HETATM    5  C5  UNL     1     -34.697  16.819  -0.382  1.00 20.00     0.007 A 
HETATM    6  C6  UNL     1     -34.325  16.795  -1.727  1.00 20.00    -0.058 A 
ENDROOT
BRANCH   6   7
HETATM    7  C8  UNL     1     -34.688  15.626  -2.579  1.00 20.00     0.038 C 
BRANCH   7   8
HETATM    8  C9  UNL     1     -33.492  15.114  -3.397  1.00 20.00     0.000 C 
HETATM    9  C7  UNL     1     -33.728  13.712  -3.936  1.00 20.00     0.005 C 
ENDBRANCH   7   8
ENDBRANCH   6   7
TORSDOF 2
ENDMDL
MODEL 9
REMARK VINA RESULT:      -4.0      1.004      3.962
REMARK  2 active torsions:
REMARK  status: ('A' for Active; 'I' for Inactive)
REMARK    1  A    between atoms: C6_6  and  C8_8 
REMARK    2  A    between atoms: C8_8  and  C9_9 
ROOT
HETATM    1  C1  UNL     1     -31.828   7.176   3.177  1.00 20.00     0.000 A 
HETATM    2  C2  UNL     1     -32.412   7.399   4.423  1.00 20.00     0.001 A 
HETATM    3  C3  UNL     1     -32.411   6.277   2.284  1.00 20.00     0.001 A 
HETATM    4  C4  UNL     1     -33.580   6.726   4.777  1.00 20.00     0.007 A 
HETATM    5  C5  UNL     1     -33.580   5.603   2.637  1.00 20.00     0.007 A 
HETATM    6  C6  UNL     1     -34.165   5.827   3.884  1.00 20.00    -0.058 A 
ENDROOT
BRANCH   6   7
HETATM    7  C8  UNL     1     -35.415   5.106   4.261  1.00 20.00     0.038 C 
BRANCH   7   8
HETATM    8  C9  UNL     1     -35.142   3.946   5.231  1.00 20.00     0.000 C 
HETATM    9  C7  UNL     1     -35.072   4.415   6.675  1.00 20.00     0.005 C 
ENDBRANCH   7   8
ENDBRANCH   6   7
TORSDOF 2
ENDMDL
