MODEL 1
REMARK VINA RESULT:      -5.5      0.000      0.000
REMARK  0 active torsions:
REMARK  status: ('A' for Active; 'I' for Inactive)
ROOT
HETATM    1  C1  UNL     1     -34.803   5.422   6.735  1.00 20.00     0.001 A 
HETATM    2  C2  UNL     1     -35.349   4.474   5.874  1.00 20.00     0.001 A 
HETATM    3  C3  UNL     1     -32.199   7.260   3.059  1.00 20.00     0.001 A 
HETATM    4  C4  UNL     1     -32.745   6.313   2.198  1.00 20.00     0.001 A 
HETATM    5  C5  UNL     1     -33.882   6.353   6.255  1.00 20.00     0.012 A 
HETATM    6  C6  UNL     1     -34.976   4.455   4.529  1.00 20.00     0.012 A 
HETATM    7  C7  UNL     1     -32.571   7.280   4.404  1.00 20.00     0.012 A 
HETATM    8  C8  UNL     1     -33.665   5.381   2.678  1.00 20.00     0.012 A 
HETATM    9  C9  UNL     1     -33.497   6.349   4.904  1.00 20.00    -0.026 A 
HETATM   10  C10 UNL     1     -34.052   5.385   4.029  1.00 20.00    -0.026 A 
ENDROOT
TORSDOF 0
ENDMDL
MODEL 2
REMARK VINA RESULT:      -5.5      0.056      2.071
REMARK  0 active torsions:
REMARK  status: ('A' for Active; 'I' for Inactive)
ROOT
HETATM    1  C1  UNL     1     -35.330   4.521   5.916  1.00 20.00     0.001 A 
HETATM    2  C2  UNL     1     -34.761   5.480   6.750  1.00 20.00     0.001 A 
HETATM    3  C3  UNL     1     -32.783   6.277   2.160  1.00 20.00     0.001 A 
HETATM    4  C4  UNL     1     -32.214   7.236   2.994  1.00 20.00     0.001 A 
HETATM    5  C5  UNL     1     -34.983   4.476   4.566  1.00 20.00     0.012 A 
HETATM    6  C6  UNL     1     -33.843   6.397   6.236  1.00 20.00     0.012 A 
HETATM    7  C7  UNL     1     -33.701   5.360   2.674  1.00 20.00     0.012 A 
HETATM    8  C8  UNL     1     -32.561   7.281   4.344  1.00 20.00     0.012 A 
HETATM    9  C9  UNL     1     -34.061   5.391   4.032  1.00 20.00    -0.026 A 
HETATM   10  C10 UNL     1     -33.483   6.366   4.879  1.00 20.00    -0.026 A 
ENDROOT
TORSDOF 0
ENDMDL
MODEL 3
REMARK VINA RESULT:      -5.5      0.041      3.446
REMARK  0 active torsions:
REMARK  status: ('A' for Active; 'I' for Inactive)
ROOT
HETATM    1  C1  UNL     1     -32.169   7.270   3.049  1.00 20.00     0.001 A 
HETATM    2  C2  UNL     1     -32.724   6.322   2.195  1.00 20.00     0.001 A 
HETATM    3  C3  UNL     1     -34.776   5.470   6.742  1.00 20.00     0.001 A 
HETATM    4  C4  UNL     1     -35.332   4.522   5.888  1.00 20.00     0.001 A 
HETATM    5  C5  UNL     1     -32.537   7.299   4.394  1.00 20.00     0.012 A 
HETATM    6  C6  UNL     1     -33.650   5.399   2.683  1.00 20.00     0.012 A 
HETATM    7  C7  UNL     1     -33.850   6.393   6.254  1.00 20.00     0.012 A 
HETATM    8  C8  UNL     1     -34.963   4.493   4.543  1.00 20.00     0.012 A 
HETATM    9  C9  UNL     1     -33.468   6.378   4.902  1.00 20.00    -0.026 A 
HETATM   10  C10 UNL     1     -34.032   5.414   4.033  1.00 20.00    -0.026 A 
ENDROOT
TORSDOF 0
ENDMDL
MODEL 4
REMARK VINA RESULT:      -5.5      0.040      4.020
REMARK  0 active torsions:
REMARK  status: ('A' for Active; 'I' for Inactive)
ROOT
HETATM    1  C1  UNL     1     -32.734   6.322   2.194  1.00 20.00     0.001 A 
HETATM    2  C2  UNL     1     -32.173   7.267   3.048  1.00 20.00     0.001 A 
HETATM    3  C3  UNL     1     -35.335   4.523   5.891  1.00 20.00     0.001 A 
HETATM    4  C4  UNL     1     -34.774   5.467   6.746  1.00 20.00     0.001 A 
HETATM    5  C5  UNL     1     -33.661   5.401   2.683  1.00 20.00     0.012 A 
HETATM    6  C6  UNL     1     -32.537   7.294   4.395  1.00 20.00     0.012 A 
HETATM    7  C7  UNL     1     -34.971   4.495   4.544  1.00 20.00     0.012 A 
HETATM    8  C8  UNL     1     -33.847   6.388   6.257  1.00 20.00     0.012 A 
HETATM    9  C9  UNL     1     -34.039   5.415   4.035  1.00 20.00    -0.026 A 
HETATM   10  C10 UNL     1     -33.469   6.376   4.904  1.00 20.00    -0.026 A 
ENDROOT
TORSDOF 0
ENDMDL
MODEL 5
REMARK VINA RESULT:      -4.7     12.141     14.189
REMARK  0 active torsions:
REMARK  status: ('A' for Active; 'I' for Inactive)
ROOT
HETATM    1  C1  UNL     1     -34.970  16.698  -7.665  1.00 20.00     0.001 A 
HETATM    2  C2  UNL     1     -35.557  15.456  -7.891  1.00 20.00     0.001 A 
HETATM    3  C3  UNL     1     -32.961  15.002  -3.571  1.00 20.00     0.001 A 
HETATM    4  C4  UNL     1     -33.548  13.761  -3.796  1.00 20.00     0.001 A 
HETATM    5  C5  UNL     1     -34.177  16.900  -6.535  1.00 20.00     0.012 A 
HETATM    6  C6  UNL     1     -35.352  14.412  -6.988  1.00 20.00     0.012 A 
HETATM    7  C7  UNL     1     -33.165  16.047  -4.474  1.00 20.00     0.012 A 
HETATM    8  C8  UNL     1     -34.341  13.559  -4.926  1.00 20.00     0.012 A 
HETATM    9  C9  UNL     1     -33.960  15.860  -5.616  1.00 20.00    -0.026 A 
HETATM   10  C10 UNL     1     -34.557  14.598  -5.846  1.00 20.00    -0.026 A 
ENDROOT
TORSDOF 0
ENDMDL
MODEL 6
REMARK VINA RESULT:      -4.7     12.087     14.031
REMARK  0 active torsions:
REMARK  status: ('A' for Active; 'I' for Inactive)
ROOT
HETATM    1  C1  UNL     1     -33.661  13.659  -3.781  1.00 20.00     0.001 A 
HETATM    2  C2  UNL     1     -33.046  14.885  -3.544  1.00 20.00     0.001 A 
HETATM    3  C3  UNL     1     -35.539  15.403  -7.918  1.00 20.00     0.001 A 
HETATM    4  C4  UNL     1     -34.924  16.628  -7.680  1.00 20.00     0.001 A 
HETATM    5  C5  UNL     1     -34.436  13.476  -4.927  1.00 20.00     0.012 A 
HETATM    6  C6  UNL     1     -33.204  15.933  -4.452  1.00 20.00     0.012 A 
HETATM    7  C7  UNL     1     -35.381  14.354  -7.010  1.00 20.00     0.012 A 
HETATM    8  C8  UNL     1     -34.150  16.811  -6.534  1.00 20.00     0.012 A 
HETATM    9  C9  UNL     1     -34.605  14.520  -5.851  1.00 20.00    -0.026 A 
HETATM   10  C10 UNL     1     -33.979  15.767  -5.610  1.00 20.00    -0.026 A 
ENDROOT
TORSDOF 0
ENDMDL
MODEL 7
REMARK VINA RESULT:      -4.7     12.077     14.265
REMARK  0 active torsions:
REMARK  status: ('A' for Active; 'I' for Inactive)
ROOT
HETATM    1  C1  UNL     1     -35.434  15.451  -7.918  1.00 20.00     0.001 A 
HETATM    2  C2  UNL     1     -34.870  16.690  -7.625  1.00 20.00     0.001 A 
HETATM    3  C3  UNL     1     -33.697  13.673  -3.735  1.00 20.00     0.001 A 
HETATM    4  C4  UNL     1     -33.133  14.911  -3.442  1.00 20.00     0.001 A 
HETATM    5  C5  UNL     1     -35.285  14.388  -7.027  1.00 20.00     0.012 A 
HETATM    6  C6  UNL     1     -34.156  16.870  -6.440  1.00 20.00     0.012 A 
HETATM    7  C7  UNL     1     -34.411  13.492  -4.921  1.00 20.00     0.012 A 
HETATM    8  C8  UNL     1     -33.282  15.974  -4.334  1.00 20.00     0.012 A 
HETATM    9  C9  UNL     1     -34.570  14.552  -5.829  1.00 20.00    -0.026 A 
HETATM   10  C10 UNL     1     -33.997  15.811  -5.531  1.00 20.00    -0.026 A 
ENDROOT
TORSDOF 0
ENDMDL
MODEL 8
REMARK VINA RESULT:      -4.7     12.073     13.871
REMARK  0 active torsions:
REMARK  status: ('A' for Active; 'I' for Inactive)
ROOT
HETATM    1  C1  UNL     1     -33.145  14.886  -3.446  1.00 20.00     0.001 A 
HETATM    2  C2  UNL     1     -33.711  13.650  -3.745  1.00 20.00     0.001 A 
HETATM    3  C3  UNL     1     -34.881  16.690  -7.618  1.00 20.00     0.001 A 
HETATM    4  C4  UNL     1     -35.446  15.454  -7.918  1.00 20.00     0.001 A 
HETATM    5  C5  UNL     1     -33.293  15.954  -4.331  1.00 20.00     0.012 A 
HETATM    6  C6  UNL     1     -34.425  13.477  -4.932  1.00 20.00     0.012 A 
HETATM    7  C7  UNL     1     -34.166  16.863  -6.432  1.00 20.00     0.012 A 
HETATM    8  C8  UNL     1     -35.298  14.386  -7.033  1.00 20.00     0.012 A 
HETATM    9  C9  UNL     1     -34.009  15.798  -5.529  1.00 20.00    -0.026 A 
HETATM   10  C10 UNL     1     -34.583  14.541  -5.834  1.00 20.00    -0.026 A 
ENDROOT
TORSDOF 0
ENDMDL
MODEL 9
REMARK VINA RESULT:      -4.6     12.227     14.288
REMARK  0 active torsions:
REMARK  status: ('A' for Active; 'I' for Inactive)
ROOT
HETATM    1  C1  UNL     1     -33.750  18.089  -6.059  1.00 20.00     0.001 A 
HETATM    2  C2  UNL     1     -34.460  17.519  -7.113  1.00 20.00     0.001 A 
HETATM    3  C3  UNL     1     -33.776  13.814  -3.734  1.00 20.00     0.001 A 
HETATM    4  C4  UNL     1     -34.486  13.246  -4.786  1.00 20.00     0.001 A 
HETATM    5  C5  UNL     1     -33.400  17.313  -4.953  1.00 20.00     0.012 A 
HETATM    6  C6  UNL     1     -34.822  16.173  -7.063  1.00 20.00     0.012 A 
HETATM    7  C7  UNL     1     -33.413  15.161  -3.782  1.00 20.00     0.012 A 
HETATM    8  C8  UNL     1     -34.836  14.021  -5.892  1.00 20.00     0.012 A 
HETATM    9  C9  UNL     1     -33.757  15.957  -4.888  1.00 20.00    -0.026 A 
HETATM   10  C10 UNL     1     -34.479  15.378  -5.959  1.00 20.00    -0.026 A 
ENDROOT
TORSDOF 0
ENDMDL
