MODEL 1
REMARK VINA RESULT:      -5.6      0.000      0.000
REMARK  0 active torsions:
REMARK  status: ('A' for Active; 'I' for Inactive)
ROOT
HETATM    1  C1  UNL     1     -35.186   4.893   5.941  1.00 20.00     0.001 A 
HETATM    2  C2  UNL     1     -34.344   5.858   6.492  1.00 20.00     0.001 A 
HETATM    3  C3  UNL     1     -35.173   4.658   4.566  1.00 20.00     0.007 A 
HETATM    4  C4  UNL     1     -33.488   6.589   5.669  1.00 20.00     0.007 A 
HETATM    5  C5  UNL     1     -34.318   5.388   3.743  1.00 20.00    -0.056 A 
HETATM    6  C6  UNL     1     -33.475   6.354   4.294  1.00 20.00    -0.056 A 
HETATM    7  C7  UNL     1     -34.320   5.120   2.273  1.00 20.00     0.049 C 
HETATM    8  C8  UNL     1     -32.551   7.150   3.431  1.00 20.00     0.049 C 
ENDROOT
TORSDOF 0
ENDMDL
MODEL 2
REMARK VINA RESULT:      -5.6      0.721      2.048
REMARK  0 active torsions:
REMARK  status: ('A' for Active; 'I' for Inactive)
ROOT
HETATM    1  C1  UNL     1     -35.189   4.173   4.477  1.00 20.00     0.001 A 
HETATM    2  C2  UNL     1     -35.280   4.262   5.865  1.00 20.00     0.001 A 
HETATM    3  C3  UNL     1     -34.459   5.123   3.762  1.00 20.00     0.007 A 
HETATM    4  C4  UNL     1     -34.639   5.301   6.541  1.00 20.00     0.007 A 
HETATM    5  C5  UNL     1     -33.819   6.161   4.437  1.00 20.00    -0.056 A 
HETATM    6  C6  UNL     1     -33.908   6.251   5.826  1.00 20.00    -0.056 A 
HETATM    7  C7  UNL     1     -33.041   7.166   3.652  1.00 20.00     0.049 C 
HETATM    8  C8  UNL     1     -33.232   7.355   6.571  1.00 20.00     0.049 C 
ENDROOT
TORSDOF 0
ENDMDL
MODEL 3
REMARK VINA RESULT:      -5.6      0.715      2.492
REMARK  0 active torsions:
REMARK  status: ('A' for Active; 'I' for Inactive)
ROOT
HETATM    1  C1  UNL     1     -35.275   4.268   5.859  1.00 20.00     0.001 A 
HETATM    2  C2  UNL     1     -35.185   4.180   4.470  1.00 20.00     0.001 A 
HETATM    3  C3  UNL     1     -34.633   5.304   6.536  1.00 20.00     0.007 A 
HETATM    4  C4  UNL     1     -34.452   5.129   3.757  1.00 20.00     0.007 A 
HETATM    5  C5  UNL     1     -33.901   6.253   5.824  1.00 20.00    -0.056 A 
HETATM    6  C6  UNL     1     -33.810   6.166   4.434  1.00 20.00    -0.056 A 
HETATM    7  C7  UNL     1     -33.222   7.356   6.569  1.00 20.00     0.049 C 
HETATM    8  C8  UNL     1     -33.030   7.170   3.650  1.00 20.00     0.049 C 
ENDROOT
TORSDOF 0
ENDMDL
MODEL 4
REMARK VINA RESULT:      -5.6      0.097      2.253
REMARK  0 active torsions:
REMARK  status: ('A' for Active; 'I' for Inactive)
ROOT
HETATM    1  C1  UNL     1     -34.406   5.737   6.522  1.00 20.00     0.001 A 
HETATM    2  C2  UNL     1     -35.233   4.781   5.935  1.00 20.00     0.001 A 
HETATM    3  C3  UNL     1     -33.548   6.500   5.728  1.00 20.00     0.007 A 
HETATM    4  C4  UNL     1     -35.203   4.585   4.554  1.00 20.00     0.007 A 
HETATM    5  C5  UNL     1     -33.518   6.305   4.348  1.00 20.00    -0.056 A 
HETATM    6  C6  UNL     1     -34.346   5.348   3.760  1.00 20.00    -0.056 A 
HETATM    7  C7  UNL     1     -32.593   7.133   3.518  1.00 20.00     0.049 C 
HETATM    8  C8  UNL     1     -34.331   5.121   2.284  1.00 20.00     0.049 C 
ENDROOT
TORSDOF 0
ENDMDL
MODEL 5
REMARK VINA RESULT:      -5.1      0.832      3.523
REMARK  0 active torsions:
REMARK  status: ('A' for Active; 'I' for Inactive)
ROOT
HETATM    1  C1  UNL     1     -33.240   6.369   3.008  1.00 20.00     0.001 A 
HETATM    2  C2  UNL     1     -34.089   5.274   2.856  1.00 20.00     0.001 A 
HETATM    3  C3  UNL     1     -33.049   6.935   4.269  1.00 20.00     0.007 A 
HETATM    4  C4  UNL     1     -34.749   4.743   3.965  1.00 20.00     0.007 A 
HETATM    5  C5  UNL     1     -33.708   6.405   5.377  1.00 20.00    -0.056 A 
HETATM    6  C6  UNL     1     -34.558   5.309   5.226  1.00 20.00    -0.056 A 
HETATM    7  C7  UNL     1     -33.488   7.026   6.718  1.00 20.00     0.049 C 
HETATM    8  C8  UNL     1     -35.275   4.724   6.399  1.00 20.00     0.049 C 
ENDROOT
TORSDOF 0
ENDMDL
MODEL 6
REMARK VINA RESULT:      -5.1      0.833      2.751
REMARK  0 active torsions:
REMARK  status: ('A' for Active; 'I' for Inactive)
ROOT
HETATM    1  C1  UNL     1     -34.078   5.272   2.836  1.00 20.00     0.001 A 
HETATM    2  C2  UNL     1     -33.227   6.367   2.986  1.00 20.00     0.001 A 
HETATM    3  C3  UNL     1     -34.739   4.745   3.945  1.00 20.00     0.007 A 
HETATM    4  C4  UNL     1     -33.036   6.935   4.246  1.00 20.00     0.007 A 
HETATM    5  C5  UNL     1     -34.549   5.312   5.204  1.00 20.00    -0.056 A 
HETATM    6  C6  UNL     1     -33.697   6.407   5.355  1.00 20.00    -0.056 A 
HETATM    7  C7  UNL     1     -35.267   4.731   6.378  1.00 20.00     0.049 C 
HETATM    8  C8  UNL     1     -33.477   7.031   6.695  1.00 20.00     0.049 C 
ENDROOT
TORSDOF 0
ENDMDL
MODEL 7
REMARK VINA RESULT:      -4.3      0.780      2.469
REMARK  0 active torsions:
REMARK  status: ('A' for Active; 'I' for Inactive)
ROOT
HETATM    1  C1  UNL     1     -33.050   7.390   5.556  1.00 20.00     0.001 A 
HETATM    2  C2  UNL     1     -33.697   6.770   6.624  1.00 20.00     0.001 A 
HETATM    3  C3  UNL     1     -33.175   6.869   4.267  1.00 20.00     0.007 A 
HETATM    4  C4  UNL     1     -34.469   5.629   6.406  1.00 20.00     0.007 A 
HETATM    5  C5  UNL     1     -33.946   5.728   4.049  1.00 20.00    -0.056 A 
HETATM    6  C6  UNL     1     -34.593   5.108   5.118  1.00 20.00    -0.056 A 
HETATM    7  C7  UNL     1     -34.066   5.188   2.661  1.00 20.00     0.049 C 
HETATM    8  C8  UNL     1     -35.424   3.884   4.908  1.00 20.00     0.049 C 
ENDROOT
TORSDOF 0
ENDMDL
MODEL 8
REMARK VINA RESULT:      -4.2      0.817      2.071
REMARK  0 active torsions:
REMARK  status: ('A' for Active; 'I' for Inactive)
ROOT
HETATM    1  C1  UNL     1     -33.826   6.710   6.731  1.00 20.00     0.001 A 
HETATM    2  C2  UNL     1     -33.123   7.377   5.729  1.00 20.00     0.001 A 
HETATM    3  C3  UNL     1     -34.563   5.566   6.425  1.00 20.00     0.007 A 
HETATM    4  C4  UNL     1     -33.156   6.899   4.418  1.00 20.00     0.007 A 
HETATM    5  C5  UNL     1     -34.596   5.088   5.116  1.00 20.00    -0.056 A 
HETATM    6  C6  UNL     1     -33.892   5.755   4.112  1.00 20.00    -0.056 A 
HETATM    7  C7  UNL     1     -35.390   3.861   4.810  1.00 20.00     0.049 C 
HETATM    8  C8  UNL     1     -33.913   5.263   2.702  1.00 20.00     0.049 C 
ENDROOT
TORSDOF 0
ENDMDL
MODEL 9
REMARK VINA RESULT:      -4.1     11.989     13.582
REMARK  0 active torsions:
REMARK  status: ('A' for Active; 'I' for Inactive)
ROOT
HETATM    1  C1  UNL     1     -33.588  13.804  -3.847  1.00 20.00     0.001 A 
HETATM    2  C2  UNL     1     -33.015  15.056  -3.626  1.00 20.00     0.001 A 
HETATM    3  C3  UNL     1     -34.377  13.585  -4.976  1.00 20.00     0.007 A 
HETATM    4  C4  UNL     1     -33.232  16.092  -4.536  1.00 20.00     0.007 A 
HETATM    5  C5  UNL     1     -34.594  14.620  -5.885  1.00 20.00    -0.056 A 
HETATM    6  C6  UNL     1     -34.021  15.873  -5.665  1.00 20.00    -0.056 A 
HETATM    7  C7  UNL     1     -35.441  14.364  -7.088  1.00 20.00     0.049 C 
HETATM    8  C8  UNL     1     -34.240  16.997  -6.625  1.00 20.00     0.049 C 
ENDROOT
TORSDOF 0
ENDMDL
