MODEL 1
REMARK VINA RESULT:      -4.9      0.000      0.000
REMARK  1 active torsions:
REMARK  status: ('A' for Active; 'I' for Inactive)
REMARK    1  A    between atoms: C6_6  and  N9_9 
ROOT
HETATM    1  N8  UNL     1     -32.588   9.663   1.828  1.00 20.00     0.068 N 
HETATM    2  N9  UNL     1     -31.994   7.371   2.166  1.00 20.00    -0.073 NA
HETATM    3  N10 UNL     1     -32.306   8.568   1.992  1.00 20.00    -0.162 NA
ENDROOT
BRANCH   2   4
HETATM    4  C6  UNL     1     -32.790   6.736   3.124  1.00 20.00     0.093 A 
HETATM    5  C3  UNL     1     -32.667   7.078   4.471  1.00 20.00     0.035 A 
HETATM    6  C1  UNL     1     -33.462   6.446   5.428  1.00 20.00     0.009 A 
HETATM    7  C5  UNL     1     -34.381   5.472   5.037  1.00 20.00    -0.062 A 
HETATM    8  C2  UNL     1     -34.504   5.130   3.691  1.00 20.00     0.009 A 
HETATM    9  C7  UNL     1     -35.229   4.795   6.059  1.00 20.00     0.048 C 
HETATM   10  C4  UNL     1     -33.708   5.761   2.734  1.00 20.00     0.035 A 
ENDBRANCH   2   4
TORSDOF 1
ENDMDL
MODEL 2
REMARK VINA RESULT:      -4.9      0.014      1.528
REMARK  1 active torsions:
REMARK  status: ('A' for Active; 'I' for Inactive)
REMARK    1  A    between atoms: C6_6  and  N9_9 
ROOT
HETATM    1  N8  UNL     1     -32.578   9.659   1.821  1.00 20.00     0.068 N 
HETATM    2  N9  UNL     1     -31.976   7.372   2.180  1.00 20.00    -0.073 NA
HETATM    3  N10 UNL     1     -32.293   8.567   1.995  1.00 20.00    -0.162 NA
ENDROOT
BRANCH   2   4
HETATM    4  C6  UNL     1     -32.780   6.739   3.134  1.00 20.00     0.093 A 
HETATM    5  C3  UNL     1     -33.691   5.760   2.738  1.00 20.00     0.035 A 
HETATM    6  C1  UNL     1     -34.492   5.127   3.689  1.00 20.00     0.009 A 
HETATM    7  C5  UNL     1     -34.382   5.473   5.035  1.00 20.00    -0.062 A 
HETATM    8  C2  UNL     1     -33.471   6.453   5.431  1.00 20.00     0.009 A 
HETATM    9  C7  UNL     1     -35.239   4.799   6.051  1.00 20.00     0.048 C 
HETATM   10  C4  UNL     1     -32.670   7.086   4.480  1.00 20.00     0.035 A 
ENDBRANCH   2   4
TORSDOF 1
ENDMDL
MODEL 3
REMARK VINA RESULT:      -4.2     11.375     11.799
REMARK  1 active torsions:
REMARK  status: ('A' for Active; 'I' for Inactive)
REMARK    1  A    between atoms: C6_6  and  N9_9 
ROOT
HETATM    1  N8  UNL     1     -35.499  14.570  -7.571  1.00 20.00     0.068 N 
HETATM    2  N9  UNL     1     -34.866  13.441  -5.559  1.00 20.00    -0.073 NA
HETATM    3  N10 UNL     1     -35.197  14.034  -6.609  1.00 20.00    -0.162 NA
ENDROOT
BRANCH   2   4
HETATM    4  C6  UNL     1     -34.772  14.298  -4.459  1.00 20.00     0.093 A 
HETATM    5  C3  UNL     1     -35.928  14.721  -3.803  1.00 20.00     0.035 A 
HETATM    6  C1  UNL     1     -35.835  15.575  -2.704  1.00 20.00     0.009 A 
HETATM    7  C5  UNL     1     -34.585  16.006  -2.260  1.00 20.00    -0.062 A 
HETATM    8  C2  UNL     1     -33.429  15.583  -2.916  1.00 20.00     0.009 A 
HETATM    9  C7  UNL     1     -34.484  16.920  -1.087  1.00 20.00     0.048 C 
HETATM   10  C4  UNL     1     -33.522  14.730  -4.015  1.00 20.00     0.035 A 
ENDBRANCH   2   4
TORSDOF 1
ENDMDL
MODEL 4
REMARK VINA RESULT:      -4.2     11.375     11.763
REMARK  1 active torsions:
REMARK  status: ('A' for Active; 'I' for Inactive)
REMARK    1  A    between atoms: C6_6  and  N9_9 
ROOT
HETATM    1  N8  UNL     1     -35.502  14.584  -7.569  1.00 20.00     0.068 N 
HETATM    2  N9  UNL     1     -34.845  13.453  -5.567  1.00 20.00    -0.073 NA
HETATM    3  N10 UNL     1     -35.189  14.047  -6.612  1.00 20.00    -0.162 NA
ENDROOT
BRANCH   2   4
HETATM    4  C6  UNL     1     -34.762  14.304  -4.461  1.00 20.00     0.093 A 
HETATM    5  C3  UNL     1     -33.517  14.752  -4.019  1.00 20.00     0.035 A 
HETATM    6  C1  UNL     1     -33.431  15.603  -2.916  1.00 20.00     0.009 A 
HETATM    7  C5  UNL     1     -34.592  16.006  -2.256  1.00 20.00    -0.062 A 
HETATM    8  C2  UNL     1     -35.837  15.559  -2.698  1.00 20.00     0.009 A 
HETATM    9  C7  UNL     1     -34.502  16.914  -1.077  1.00 20.00     0.048 C 
HETATM   10  C4  UNL     1     -35.922  14.707  -3.800  1.00 20.00     0.035 A 
ENDBRANCH   2   4
TORSDOF 1
ENDMDL
MODEL 5
REMARK VINA RESULT:      -4.1     11.248     11.920
REMARK  1 active torsions:
REMARK  status: ('A' for Active; 'I' for Inactive)
REMARK    1  A    between atoms: C6_6  and  N9_9 
ROOT
HETATM    1  N8  UNL     1     -38.870  15.905  -5.351  1.00 20.00     0.068 N 
HETATM    2  N9  UNL     1     -37.880  14.328  -3.850  1.00 20.00    -0.073 NA
HETATM    3  N10 UNL     1     -38.395  15.154  -4.635  1.00 20.00    -0.162 NA
ENDROOT
BRANCH   2   4
HETATM    4  C6  UNL     1     -36.488  14.442  -3.779  1.00 20.00     0.093 A 
HETATM    5  C3  UNL     1     -35.678  13.504  -4.419  1.00 20.00     0.035 A 
HETATM    6  C1  UNL     1     -34.289  13.617  -4.350  1.00 20.00     0.009 A 
HETATM    7  C5  UNL     1     -33.711  14.669  -3.640  1.00 20.00    -0.062 A 
HETATM    8  C2  UNL     1     -34.520  15.607  -3.000  1.00 20.00     0.009 A 
HETATM    9  C7  UNL     1     -32.227  14.790  -3.564  1.00 20.00     0.048 C 
HETATM   10  C4  UNL     1     -35.909  15.494  -3.068  1.00 20.00     0.035 A 
ENDBRANCH   2   4
TORSDOF 1
ENDMDL
MODEL 6
REMARK VINA RESULT:      -4.1     11.289     12.604
REMARK  1 active torsions:
REMARK  status: ('A' for Active; 'I' for Inactive)
REMARK    1  A    between atoms: C6_6  and  N9_9 
ROOT
HETATM    1  N8  UNL     1     -34.770  16.471  -1.291  1.00 20.00     0.068 N 
HETATM    2  N9  UNL     1     -33.145  15.863  -2.938  1.00 20.00    -0.073 NA
HETATM    3  N10 UNL     1     -33.996  16.180  -2.079  1.00 20.00    -0.162 NA
ENDROOT
BRANCH   2   4
HETATM    4  C6  UNL     1     -33.717  15.510  -4.164  1.00 20.00     0.093 A 
HETATM    5  C3  UNL     1     -34.400  14.301  -4.293  1.00 20.00     0.035 A 
HETATM    6  C1  UNL     1     -34.972  13.949  -5.516  1.00 20.00     0.009 A 
HETATM    7  C5  UNL     1     -34.860  14.806  -6.610  1.00 20.00    -0.062 A 
HETATM    8  C2  UNL     1     -34.177  16.015  -6.481  1.00 20.00     0.009 A 
HETATM    9  C7  UNL     1     -35.469  14.430  -7.918  1.00 20.00     0.048 C 
HETATM   10  C4  UNL     1     -33.605  16.367  -5.259  1.00 20.00     0.035 A 
ENDBRANCH   2   4
TORSDOF 1
ENDMDL
MODEL 7
REMARK VINA RESULT:      -4.0     11.334     12.608
REMARK  1 active torsions:
REMARK  status: ('A' for Active; 'I' for Inactive)
REMARK    1  A    between atoms: C6_6  and  N9_9 
ROOT
HETATM    1  N8  UNL     1     -34.842  16.542  -1.310  1.00 20.00     0.068 N 
HETATM    2  N9  UNL     1     -33.194  15.954  -2.942  1.00 20.00    -0.073 NA
HETATM    3  N10 UNL     1     -34.057  16.261  -2.091  1.00 20.00    -0.162 NA
ENDROOT
BRANCH   2   4
HETATM    4  C6  UNL     1     -33.750  15.573  -4.167  1.00 20.00     0.093 A 
HETATM    5  C3  UNL     1     -33.613  16.399  -5.282  1.00 20.00     0.035 A 
HETATM    6  C1  UNL     1     -34.167  16.019  -6.505  1.00 20.00     0.009 A 
HETATM    7  C5  UNL     1     -34.857  14.812  -6.612  1.00 20.00    -0.062 A 
HETATM    8  C2  UNL     1     -34.994  13.986  -5.497  1.00 20.00     0.009 A 
HETATM    9  C7  UNL     1     -35.451  14.406  -7.918  1.00 20.00     0.048 C 
HETATM   10  C4  UNL     1     -34.441  14.366  -4.274  1.00 20.00     0.035 A 
ENDBRANCH   2   4
TORSDOF 1
ENDMDL
MODEL 8
REMARK VINA RESULT:      -4.0     11.254     11.772
REMARK  1 active torsions:
REMARK  status: ('A' for Active; 'I' for Inactive)
REMARK    1  A    between atoms: C6_6  and  N9_9 
ROOT
HETATM    1  N8  UNL     1     -38.954  16.475  -4.029  1.00 20.00     0.068 N 
HETATM    2  N9  UNL     1     -37.873  14.353  -3.800  1.00 20.00    -0.073 NA
HETATM    3  N10 UNL     1     -38.435  15.463  -3.920  1.00 20.00    -0.162 NA
ENDROOT
BRANCH   2   4
HETATM    4  C6  UNL     1     -36.479  14.454  -3.744  1.00 20.00     0.093 A 
HETATM    5  C3  UNL     1     -35.884  15.483  -3.013  1.00 20.00     0.035 A 
HETATM    6  C1  UNL     1     -34.493  15.584  -2.955  1.00 20.00     0.009 A 
HETATM    7  C5  UNL     1     -33.699  14.656  -3.628  1.00 20.00    -0.062 A 
HETATM    8  C2  UNL     1     -34.294  13.628  -4.359  1.00 20.00     0.009 A 
HETATM    9  C7  UNL     1     -32.213  14.765  -3.569  1.00 20.00     0.048 C 
HETATM   10  C4  UNL     1     -35.684  13.527  -4.417  1.00 20.00     0.035 A 
ENDBRANCH   2   4
TORSDOF 1
ENDMDL
MODEL 9
REMARK VINA RESULT:      -4.0     11.617     12.256
REMARK  1 active torsions:
REMARK  status: ('A' for Active; 'I' for Inactive)
REMARK    1  A    between atoms: C6_6  and  N9_9 
ROOT
HETATM    1  N8  UNL     1     -32.454  18.553   4.212  1.00 20.00     0.068 N 
HETATM    2  N9  UNL     1     -34.211  19.167   2.710  1.00 20.00    -0.073 NA
HETATM    3  N10 UNL     1     -33.292  18.844   3.493  1.00 20.00    -0.162 NA
ENDROOT
BRANCH   2   4
HETATM    4  C6  UNL     1     -34.105  18.543   1.462  1.00 20.00     0.093 A 
HETATM    5  C3  UNL     1     -33.039  18.851   0.618  1.00 20.00     0.035 A 
HETATM    6  C1  UNL     1     -32.931  18.229  -0.627  1.00 20.00     0.009 A 
HETATM    7  C5  UNL     1     -33.890  17.298  -1.025  1.00 20.00    -0.062 A 
HETATM    8  C2  UNL     1     -34.956  16.990  -0.180  1.00 20.00     0.009 A 
HETATM    9  C7  UNL     1     -33.777  16.634  -2.355  1.00 20.00     0.048 C 
HETATM   10  C4  UNL     1     -35.065  17.612   1.063  1.00 20.00     0.035 A 
ENDBRANCH   2   4
TORSDOF 1
ENDMDL
