MODEL 1
REMARK VINA RESULT:      -5.1      0.000      0.000
REMARK  0 active torsions:
REMARK  status: ('A' for Active; 'I' for Inactive)
ROOT
HETATM    1  C1  UNL     1     -33.745   6.225   5.718  1.00 20.00     0.007 A 
HETATM    2  C2  UNL     1     -33.005   7.005   4.830  1.00 20.00     0.007 A 
HETATM    3  C3  UNL     1     -34.581   4.914   3.870  1.00 20.00     0.007 A 
HETATM    4  C4  UNL     1     -33.841   5.694   2.981  1.00 20.00     0.007 A 
HETATM    5  C5  UNL     1     -34.534   5.180   5.238  1.00 20.00    -0.062 A 
HETATM    6  C6  UNL     1     -33.053   6.739   3.461  1.00 20.00    -0.062 A 
HETATM    7  C7  UNL     1     -35.325   4.345   6.188  1.00 20.00     0.048 C 
HETATM    8  C8  UNL     1     -32.262   7.575   2.512  1.00 20.00     0.048 C 
ENDROOT
TORSDOF 0
ENDMDL
MODEL 2
REMARK VINA RESULT:      -5.1      0.041      3.354
REMARK  0 active torsions:
REMARK  status: ('A' for Active; 'I' for Inactive)
ROOT
HETATM    1  C1  UNL     1     -33.022   6.967   4.850  1.00 20.00     0.007 A 
HETATM    2  C2  UNL     1     -33.770   6.182   5.727  1.00 20.00     0.007 A 
HETATM    3  C3  UNL     1     -33.854   5.677   2.986  1.00 20.00     0.007 A 
HETATM    4  C4  UNL     1     -34.603   4.892   3.863  1.00 20.00     0.007 A 
HETATM    5  C5  UNL     1     -33.063   6.715   3.479  1.00 20.00    -0.062 A 
HETATM    6  C6  UNL     1     -34.561   5.144   5.233  1.00 20.00    -0.062 A 
HETATM    7  C7  UNL     1     -32.264   7.554   2.540  1.00 20.00     0.048 C 
HETATM    8  C8  UNL     1     -35.359   4.305   6.172  1.00 20.00     0.048 C 
ENDROOT
TORSDOF 0
ENDMDL
MODEL 3
REMARK VINA RESULT:      -5.1      0.303      1.733
REMARK  0 active torsions:
REMARK  status: ('A' for Active; 'I' for Inactive)
ROOT
HETATM    1  C1  UNL     1     -34.773   4.872   4.185  1.00 20.00     0.007 A 
HETATM    2  C2  UNL     1     -34.052   5.592   3.232  1.00 20.00     0.007 A 
HETATM    3  C3  UNL     1     -33.800   6.220   5.938  1.00 20.00     0.007 A 
HETATM    4  C4  UNL     1     -33.080   6.940   4.985  1.00 20.00     0.007 A 
HETATM    5  C5  UNL     1     -34.647   5.186   5.539  1.00 20.00    -0.062 A 
HETATM    6  C6  UNL     1     -33.205   6.626   3.632  1.00 20.00    -0.062 A 
HETATM    7  C7  UNL     1     -35.418   4.417   6.558  1.00 20.00     0.048 C 
HETATM    8  C8  UNL     1     -32.434   7.393   2.612  1.00 20.00     0.048 C 
ENDROOT
TORSDOF 0
ENDMDL
MODEL 4
REMARK VINA RESULT:      -5.1      0.340      3.776
REMARK  0 active torsions:
REMARK  status: ('A' for Active; 'I' for Inactive)
ROOT
HETATM    1  C1  UNL     1     -34.067   5.577   3.267  1.00 20.00     0.007 A 
HETATM    2  C2  UNL     1     -34.789   4.855   4.218  1.00 20.00     0.007 A 
HETATM    3  C3  UNL     1     -33.101   6.924   5.025  1.00 20.00     0.007 A 
HETATM    4  C4  UNL     1     -33.823   6.202   5.975  1.00 20.00     0.007 A 
HETATM    5  C5  UNL     1     -33.222   6.611   3.670  1.00 20.00    -0.062 A 
HETATM    6  C6  UNL     1     -34.668   5.169   5.572  1.00 20.00    -0.062 A 
HETATM    7  C7  UNL     1     -32.449   7.383   2.655  1.00 20.00     0.048 C 
HETATM    8  C8  UNL     1     -35.442   4.398   6.587  1.00 20.00     0.048 C 
ENDROOT
TORSDOF 0
ENDMDL
MODEL 5
REMARK VINA RESULT:      -4.0      9.460     10.626
REMARK  0 active torsions:
REMARK  status: ('A' for Active; 'I' for Inactive)
ROOT
HETATM    1  C1  UNL     1     -40.790   5.238  -1.035  1.00 20.00     0.007 A 
HETATM    2  C2  UNL     1     -40.940   3.956  -1.565  1.00 20.00     0.007 A 
HETATM    3  C3  UNL     1     -42.536   6.045  -2.498  1.00 20.00     0.007 A 
HETATM    4  C4  UNL     1     -42.685   4.763  -3.027  1.00 20.00     0.007 A 
HETATM    5  C5  UNL     1     -41.588   6.283  -1.502  1.00 20.00    -0.062 A 
HETATM    6  C6  UNL     1     -41.887   3.719  -2.561  1.00 20.00    -0.062 A 
HETATM    7  C7  UNL     1     -41.429   7.654  -0.936  1.00 20.00     0.048 C 
HETATM    8  C8  UNL     1     -42.045   2.348  -3.127  1.00 20.00     0.048 C 
ENDROOT
TORSDOF 0
ENDMDL
MODEL 6
REMARK VINA RESULT:      -4.0      9.546     10.535
REMARK  0 active torsions:
REMARK  status: ('A' for Active; 'I' for Inactive)
ROOT
HETATM    1  C1  UNL     1     -40.973   4.008  -1.577  1.00 20.00     0.007 A 
HETATM    2  C2  UNL     1     -40.891   5.306  -1.071  1.00 20.00     0.007 A 
HETATM    3  C3  UNL     1     -42.765   4.693  -3.044  1.00 20.00     0.007 A 
HETATM    4  C4  UNL     1     -42.684   5.991  -2.538  1.00 20.00     0.007 A 
HETATM    5  C5  UNL     1     -41.910   3.702  -2.563  1.00 20.00    -0.062 A 
HETATM    6  C6  UNL     1     -41.747   6.297  -1.552  1.00 20.00    -0.062 A 
HETATM    7  C7  UNL     1     -41.997   2.315  -3.105  1.00 20.00     0.048 C 
HETATM    8  C8  UNL     1     -41.660   7.683  -1.009  1.00 20.00     0.048 C 
ENDROOT
TORSDOF 0
ENDMDL
MODEL 7
REMARK VINA RESULT:      -3.9     11.997     13.129
REMARK  0 active torsions:
REMARK  status: ('A' for Active; 'I' for Inactive)
ROOT
HETATM    1  C1  UNL     1     -33.599  16.671  -3.775  1.00 20.00     0.007 A 
HETATM    2  C2  UNL     1     -33.563  16.358  -5.134  1.00 20.00     0.007 A 
HETATM    3  C3  UNL     1     -35.264  14.957  -3.424  1.00 20.00     0.007 A 
HETATM    4  C4  UNL     1     -35.229  14.644  -4.782  1.00 20.00     0.007 A 
HETATM    5  C5  UNL     1     -34.450  15.971  -2.920  1.00 20.00    -0.062 A 
HETATM    6  C6  UNL     1     -34.379  15.344  -5.638  1.00 20.00    -0.062 A 
HETATM    7  C7  UNL     1     -34.488  16.306  -1.467  1.00 20.00     0.048 C 
HETATM    8  C8  UNL     1     -34.341  15.010  -7.091  1.00 20.00     0.048 C 
ENDROOT
TORSDOF 0
ENDMDL
MODEL 8
REMARK VINA RESULT:      -3.9     11.957     13.079
REMARK  0 active torsions:
REMARK  status: ('A' for Active; 'I' for Inactive)
ROOT
HETATM    1  C1  UNL     1     -35.355  14.927  -3.298  1.00 20.00     0.007 A 
HETATM    2  C2  UNL     1     -35.317  14.578  -4.648  1.00 20.00     0.007 A 
HETATM    3  C3  UNL     1     -33.680  16.623  -3.690  1.00 20.00     0.007 A 
HETATM    4  C4  UNL     1     -33.643  16.274  -5.040  1.00 20.00     0.007 A 
HETATM    5  C5  UNL     1     -34.536  15.949  -2.818  1.00 20.00    -0.062 A 
HETATM    6  C6  UNL     1     -34.461  15.252  -5.519  1.00 20.00    -0.062 A 
HETATM    7  C7  UNL     1     -34.576  16.323  -1.375  1.00 20.00     0.048 C 
HETATM    8  C8  UNL     1     -34.420  14.877  -6.962  1.00 20.00     0.048 C 
ENDROOT
TORSDOF 0
ENDMDL
MODEL 9
REMARK VINA RESULT:      -3.8     12.005     13.341
REMARK  0 active torsions:
REMARK  status: ('A' for Active; 'I' for Inactive)
ROOT
HETATM    1  C1  UNL     1     -33.668  16.305  -5.252  1.00 20.00     0.007 A 
HETATM    2  C2  UNL     1     -33.677  16.644  -3.899  1.00 20.00     0.007 A 
HETATM    3  C3  UNL     1     -35.240  14.523  -4.816  1.00 20.00     0.007 A 
HETATM    4  C4  UNL     1     -35.249  14.862  -3.463  1.00 20.00     0.007 A 
HETATM    5  C5  UNL     1     -34.449  15.244  -5.711  1.00 20.00    -0.062 A 
HETATM    6  C6  UNL     1     -34.468  15.922  -3.004  1.00 20.00    -0.062 A 
HETATM    7  C7  UNL     1     -34.440  14.882  -7.157  1.00 20.00     0.048 C 
HETATM    8  C8  UNL     1     -34.475  16.284  -1.558  1.00 20.00     0.048 C 
ENDROOT
TORSDOF 0
ENDMDL
