MODEL 1
REMARK VINA RESULT:      -5.4      0.000      0.000
REMARK  1 active torsions:
REMARK  status: ('A' for Active; 'I' for Inactive)
REMARK    1  A    between atoms: C6_6  and  N8_8 
ROOT
HETATM    1  N7  UNL     1     -31.127   7.649   3.705  1.00 20.00     0.068 N 
HETATM    2  N8  UNL     1     -33.296   6.835   3.109  1.00 20.00    -0.073 NA
HETATM    3  N9  UNL     1     -32.162   7.259   3.424  1.00 20.00    -0.162 NA
ENDROOT
BRANCH   2   4
HETATM    4  C6  UNL     1     -33.905   6.102   4.133  1.00 20.00     0.093 A 
HETATM    5  C4  UNL     1     -34.654   4.967   3.827  1.00 20.00     0.034 A 
HETATM    6  C2  UNL     1     -35.261   4.235   4.849  1.00 20.00     0.002 A 
HETATM    7  C1  UNL     1     -35.119   4.641   6.175  1.00 20.00     0.000 A 
HETATM    8  C3  UNL     1     -34.371   5.777   6.481  1.00 20.00     0.002 A 
HETATM    9  C5  UNL     1     -33.764   6.508   5.459  1.00 20.00     0.034 A 
ENDBRANCH   2   4
TORSDOF 1
ENDMDL
MODEL 2
REMARK VINA RESULT:      -5.4      0.020      1.610
REMARK  1 active torsions:
REMARK  status: ('A' for Active; 'I' for Inactive)
REMARK    1  A    between atoms: C6_6  and  N8_8 
ROOT
HETATM    1  N7  UNL     1     -31.101   7.632   3.714  1.00 20.00     0.068 N 
HETATM    2  N8  UNL     1     -33.281   6.851   3.117  1.00 20.00    -0.073 NA
HETATM    3  N9  UNL     1     -32.141   7.258   3.432  1.00 20.00    -0.162 NA
ENDROOT
BRANCH   2   4
HETATM    4  C6  UNL     1     -33.896   6.116   4.135  1.00 20.00     0.093 A 
HETATM    5  C4  UNL     1     -33.763   6.518   5.464  1.00 20.00     0.034 A 
HETATM    6  C2  UNL     1     -34.377   5.783   6.479  1.00 20.00     0.002 A 
HETATM    7  C1  UNL     1     -35.124   4.649   6.166  1.00 20.00     0.000 A 
HETATM    8  C3  UNL     1     -35.257   4.246   4.837  1.00 20.00     0.002 A 
HETATM    9  C5  UNL     1     -34.642   4.980   3.821  1.00 20.00     0.034 A 
ENDBRANCH   2   4
TORSDOF 1
ENDMDL
MODEL 3
REMARK VINA RESULT:      -4.3     10.329     11.249
REMARK  1 active torsions:
REMARK  status: ('A' for Active; 'I' for Inactive)
REMARK    1  A    between atoms: C6_6  and  N8_8 
ROOT
HETATM    1  N7  UNL     1     -42.973   8.368  -4.840  1.00 20.00     0.068 N 
HETATM    2  N8  UNL     1     -43.350   6.321  -3.663  1.00 20.00    -0.073 NA
HETATM    3  N9  UNL     1     -43.150   7.392  -4.276  1.00 20.00    -0.162 NA
ENDROOT
BRANCH   2   4
HETATM    4  C6  UNL     1     -42.442   6.116  -2.618  1.00 20.00     0.093 A 
HETATM    5  C4  UNL     1     -41.971   7.201  -1.881  1.00 20.00     0.034 A 
HETATM    6  C2  UNL     1     -41.066   6.995  -0.838  1.00 20.00     0.002 A 
HETATM    7  C1  UNL     1     -40.633   5.706  -0.535  1.00 20.00     0.000 A 
HETATM    8  C3  UNL     1     -41.103   4.620  -1.274  1.00 20.00     0.002 A 
HETATM    9  C5  UNL     1     -42.008   4.825  -2.316  1.00 20.00     0.034 A 
ENDBRANCH   2   4
TORSDOF 1
ENDMDL
MODEL 4
REMARK VINA RESULT:      -4.2     11.923     12.221
REMARK  1 active torsions:
REMARK  status: ('A' for Active; 'I' for Inactive)
REMARK    1  A    between atoms: C6_6  and  N8_8 
ROOT
HETATM    1  N7  UNL     1     -34.788  16.930  -0.072  1.00 20.00     0.068 N 
HETATM    2  N8  UNL     1     -33.742  16.684  -2.208  1.00 20.00    -0.073 NA
HETATM    3  N9  UNL     1     -34.291  16.810  -1.092  1.00 20.00    -0.162 NA
ENDROOT
BRANCH   2   4
HETATM    4  C6  UNL     1     -34.232  15.594  -2.935  1.00 20.00     0.093 A 
HETATM    5  C4  UNL     1     -33.349  14.649  -3.456  1.00 20.00     0.034 A 
HETATM    6  C2  UNL     1     -33.839  13.562  -4.181  1.00 20.00     0.002 A 
HETATM    7  C1  UNL     1     -35.211  13.420  -4.383  1.00 20.00     0.000 A 
HETATM    8  C3  UNL     1     -36.094  14.365  -3.863  1.00 20.00     0.002 A 
HETATM    9  C5  UNL     1     -35.604  15.453  -3.138  1.00 20.00     0.034 A 
ENDBRANCH   2   4
TORSDOF 1
ENDMDL
MODEL 5
REMARK VINA RESULT:      -4.2     11.915     12.210
REMARK  1 active torsions:
REMARK  status: ('A' for Active; 'I' for Inactive)
REMARK    1  A    between atoms: C6_6  and  N8_8 
ROOT
HETATM    1  N7  UNL     1     -34.788  16.930  -0.071  1.00 20.00     0.068 N 
HETATM    2  N8  UNL     1     -33.735  16.680  -2.204  1.00 20.00    -0.073 NA
HETATM    3  N9  UNL     1     -34.287  16.807  -1.089  1.00 20.00    -0.162 NA
ENDROOT
BRANCH   2   4
HETATM    4  C6  UNL     1     -34.224  15.589  -2.930  1.00 20.00     0.093 A 
HETATM    5  C4  UNL     1     -35.595  15.449  -3.139  1.00 20.00     0.034 A 
HETATM    6  C2  UNL     1     -36.082  14.361  -3.865  1.00 20.00     0.002 A 
HETATM    7  C1  UNL     1     -35.198  13.414  -4.380  1.00 20.00     0.000 A 
HETATM    8  C3  UNL     1     -33.827  13.554  -4.170  1.00 20.00     0.002 A 
HETATM    9  C5  UNL     1     -33.339  14.642  -3.444  1.00 20.00     0.034 A 
ENDBRANCH   2   4
TORSDOF 1
ENDMDL
MODEL 6
REMARK VINA RESULT:      -4.2     12.175     12.875
REMARK  1 active torsions:
REMARK  status: ('A' for Active; 'I' for Inactive)
REMARK    1  A    between atoms: C6_6  and  N8_8 
ROOT
HETATM    1  N7  UNL     1     -38.369  15.442  -5.739  1.00 20.00     0.068 N 
HETATM    2  N8  UNL     1     -37.458  14.319  -3.834  1.00 20.00    -0.073 NA
HETATM    3  N9  UNL     1     -37.931  14.907  -4.831  1.00 20.00    -0.162 NA
ENDROOT
BRANCH   2   4
HETATM    4  C6  UNL     1     -36.065  14.415  -3.757  1.00 20.00     0.093 A 
HETATM    5  C4  UNL     1     -35.475  15.495  -3.102  1.00 20.00     0.034 A 
HETATM    6  C2  UNL     1     -34.084  15.589  -3.026  1.00 20.00     0.002 A 
HETATM    7  C1  UNL     1     -33.286  14.604  -3.606  1.00 20.00     0.000 A 
HETATM    8  C3  UNL     1     -33.876  13.525  -4.262  1.00 20.00     0.002 A 
HETATM    9  C5  UNL     1     -35.266  13.430  -4.338  1.00 20.00     0.034 A 
ENDBRANCH   2   4
TORSDOF 1
ENDMDL
MODEL 7
REMARK VINA RESULT:      -4.2     12.185     13.232
REMARK  1 active torsions:
REMARK  status: ('A' for Active; 'I' for Inactive)
REMARK    1  A    between atoms: C6_6  and  N8_8 
ROOT
HETATM    1  N7  UNL     1     -38.560  14.905  -3.713  1.00 20.00     0.068 N 
HETATM    2  N8  UNL     1     -36.498  13.715  -3.934  1.00 20.00    -0.073 NA
HETATM    3  N9  UNL     1     -37.574  14.340  -3.819  1.00 20.00    -0.162 NA
ENDROOT
BRANCH   2   4
HETATM    4  C6  UNL     1     -35.404  14.555  -4.166  1.00 20.00     0.093 A 
HETATM    5  C4  UNL     1     -35.112  14.977  -5.462  1.00 20.00     0.034 A 
HETATM    6  C2  UNL     1     -34.020  15.815  -5.693  1.00 20.00     0.002 A 
HETATM    7  C1  UNL     1     -33.222  16.230  -4.628  1.00 20.00     0.000 A 
HETATM    8  C3  UNL     1     -33.513  15.807  -3.331  1.00 20.00     0.002 A 
HETATM    9  C5  UNL     1     -34.605  14.969  -3.100  1.00 20.00     0.034 A 
ENDBRANCH   2   4
TORSDOF 1
ENDMDL
MODEL 8
REMARK VINA RESULT:      -4.1     12.203     13.324
REMARK  1 active torsions:
REMARK  status: ('A' for Active; 'I' for Inactive)
REMARK    1  A    between atoms: C6_6  and  N8_8 
ROOT
HETATM    1  N7  UNL     1     -38.557  14.907  -3.708  1.00 20.00     0.068 N 
HETATM    2  N8  UNL     1     -36.488  13.726  -3.918  1.00 20.00    -0.073 NA
HETATM    3  N9  UNL     1     -37.568  14.346  -3.809  1.00 20.00    -0.162 NA
ENDROOT
BRANCH   2   4
HETATM    4  C6  UNL     1     -35.400  14.569  -4.169  1.00 20.00     0.093 A 
HETATM    5  C4  UNL     1     -34.599  15.005  -3.115  1.00 20.00     0.034 A 
HETATM    6  C2  UNL     1     -33.513  15.846  -3.366  1.00 20.00     0.002 A 
HETATM    7  C1  UNL     1     -33.231  16.250  -4.670  1.00 20.00     0.000 A 
HETATM    8  C3  UNL     1     -34.034  15.815  -5.724  1.00 20.00     0.002 A 
HETATM    9  C5  UNL     1     -35.119  14.974  -5.473  1.00 20.00     0.034 A 
ENDBRANCH   2   4
TORSDOF 1
ENDMDL
MODEL 9
REMARK VINA RESULT:      -4.1      9.970     10.833
REMARK  1 active torsions:
REMARK  status: ('A' for Active; 'I' for Inactive)
REMARK    1  A    between atoms: C6_6  and  N8_8 
ROOT
HETATM    1  N7  UNL     1     -41.119   2.086  -3.768  1.00 20.00     0.068 N 
HETATM    2  N8  UNL     1     -42.546   3.249  -2.241  1.00 20.00    -0.073 NA
HETATM    3  N9  UNL     1     -41.798   2.643  -3.039  1.00 20.00    -0.162 NA
ENDROOT
BRANCH   2   4
HETATM    4  C6  UNL     1     -42.045   4.501  -1.869  1.00 20.00     0.093 A 
HETATM    5  C4  UNL     1     -42.396   5.636  -2.597  1.00 20.00     0.034 A 
HETATM    6  C2  UNL     1     -41.896   6.885  -2.226  1.00 20.00     0.002 A 
HETATM    7  C1  UNL     1     -41.045   6.997  -1.128  1.00 20.00     0.000 A 
HETATM    8  C3  UNL     1     -40.692   5.860  -0.400  1.00 20.00     0.002 A 
HETATM    9  C5  UNL     1     -41.193   4.611  -0.772  1.00 20.00     0.034 A 
ENDBRANCH   2   4
TORSDOF 1
ENDMDL
