MODEL 1
REMARK VINA RESULT:      -6.4      0.000      0.000
REMARK  0 active torsions:
REMARK  status: ('A' for Active; 'I' for Inactive)
ROOT
HETATM    1  C1  UNL     1     -32.152   7.639   2.516  1.00 20.00     0.018 C 
HETATM    2  C2  UNL     1     -32.824   7.005   3.282  1.00 20.00    -0.078 C 
HETATM    3  C3  UNL     1     -35.185   4.775   5.975  1.00 20.00     0.000 A 
HETATM    4  C4  UNL     1     -35.227   4.491   4.610  1.00 20.00     0.001 A 
HETATM    5  C5  UNL     1     -34.361   5.795   6.450  1.00 20.00     0.001 A 
HETATM    6  C6  UNL     1     -34.447   5.228   3.719  1.00 20.00     0.020 A 
HETATM    7  C7  UNL     1     -33.580   6.533   5.560  1.00 20.00     0.020 A 
HETATM    8  C8  UNL     1     -33.623   6.249   4.195  1.00 20.00     0.016 A 
ENDROOT
TORSDOF 0
ENDMDL
MODEL 2
REMARK VINA RESULT:      -6.4      0.009      1.709
REMARK  0 active torsions:
REMARK  status: ('A' for Active; 'I' for Inactive)
ROOT
HETATM    1  C1  UNL     1     -32.151   7.638   2.509  1.00 20.00     0.018 C 
HETATM    2  C2  UNL     1     -32.821   7.004   3.277  1.00 20.00    -0.078 C 
HETATM    3  C3  UNL     1     -35.180   4.776   5.973  1.00 20.00     0.000 A 
HETATM    4  C4  UNL     1     -34.349   5.792   6.447  1.00 20.00     0.001 A 
HETATM    5  C5  UNL     1     -35.231   4.497   4.607  1.00 20.00     0.001 A 
HETATM    6  C6  UNL     1     -33.570   6.528   5.556  1.00 20.00     0.020 A 
HETATM    7  C7  UNL     1     -34.451   5.234   3.715  1.00 20.00     0.020 A 
HETATM    8  C8  UNL     1     -33.621   6.249   4.190  1.00 20.00     0.016 A 
ENDROOT
TORSDOF 0
ENDMDL
MODEL 3
REMARK VINA RESULT:      -4.7      1.369      2.811
REMARK  0 active torsions:
REMARK  status: ('A' for Active; 'I' for Inactive)
ROOT
HETATM    1  C1  UNL     1     -33.252   8.003   7.459  1.00 20.00     0.018 C 
HETATM    2  C2  UNL     1     -33.663   7.153   6.717  1.00 20.00    -0.078 C 
HETATM    3  C3  UNL     1     -35.106   4.168   4.110  1.00 20.00     0.000 A 
HETATM    4  C4  UNL     1     -35.151   3.970   5.490  1.00 20.00     0.001 A 
HETATM    5  C5  UNL     1     -34.585   5.353   3.591  1.00 20.00     0.001 A 
HETATM    6  C6  UNL     1     -34.674   4.957   6.352  1.00 20.00     0.020 A 
HETATM    7  C7  UNL     1     -34.107   6.341   4.454  1.00 20.00     0.020 A 
HETATM    8  C8  UNL     1     -34.152   6.142   5.833  1.00 20.00     0.016 A 
ENDROOT
TORSDOF 0
ENDMDL
MODEL 4
REMARK VINA RESULT:      -4.5      9.166     10.348
REMARK  0 active torsions:
REMARK  status: ('A' for Active; 'I' for Inactive)
ROOT
HETATM    1  C1  UNL     1     -41.975   2.348  -3.154  1.00 20.00     0.018 C 
HETATM    2  C2  UNL     1     -41.807   3.420  -2.640  1.00 20.00    -0.078 C 
HETATM    3  C3  UNL     1     -41.217   7.187  -0.835  1.00 20.00     0.000 A 
HETATM    4  C4  UNL     1     -42.006   7.078  -1.981  1.00 20.00     0.001 A 
HETATM    5  C5  UNL     1     -40.625   6.050  -0.286  1.00 20.00     0.001 A 
HETATM    6  C6  UNL     1     -42.201   5.833  -2.578  1.00 20.00     0.020 A 
HETATM    7  C7  UNL     1     -40.819   4.804  -0.883  1.00 20.00     0.020 A 
HETATM    8  C8  UNL     1     -41.607   4.696  -2.028  1.00 20.00     0.016 A 
ENDROOT
TORSDOF 0
ENDMDL
MODEL 5
REMARK VINA RESULT:      -4.4     11.753     12.196
REMARK  0 active torsions:
REMARK  status: ('A' for Active; 'I' for Inactive)
ROOT
HETATM    1  C1  UNL     1     -34.432  17.047  -0.687  1.00 20.00     0.018 C 
HETATM    2  C2  UNL     1     -34.591  16.273  -1.590  1.00 20.00    -0.078 C 
HETATM    3  C3  UNL     1     -35.151  13.553  -4.766  1.00 20.00     0.000 A 
HETATM    4  C4  UNL     1     -33.881  13.733  -4.217  1.00 20.00     0.001 A 
HETATM    5  C5  UNL     1     -36.236  14.272  -4.264  1.00 20.00     0.001 A 
HETATM    6  C6  UNL     1     -33.696  14.633  -3.167  1.00 20.00     0.020 A 
HETATM    7  C7  UNL     1     -36.051  15.172  -3.214  1.00 20.00     0.020 A 
HETATM    8  C8  UNL     1     -34.781  15.352  -2.666  1.00 20.00     0.016 A 
ENDROOT
TORSDOF 0
ENDMDL
MODEL 6
REMARK VINA RESULT:      -4.4     11.752     12.166
REMARK  0 active torsions:
REMARK  status: ('A' for Active; 'I' for Inactive)
ROOT
HETATM    1  C1  UNL     1     -34.430  17.047  -0.688  1.00 20.00     0.018 C 
HETATM    2  C2  UNL     1     -34.589  16.272  -1.591  1.00 20.00    -0.078 C 
HETATM    3  C3  UNL     1     -35.148  13.551  -4.766  1.00 20.00     0.000 A 
HETATM    4  C4  UNL     1     -36.232  14.272  -4.265  1.00 20.00     0.001 A 
HETATM    5  C5  UNL     1     -33.878  13.731  -4.218  1.00 20.00     0.001 A 
HETATM    6  C6  UNL     1     -36.048  15.171  -3.215  1.00 20.00     0.020 A 
HETATM    7  C7  UNL     1     -33.693  14.631  -3.167  1.00 20.00     0.020 A 
HETATM    8  C8  UNL     1     -34.778  15.350  -2.667  1.00 20.00     0.016 A 
ENDROOT
TORSDOF 0
ENDMDL
MODEL 7
REMARK VINA RESULT:      -4.2     11.499     12.787
REMARK  0 active torsions:
REMARK  status: ('A' for Active; 'I' for Inactive)
ROOT
HETATM    1  C1  UNL     1     -34.576  16.508  -1.034  1.00 20.00     0.018 C 
HETATM    2  C2  UNL     1     -34.633  15.965  -2.103  1.00 20.00    -0.078 C 
HETATM    3  C3  UNL     1     -34.829  14.057  -5.861  1.00 20.00     0.000 A 
HETATM    4  C4  UNL     1     -35.118  15.418  -5.753  1.00 20.00     0.001 A 
HETATM    5  C5  UNL     1     -34.474  13.328  -4.726  1.00 20.00     0.001 A 
HETATM    6  C6  UNL     1     -35.053  16.049  -4.511  1.00 20.00     0.020 A 
HETATM    7  C7  UNL     1     -34.409  13.959  -3.483  1.00 20.00     0.020 A 
HETATM    8  C8  UNL     1     -34.699  15.319  -3.376  1.00 20.00     0.016 A 
ENDROOT
TORSDOF 0
ENDMDL
MODEL 8
REMARK VINA RESULT:      -4.2      1.344      1.866
REMARK  0 active torsions:
REMARK  status: ('A' for Active; 'I' for Inactive)
ROOT
HETATM    1  C1  UNL     1     -34.384   5.207   1.488  1.00 20.00     0.018 C 
HETATM    2  C2  UNL     1     -34.417   5.285   2.685  1.00 20.00    -0.078 C 
HETATM    3  C3  UNL     1     -34.533   5.558   6.894  1.00 20.00     0.000 A 
HETATM    4  C4  UNL     1     -35.129   4.474   6.248  1.00 20.00     0.001 A 
HETATM    5  C5  UNL     1     -33.898   6.551   6.148  1.00 20.00     0.001 A 
HETATM    6  C6  UNL     1     -35.091   4.384   4.856  1.00 20.00     0.020 A 
HETATM    7  C7  UNL     1     -33.860   6.461   4.756  1.00 20.00     0.020 A 
HETATM    8  C8  UNL     1     -34.456   5.378   4.111  1.00 20.00     0.016 A 
ENDROOT
TORSDOF 0
ENDMDL
MODEL 9
REMARK VINA RESULT:      -4.0     11.919     13.168
REMARK  0 active torsions:
REMARK  status: ('A' for Active; 'I' for Inactive)
ROOT
HETATM    1  C1  UNL     1     -34.787  17.016  -0.089  1.00 20.00     0.018 C 
HETATM    2  C2  UNL     1     -34.547  16.709  -1.225  1.00 20.00    -0.078 C 
HETATM    3  C3  UNL     1     -33.706  15.631  -5.216  1.00 20.00     0.000 A 
HETATM    4  C4  UNL     1     -34.197  14.677  -4.324  1.00 20.00     0.001 A 
HETATM    5  C5  UNL     1     -33.494  16.942  -4.788  1.00 20.00     0.001 A 
HETATM    6  C6  UNL     1     -34.475  15.033  -3.004  1.00 20.00     0.020 A 
HETATM    7  C7  UNL     1     -33.772  17.299  -3.468  1.00 20.00     0.020 A 
HETATM    8  C8  UNL     1     -34.262  16.344  -2.577  1.00 20.00     0.016 A 
ENDROOT
TORSDOF 0
ENDMDL
