MODEL 1
REMARK VINA RESULT:      -5.3      0.000      0.000
REMARK  2 active torsions:
REMARK  status: ('A' for Active; 'I' for Inactive)
REMARK    1  A    between atoms: C6_6  and  C10_10 
REMARK    2  A    between atoms: C9_9  and  C10_10 
ROOT
HETATM    1  C1  UNL     1     -35.138   4.673   5.641  1.00 20.00     0.000 A 
HETATM    2  C2  UNL     1     -34.434   5.626   6.377  1.00 20.00     0.001 A 
HETATM    3  C3  UNL     1     -35.032   4.647   4.250  1.00 20.00     0.001 A 
HETATM    4  C4  UNL     1     -33.624   6.553   5.723  1.00 20.00     0.007 A 
HETATM    5  C5  UNL     1     -34.221   5.575   3.596  1.00 20.00     0.007 A 
HETATM    6  C6  UNL     1     -33.517   6.527   4.332  1.00 20.00    -0.054 A 
ENDROOT
BRANCH   6   7
HETATM    7  C10 UNL     1     -32.635   7.537   3.618  1.00 20.00     0.014 C 
HETATM    8  C8  UNL     1     -31.283   7.666   4.330  1.00 20.00     0.015 C 
BRANCH   7   9
HETATM    9  C9  UNL     1     -32.426   7.214   2.125  1.00 20.00     0.004 C 
HETATM   10  C7  UNL     1     -31.908   8.402   1.323  1.00 20.00     0.006 C 
ENDBRANCH   7   9
ENDBRANCH   6   7
TORSDOF 2
ENDMDL
MODEL 2
REMARK VINA RESULT:      -5.3      0.007      1.528
REMARK  2 active torsions:
REMARK  status: ('A' for Active; 'I' for Inactive)
REMARK    1  A    between atoms: C6_6  and  C10_10 
REMARK    2  A    between atoms: C9_9  and  C10_10 
ROOT
HETATM    1  C1  UNL     1     -35.141   4.674   5.644  1.00 20.00     0.000 A 
HETATM    2  C2  UNL     1     -35.034   4.646   4.254  1.00 20.00     0.001 A 
HETATM    3  C3  UNL     1     -34.439   5.630   6.379  1.00 20.00     0.001 A 
HETATM    4  C4  UNL     1     -34.225   5.574   3.598  1.00 20.00     0.007 A 
HETATM    5  C5  UNL     1     -33.631   6.558   5.722  1.00 20.00     0.007 A 
HETATM    6  C6  UNL     1     -33.524   6.531   4.332  1.00 20.00    -0.054 A 
ENDROOT
BRANCH   6   7
HETATM    7  C10 UNL     1     -32.642   7.541   3.619  1.00 20.00     0.014 C 
HETATM    8  C8  UNL     1     -31.291   7.672   4.333  1.00 20.00     0.015 C 
BRANCH   7   9
HETATM    9  C9  UNL     1     -32.430   7.214   2.127  1.00 20.00     0.004 C 
HETATM   10  C7  UNL     1     -31.908   8.400   1.324  1.00 20.00     0.006 C 
ENDBRANCH   7   9
ENDBRANCH   6   7
TORSDOF 2
ENDMDL
MODEL 3
REMARK VINA RESULT:      -4.8     11.148     11.890
REMARK  2 active torsions:
REMARK  status: ('A' for Active; 'I' for Inactive)
REMARK    1  A    between atoms: C6_6  and  C10_10 
REMARK    2  A    between atoms: C9_9  and  C10_10 
ROOT
HETATM    1  C1  UNL     1     -35.070  13.307  -4.486  1.00 20.00     0.000 A 
HETATM    2  C2  UNL     1     -33.721  13.502  -4.189  1.00 20.00     0.001 A 
HETATM    3  C3  UNL     1     -36.030  14.188  -3.988  1.00 20.00     0.001 A 
HETATM    4  C4  UNL     1     -33.332  14.580  -3.393  1.00 20.00     0.007 A 
HETATM    5  C5  UNL     1     -35.640  15.266  -3.192  1.00 20.00     0.007 A 
HETATM    6  C6  UNL     1     -34.292  15.462  -2.895  1.00 20.00    -0.054 A 
ENDROOT
BRANCH   6   7
HETATM    7  C10 UNL     1     -33.868  16.634  -2.027  1.00 20.00     0.014 C 
HETATM    8  C8  UNL     1     -33.976  17.948  -2.812  1.00 20.00     0.015 C 
BRANCH   7   9
HETATM    9  C9  UNL     1     -34.661  16.732  -0.708  1.00 20.00     0.004 C 
HETATM   10  C7  UNL     1     -34.207  17.884   0.179  1.00 20.00     0.006 C 
ENDBRANCH   7   9
ENDBRANCH   6   7
TORSDOF 2
ENDMDL
MODEL 4
REMARK VINA RESULT:      -4.8     11.139     11.877
REMARK  2 active torsions:
REMARK  status: ('A' for Active; 'I' for Inactive)
REMARK    1  A    between atoms: C6_6  and  C10_10 
REMARK    2  A    between atoms: C9_9  and  C10_10 
ROOT
HETATM    1  C1  UNL     1     -35.082  13.328  -4.455  1.00 20.00     0.000 A 
HETATM    2  C2  UNL     1     -36.035  14.209  -3.943  1.00 20.00     0.001 A 
HETATM    3  C3  UNL     1     -33.730  13.517  -4.163  1.00 20.00     0.001 A 
HETATM    4  C4  UNL     1     -35.637  15.278  -3.141  1.00 20.00     0.007 A 
HETATM    5  C5  UNL     1     -33.333  14.586  -3.360  1.00 20.00     0.007 A 
HETATM    6  C6  UNL     1     -34.286  15.466  -2.848  1.00 20.00    -0.054 A 
ENDROOT
BRANCH   6   7
HETATM    7  C10 UNL     1     -33.852  16.631  -1.976  1.00 20.00     0.014 C 
HETATM    8  C8  UNL     1     -33.917  17.945  -2.764  1.00 20.00     0.015 C 
BRANCH   7   9
HETATM    9  C9  UNL     1     -34.666  16.748  -0.671  1.00 20.00     0.004 C 
HETATM   10  C7  UNL     1     -34.208  17.899   0.218  1.00 20.00     0.006 C 
ENDBRANCH   7   9
ENDBRANCH   6   7
TORSDOF 2
ENDMDL
MODEL 5
REMARK VINA RESULT:      -4.6     11.106     12.466
REMARK  2 active torsions:
REMARK  status: ('A' for Active; 'I' for Inactive)
REMARK    1  A    between atoms: C6_6  and  C10_10 
REMARK    2  A    between atoms: C9_9  and  C10_10 
ROOT
HETATM    1  C1  UNL     1     -34.796  13.757  -5.810  1.00 20.00     0.000 A 
HETATM    2  C2  UNL     1     -34.461  15.085  -6.079  1.00 20.00     0.001 A 
HETATM    3  C3  UNL     1     -34.801  13.291  -4.496  1.00 20.00     0.001 A 
HETATM    4  C4  UNL     1     -34.133  15.946  -5.032  1.00 20.00     0.007 A 
HETATM    5  C5  UNL     1     -34.473  14.153  -3.449  1.00 20.00     0.007 A 
HETATM    6  C6  UNL     1     -34.139  15.480  -3.717  1.00 20.00    -0.054 A 
ENDROOT
BRANCH   6   7
HETATM    7  C10 UNL     1     -33.780  16.418  -2.577  1.00 20.00     0.014 C 
HETATM    8  C8  UNL     1     -33.765  17.872  -3.063  1.00 20.00     0.015 C 
BRANCH   7   9
HETATM    9  C9  UNL     1     -34.709  16.271  -1.355  1.00 20.00     0.004 C 
HETATM   10  C7  UNL     1     -34.455  17.323  -0.281  1.00 20.00     0.006 C 
ENDBRANCH   7   9
ENDBRANCH   6   7
TORSDOF 2
ENDMDL
MODEL 6
REMARK VINA RESULT:      -4.4     11.175     12.500
REMARK  2 active torsions:
REMARK  status: ('A' for Active; 'I' for Inactive)
REMARK    1  A    between atoms: C6_6  and  C10_10 
REMARK    2  A    between atoms: C9_9  and  C10_10 
ROOT
HETATM    1  C1  UNL     1     -34.100  18.298  -0.286  1.00 20.00     0.000 A 
HETATM    2  C2  UNL     1     -33.569  18.770  -1.487  1.00 20.00     0.001 A 
HETATM    3  C3  UNL     1     -34.678  17.029  -0.230  1.00 20.00     0.001 A 
HETATM    4  C4  UNL     1     -33.614  17.973  -2.631  1.00 20.00     0.007 A 
HETATM    5  C5  UNL     1     -34.723  16.233  -1.375  1.00 20.00     0.007 A 
HETATM    6  C6  UNL     1     -34.191  16.704  -2.574  1.00 20.00    -0.054 A 
ENDROOT
BRANCH   6   7
HETATM    7  C10 UNL     1     -34.241  15.836  -3.820  1.00 20.00     0.014 C 
HETATM    8  C8  UNL     1     -33.242  16.344  -4.868  1.00 20.00     0.015 C 
BRANCH   7   9
HETATM    9  C9  UNL     1     -34.000  14.342  -3.529  1.00 20.00     0.004 C 
HETATM   10  C7  UNL     1     -35.002  13.428  -4.226  1.00 20.00     0.006 C 
ENDBRANCH   7   9
ENDBRANCH   6   7
TORSDOF 2
ENDMDL
MODEL 7
REMARK VINA RESULT:      -4.4     11.204     12.528
REMARK  2 active torsions:
REMARK  status: ('A' for Active; 'I' for Inactive)
REMARK    1  A    between atoms: C6_6  and  C10_10 
REMARK    2  A    between atoms: C9_9  and  C10_10 
ROOT
HETATM    1  C1  UNL     1     -34.113  18.273  -0.405  1.00 20.00     0.000 A 
HETATM    2  C2  UNL     1     -34.646  16.986  -0.330  1.00 20.00     0.001 A 
HETATM    3  C3  UNL     1     -33.628  18.758  -1.620  1.00 20.00     0.001 A 
HETATM    4  C4  UNL     1     -34.693  16.184  -1.470  1.00 20.00     0.007 A 
HETATM    5  C5  UNL     1     -33.676  17.955  -2.760  1.00 20.00     0.007 A 
HETATM    6  C6  UNL     1     -34.209  16.668  -2.685  1.00 20.00    -0.054 A 
ENDROOT
BRANCH   6   7
HETATM    7  C10 UNL     1     -34.260  15.794  -3.926  1.00 20.00     0.014 C 
HETATM    8  C8  UNL     1     -33.284  16.316  -4.989  1.00 20.00     0.015 C 
BRANCH   7   9
HETATM    9  C9  UNL     1     -33.987  14.306  -3.632  1.00 20.00     0.004 C 
HETATM   10  C7  UNL     1     -34.975  13.370  -4.318  1.00 20.00     0.006 C 
ENDBRANCH   7   9
ENDBRANCH   6   7
TORSDOF 2
ENDMDL
MODEL 8
REMARK VINA RESULT:      -4.3     11.398     12.289
REMARK  2 active torsions:
REMARK  status: ('A' for Active; 'I' for Inactive)
REMARK    1  A    between atoms: C6_6  and  C10_10 
REMARK    2  A    between atoms: C9_9  and  C10_10 
ROOT
HETATM    1  C1  UNL     1     -33.467  18.821   1.662  1.00 20.00     0.000 A 
HETATM    2  C2  UNL     1     -34.670  18.124   1.768  1.00 20.00     0.001 A 
HETATM    3  C3  UNL     1     -32.719  18.749   0.486  1.00 20.00     0.001 A 
HETATM    4  C4  UNL     1     -35.126  17.354   0.697  1.00 20.00     0.007 A 
HETATM    5  C5  UNL     1     -33.176  17.980  -0.584  1.00 20.00     0.007 A 
HETATM    6  C6  UNL     1     -34.380  17.283  -0.479  1.00 20.00    -0.054 A 
ENDROOT
BRANCH   6   7
HETATM    7  C10 UNL     1     -34.875  16.445  -1.644  1.00 20.00     0.014 C 
HETATM    8  C8  UNL     1     -36.003  17.172  -2.387  1.00 20.00     0.015 C 
BRANCH   7   9
HETATM    9  C9  UNL     1     -33.755  16.047  -2.627  1.00 20.00     0.004 C 
HETATM   10  C7  UNL     1     -34.055  14.760  -3.386  1.00 20.00     0.006 C 
ENDBRANCH   7   9
ENDBRANCH   6   7
TORSDOF 2
ENDMDL
MODEL 9
REMARK VINA RESULT:      -4.3     10.813     13.314
REMARK  2 active torsions:
REMARK  status: ('A' for Active; 'I' for Inactive)
REMARK    1  A    between atoms: C6_6  and  C10_10 
REMARK    2  A    between atoms: C9_9  and  C10_10 
ROOT
HETATM    1  C1  UNL     1     -35.019  15.706  -7.787  1.00 20.00     0.000 A 
HETATM    2  C2  UNL     1     -34.397  16.640  -6.958  1.00 20.00     0.001 A 
HETATM    3  C3  UNL     1     -35.361  14.449  -7.287  1.00 20.00     0.001 A 
HETATM    4  C4  UNL     1     -34.118  16.318  -5.630  1.00 20.00     0.007 A 
HETATM    5  C5  UNL     1     -35.082  14.127  -5.959  1.00 20.00     0.007 A 
HETATM    6  C6  UNL     1     -34.462  15.061  -5.130  1.00 20.00    -0.054 A 
ENDROOT
BRANCH   6   7
HETATM    7  C10 UNL     1     -34.157  14.709  -3.684  1.00 20.00     0.014 C 
HETATM    8  C8  UNL     1     -33.080  13.619  -3.613  1.00 20.00     0.015 C 
BRANCH   7   9
HETATM    9  C9  UNL     1     -33.742  15.929  -2.837  1.00 20.00     0.004 C 
HETATM   10  C7  UNL     1     -34.711  16.224  -1.698  1.00 20.00     0.006 C 
ENDBRANCH   7   9
ENDBRANCH   6   7
TORSDOF 2
ENDMDL
