MODEL 1
REMARK VINA RESULT:      -6.0      0.000      0.000
REMARK  1 active torsions:
REMARK  status: ('A' for Active; 'I' for Inactive)
REMARK    1  A    between atoms: C6_6  and  C8_8 
ROOT
HETATM    1  C1  UNL     1     -35.169   4.794   6.082  1.00 20.00     0.000 A 
HETATM    2  C2  UNL     1     -34.330   5.851   6.432  1.00 20.00     0.001 A 
HETATM    3  C3  UNL     1     -35.292   4.412   4.746  1.00 20.00     0.001 A 
HETATM    4  C4  UNL     1     -33.613   6.529   5.445  1.00 20.00     0.011 A 
HETATM    5  C5  UNL     1     -34.576   5.090   3.759  1.00 20.00     0.011 A 
HETATM    6  C6  UNL     1     -33.736   6.147   4.109  1.00 20.00    -0.037 A 
ENDROOT
BRANCH   6   7
HETATM    7  C8  UNL     1     -32.989   6.853   3.079  1.00 20.00     0.001 C 
HETATM    8  C7  UNL     1     -31.753   7.303   3.245  1.00 20.00     0.012 C 
ENDBRANCH   6   7
TORSDOF 1
ENDMDL
MODEL 2
REMARK VINA RESULT:      -6.0      0.076      1.710
REMARK  1 active torsions:
REMARK  status: ('A' for Active; 'I' for Inactive)
REMARK    1  A    between atoms: C6_6  and  C8_8 
ROOT
HETATM    1  C1  UNL     1     -35.161   4.711   6.024  1.00 20.00     0.000 A 
HETATM    2  C2  UNL     1     -35.276   4.386   4.672  1.00 20.00     0.001 A 
HETATM    3  C3  UNL     1     -34.333   5.761   6.421  1.00 20.00     0.001 A 
HETATM    4  C4  UNL     1     -34.562   5.110   3.717  1.00 20.00     0.011 A 
HETATM    5  C5  UNL     1     -33.618   6.485   5.466  1.00 20.00     0.011 A 
HETATM    6  C6  UNL     1     -33.733   6.159   4.115  1.00 20.00    -0.037 A 
ENDROOT
BRANCH   6   7
HETATM    7  C8  UNL     1     -32.988   6.915   3.120  1.00 20.00     0.001 C 
HETATM    8  C7  UNL     1     -31.761   7.379   3.315  1.00 20.00     0.012 C 
ENDBRANCH   6   7
TORSDOF 1
ENDMDL
MODEL 3
REMARK VINA RESULT:      -4.7      1.263      2.613
REMARK  1 active torsions:
REMARK  status: ('A' for Active; 'I' for Inactive)
REMARK    1  A    between atoms: C6_6  and  C8_8 
ROOT
HETATM    1  C1  UNL     1     -35.250   4.255   4.278  1.00 20.00     0.000 A 
HETATM    2  C2  UNL     1     -35.140   4.121   5.662  1.00 20.00     0.001 A 
HETATM    3  C3  UNL     1     -34.710   5.372   3.640  1.00 20.00     0.001 A 
HETATM    4  C4  UNL     1     -34.492   5.103   6.409  1.00 20.00     0.011 A 
HETATM    5  C5  UNL     1     -34.062   6.355   4.388  1.00 20.00     0.011 A 
HETATM    6  C6  UNL     1     -33.952   6.221   5.772  1.00 20.00    -0.037 A 
ENDROOT
BRANCH   6   7
HETATM    7  C8  UNL     1     -33.276   7.246   6.551  1.00 20.00     0.001 C 
HETATM    8  C7  UNL     1     -33.848   7.915   7.542  1.00 20.00     0.012 C 
ENDBRANCH   6   7
TORSDOF 1
ENDMDL
MODEL 4
REMARK VINA RESULT:      -4.7      1.270      2.733
REMARK  1 active torsions:
REMARK  status: ('A' for Active; 'I' for Inactive)
REMARK    1  A    between atoms: C6_6  and  C8_8 
ROOT
HETATM    1  C1  UNL     1     -35.235   4.267   4.269  1.00 20.00     0.000 A 
HETATM    2  C2  UNL     1     -34.709   5.399   3.647  1.00 20.00     0.001 A 
HETATM    3  C3  UNL     1     -35.119   4.112   5.650  1.00 20.00     0.001 A 
HETATM    4  C4  UNL     1     -34.066   6.377   4.405  1.00 20.00     0.011 A 
HETATM    5  C5  UNL     1     -34.476   5.090   6.409  1.00 20.00     0.011 A 
HETATM    6  C6  UNL     1     -33.950   6.222   5.787  1.00 20.00    -0.037 A 
ENDROOT
BRANCH   6   7
HETATM    7  C8  UNL     1     -33.279   7.241   6.579  1.00 20.00     0.001 C 
HETATM    8  C7  UNL     1     -33.865   7.917   7.558  1.00 20.00     0.012 C 
ENDBRANCH   6   7
TORSDOF 1
ENDMDL
MODEL 5
REMARK VINA RESULT:      -4.5      0.866      3.720
REMARK  1 active torsions:
REMARK  status: ('A' for Active; 'I' for Inactive)
REMARK    1  A    between atoms: C6_6  and  C8_8 
ROOT
HETATM    1  C1  UNL     1     -32.902   6.309   2.490  1.00 20.00     0.000 A 
HETATM    2  C2  UNL     1     -34.037   5.500   2.543  1.00 20.00     0.001 A 
HETATM    3  C3  UNL     1     -32.380   6.855   3.662  1.00 20.00     0.001 A 
HETATM    4  C4  UNL     1     -34.651   5.237   3.767  1.00 20.00     0.011 A 
HETATM    5  C5  UNL     1     -32.993   6.593   4.887  1.00 20.00     0.011 A 
HETATM    6  C6  UNL     1     -34.128   5.784   4.940  1.00 20.00    -0.037 A 
ENDROOT
BRANCH   6   7
HETATM    7  C8  UNL     1     -34.767   5.511   6.218  1.00 20.00     0.001 C 
HETATM    8  C7  UNL     1     -35.224   4.317   6.572  1.00 20.00     0.012 C 
ENDBRANCH   6   7
TORSDOF 1
ENDMDL
MODEL 6
REMARK VINA RESULT:      -4.5      1.086      3.113
REMARK  1 active torsions:
REMARK  status: ('A' for Active; 'I' for Inactive)
REMARK    1  A    between atoms: C6_6  and  C8_8 
ROOT
HETATM    1  C1  UNL     1     -34.069   5.387   2.557  1.00 20.00     0.000 A 
HETATM    2  C2  UNL     1     -35.117   5.013   3.398  1.00 20.00     0.001 A 
HETATM    3  C3  UNL     1     -33.007   6.138   3.059  1.00 20.00     0.001 A 
HETATM    4  C4  UNL     1     -35.104   5.389   4.741  1.00 20.00     0.011 A 
HETATM    5  C5  UNL     1     -32.993   6.516   4.403  1.00 20.00     0.011 A 
HETATM    6  C6  UNL     1     -34.041   6.141   5.243  1.00 20.00    -0.037 A 
ENDROOT
BRANCH   6   7
HETATM    7  C8  UNL     1     -34.026   6.534   6.643  1.00 20.00     0.001 C 
HETATM    8  C7  UNL     1     -33.425   7.627   7.095  1.00 20.00     0.012 C 
ENDBRANCH   6   7
TORSDOF 1
ENDMDL
MODEL 7
REMARK VINA RESULT:      -4.4     11.818     12.226
REMARK  1 active torsions:
REMARK  status: ('A' for Active; 'I' for Inactive)
REMARK    1  A    between atoms: C6_6  and  C8_8 
ROOT
HETATM    1  C1  UNL     1     -35.108  13.402  -4.494  1.00 20.00     0.000 A 
HETATM    2  C2  UNL     1     -33.781  13.628  -4.129  1.00 20.00     0.001 A 
HETATM    3  C3  UNL     1     -36.118  14.228  -4.001  1.00 20.00     0.001 A 
HETATM    4  C4  UNL     1     -33.463  14.679  -3.269  1.00 20.00     0.011 A 
HETATM    5  C5  UNL     1     -35.800  15.280  -3.141  1.00 20.00     0.011 A 
HETATM    6  C6  UNL     1     -34.473  15.505  -2.775  1.00 20.00    -0.037 A 
ENDROOT
BRANCH   6   7
HETATM    7  C8  UNL     1     -34.142  16.602  -1.879  1.00 20.00     0.001 C 
HETATM    8  C7  UNL     1     -34.633  16.724  -0.653  1.00 20.00     0.012 C 
ENDBRANCH   6   7
TORSDOF 1
ENDMDL
MODEL 8
REMARK VINA RESULT:      -4.4     11.841     12.255
REMARK  1 active torsions:
REMARK  status: ('A' for Active; 'I' for Inactive)
REMARK    1  A    between atoms: C6_6  and  C8_8 
ROOT
HETATM    1  C1  UNL     1     -35.066  13.375  -4.507  1.00 20.00     0.000 A 
HETATM    2  C2  UNL     1     -36.088  14.177  -3.998  1.00 20.00     0.001 A 
HETATM    3  C3  UNL     1     -33.739  13.635  -4.165  1.00 20.00     0.001 A 
HETATM    4  C4  UNL     1     -35.783  15.239  -3.147  1.00 20.00     0.011 A 
HETATM    5  C5  UNL     1     -33.434  14.698  -3.314  1.00 20.00     0.011 A 
HETATM    6  C6  UNL     1     -34.456  15.500  -2.805  1.00 20.00    -0.037 A 
ENDROOT
BRANCH   6   7
HETATM    7  C8  UNL     1     -34.136  16.607  -1.918  1.00 20.00     0.001 C 
HETATM    8  C7  UNL     1     -34.611  16.723  -0.685  1.00 20.00     0.012 C 
ENDBRANCH   6   7
TORSDOF 1
ENDMDL
MODEL 9
REMARK VINA RESULT:      -4.2      9.171     10.486
REMARK  1 active torsions:
REMARK  status: ('A' for Active; 'I' for Inactive)
REMARK    1  A    between atoms: C6_6  and  C8_8 
ROOT
HETATM    1  C1  UNL     1     -41.098   7.071  -0.958  1.00 20.00     0.000 A 
HETATM    2  C2  UNL     1     -41.942   7.035  -2.067  1.00 20.00     0.001 A 
HETATM    3  C3  UNL     1     -40.637   5.882  -0.393  1.00 20.00     0.001 A 
HETATM    4  C4  UNL     1     -42.327   5.811  -2.612  1.00 20.00     0.011 A 
HETATM    5  C5  UNL     1     -41.022   4.657  -0.937  1.00 20.00     0.011 A 
HETATM    6  C6  UNL     1     -41.867   4.621  -2.047  1.00 20.00    -0.037 A 
ENDROOT
BRANCH   6   7
HETATM    7  C8  UNL     1     -42.267   3.343  -2.614  1.00 20.00     0.001 C 
HETATM    8  C7  UNL     1     -41.434   2.520  -3.236  1.00 20.00     0.012 C 
ENDBRANCH   6   7
TORSDOF 1
ENDMDL
