MODEL 1
REMARK VINA RESULT:      -4.7      0.000      0.000
REMARK  0 active torsions:
REMARK  status: ('A' for Active; 'I' for Inactive)
ROOT
HETATM    1  C1  UNL     1     -35.297   4.666   5.856  1.00 20.00     0.001 A 
HETATM    2  C2  UNL     1     -34.655   5.589   6.670  1.00 20.00     0.001 A 
HETATM    3  C3  UNL     1     -34.995   4.596   4.495  1.00 20.00     0.013 A 
HETATM    4  C4  UNL     1     -33.700   6.460   6.142  1.00 20.00     0.019 A 
HETATM    5  C5  UNL     1     -33.559   5.583   2.578  1.00 20.00     0.020 A 
HETATM    6  C6  UNL     1     -32.605   6.562   2.428  1.00 20.00     0.051 A 
HETATM    7  C7  UNL     1     -34.031   5.465   3.928  1.00 20.00    -0.019 A 
HETATM    8  C8  UNL     1     -33.398   6.387   4.768  1.00 20.00     0.015 A 
HETATM    9  S9  UNL     1     -32.264   7.353   3.899  1.00 20.00    -0.101 SA
ENDROOT
TORSDOF 0
ENDMDL
MODEL 2
REMARK VINA RESULT:      -4.5      1.068      2.021
REMARK  0 active torsions:
REMARK  status: ('A' for Active; 'I' for Inactive)
ROOT
HETATM    1  C1  UNL     1     -34.656   5.612   6.752  1.00 20.00     0.001 A 
HETATM    2  C2  UNL     1     -35.291   4.645   5.984  1.00 20.00     0.001 A 
HETATM    3  C3  UNL     1     -33.735   6.483   6.168  1.00 20.00     0.013 A 
HETATM    4  C4  UNL     1     -35.020   4.530   4.620  1.00 20.00     0.019 A 
HETATM    5  C5  UNL     1     -32.542   7.163   3.972  1.00 20.00     0.020 A 
HETATM    6  C6  UNL     1     -32.535   6.760   2.656  1.00 20.00     0.051 A 
HETATM    7  C7  UNL     1     -33.438   6.393   4.786  1.00 20.00    -0.019 A 
HETATM    8  C8  UNL     1     -34.090   5.412   4.034  1.00 20.00     0.015 A 
HETATM    9  S9  UNL     1     -33.599   5.457   2.381  1.00 20.00    -0.101 SA
ENDROOT
TORSDOF 0
ENDMDL
MODEL 3
REMARK VINA RESULT:      -4.2      1.556      3.845
REMARK  0 active torsions:
REMARK  status: ('A' for Active; 'I' for Inactive)
ROOT
HETATM    1  C1  UNL     1     -32.128   7.213   3.180  1.00 20.00     0.001 A 
HETATM    2  C2  UNL     1     -32.708   6.275   2.337  1.00 20.00     0.001 A 
HETATM    3  C3  UNL     1     -32.509   7.285   4.522  1.00 20.00     0.013 A 
HETATM    4  C4  UNL     1     -33.676   5.391   2.816  1.00 20.00     0.019 A 
HETATM    5  C5  UNL     1     -34.036   6.285   6.360  1.00 20.00     0.020 A 
HETATM    6  C6  UNL     1     -34.981   5.291   6.461  1.00 20.00     0.051 A 
HETATM    7  C7  UNL     1     -33.488   6.402   5.038  1.00 20.00    -0.019 A 
HETATM    8  C8  UNL     1     -34.057   5.466   4.170  1.00 20.00     0.015 A 
HETATM    9  S9  UNL     1     -35.224   4.487   4.978  1.00 20.00    -0.101 SA
ENDROOT
TORSDOF 0
ENDMDL
MODEL 4
REMARK VINA RESULT:      -4.2     12.124     13.984
REMARK  0 active torsions:
REMARK  status: ('A' for Active; 'I' for Inactive)
ROOT
HETATM    1  C1  UNL     1     -33.044  15.044  -3.626  1.00 20.00     0.001 A 
HETATM    2  C2  UNL     1     -33.636  13.805  -3.827  1.00 20.00     0.001 A 
HETATM    3  C3  UNL     1     -33.219  16.068  -4.558  1.00 20.00     0.013 A 
HETATM    4  C4  UNL     1     -34.414  13.564  -4.960  1.00 20.00     0.019 A 
HETATM    5  C5  UNL     1     -34.323  16.739  -6.803  1.00 20.00     0.020 A 
HETATM    6  C6  UNL     1     -35.123  16.150  -7.755  1.00 20.00     0.051 A 
HETATM    7  C7  UNL     1     -34.003  15.856  -5.719  1.00 20.00    -0.019 A 
HETATM    8  C8  UNL     1     -34.589  14.600  -5.898  1.00 20.00     0.015 A 
HETATM    9  S9  UNL     1     -35.499  14.535  -7.362  1.00 20.00    -0.101 SA
ENDROOT
TORSDOF 0
ENDMDL
MODEL 5
REMARK VINA RESULT:      -4.2      1.303      3.272
REMARK  0 active torsions:
REMARK  status: ('A' for Active; 'I' for Inactive)
ROOT
HETATM    1  C1  UNL     1     -32.906   6.144   2.174  1.00 20.00     0.001 A 
HETATM    2  C2  UNL     1     -32.283   7.073   2.996  1.00 20.00     0.001 A 
HETATM    3  C3  UNL     1     -33.868   5.276   2.694  1.00 20.00     0.013 A 
HETATM    4  C4  UNL     1     -32.610   7.156   4.350  1.00 20.00     0.019 A 
HETATM    5  C5  UNL     1     -35.167   4.561   4.818  1.00 20.00     0.020 A 
HETATM    6  C6  UNL     1     -35.221   4.926   6.143  1.00 20.00     0.051 A 
HETATM    7  C7  UNL     1     -34.222   5.335   4.064  1.00 20.00    -0.019 A 
HETATM    8  C8  UNL     1     -33.582   6.280   4.871  1.00 20.00     0.015 A 
HETATM    9  S9  UNL     1     -34.143   6.197   6.500  1.00 20.00    -0.101 SA
ENDROOT
TORSDOF 0
ENDMDL
MODEL 6
REMARK VINA RESULT:      -4.2     12.204     13.808
REMARK  0 active torsions:
REMARK  status: ('A' for Active; 'I' for Inactive)
ROOT
HETATM    1  C1  UNL     1     -33.611  13.822  -3.796  1.00 20.00     0.001 A 
HETATM    2  C2  UNL     1     -33.062  15.090  -3.672  1.00 20.00     0.001 A 
HETATM    3  C3  UNL     1     -34.408  13.504  -4.898  1.00 20.00     0.013 A 
HETATM    4  C4  UNL     1     -33.295  16.065  -4.643  1.00 20.00     0.019 A 
HETATM    5  C5  UNL     1     -35.438  14.382  -7.106  1.00 20.00     0.020 A 
HETATM    6  C6  UNL     1     -35.444  15.555  -7.825  1.00 20.00     0.051 A 
HETATM    7  C7  UNL     1     -34.664  14.470  -5.901  1.00 20.00    -0.019 A 
HETATM    8  C8  UNL     1     -34.099  15.740  -5.753  1.00 20.00     0.015 A 
HETATM    9  S9  UNL     1     -34.523  16.773  -7.068  1.00 20.00    -0.101 SA
ENDROOT
TORSDOF 0
ENDMDL
MODEL 7
REMARK VINA RESULT:      -4.1     11.919     13.285
REMARK  0 active torsions:
REMARK  status: ('A' for Active; 'I' for Inactive)
ROOT
HETATM    1  C1  UNL     1     -34.699  13.303  -4.667  1.00 20.00     0.001 A 
HETATM    2  C2  UNL     1     -34.678  14.009  -5.861  1.00 20.00     0.001 A 
HETATM    3  C3  UNL     1     -34.464  13.958  -3.456  1.00 20.00     0.013 A 
HETATM    4  C4  UNL     1     -34.424  15.382  -5.871  1.00 20.00     0.019 A 
HETATM    5  C5  UNL     1     -33.936  16.230  -2.331  1.00 20.00     0.020 A 
HETATM    6  C6  UNL     1     -33.730  17.532  -2.725  1.00 20.00     0.051 A 
HETATM    7  C7  UNL     1     -34.203  15.349  -3.432  1.00 20.00    -0.019 A 
HETATM    8  C8  UNL     1     -34.188  16.039  -4.648  1.00 20.00     0.015 A 
HETATM    9  S9  UNL     1     -33.854  17.715  -4.415  1.00 20.00    -0.101 SA
ENDROOT
TORSDOF 0
ENDMDL
MODEL 8
REMARK VINA RESULT:      -4.0     12.099     13.836
REMARK  0 active torsions:
REMARK  status: ('A' for Active; 'I' for Inactive)
ROOT
HETATM    1  C1  UNL     1     -34.476  13.241  -4.758  1.00 20.00     0.001 A 
HETATM    2  C2  UNL     1     -33.777  13.849  -3.725  1.00 20.00     0.001 A 
HETATM    3  C3  UNL     1     -34.862  13.980  -5.878  1.00 20.00     0.013 A 
HETATM    4  C4  UNL     1     -33.448  15.204  -3.789  1.00 20.00     0.019 A 
HETATM    5  C5  UNL     1     -34.828  16.311  -7.008  1.00 20.00     0.020 A 
HETATM    6  C6  UNL     1     -34.346  17.567  -6.724  1.00 20.00     0.051 A 
HETATM    7  C7  UNL     1     -34.544  15.357  -5.974  1.00 20.00    -0.019 A 
HETATM    8  C8  UNL     1     -33.839  15.946  -4.921  1.00 20.00     0.015 A 
HETATM    9  S9  UNL     1     -33.548  17.620  -5.218  1.00 20.00    -0.101 SA
ENDROOT
TORSDOF 0
ENDMDL
MODEL 9
REMARK VINA RESULT:      -4.0     12.253     13.272
REMARK  0 active torsions:
REMARK  status: ('A' for Active; 'I' for Inactive)
ROOT
HETATM    1  C1  UNL     1     -34.388  17.740  -0.362  1.00 20.00     0.001 A 
HETATM    2  C2  UNL     1     -33.894  18.778  -1.140  1.00 20.00     0.001 A 
HETATM    3  C3  UNL     1     -34.605  16.480  -0.923  1.00 20.00     0.013 A 
HETATM    4  C4  UNL     1     -33.604  18.579  -2.491  1.00 20.00     0.019 A 
HETATM    5  C5  UNL     1     -34.460  15.056  -3.082  1.00 20.00     0.020 A 
HETATM    6  C6  UNL     1     -34.074  15.236  -4.390  1.00 20.00     0.051 A 
HETATM    7  C7  UNL     1     -34.322  16.245  -2.291  1.00 20.00    -0.019 A 
HETATM    8  C8  UNL     1     -33.824  17.306  -3.053  1.00 20.00     0.015 A 
HETATM    9  S9  UNL     1     -33.543  16.829  -4.687  1.00 20.00    -0.101 SA
ENDROOT
TORSDOF 0
ENDMDL
