MODEL 1
REMARK VINA RESULT:      -3.5      0.000      0.000
REMARK  1 active torsions:
REMARK  status: ('A' for Active; 'I' for Inactive)
REMARK    1  A    between atoms: C4_4  and  S6_6 
ROOT
HETATM    1  C1  UNL     1     -35.346   4.602   4.953  1.00 20.00     0.009 A 
HETATM    2  C2  UNL     1     -34.578   5.083   3.853  1.00 20.00     0.026 A 
HETATM    3  C3  UNL     1     -34.994   5.214   6.137  1.00 20.00     0.051 A 
HETATM    4  C4  UNL     1     -33.670   6.046   4.238  1.00 20.00     0.038 A 
HETATM    5  S5  UNL     1     -33.743   6.363   5.918  1.00 20.00    -0.095 SA
ENDROOT
BRANCH   4   6
HETATM    6  S6  UNL     1     -32.547   6.883   3.182  1.00 20.00    -0.136 SA
HETATM    7  H10 UNL     1     -31.598   7.173   4.092  1.00 20.00     0.107 HD
ENDBRANCH   4   6
TORSDOF 1
ENDMDL
MODEL 2
REMARK VINA RESULT:      -3.1      1.111      2.294
REMARK  1 active torsions:
REMARK  status: ('A' for Active; 'I' for Inactive)
REMARK    1  A    between atoms: C4_4  and  S6_6 
ROOT
HETATM    1  C1  UNL     1     -35.199   4.378   4.889  1.00 20.00     0.009 A 
HETATM    2  C2  UNL     1     -34.815   5.106   6.052  1.00 20.00     0.026 A 
HETATM    3  C3  UNL     1     -34.739   4.971   3.733  1.00 20.00     0.051 A 
HETATM    4  C4  UNL     1     -34.075   6.226   5.742  1.00 20.00     0.038 A 
HETATM    5  S5  UNL     1     -33.848   6.398   4.054  1.00 20.00    -0.095 SA
ENDROOT
BRANCH   4   6
HETATM    6  S6  UNL     1     -33.417   7.377   6.890  1.00 20.00    -0.136 SA
HETATM    7  H10 UNL     1     -34.416   8.278   6.864  1.00 20.00     0.107 HD
ENDBRANCH   4   6
TORSDOF 1
ENDMDL
MODEL 3
REMARK VINA RESULT:      -2.9      9.615     10.082
REMARK  1 active torsions:
REMARK  status: ('A' for Active; 'I' for Inactive)
REMARK    1  A    between atoms: C4_4  and  S6_6 
ROOT
HETATM    1  C1  UNL     1     -40.669   5.912  -0.354  1.00 20.00     0.009 A 
HETATM    2  C2  UNL     1     -41.126   7.000  -1.153  1.00 20.00     0.026 A 
HETATM    3  C3  UNL     1     -41.112   4.697  -0.833  1.00 20.00     0.051 A 
HETATM    4  C4  UNL     1     -41.899   6.576  -2.212  1.00 20.00     0.038 A 
HETATM    5  S5  UNL     1     -42.072   4.873  -2.239  1.00 20.00    -0.095 SA
ENDROOT
BRANCH   4   6
HETATM    6  S6  UNL     1     -42.643   7.605  -3.422  1.00 20.00    -0.136 SA
HETATM    7  H10 UNL     1     -43.804   6.939  -3.563  1.00 20.00     0.107 HD
ENDBRANCH   4   6
TORSDOF 1
ENDMDL
MODEL 4
REMARK VINA RESULT:      -2.9      1.756      2.173
REMARK  1 active torsions:
REMARK  status: ('A' for Active; 'I' for Inactive)
REMARK    1  A    between atoms: C4_4  and  S6_6 
ROOT
HETATM    1  C1  UNL     1     -34.714   5.332   3.536  1.00 20.00     0.009 A 
HETATM    2  C2  UNL     1     -34.054   6.396   4.217  1.00 20.00     0.026 A 
HETATM    3  C3  UNL     1     -35.218   4.392   4.410  1.00 20.00     0.051 A 
HETATM    4  C4  UNL     1     -34.080   6.229   5.585  1.00 20.00     0.038 A 
HETATM    5  S5  UNL     1     -34.895   4.795   6.042  1.00 20.00    -0.095 SA
ENDROOT
BRANCH   4   6
HETATM    6  S6  UNL     1     -33.381   7.319   6.768  1.00 20.00    -0.136 SA
HETATM    7  H10 UNL     1     -34.177   8.384   6.552  1.00 20.00     0.107 HD
ENDBRANCH   4   6
TORSDOF 1
ENDMDL
MODEL 5
REMARK VINA RESULT:      -2.9      9.518     10.038
REMARK  1 active torsions:
REMARK  status: ('A' for Active; 'I' for Inactive)
REMARK    1  A    between atoms: C4_4  and  S6_6 
ROOT
HETATM    1  C1  UNL     1     -40.732   6.262  -0.378  1.00 20.00     0.009 A 
HETATM    2  C2  UNL     1     -40.858   4.905  -0.796  1.00 20.00     0.026 A 
HETATM    3  C3  UNL     1     -41.451   7.120  -1.182  1.00 20.00     0.051 A 
HETATM    4  C4  UNL     1     -41.670   4.778  -1.903  1.00 20.00     0.038 A 
HETATM    5  S5  UNL     1     -42.273   6.289  -2.433  1.00 20.00    -0.095 SA
ENDROOT
BRANCH   4   6
HETATM    6  S6  UNL     1     -42.075   3.278  -2.716  1.00 20.00    -0.136 SA
HETATM    7  H10 UNL     1     -41.064   3.254  -3.605  1.00 20.00     0.107 HD
ENDBRANCH   4   6
TORSDOF 1
ENDMDL
MODEL 6
REMARK VINA RESULT:      -2.8     12.520     13.369
REMARK  1 active torsions:
REMARK  status: ('A' for Active; 'I' for Inactive)
REMARK    1  A    between atoms: C4_4  and  S6_6 
ROOT
HETATM    1  C1  UNL     1     -33.631  13.655  -3.759  1.00 20.00     0.009 A 
HETATM    2  C2  UNL     1     -33.265  15.032  -3.793  1.00 20.00     0.026 A 
HETATM    3  C3  UNL     1     -34.446  13.310  -4.815  1.00 20.00     0.051 A 
HETATM    4  C4  UNL     1     -33.813  15.687  -4.874  1.00 20.00     0.038 A 
HETATM    5  S5  UNL     1     -34.766  14.644  -5.841  1.00 20.00    -0.095 SA
ENDROOT
BRANCH   4   6
HETATM    6  S6  UNL     1     -33.599  17.382  -5.269  1.00 20.00    -0.136 SA
HETATM    7  H10 UNL     1     -34.219  17.915  -4.199  1.00 20.00     0.107 HD
ENDBRANCH   4   6
TORSDOF 1
ENDMDL
MODEL 7
REMARK VINA RESULT:      -2.8     12.662     13.363
REMARK  1 active torsions:
REMARK  status: ('A' for Active; 'I' for Inactive)
REMARK    1  A    between atoms: C4_4  and  S6_6 
ROOT
HETATM    1  C1  UNL     1     -33.610  13.815  -3.725  1.00 20.00     0.009 A 
HETATM    2  C2  UNL     1     -34.392  13.485  -4.870  1.00 20.00     0.026 A 
HETATM    3  C3  UNL     1     -33.194  15.128  -3.743  1.00 20.00     0.051 A 
HETATM    4  C4  UNL     1     -34.545  14.559  -5.719  1.00 20.00     0.038 A 
HETATM    5  S5  UNL     1     -33.746  15.957  -5.136  1.00 20.00    -0.095 SA
ENDROOT
BRANCH   4   6
HETATM    6  S6  UNL     1     -35.438  14.561  -7.228  1.00 20.00    -0.136 SA
HETATM    7  H10 UNL     1     -36.375  15.472  -6.904  1.00 20.00     0.107 HD
ENDBRANCH   4   6
TORSDOF 1
ENDMDL
MODEL 8
REMARK VINA RESULT:      -2.7     11.953     12.880
REMARK  1 active torsions:
REMARK  status: ('A' for Active; 'I' for Inactive)
REMARK    1  A    between atoms: C4_4  and  S6_6 
ROOT
HETATM    1  C1  UNL     1     -34.476  13.247  -4.853  1.00 20.00     0.009 A 
HETATM    2  C2  UNL     1     -34.326  13.800  -3.549  1.00 20.00     0.026 A 
HETATM    3  C3  UNL     1     -34.950  14.173  -5.757  1.00 20.00     0.051 A 
HETATM    4  C4  UNL     1     -34.690  15.128  -3.505  1.00 20.00     0.038 A 
HETATM    5  S5  UNL     1     -35.212  15.702  -5.032  1.00 20.00    -0.095 SA
ENDROOT
BRANCH   4   6
HETATM    6  S6  UNL     1     -34.646  16.163  -2.089  1.00 20.00    -0.136 SA
HETATM    7  H10 UNL     1     -35.941  16.532  -2.073  1.00 20.00     0.107 HD
ENDBRANCH   4   6
TORSDOF 1
ENDMDL
MODEL 9
REMARK VINA RESULT:      -2.6     12.454     13.487
REMARK  1 active torsions:
REMARK  status: ('A' for Active; 'I' for Inactive)
REMARK    1  A    between atoms: C4_4  and  S6_6 
ROOT
HETATM    1  C1  UNL     1     -33.391  15.290  -3.979  1.00 20.00     0.009 A 
HETATM    2  C2  UNL     1     -33.839  15.648  -5.283  1.00 20.00     0.026 A 
HETATM    3  C3  UNL     1     -33.814  14.030  -3.614  1.00 20.00     0.051 A 
HETATM    4  C4  UNL     1     -34.584  14.647  -5.867  1.00 20.00     0.038 A 
HETATM    5  S5  UNL     1     -34.744  13.285  -4.843  1.00 20.00    -0.095 SA
ENDROOT
BRANCH   4   6
HETATM    6  S6  UNL     1     -35.309  14.700  -7.464  1.00 20.00    -0.136 SA
HETATM    7  H10 UNL     1     -34.191  14.912  -8.183  1.00 20.00     0.107 HD
ENDBRANCH   4   6
TORSDOF 1
ENDMDL
