MODEL 1
REMARK VINA RESULT:      -4.8      0.000      0.000
REMARK  1 active torsions:
REMARK  status: ('A' for Active; 'I' for Inactive)
REMARK    1  A    between atoms: C6_6  and  S8_8 
ROOT
HETATM    1  C1  UNL     1     -35.139   4.816   6.064  1.00 20.00     0.000 A 
HETATM    2  C2  UNL     1     -35.259   4.443   4.725  1.00 20.00     0.001 A 
HETATM    3  C3  UNL     1     -34.301   5.872   6.421  1.00 20.00     0.001 A 
HETATM    4  C4  UNL     1     -34.541   5.126   3.743  1.00 20.00     0.018 A 
HETATM    5  C5  UNL     1     -33.584   6.556   5.439  1.00 20.00     0.018 A 
HETATM    6  C6  UNL     1     -33.703   6.183   4.101  1.00 20.00    -0.000 A 
ENDROOT
BRANCH   6   7
HETATM    7  S8  UNL     1     -32.785   7.055   2.847  1.00 20.00    -0.134 SA
HETATM    8  C7  UNL     1     -31.364   7.582   3.827  1.00 20.00     0.095 C 
ENDBRANCH   6   7
TORSDOF 1
ENDMDL
MODEL 2
REMARK VINA RESULT:      -4.8      0.022      1.709
REMARK  1 active torsions:
REMARK  status: ('A' for Active; 'I' for Inactive)
REMARK    1  A    between atoms: C6_6  and  S8_8 
ROOT
HETATM    1  C1  UNL     1     -35.142   4.791   6.045  1.00 20.00     0.000 A 
HETATM    2  C2  UNL     1     -34.314   5.853   6.409  1.00 20.00     0.001 A 
HETATM    3  C3  UNL     1     -35.255   4.424   4.704  1.00 20.00     0.001 A 
HETATM    4  C4  UNL     1     -33.599   6.548   5.433  1.00 20.00     0.018 A 
HETATM    5  C5  UNL     1     -34.541   5.119   3.728  1.00 20.00     0.018 A 
HETATM    6  C6  UNL     1     -33.713   6.181   4.092  1.00 20.00    -0.000 A 
ENDROOT
BRANCH   6   7
HETATM    7  S8  UNL     1     -32.801   7.068   2.845  1.00 20.00    -0.134 SA
HETATM    8  C7  UNL     1     -31.380   7.593   3.826  1.00 20.00     0.095 C 
ENDBRANCH   6   7
TORSDOF 1
ENDMDL
MODEL 3
REMARK VINA RESULT:      -3.7      9.638     10.839
REMARK  1 active torsions:
REMARK  status: ('A' for Active; 'I' for Inactive)
REMARK    1  A    between atoms: C6_6  and  S8_8 
ROOT
HETATM    1  C1  UNL     1     -40.994   6.948  -0.951  1.00 20.00     0.000 A 
HETATM    2  C2  UNL     1     -40.686   5.636  -0.588  1.00 20.00     0.001 A 
HETATM    3  C3  UNL     1     -41.885   7.190  -1.997  1.00 20.00     0.001 A 
HETATM    4  C4  UNL     1     -41.268   4.568  -1.270  1.00 20.00     0.018 A 
HETATM    5  C5  UNL     1     -42.467   6.123  -2.679  1.00 20.00     0.018 A 
HETATM    6  C6  UNL     1     -42.158   4.811  -2.316  1.00 20.00    -0.000 A 
ENDROOT
BRANCH   6   7
HETATM    7  S8  UNL     1     -42.902   3.447  -3.189  1.00 20.00    -0.134 SA
HETATM    8  C7  UNL     1     -41.460   2.373  -3.353  1.00 20.00     0.095 C 
ENDBRANCH   6   7
TORSDOF 1
ENDMDL
MODEL 4
REMARK VINA RESULT:      -3.7     11.993     12.328
REMARK  1 active torsions:
REMARK  status: ('A' for Active; 'I' for Inactive)
REMARK    1  A    between atoms: C6_6  and  S8_8 
ROOT
HETATM    1  C1  UNL     1     -35.215  13.426  -4.384  1.00 20.00     0.000 A 
HETATM    2  C2  UNL     1     -36.167  14.322  -3.898  1.00 20.00     0.001 A 
HETATM    3  C3  UNL     1     -33.858  13.663  -4.165  1.00 20.00     0.001 A 
HETATM    4  C4  UNL     1     -35.762  15.456  -3.193  1.00 20.00     0.018 A 
HETATM    5  C5  UNL     1     -33.453  14.797  -3.460  1.00 20.00     0.018 A 
HETATM    6  C6  UNL     1     -34.405  15.693  -2.974  1.00 20.00    -0.000 A 
ENDROOT
BRANCH   6   7
HETATM    7  S8  UNL     1     -33.887  17.141  -2.074  1.00 20.00    -0.134 SA
HETATM    8  C7  UNL     1     -34.702  16.822  -0.495  1.00 20.00     0.095 C 
ENDBRANCH   6   7
TORSDOF 1
ENDMDL
MODEL 5
REMARK VINA RESULT:      -3.7     11.995     12.346
REMARK  1 active torsions:
REMARK  status: ('A' for Active; 'I' for Inactive)
REMARK    1  A    between atoms: C6_6  and  S8_8 
ROOT
HETATM    1  C1  UNL     1     -35.217  13.426  -4.386  1.00 20.00     0.000 A 
HETATM    2  C2  UNL     1     -33.859  13.665  -4.172  1.00 20.00     0.001 A 
HETATM    3  C3  UNL     1     -36.168  14.321  -3.895  1.00 20.00     0.001 A 
HETATM    4  C4  UNL     1     -33.452  14.798  -3.468  1.00 20.00     0.018 A 
HETATM    5  C5  UNL     1     -35.761  15.455  -3.192  1.00 20.00     0.018 A 
HETATM    6  C6  UNL     1     -34.403  15.693  -2.978  1.00 20.00    -0.000 A 
ENDROOT
BRANCH   6   7
HETATM    7  S8  UNL     1     -33.884  17.141  -2.077  1.00 20.00    -0.134 SA
HETATM    8  C7  UNL     1     -34.698  16.821  -0.498  1.00 20.00     0.095 C 
ENDBRANCH   6   7
TORSDOF 1
ENDMDL
MODEL 6
REMARK VINA RESULT:      -3.6     12.210     13.782
REMARK  1 active torsions:
REMARK  status: ('A' for Active; 'I' for Inactive)
REMARK    1  A    between atoms: C6_6  and  S8_8 
ROOT
HETATM    1  C1  UNL     1     -33.132  15.015  -3.596  1.00 20.00     0.000 A 
HETATM    2  C2  UNL     1     -33.182  16.079  -4.496  1.00 20.00     0.001 A 
HETATM    3  C3  UNL     1     -33.787  13.820  -3.892  1.00 20.00     0.001 A 
HETATM    4  C4  UNL     1     -33.887  15.948  -5.693  1.00 20.00     0.018 A 
HETATM    5  C5  UNL     1     -34.492  13.688  -5.088  1.00 20.00     0.018 A 
HETATM    6  C6  UNL     1     -34.542  14.753  -5.989  1.00 20.00    -0.000 A 
ENDROOT
BRANCH   6   7
HETATM    7  S8  UNL     1     -35.444  14.585  -7.516  1.00 20.00    -0.134 SA
HETATM    8  C7  UNL     1     -37.053  15.209  -6.987  1.00 20.00     0.095 C 
ENDBRANCH   6   7
TORSDOF 1
ENDMDL
MODEL 7
REMARK VINA RESULT:      -3.6     12.207     13.717
REMARK  1 active torsions:
REMARK  status: ('A' for Active; 'I' for Inactive)
REMARK    1  A    between atoms: C6_6  and  S8_8 
ROOT
HETATM    1  C1  UNL     1     -33.191  14.985  -3.582  1.00 20.00     0.000 A 
HETATM    2  C2  UNL     1     -33.832  13.785  -3.892  1.00 20.00     0.001 A 
HETATM    3  C3  UNL     1     -33.239  16.053  -4.478  1.00 20.00     0.001 A 
HETATM    4  C4  UNL     1     -34.520  13.653  -5.098  1.00 20.00     0.018 A 
HETATM    5  C5  UNL     1     -33.927  15.921  -5.684  1.00 20.00     0.018 A 
HETATM    6  C6  UNL     1     -34.567  14.721  -5.994  1.00 20.00    -0.000 A 
ENDROOT
BRANCH   6   7
HETATM    7  S8  UNL     1     -35.446  14.553  -7.535  1.00 20.00    -0.134 SA
HETATM    8  C7  UNL     1     -37.050  15.218  -7.043  1.00 20.00     0.095 C 
ENDBRANCH   6   7
TORSDOF 1
ENDMDL
MODEL 8
REMARK VINA RESULT:      -3.6      9.737     10.787
REMARK  1 active torsions:
REMARK  status: ('A' for Active; 'I' for Inactive)
REMARK    1  A    between atoms: C6_6  and  S8_8 
ROOT
HETATM    1  C1  UNL     1     -40.768   4.930  -0.851  1.00 20.00     0.000 A 
HETATM    2  C2  UNL     1     -40.733   6.256  -0.420  1.00 20.00     0.001 A 
HETATM    3  C3  UNL     1     -41.593   4.564  -1.915  1.00 20.00     0.001 A 
HETATM    4  C4  UNL     1     -41.523   7.216  -1.052  1.00 20.00     0.018 A 
HETATM    5  C5  UNL     1     -42.383   5.524  -2.546  1.00 20.00     0.018 A 
HETATM    6  C6  UNL     1     -42.349   6.850  -2.115  1.00 20.00    -0.000 A 
ENDROOT
BRANCH   6   7
HETATM    7  S8  UNL     1     -43.359   8.076  -2.922  1.00 20.00    -0.134 SA
HETATM    8  C7  UNL     1     -42.354   8.376  -4.391  1.00 20.00     0.095 C 
ENDBRANCH   6   7
TORSDOF 1
ENDMDL
MODEL 9
REMARK VINA RESULT:      -3.5     12.302     13.850
REMARK  1 active torsions:
REMARK  status: ('A' for Active; 'I' for Inactive)
REMARK    1  A    between atoms: C6_6  and  S8_8 
ROOT
HETATM    1  C1  UNL     1     -33.536  13.751  -3.798  1.00 20.00     0.000 A 
HETATM    2  C2  UNL     1     -32.958  15.012  -3.644  1.00 20.00     0.001 A 
HETATM    3  C3  UNL     1     -34.404  13.507  -4.862  1.00 20.00     0.001 A 
HETATM    4  C4  UNL     1     -33.248  16.028  -4.555  1.00 20.00     0.018 A 
HETATM    5  C5  UNL     1     -34.694  14.523  -5.772  1.00 20.00     0.018 A 
HETATM    6  C6  UNL     1     -34.116  15.784  -5.619  1.00 20.00    -0.000 A 
ENDROOT
BRANCH   6   7
HETATM    7  S8  UNL     1     -34.488  17.082  -6.781  1.00 20.00    -0.134 SA
HETATM    8  C7  UNL     1     -33.671  18.466  -5.960  1.00 20.00     0.095 C 
ENDBRANCH   6   7
TORSDOF 1
ENDMDL
