MODEL 1
REMARK VINA RESULT:      -5.7      0.000      0.000
REMARK  0 active torsions:
REMARK  status: ('A' for Active; 'I' for Inactive)
ROOT
HETATM    1  C1  UNL     1     -35.162   4.864   5.980  1.00 20.00     0.000 A 
HETATM    2  C2  UNL     1     -35.239   4.539   4.626  1.00 20.00     0.001 A 
HETATM    3  C3  UNL     1     -34.299   5.875   6.406  1.00 20.00     0.001 A 
HETATM    4  C4  UNL     1     -34.456   5.223   3.697  1.00 20.00     0.007 A 
HETATM    5  C5  UNL     1     -33.515   6.559   5.477  1.00 20.00     0.007 A 
HETATM    6  C6  UNL     1     -33.593   6.234   4.124  1.00 20.00    -0.062 A 
HETATM    7  C7  UNL     1     -32.754   6.966   3.132  1.00 20.00     0.048 C 
ENDROOT
TORSDOF 0
ENDMDL
MODEL 2
REMARK VINA RESULT:      -5.7      0.002      1.826
REMARK  0 active torsions:
REMARK  status: ('A' for Active; 'I' for Inactive)
ROOT
HETATM    1  C1  UNL     1     -35.162   4.864   5.982  1.00 20.00     0.000 A 
HETATM    2  C2  UNL     1     -34.300   5.874   6.407  1.00 20.00     0.001 A 
HETATM    3  C3  UNL     1     -35.239   4.538   4.627  1.00 20.00     0.001 A 
HETATM    4  C4  UNL     1     -33.515   6.559   5.479  1.00 20.00     0.007 A 
HETATM    5  C5  UNL     1     -34.455   5.223   3.699  1.00 20.00     0.007 A 
HETATM    6  C6  UNL     1     -33.593   6.232   4.124  1.00 20.00    -0.062 A 
HETATM    7  C7  UNL     1     -32.756   6.965   3.131  1.00 20.00     0.048 C 
ENDROOT
TORSDOF 0
ENDMDL
MODEL 3
REMARK VINA RESULT:      -5.6      0.919      2.146
REMARK  0 active torsions:
REMARK  status: ('A' for Active; 'I' for Inactive)
ROOT
HETATM    1  C1  UNL     1     -35.174   4.320   4.413  1.00 20.00     0.000 A 
HETATM    2  C2  UNL     1     -34.600   5.428   3.789  1.00 20.00     0.001 A 
HETATM    3  C3  UNL     1     -35.154   4.215   5.804  1.00 20.00     0.001 A 
HETATM    4  C4  UNL     1     -34.008   6.432   4.555  1.00 20.00     0.007 A 
HETATM    5  C5  UNL     1     -34.560   5.219   6.570  1.00 20.00     0.007 A 
HETATM    6  C6  UNL     1     -33.988   6.326   5.946  1.00 20.00    -0.062 A 
HETATM    7  C7  UNL     1     -33.354   7.398   6.766  1.00 20.00     0.048 C 
ENDROOT
TORSDOF 0
ENDMDL
MODEL 4
REMARK VINA RESULT:      -5.5      0.921      2.331
REMARK  0 active torsions:
REMARK  status: ('A' for Active; 'I' for Inactive)
ROOT
HETATM    1  C1  UNL     1     -35.176   4.321   4.407  1.00 20.00     0.000 A 
HETATM    2  C2  UNL     1     -35.154   4.211   5.798  1.00 20.00     0.001 A 
HETATM    3  C3  UNL     1     -34.604   5.433   3.787  1.00 20.00     0.001 A 
HETATM    4  C4  UNL     1     -34.561   5.211   6.568  1.00 20.00     0.007 A 
HETATM    5  C5  UNL     1     -34.011   6.433   4.558  1.00 20.00     0.007 A 
HETATM    6  C6  UNL     1     -33.989   6.322   5.947  1.00 20.00    -0.062 A 
HETATM    7  C7  UNL     1     -33.356   7.393   6.770  1.00 20.00     0.048 C 
ENDROOT
TORSDOF 0
ENDMDL
MODEL 5
REMARK VINA RESULT:      -4.6      0.796      2.731
REMARK  0 active torsions:
REMARK  status: ('A' for Active; 'I' for Inactive)
ROOT
HETATM    1  C1  UNL     1     -33.296   6.390   3.067  1.00 20.00     0.000 A 
HETATM    2  C2  UNL     1     -34.297   5.431   2.906  1.00 20.00     0.001 A 
HETATM    3  C3  UNL     1     -32.928   6.804   4.348  1.00 20.00     0.001 A 
HETATM    4  C4  UNL     1     -34.930   4.888   4.024  1.00 20.00     0.007 A 
HETATM    5  C5  UNL     1     -33.561   6.260   5.466  1.00 20.00     0.007 A 
HETATM    6  C6  UNL     1     -34.561   5.303   5.304  1.00 20.00    -0.062 A 
HETATM    7  C7  UNL     1     -35.237   4.722   6.500  1.00 20.00     0.048 C 
ENDROOT
TORSDOF 0
ENDMDL
MODEL 6
REMARK VINA RESULT:      -4.6      0.790      3.273
REMARK  0 active torsions:
REMARK  status: ('A' for Active; 'I' for Inactive)
ROOT
HETATM    1  C1  UNL     1     -33.293   6.405   3.088  1.00 20.00     0.000 A 
HETATM    2  C2  UNL     1     -32.945   6.820   4.373  1.00 20.00     0.001 A 
HETATM    3  C3  UNL     1     -34.275   5.429   2.913  1.00 20.00     0.001 A 
HETATM    4  C4  UNL     1     -33.578   6.261   5.483  1.00 20.00     0.007 A 
HETATM    5  C5  UNL     1     -34.907   4.869   4.022  1.00 20.00     0.007 A 
HETATM    6  C6  UNL     1     -34.560   5.285   5.307  1.00 20.00    -0.062 A 
HETATM    7  C7  UNL     1     -35.236   4.685   6.493  1.00 20.00     0.048 C 
ENDROOT
TORSDOF 0
ENDMDL
MODEL 7
REMARK VINA RESULT:      -4.0      8.953     10.002
REMARK  0 active torsions:
REMARK  status: ('A' for Active; 'I' for Inactive)
ROOT
HETATM    1  C1  UNL     1     -41.188   7.201  -0.843  1.00 20.00     0.000 A 
HETATM    2  C2  UNL     1     -41.965   7.099  -1.997  1.00 20.00     0.001 A 
HETATM    3  C3  UNL     1     -40.649   6.053  -0.261  1.00 20.00     0.001 A 
HETATM    4  C4  UNL     1     -42.203   5.849  -2.569  1.00 20.00     0.007 A 
HETATM    5  C5  UNL     1     -40.888   4.803  -0.833  1.00 20.00     0.007 A 
HETATM    6  C6  UNL     1     -41.664   4.702  -1.987  1.00 20.00    -0.062 A 
HETATM    7  C7  UNL     1     -41.920   3.365  -2.598  1.00 20.00     0.048 C 
ENDROOT
TORSDOF 0
ENDMDL
MODEL 8
REMARK VINA RESULT:      -4.0      8.958     10.091
REMARK  0 active torsions:
REMARK  status: ('A' for Active; 'I' for Inactive)
ROOT
HETATM    1  C1  UNL     1     -41.190   7.194  -0.848  1.00 20.00     0.000 A 
HETATM    2  C2  UNL     1     -40.650   6.047  -0.267  1.00 20.00     0.001 A 
HETATM    3  C3  UNL     1     -41.971   7.090  -2.000  1.00 20.00     0.001 A 
HETATM    4  C4  UNL     1     -40.890   4.797  -0.836  1.00 20.00     0.007 A 
HETATM    5  C5  UNL     1     -42.211   5.840  -2.569  1.00 20.00     0.007 A 
HETATM    6  C6  UNL     1     -41.671   4.694  -1.987  1.00 20.00    -0.062 A 
HETATM    7  C7  UNL     1     -41.928   3.357  -2.597  1.00 20.00     0.048 C 
ENDROOT
TORSDOF 0
ENDMDL
MODEL 9
REMARK VINA RESULT:      -3.8      9.150      9.993
REMARK  0 active torsions:
REMARK  status: ('A' for Active; 'I' for Inactive)
ROOT
HETATM    1  C1  UNL     1     -40.900   4.674  -0.761  1.00 20.00     0.000 A 
HETATM    2  C2  UNL     1     -41.705   4.402  -1.867  1.00 20.00     0.001 A 
HETATM    3  C3  UNL     1     -40.641   5.996  -0.396  1.00 20.00     0.001 A 
HETATM    4  C4  UNL     1     -42.252   5.450  -2.607  1.00 20.00     0.007 A 
HETATM    5  C5  UNL     1     -41.187   7.044  -1.136  1.00 20.00     0.007 A 
HETATM    6  C6  UNL     1     -41.993   6.771  -2.241  1.00 20.00    -0.062 A 
HETATM    7  C7  UNL     1     -42.577   7.893  -3.033  1.00 20.00     0.048 C 
ENDROOT
TORSDOF 0
ENDMDL
