@<TRIPOS>MOLECULE
p-xylene.pdb
   18    18     0     0     0
SMALL
NO_CHARGES

@<TRIPOS>ATOM
      1 C1         26.6450    6.1410    4.6680 C.ar      1 MOL         0.0000
      2 C2         26.7810    5.6710    3.4440 C.ar      1 MOL         0.0000
      3 C3         27.2700    6.4720    2.4350 C.ar      1 MOL         0.0000
      4 C4         27.5830    7.7750    2.6860 C.ar      1 MOL         0.0000
      5 C5         27.4420    8.2660    3.9390 C.ar      1 MOL         0.0000
      6 C6         26.9790    7.4340    4.9470 C.ar      1 MOL         0.0000
      7 C7         26.1370    5.2260    5.7700 C.3       1 MOL         0.0000
      8 C8         28.1020    8.6640    1.5520 C.3       1 MOL         0.0000
      9 H1         26.5066    4.6486    3.2300 H         1 MOL         0.0000
     10 H2         27.4056    6.0667    1.4432 H         1 MOL         0.0000
     11 H3         27.6877    9.2959    4.1519 H         1 MOL         0.0000
     12 H4         26.8826    7.8102    5.9548 H         1 MOL         0.0000
     13 H5         26.0882    5.7787    6.7082 H         1 MOL         0.0000
     14 H6         25.1427    4.8626    5.5106 H         1 MOL         0.0000
     15 H7         26.8154    4.3801    5.8815 H         1 MOL         0.0000
     16 H8         28.2980    9.6654    1.9353 H         1 MOL         0.0000
     17 H9         27.3536    8.7179    0.7614 H         1 MOL         0.0000
     18 H10        29.0236    8.2414    1.1517 H         1 MOL         0.0000
@<TRIPOS>BOND
     1    1    2 ar
     2    1    6 ar
     3    1    7 1
     4    2    3 ar
     5    3    4 ar
     6    4    5 ar
     7    4    8 1
     8    5    6 ar
     9    2    9 1
    10    3   10 1
    11    5   11 1
    12    6   12 1
    13    7   13 1
    14    7   14 1
    15    7   15 1
    16    8   16 1
    17    8   17 1
    18    8   18 1
