MODEL 1
REMARK VINA RESULT:      -5.6      0.000      0.000
REMARK  2 active torsions:
REMARK  status: ('A' for Active; 'I' for Inactive)
REMARK    1  A    between atoms: C6_6  and  C10_10 
REMARK    2  A    between atoms: C9_9  and  C10_10 
ROOT
HETATM    1  C1  UNL     1     -34.981   4.895   5.570  1.00 20.00     0.000 A 
HETATM    2  C2  UNL     1     -34.757   4.584   4.230  1.00 20.00     0.001 A 
HETATM    3  C3  UNL     1     -34.461   6.072   6.110  1.00 20.00     0.001 A 
HETATM    4  C4  UNL     1     -34.011   5.448   3.428  1.00 20.00     0.007 A 
HETATM    5  C5  UNL     1     -33.715   6.937   5.309  1.00 20.00     0.007 A 
HETATM    6  C6  UNL     1     -33.490   6.625   3.967  1.00 20.00    -0.054 A 
ENDROOT
BRANCH   6   7
HETATM    7  C10 UNL     1     -32.677   7.567   3.096  1.00 20.00     0.014 C 
HETATM    8  C8  UNL     1     -31.224   7.629   3.580  1.00 20.00     0.015 C 
BRANCH   7   9
HETATM    9  C9  UNL     1     -32.727   7.201   1.599  1.00 20.00     0.004 C 
HETATM   10  C7  UNL     1     -32.803   8.420   0.688  1.00 20.00     0.006 C 
ENDBRANCH   7   9
ENDBRANCH   6   7
TORSDOF 2
ENDMDL
MODEL 2
REMARK VINA RESULT:      -5.6      0.045      1.529
REMARK  2 active torsions:
REMARK  status: ('A' for Active; 'I' for Inactive)
REMARK    1  A    between atoms: C6_6  and  C10_10 
REMARK    2  A    between atoms: C9_9  and  C10_10 
ROOT
HETATM    1  C1  UNL     1     -34.982   4.919   5.525  1.00 20.00     0.000 A 
HETATM    2  C2  UNL     1     -34.471   6.095   6.071  1.00 20.00     0.001 A 
HETATM    3  C3  UNL     1     -34.741   4.607   4.187  1.00 20.00     0.001 A 
HETATM    4  C4  UNL     1     -33.719   6.962   5.278  1.00 20.00     0.007 A 
HETATM    5  C5  UNL     1     -33.989   5.474   3.394  1.00 20.00     0.007 A 
HETATM    6  C6  UNL     1     -33.477   6.652   3.939  1.00 20.00    -0.054 A 
ENDROOT
BRANCH   6   7
HETATM    7  C10 UNL     1     -32.658   7.595   3.075  1.00 20.00     0.014 C 
HETATM    8  C8  UNL     1     -31.213   7.671   3.583  1.00 20.00     0.015 C 
BRANCH   7   9
HETATM    9  C9  UNL     1     -32.681   7.221   1.580  1.00 20.00     0.004 C 
HETATM   10  C7  UNL     1     -32.795   8.431   0.662  1.00 20.00     0.006 C 
ENDBRANCH   7   9
ENDBRANCH   6   7
TORSDOF 2
ENDMDL
MODEL 3
REMARK VINA RESULT:      -4.9     10.870     11.816
REMARK  2 active torsions:
REMARK  status: ('A' for Active; 'I' for Inactive)
REMARK    1  A    between atoms: C6_6  and  C10_10 
REMARK    2  A    between atoms: C9_9  and  C10_10 
ROOT
HETATM    1  C1  UNL     1     -34.024  17.762  -0.748  1.00 20.00     0.000 A 
HETATM    2  C2  UNL     1     -35.133  16.935  -0.920  1.00 20.00     0.001 A 
HETATM    3  C3  UNL     1     -32.961  17.701  -1.648  1.00 20.00     0.001 A 
HETATM    4  C4  UNL     1     -35.179  16.045  -1.994  1.00 20.00     0.007 A 
HETATM    5  C5  UNL     1     -33.006  16.812  -2.722  1.00 20.00     0.007 A 
HETATM    6  C6  UNL     1     -34.115  15.983  -2.895  1.00 20.00    -0.054 A 
ENDROOT
BRANCH   6   7
HETATM    7  C10 UNL     1     -34.164  15.015  -4.064  1.00 20.00     0.014 C 
HETATM    8  C8  UNL     1     -32.754  14.529  -4.420  1.00 20.00     0.015 C 
BRANCH   7   9
HETATM    9  C9  UNL     1     -35.098  13.813  -3.818  1.00 20.00     0.004 C 
HETATM   10  C7  UNL     1     -36.295  13.781  -4.760  1.00 20.00     0.006 C 
ENDBRANCH   7   9
ENDBRANCH   6   7
TORSDOF 2
ENDMDL
MODEL 4
REMARK VINA RESULT:      -4.8     11.244     12.063
REMARK  2 active torsions:
REMARK  status: ('A' for Active; 'I' for Inactive)
REMARK    1  A    between atoms: C6_6  and  C10_10 
REMARK    2  A    between atoms: C9_9  and  C10_10 
ROOT
HETATM    1  C1  UNL     1     -33.914  17.648  -1.278  1.00 20.00     0.000 A 
HETATM    2  C2  UNL     1     -32.891  17.415  -2.196  1.00 20.00     0.001 A 
HETATM    3  C3  UNL     1     -35.051  16.840  -1.280  1.00 20.00     0.001 A 
HETATM    4  C4  UNL     1     -33.005  16.374  -3.118  1.00 20.00     0.007 A 
HETATM    5  C5  UNL     1     -35.166  15.799  -2.202  1.00 20.00     0.007 A 
HETATM    6  C6  UNL     1     -34.142  15.566  -3.122  1.00 20.00    -0.054 A 
ENDROOT
BRANCH   6   7
HETATM    7  C10 UNL     1     -34.267  14.433  -4.125  1.00 20.00     0.014 C 
HETATM    8  C8  UNL     1     -35.722  13.955  -4.218  1.00 20.00     0.015 C 
BRANCH   7   9
HETATM    9  C9  UNL     1     -33.734  14.800  -5.524  1.00 20.00     0.004 C 
HETATM   10  C7  UNL     1     -34.841  15.117  -6.522  1.00 20.00     0.006 C 
ENDBRANCH   7   9
ENDBRANCH   6   7
TORSDOF 2
ENDMDL
MODEL 5
REMARK VINA RESULT:      -4.8     11.250     12.066
REMARK  2 active torsions:
REMARK  status: ('A' for Active; 'I' for Inactive)
REMARK    1  A    between atoms: C6_6  and  C10_10 
REMARK    2  A    between atoms: C9_9  and  C10_10 
ROOT
HETATM    1  C1  UNL     1     -33.912  17.656  -1.276  1.00 20.00     0.000 A 
HETATM    2  C2  UNL     1     -35.055  16.858  -1.277  1.00 20.00     0.001 A 
HETATM    3  C3  UNL     1     -32.890  17.412  -2.193  1.00 20.00     0.001 A 
HETATM    4  C4  UNL     1     -35.176  15.813  -2.194  1.00 20.00     0.007 A 
HETATM    5  C5  UNL     1     -33.010  16.368  -3.110  1.00 20.00     0.007 A 
HETATM    6  C6  UNL     1     -34.154  15.568  -3.111  1.00 20.00    -0.054 A 
ENDROOT
BRANCH   6   7
HETATM    7  C10 UNL     1     -34.284  14.431  -4.110  1.00 20.00     0.014 C 
HETATM    8  C8  UNL     1     -35.745  13.977  -4.220  1.00 20.00     0.015 C 
BRANCH   7   9
HETATM    9  C9  UNL     1     -33.727  14.783  -5.504  1.00 20.00     0.004 C 
HETATM   10  C7  UNL     1     -34.817  15.100  -6.521  1.00 20.00     0.006 C 
ENDBRANCH   7   9
ENDBRANCH   6   7
TORSDOF 2
ENDMDL
MODEL 6
REMARK VINA RESULT:      -4.7     11.307     12.205
REMARK  2 active torsions:
REMARK  status: ('A' for Active; 'I' for Inactive)
REMARK    1  A    between atoms: C6_6  and  C10_10 
REMARK    2  A    between atoms: C9_9  and  C10_10 
ROOT
HETATM    1  C1  UNL     1     -34.469  14.986  -3.545  1.00 20.00     0.000 A 
HETATM    2  C2  UNL     1     -33.214  15.560  -3.743  1.00 20.00     0.001 A 
HETATM    3  C3  UNL     1     -35.315  15.483  -2.554  1.00 20.00     0.001 A 
HETATM    4  C4  UNL     1     -32.804  16.631  -2.950  1.00 20.00     0.007 A 
HETATM    5  C5  UNL     1     -34.906  16.555  -1.761  1.00 20.00     0.007 A 
HETATM    6  C6  UNL     1     -33.650  17.129  -1.958  1.00 20.00    -0.054 A 
ENDROOT
BRANCH   6   7
HETATM    7  C10 UNL     1     -33.205  18.296  -1.093  1.00 20.00     0.014 C 
HETATM    8  C8  UNL     1     -33.798  18.178   0.316  1.00 20.00     0.015 C 
BRANCH   7   9
HETATM    9  C9  UNL     1     -31.672  18.444  -1.018  1.00 20.00     0.004 C 
HETATM   10  C7  UNL     1     -31.130  18.341   0.403  1.00 20.00     0.006 C 
ENDBRANCH   7   9
ENDBRANCH   6   7
TORSDOF 2
ENDMDL
MODEL 7
REMARK VINA RESULT:      -4.7     11.300     12.202
REMARK  2 active torsions:
REMARK  status: ('A' for Active; 'I' for Inactive)
REMARK    1  A    between atoms: C6_6  and  C10_10 
REMARK    2  A    between atoms: C9_9  and  C10_10 
ROOT
HETATM    1  C1  UNL     1     -34.503  14.962  -3.560  1.00 20.00     0.000 A 
HETATM    2  C2  UNL     1     -35.354  15.453  -2.571  1.00 20.00     0.001 A 
HETATM    3  C3  UNL     1     -33.244  15.534  -3.744  1.00 20.00     0.001 A 
HETATM    4  C4  UNL     1     -34.948  16.518  -1.767  1.00 20.00     0.007 A 
HETATM    5  C5  UNL     1     -32.837  16.598  -2.940  1.00 20.00     0.007 A 
HETATM    6  C6  UNL     1     -33.690  17.092  -1.951  1.00 20.00    -0.054 A 
ENDROOT
BRANCH   6   7
HETATM    7  C10 UNL     1     -33.246  18.251  -1.076  1.00 20.00     0.014 C 
HETATM    8  C8  UNL     1     -33.828  18.113   0.336  1.00 20.00     0.015 C 
BRANCH   7   9
HETATM    9  C9  UNL     1     -31.714  18.409  -1.011  1.00 20.00     0.004 C 
HETATM   10  C7  UNL     1     -31.167  18.348   0.410  1.00 20.00     0.006 C 
ENDBRANCH   7   9
ENDBRANCH   6   7
TORSDOF 2
ENDMDL
MODEL 8
REMARK VINA RESULT:      -4.5     11.278     12.142
REMARK  2 active torsions:
REMARK  status: ('A' for Active; 'I' for Inactive)
REMARK    1  A    between atoms: C6_6  and  C10_10 
REMARK    2  A    between atoms: C9_9  and  C10_10 
ROOT
HETATM    1  C1  UNL     1     -34.669  14.374  -4.132  1.00 20.00     0.000 A 
HETATM    2  C2  UNL     1     -35.525  14.916  -3.176  1.00 20.00     0.001 A 
HETATM    3  C3  UNL     1     -33.366  14.856  -4.256  1.00 20.00     0.001 A 
HETATM    4  C4  UNL     1     -35.080  15.943  -2.343  1.00 20.00     0.007 A 
HETATM    5  C5  UNL     1     -32.920  15.882  -3.423  1.00 20.00     0.007 A 
HETATM    6  C6  UNL     1     -33.778  16.427  -2.466  1.00 20.00    -0.054 A 
ENDROOT
BRANCH   6   7
HETATM    7  C10 UNL     1     -33.291  17.544  -1.560  1.00 20.00     0.014 C 
HETATM    8  C8  UNL     1     -32.483  18.573  -2.360  1.00 20.00     0.015 C 
BRANCH   7   9
HETATM    9  C9  UNL     1     -34.432  18.241  -0.791  1.00 20.00     0.004 C 
HETATM   10  C7  UNL     1     -34.368  18.010   0.714  1.00 20.00     0.006 C 
ENDBRANCH   7   9
ENDBRANCH   6   7
TORSDOF 2
ENDMDL
MODEL 9
REMARK VINA RESULT:      -4.4     11.300     12.185
REMARK  2 active torsions:
REMARK  status: ('A' for Active; 'I' for Inactive)
REMARK    1  A    between atoms: C6_6  and  C10_10 
REMARK    2  A    between atoms: C9_9  and  C10_10 
ROOT
HETATM    1  C1  UNL     1     -33.757  15.625  -3.504  1.00 20.00     0.000 A 
HETATM    2  C2  UNL     1     -34.927  15.434  -2.769  1.00 20.00     0.001 A 
HETATM    3  C3  UNL     1     -32.852  16.618  -3.131  1.00 20.00     0.001 A 
HETATM    4  C4  UNL     1     -35.193  16.239  -1.661  1.00 20.00     0.007 A 
HETATM    5  C5  UNL     1     -33.118  17.423  -2.022  1.00 20.00     0.007 A 
HETATM    6  C6  UNL     1     -34.289  17.234  -1.287  1.00 20.00    -0.054 A 
ENDROOT
BRANCH   6   7
HETATM    7  C10 UNL     1     -34.577  18.110  -0.081  1.00 20.00     0.014 C 
HETATM    8  C8  UNL     1     -35.648  17.467   0.808  1.00 20.00     0.015 C 
BRANCH   7   9
HETATM    9  C9  UNL     1     -33.318  18.434   0.748  1.00 20.00     0.004 C 
HETATM   10  C7  UNL     1     -33.444  18.029   2.211  1.00 20.00     0.006 C 
ENDBRANCH   7   9
ENDBRANCH   6   7
TORSDOF 2
ENDMDL
