MODEL 1
REMARK VINA RESULT:      -5.5      0.000      0.000
REMARK  1 active torsions:
REMARK  status: ('A' for Active; 'I' for Inactive)
REMARK    1  A    between atoms: C6_6  and  N8_8 
ROOT
HETATM    1  C1  UNL     1     -34.923   5.171   5.484  1.00 20.00     0.000 A 
HETATM    2  C2  UNL     1     -34.280   6.312   5.964  1.00 20.00     0.002 A 
HETATM    3  C3  UNL     1     -34.696   4.741   4.177  1.00 20.00     0.002 A 
HETATM    4  C4  UNL     1     -33.410   7.022   5.138  1.00 20.00     0.029 A 
HETATM    5  C5  UNL     1     -33.825   5.452   3.350  1.00 20.00     0.029 A 
HETATM    6  C6  UNL     1     -33.182   6.592   3.831  1.00 20.00     0.027 A 
ENDROOT
BRANCH   6   7
HETATM    7  N8  UNL     1     -32.302   7.310   2.994  1.00 20.00    -0.394 N 
HETATM    8  C7  UNL     1     -32.598   7.606   1.627  1.00 20.00     0.146 C 
HETATM    9  H17 UNL     1     -31.437   7.614   3.400  1.00 20.00     0.159 HD
ENDBRANCH   6   7
TORSDOF 1
ENDMDL
MODEL 2
REMARK VINA RESULT:      -5.5      0.004      1.708
REMARK  1 active torsions:
REMARK  status: ('A' for Active; 'I' for Inactive)
REMARK    1  A    between atoms: C6_6  and  N8_8 
ROOT
HETATM    1  C1  UNL     1     -34.922   5.175   5.487  1.00 20.00     0.000 A 
HETATM    2  C2  UNL     1     -34.696   4.742   4.181  1.00 20.00     0.002 A 
HETATM    3  C3  UNL     1     -34.278   6.316   5.965  1.00 20.00     0.002 A 
HETATM    4  C4  UNL     1     -33.825   5.449   3.352  1.00 20.00     0.029 A 
HETATM    5  C5  UNL     1     -33.406   7.024   5.136  1.00 20.00     0.029 A 
HETATM    6  C6  UNL     1     -33.181   6.591   3.830  1.00 20.00     0.027 A 
ENDROOT
BRANCH   6   7
HETATM    7  N8  UNL     1     -32.300   7.307   2.992  1.00 20.00    -0.394 N 
HETATM    8  C7  UNL     1     -32.597   7.604   1.626  1.00 20.00     0.146 C 
HETATM    9  H17 UNL     1     -31.434   7.609   3.397  1.00 20.00     0.159 HD
ENDBRANCH   6   7
TORSDOF 1
ENDMDL
MODEL 3
REMARK VINA RESULT:      -4.2      1.375      1.872
REMARK  1 active torsions:
REMARK  status: ('A' for Active; 'I' for Inactive)
REMARK    1  A    between atoms: C6_6  and  N8_8 
ROOT
HETATM    1  C1  UNL     1     -34.515   6.209   6.347  1.00 20.00     0.000 A 
HETATM    2  C2  UNL     1     -33.700   7.091   5.638  1.00 20.00     0.002 A 
HETATM    3  C3  UNL     1     -34.992   5.053   5.729  1.00 20.00     0.002 A 
HETATM    4  C4  UNL     1     -33.361   6.817   4.313  1.00 20.00     0.029 A 
HETATM    5  C5  UNL     1     -34.654   4.778   4.404  1.00 20.00     0.029 A 
HETATM    6  C6  UNL     1     -33.838   5.661   3.696  1.00 20.00     0.027 A 
ENDROOT
BRANCH   6   7
HETATM    7  N8  UNL     1     -33.496   5.383   2.356  1.00 20.00    -0.394 N 
HETATM    8  C7  UNL     1     -33.036   4.101   1.922  1.00 20.00     0.146 C 
HETATM    9  H17 UNL     1     -33.588   6.135   1.699  1.00 20.00     0.159 HD
ENDBRANCH   6   7
TORSDOF 1
ENDMDL
MODEL 4
REMARK VINA RESULT:      -4.1     15.413     15.903
REMARK  1 active torsions:
REMARK  status: ('A' for Active; 'I' for Inactive)
REMARK    1  A    between atoms: C6_6  and  N8_8 
ROOT
HETATM    1  C1  UNL     1     -26.067  17.857  12.110  1.00 20.00     0.000 A 
HETATM    2  C2  UNL     1     -25.597  16.557  12.292  1.00 20.00     0.002 A 
HETATM    3  C3  UNL     1     -25.510  18.667  11.120  1.00 20.00     0.002 A 
HETATM    4  C4  UNL     1     -24.571  16.066  11.486  1.00 20.00     0.029 A 
HETATM    5  C5  UNL     1     -24.483  18.177  10.313  1.00 20.00     0.029 A 
HETATM    6  C6  UNL     1     -24.014  16.876  10.496  1.00 20.00     0.027 A 
ENDROOT
BRANCH   6   7
HETATM    7  N8  UNL     1     -22.975  16.380   9.680  1.00 20.00    -0.394 N 
HETATM    8  C7  UNL     1     -22.326  17.173   8.682  1.00 20.00     0.146 C 
HETATM    9  H17 UNL     1     -22.700  15.427   9.825  1.00 20.00     0.159 HD
ENDBRANCH   6   7
TORSDOF 1
ENDMDL
MODEL 5
REMARK VINA RESULT:      -4.1     11.840     12.393
REMARK  1 active torsions:
REMARK  status: ('A' for Active; 'I' for Inactive)
REMARK    1  A    between atoms: C6_6  and  N8_8 
ROOT
HETATM    1  C1  UNL     1     -34.989  15.930  -2.216  1.00 20.00     0.000 A 
HETATM    2  C2  UNL     1     -33.692  16.350  -2.507  1.00 20.00     0.002 A 
HETATM    3  C3  UNL     1     -35.684  15.132  -3.125  1.00 20.00     0.002 A 
HETATM    4  C4  UNL     1     -33.089  15.972  -3.707  1.00 20.00     0.029 A 
HETATM    5  C5  UNL     1     -35.082  14.754  -4.325  1.00 20.00     0.029 A 
HETATM    6  C6  UNL     1     -33.784  15.174  -4.616  1.00 20.00     0.027 A 
ENDROOT
BRANCH   6   7
HETATM    7  N8  UNL     1     -33.175  14.791  -5.829  1.00 20.00    -0.394 N 
HETATM    8  C7  UNL     1     -33.754  15.062  -7.108  1.00 20.00     0.146 C 
HETATM    9  H17 UNL     1     -32.298  14.308  -5.764  1.00 20.00     0.159 HD
ENDBRANCH   6   7
TORSDOF 1
ENDMDL
MODEL 6
REMARK VINA RESULT:      -4.1     11.843     12.470
REMARK  1 active torsions:
REMARK  status: ('A' for Active; 'I' for Inactive)
REMARK    1  A    between atoms: C6_6  and  N8_8 
ROOT
HETATM    1  C1  UNL     1     -34.973  15.951  -2.196  1.00 20.00     0.000 A 
HETATM    2  C2  UNL     1     -35.681  15.158  -3.099  1.00 20.00     0.002 A 
HETATM    3  C3  UNL     1     -33.673  16.359  -2.497  1.00 20.00     0.002 A 
HETATM    4  C4  UNL     1     -35.090  14.773  -4.302  1.00 20.00     0.029 A 
HETATM    5  C5  UNL     1     -33.082  15.974  -3.701  1.00 20.00     0.029 A 
HETATM    6  C6  UNL     1     -33.790  15.180  -4.603  1.00 20.00     0.027 A 
ENDROOT
BRANCH   6   7
HETATM    7  N8  UNL     1     -33.192  14.791  -5.819  1.00 20.00    -0.394 N 
HETATM    8  C7  UNL     1     -33.769  15.078  -7.096  1.00 20.00     0.146 C 
HETATM    9  H17 UNL     1     -32.325  14.291  -5.759  1.00 20.00     0.159 HD
ENDBRANCH   6   7
TORSDOF 1
ENDMDL
MODEL 7
REMARK VINA RESULT:      -3.9     11.756     12.351
REMARK  1 active torsions:
REMARK  status: ('A' for Active; 'I' for Inactive)
REMARK    1  A    between atoms: C6_6  and  N8_8 
ROOT
HETATM    1  C1  UNL     1     -34.340  17.219  -1.253  1.00 20.00     0.000 A 
HETATM    2  C2  UNL     1     -33.142  17.525  -1.898  1.00 20.00     0.002 A 
HETATM    3  C3  UNL     1     -35.156  16.200  -1.743  1.00 20.00     0.002 A 
HETATM    4  C4  UNL     1     -32.759  16.811  -3.033  1.00 20.00     0.029 A 
HETATM    5  C5  UNL     1     -34.773  15.485  -2.879  1.00 20.00     0.029 A 
HETATM    6  C6  UNL     1     -33.574  15.791  -3.524  1.00 20.00     0.027 A 
ENDROOT
BRANCH   6   7
HETATM    7  N8  UNL     1     -33.188  15.069  -4.672  1.00 20.00    -0.394 N 
HETATM    8  C7  UNL     1     -34.005  14.974  -5.842  1.00 20.00     0.146 C 
HETATM    9  H17 UNL     1     -32.297  14.609  -4.641  1.00 20.00     0.159 HD
ENDBRANCH   6   7
TORSDOF 1
ENDMDL
MODEL 8
REMARK VINA RESULT:      -3.9     11.767     12.394
REMARK  1 active torsions:
REMARK  status: ('A' for Active; 'I' for Inactive)
REMARK    1  A    between atoms: C6_6  and  N8_8 
ROOT
HETATM    1  C1  UNL     1     -34.401  17.334  -1.192  1.00 20.00     0.000 A 
HETATM    2  C2  UNL     1     -35.204  16.303  -1.678  1.00 20.00     0.002 A 
HETATM    3  C3  UNL     1     -33.182  17.618  -1.808  1.00 20.00     0.002 A 
HETATM    4  C4  UNL     1     -34.789  15.555  -2.780  1.00 20.00     0.029 A 
HETATM    5  C5  UNL     1     -32.766  16.870  -2.911  1.00 20.00     0.029 A 
HETATM    6  C6  UNL     1     -33.570  15.839  -3.396  1.00 20.00     0.027 A 
ENDROOT
BRANCH   6   7
HETATM    7  N8  UNL     1     -33.149  15.084  -4.510  1.00 20.00    -0.394 N 
HETATM    8  C7  UNL     1     -33.929  14.958  -5.703  1.00 20.00     0.146 C 
HETATM    9  H17 UNL     1     -32.262  14.623  -4.438  1.00 20.00     0.159 HD
ENDBRANCH   6   7
TORSDOF 1
ENDMDL
MODEL 9
REMARK VINA RESULT:      -3.9      9.332      9.751
REMARK  1 active torsions:
REMARK  status: ('A' for Active; 'I' for Inactive)
REMARK    1  A    between atoms: C6_6  and  N8_8 
ROOT
HETATM    1  C1  UNL     1     -42.209   8.010   0.611  1.00 20.00     0.000 A 
HETATM    2  C2  UNL     1     -41.390   8.088  -0.515  1.00 20.00     0.002 A 
HETATM    3  C3  UNL     1     -42.698   6.773   1.033  1.00 20.00     0.002 A 
HETATM    4  C4  UNL     1     -41.060   6.931  -1.219  1.00 20.00     0.029 A 
HETATM    5  C5  UNL     1     -42.368   5.615   0.329  1.00 20.00     0.029 A 
HETATM    6  C6  UNL     1     -41.548   5.694  -0.798  1.00 20.00     0.027 A 
ENDROOT
BRANCH   6   7
HETATM    7  N8  UNL     1     -41.215   4.523  -1.509  1.00 20.00    -0.394 N 
HETATM    8  C7  UNL     1     -42.154   3.814  -2.321  1.00 20.00     0.146 C 
HETATM    9  H17 UNL     1     -40.271   4.194  -1.425  1.00 20.00     0.159 HD
ENDBRANCH   6   7
TORSDOF 1
ENDMDL
