MODEL 1
REMARK VINA RESULT:      -6.1      0.000      0.000
REMARK  0 active torsions:
REMARK  status: ('A' for Active; 'I' for Inactive)
ROOT
HETATM    1  C1  UNL     1     -33.224   7.320   4.260  1.00 20.00     0.091 A 
HETATM    2  C2  UNL     1     -33.969   6.720   5.274  1.00 20.00     0.161 A 
HETATM    3  C3  UNL     1     -32.937   6.613   3.092  1.00 20.00     0.161 A 
HETATM    4  C4  UNL     1     -34.429   5.412   5.121  1.00 20.00     0.196 A 
HETATM    5  C5  UNL     1     -33.395   5.304   2.940  1.00 20.00     0.196 A 
HETATM    6  C6  UNL     1     -34.142   4.704   3.953  1.00 20.00     0.199 A 
HETATM    7  F7  UNL     1     -34.246   7.400   6.394  1.00 20.00    -0.203 F 
HETATM    8  F8  UNL     1     -32.220   7.189   2.118  1.00 20.00    -0.203 F 
HETATM    9  F9  UNL     1     -35.145   4.835   6.094  1.00 20.00    -0.199 F 
HETATM   10  F10 UNL     1     -33.119   4.625   1.819  1.00 20.00    -0.199 F 
HETATM   11  F11 UNL     1     -34.582   3.449   3.808  1.00 20.00    -0.199 F 
ENDROOT
TORSDOF 0
ENDMDL
MODEL 2
REMARK VINA RESULT:      -6.1      0.020      3.206
REMARK  0 active torsions:
REMARK  status: ('A' for Active; 'I' for Inactive)
ROOT
HETATM    1  C1  UNL     1     -33.242   7.310   4.260  1.00 20.00     0.091 A 
HETATM    2  C2  UNL     1     -32.953   6.605   3.092  1.00 20.00     0.161 A 
HETATM    3  C3  UNL     1     -33.981   6.703   5.276  1.00 20.00     0.161 A 
HETATM    4  C4  UNL     1     -33.403   5.294   2.939  1.00 20.00     0.196 A 
HETATM    5  C5  UNL     1     -34.432   5.392   5.123  1.00 20.00     0.196 A 
HETATM    6  C6  UNL     1     -34.142   4.687   3.955  1.00 20.00     0.199 A 
HETATM    7  F7  UNL     1     -32.243   7.187   2.117  1.00 20.00    -0.203 F 
HETATM    8  F8  UNL     1     -34.259   7.380   6.399  1.00 20.00    -0.203 F 
HETATM    9  F9  UNL     1     -33.126   4.617   1.817  1.00 20.00    -0.199 F 
HETATM   10  F10 UNL     1     -35.141   4.811   6.098  1.00 20.00    -0.199 F 
HETATM   11  F11 UNL     1     -34.575   3.429   3.807  1.00 20.00    -0.199 F 
ENDROOT
TORSDOF 0
ENDMDL
MODEL 3
REMARK VINA RESULT:      -5.9      0.871      2.708
REMARK  0 active torsions:
REMARK  status: ('A' for Active; 'I' for Inactive)
ROOT
HETATM    1  C1  UNL     1     -34.579   4.642   4.034  1.00 20.00     0.091 A 
HETATM    2  C2  UNL     1     -34.722   5.335   5.236  1.00 20.00     0.161 A 
HETATM    3  C3  UNL     1     -33.707   5.117   3.054  1.00 20.00     0.161 A 
HETATM    4  C4  UNL     1     -33.993   6.504   5.458  1.00 20.00     0.196 A 
HETATM    5  C5  UNL     1     -32.979   6.286   3.276  1.00 20.00     0.196 A 
HETATM    6  C6  UNL     1     -33.122   6.979   4.478  1.00 20.00     0.199 A 
HETATM    7  F7  UNL     1     -35.558   4.878   6.177  1.00 20.00    -0.203 F 
HETATM    8  F8  UNL     1     -33.569   4.451   1.899  1.00 20.00    -0.203 F 
HETATM    9  F9  UNL     1     -34.131   7.170   6.611  1.00 20.00    -0.199 F 
HETATM   10  F10 UNL     1     -32.143   6.742   2.335  1.00 20.00    -0.199 F 
HETATM   11  F11 UNL     1     -32.424   8.101   4.692  1.00 20.00    -0.199 F 
ENDROOT
TORSDOF 0
ENDMDL
MODEL 4
REMARK VINA RESULT:      -5.9      0.874      4.197
REMARK  0 active torsions:
REMARK  status: ('A' for Active; 'I' for Inactive)
ROOT
HETATM    1  C1  UNL     1     -34.600   4.742   4.016  1.00 20.00     0.091 A 
HETATM    2  C2  UNL     1     -33.729   5.224   3.039  1.00 20.00     0.161 A 
HETATM    3  C3  UNL     1     -34.712   5.404   5.239  1.00 20.00     0.161 A 
HETATM    4  C4  UNL     1     -32.970   6.368   3.284  1.00 20.00     0.196 A 
HETATM    5  C5  UNL     1     -33.951   6.547   5.485  1.00 20.00     0.196 A 
HETATM    6  C6  UNL     1     -33.081   7.029   4.508  1.00 20.00     0.199 A 
HETATM    7  F7  UNL     1     -33.623   4.589   1.864  1.00 20.00    -0.203 F 
HETATM    8  F8  UNL     1     -35.548   4.941   6.177  1.00 20.00    -0.203 F 
HETATM    9  F9  UNL     1     -32.133   6.830   2.347  1.00 20.00    -0.199 F 
HETATM   10  F10 UNL     1     -34.059   7.181   6.659  1.00 20.00    -0.199 F 
HETATM   11  F11 UNL     1     -32.351   8.126   4.743  1.00 20.00    -0.199 F 
ENDROOT
TORSDOF 0
ENDMDL
MODEL 5
REMARK VINA RESULT:      -5.6      1.093      1.906
REMARK  0 active torsions:
REMARK  status: ('A' for Active; 'I' for Inactive)
ROOT
HETATM    1  C1  UNL     1     -33.530   6.977   5.625  1.00 20.00     0.091 A 
HETATM    2  C2  UNL     1     -34.444   5.932   5.491  1.00 20.00     0.161 A 
HETATM    3  C3  UNL     1     -32.733   7.350   4.542  1.00 20.00     0.161 A 
HETATM    4  C4  UNL     1     -34.561   5.259   4.275  1.00 20.00     0.196 A 
HETATM    5  C5  UNL     1     -32.850   6.677   3.327  1.00 20.00     0.196 A 
HETATM    6  C6  UNL     1     -33.764   5.632   3.192  1.00 20.00     0.199 A 
HETATM    7  F7  UNL     1     -35.209   5.574   6.531  1.00 20.00    -0.203 F 
HETATM    8  F8  UNL     1     -31.856   8.354   4.671  1.00 20.00    -0.203 F 
HETATM    9  F9  UNL     1     -35.438   4.255   4.146  1.00 20.00    -0.199 F 
HETATM   10  F10 UNL     1     -32.085   7.035   2.288  1.00 20.00    -0.199 F 
HETATM   11  F11 UNL     1     -33.877   4.986   2.026  1.00 20.00    -0.199 F 
ENDROOT
TORSDOF 0
ENDMDL
MODEL 6
REMARK VINA RESULT:      -5.6      1.093      3.182
REMARK  0 active torsions:
REMARK  status: ('A' for Active; 'I' for Inactive)
ROOT
HETATM    1  C1  UNL     1     -33.529   6.978   5.623  1.00 20.00     0.091 A 
HETATM    2  C2  UNL     1     -32.733   7.350   4.540  1.00 20.00     0.161 A 
HETATM    3  C3  UNL     1     -34.444   5.933   5.490  1.00 20.00     0.161 A 
HETATM    4  C4  UNL     1     -32.850   6.677   3.324  1.00 20.00     0.196 A 
HETATM    5  C5  UNL     1     -34.562   5.261   4.274  1.00 20.00     0.196 A 
HETATM    6  C6  UNL     1     -33.765   5.631   3.191  1.00 20.00     0.199 A 
HETATM    7  F7  UNL     1     -31.853   8.352   4.669  1.00 20.00    -0.203 F 
HETATM    8  F8  UNL     1     -35.209   5.576   6.530  1.00 20.00    -0.203 F 
HETATM    9  F9  UNL     1     -32.085   7.033   2.285  1.00 20.00    -0.199 F 
HETATM   10  F10 UNL     1     -35.440   4.257   4.147  1.00 20.00    -0.199 F 
HETATM   11  F11 UNL     1     -33.877   4.986   2.024  1.00 20.00    -0.199 F 
ENDROOT
TORSDOF 0
ENDMDL
MODEL 7
REMARK VINA RESULT:      -5.2      0.983      2.798
REMARK  0 active torsions:
REMARK  status: ('A' for Active; 'I' for Inactive)
ROOT
HETATM    1  C1  UNL     1     -33.890   5.381   2.960  1.00 20.00     0.091 A 
HETATM    2  C2  UNL     1     -34.610   5.148   4.132  1.00 20.00     0.161 A 
HETATM    3  C3  UNL     1     -32.924   6.387   2.923  1.00 20.00     0.161 A 
HETATM    4  C4  UNL     1     -34.365   5.921   5.266  1.00 20.00     0.196 A 
HETATM    5  C5  UNL     1     -32.680   7.160   4.057  1.00 20.00     0.196 A 
HETATM    6  C6  UNL     1     -33.399   6.928   5.229  1.00 20.00     0.199 A 
HETATM    7  F7  UNL     1     -35.536   4.181   4.168  1.00 20.00    -0.203 F 
HETATM    8  F8  UNL     1     -32.233   6.611   1.797  1.00 20.00    -0.203 F 
HETATM    9  F9  UNL     1     -35.055   5.698   6.391  1.00 20.00    -0.199 F 
HETATM   10  F10 UNL     1     -31.753   8.126   4.021  1.00 20.00    -0.199 F 
HETATM   11  F11 UNL     1     -33.164   7.670   6.318  1.00 20.00    -0.199 F 
ENDROOT
TORSDOF 0
ENDMDL
MODEL 8
REMARK VINA RESULT:      -5.1      0.934      3.048
REMARK  0 active torsions:
REMARK  status: ('A' for Active; 'I' for Inactive)
ROOT
HETATM    1  C1  UNL     1     -32.759   6.277   2.846  1.00 20.00     0.091 A 
HETATM    2  C2  UNL     1     -33.680   5.232   2.904  1.00 20.00     0.161 A 
HETATM    3  C3  UNL     1     -32.614   7.141   3.932  1.00 20.00     0.161 A 
HETATM    4  C4  UNL     1     -34.458   5.050   4.048  1.00 20.00     0.196 A 
HETATM    5  C5  UNL     1     -33.392   6.959   5.075  1.00 20.00     0.196 A 
HETATM    6  C6  UNL     1     -34.314   5.914   5.134  1.00 20.00     0.199 A 
HETATM    7  F7  UNL     1     -33.818   4.402   1.862  1.00 20.00    -0.203 F 
HETATM    8  F8  UNL     1     -31.729   8.145   3.877  1.00 20.00    -0.203 F 
HETATM    9  F9  UNL     1     -35.343   4.047   4.104  1.00 20.00    -0.199 F 
HETATM   10  F10 UNL     1     -33.253   7.789   6.117  1.00 20.00    -0.199 F 
HETATM   11  F11 UNL     1     -35.061   5.740   6.231  1.00 20.00    -0.199 F 
ENDROOT
TORSDOF 0
ENDMDL
MODEL 9
REMARK VINA RESULT:      -5.1      0.923      2.615
REMARK  0 active torsions:
REMARK  status: ('A' for Active; 'I' for Inactive)
ROOT
HETATM    1  C1  UNL     1     -32.728   6.262   2.884  1.00 20.00     0.091 A 
HETATM    2  C2  UNL     1     -32.613   7.132   3.968  1.00 20.00     0.161 A 
HETATM    3  C3  UNL     1     -33.642   5.209   2.929  1.00 20.00     0.161 A 
HETATM    4  C4  UNL     1     -33.412   6.951   5.096  1.00 20.00     0.196 A 
HETATM    5  C5  UNL     1     -34.440   5.027   4.058  1.00 20.00     0.196 A 
HETATM    6  C6  UNL     1     -34.326   5.898   5.141  1.00 20.00     0.199 A 
HETATM    7  F7  UNL     1     -31.736   8.144   3.924  1.00 20.00    -0.203 F 
HETATM    8  F8  UNL     1     -33.752   4.373   1.888  1.00 20.00    -0.203 F 
HETATM    9  F9  UNL     1     -33.301   7.786   6.137  1.00 20.00    -0.199 F 
HETATM   10  F10 UNL     1     -35.318   4.016   4.100  1.00 20.00    -0.199 F 
HETATM   11  F11 UNL     1     -35.092   5.723   6.225  1.00 20.00    -0.199 F 
ENDROOT
TORSDOF 0
ENDMDL
