MODEL 1
REMARK VINA RESULT:      -5.5      0.000      0.000
REMARK  1 active torsions:
REMARK  status: ('A' for Active; 'I' for Inactive)
REMARK    1  A    between atoms: C6_6  and  N9_9 
ROOT
HETATM    1  N8  UNL     1     -33.043   9.190   0.773  1.00 20.00     0.068 N 
HETATM    2  N9  UNL     1     -32.128   7.156   1.637  1.00 20.00    -0.073 NA
HETATM    3  N10 UNL     1     -32.609   8.220   1.188  1.00 20.00    -0.162 NA
ENDROOT
BRANCH   2   4
HETATM    4  C6  UNL     1     -32.846   6.654   2.727  1.00 20.00     0.093 A 
HETATM    5  C3  UNL     1     -33.515   5.435   2.618  1.00 20.00     0.035 A 
HETATM    6  C1  UNL     1     -34.231   4.933   3.705  1.00 20.00     0.009 A 
HETATM    7  C5  UNL     1     -34.276   5.650   4.902  1.00 20.00    -0.062 A 
HETATM    8  C2  UNL     1     -33.607   6.869   5.010  1.00 20.00     0.009 A 
HETATM    9  C7  UNL     1     -35.042   5.115   6.063  1.00 20.00     0.048 C 
HETATM   10  C4  UNL     1     -32.891   7.371   3.922  1.00 20.00     0.035 A 
ENDBRANCH   2   4
TORSDOF 1
ENDMDL
MODEL 2
REMARK VINA RESULT:      -5.0     10.972     11.702
REMARK  1 active torsions:
REMARK  status: ('A' for Active; 'I' for Inactive)
REMARK    1  A    between atoms: C6_6  and  N9_9 
ROOT
HETATM    1  N8  UNL     1     -34.011  15.117  -7.053  1.00 20.00     0.068 N 
HETATM    2  N9  UNL     1     -34.023  14.120  -4.879  1.00 20.00    -0.073 NA
HETATM    3  N10 UNL     1     -34.016  14.645  -6.014  1.00 20.00    -0.162 NA
ENDROOT
BRANCH   2   4
HETATM    4  C6  UNL     1     -34.055  15.063  -3.846  1.00 20.00     0.093 A 
HETATM    5  C3  UNL     1     -32.964  15.906  -3.639  1.00 20.00     0.035 A 
HETATM    6  C1  UNL     1     -32.995  16.848  -2.610  1.00 20.00     0.009 A 
HETATM    7  C5  UNL     1     -34.120  16.945  -1.789  1.00 20.00    -0.062 A 
HETATM    8  C2  UNL     1     -35.211  16.101  -1.996  1.00 20.00     0.009 A 
HETATM    9  C7  UNL     1     -34.154  17.951  -0.689  1.00 20.00     0.048 C 
HETATM   10  C4  UNL     1     -35.179  15.160  -3.026  1.00 20.00     0.035 A 
ENDBRANCH   2   4
TORSDOF 1
ENDMDL
MODEL 3
REMARK VINA RESULT:      -5.0     10.969     11.666
REMARK  1 active torsions:
REMARK  status: ('A' for Active; 'I' for Inactive)
REMARK    1  A    between atoms: C6_6  and  N9_9 
ROOT
HETATM    1  N8  UNL     1     -34.026  15.115  -7.053  1.00 20.00     0.068 N 
HETATM    2  N9  UNL     1     -34.011  14.121  -4.877  1.00 20.00    -0.073 NA
HETATM    3  N10 UNL     1     -34.018  14.644  -6.013  1.00 20.00    -0.162 NA
ENDROOT
BRANCH   2   4
HETATM    4  C6  UNL     1     -34.046  15.065  -3.845  1.00 20.00     0.093 A 
HETATM    5  C3  UNL     1     -35.170  15.158  -3.025  1.00 20.00     0.035 A 
HETATM    6  C1  UNL     1     -35.206  16.098  -1.995  1.00 20.00     0.009 A 
HETATM    7  C5  UNL     1     -34.116  16.945  -1.786  1.00 20.00    -0.062 A 
HETATM    8  C2  UNL     1     -32.992  16.852  -2.607  1.00 20.00     0.009 A 
HETATM    9  C7  UNL     1     -34.154  17.950  -0.686  1.00 20.00     0.048 C 
HETATM   10  C4  UNL     1     -32.957  15.911  -3.637  1.00 20.00     0.035 A 
ENDBRANCH   2   4
TORSDOF 1
ENDMDL
MODEL 4
REMARK VINA RESULT:      -5.0     11.050     11.594
REMARK  1 active torsions:
REMARK  status: ('A' for Active; 'I' for Inactive)
REMARK    1  A    between atoms: C6_6  and  N9_9 
ROOT
HETATM    1  N8  UNL     1     -38.769  14.404  -4.380  1.00 20.00     0.068 N 
HETATM    2  N9  UNL     1     -36.539  13.539  -4.399  1.00 20.00    -0.073 NA
HETATM    3  N10 UNL     1     -37.704  13.995  -4.388  1.00 20.00    -0.162 NA
ENDROOT
BRANCH   2   4
HETATM    4  C6  UNL     1     -35.598  14.444  -3.896  1.00 20.00     0.093 A 
HETATM    5  C3  UNL     1     -34.271  14.375  -4.320  1.00 20.00     0.035 A 
HETATM    6  C1  UNL     1     -33.331  15.277  -3.820  1.00 20.00     0.009 A 
HETATM    7  C5  UNL     1     -33.721  16.249  -2.896  1.00 20.00    -0.062 A 
HETATM    8  C2  UNL     1     -35.048  16.317  -2.473  1.00 20.00     0.009 A 
HETATM    9  C7  UNL     1     -32.718  17.213  -2.361  1.00 20.00     0.048 C 
HETATM   10  C4  UNL     1     -35.987  15.414  -2.974  1.00 20.00     0.035 A 
ENDBRANCH   2   4
TORSDOF 1
ENDMDL
MODEL 5
REMARK VINA RESULT:      -4.9     11.099     11.743
REMARK  1 active torsions:
REMARK  status: ('A' for Active; 'I' for Inactive)
REMARK    1  A    between atoms: C6_6  and  N9_9 
ROOT
HETATM    1  N8  UNL     1     -39.267  14.562  -4.235  1.00 20.00     0.068 N 
HETATM    2  N9  UNL     1     -37.075  13.662  -4.559  1.00 20.00    -0.073 NA
HETATM    3  N10 UNL     1     -38.220  14.136  -4.388  1.00 20.00    -0.162 NA
ENDROOT
BRANCH   2   4
HETATM    4  C6  UNL     1     -36.067  14.474  -4.029  1.00 20.00     0.093 A 
HETATM    5  C3  UNL     1     -36.404  15.611  -3.294  1.00 20.00     0.035 A 
HETATM    6  C1  UNL     1     -35.400  16.422  -2.764  1.00 20.00     0.009 A 
HETATM    7  C5  UNL     1     -34.059  16.093  -2.968  1.00 20.00    -0.062 A 
HETATM    8  C2  UNL     1     -33.723  14.956  -3.702  1.00 20.00     0.009 A 
HETATM    9  C7  UNL     1     -32.985  16.959  -2.402  1.00 20.00     0.048 C 
HETATM   10  C4  UNL     1     -34.727  14.146  -4.233  1.00 20.00     0.035 A 
ENDBRANCH   2   4
TORSDOF 1
ENDMDL
MODEL 6
REMARK VINA RESULT:      -4.8     15.633     16.015
REMARK  1 active torsions:
REMARK  status: ('A' for Active; 'I' for Inactive)
REMARK    1  A    between atoms: C6_6  and  N9_9 
ROOT
HETATM    1  N8  UNL     1     -26.198  18.922   6.006  1.00 20.00     0.068 N 
HETATM    2  N9  UNL     1     -23.899  18.943   6.665  1.00 20.00    -0.073 NA
HETATM    3  N10 UNL     1     -25.103  18.931   6.324  1.00 20.00    -0.162 NA
ENDROOT
BRANCH   2   4
HETATM    4  C6  UNL     1     -23.702  18.491   7.973  1.00 20.00     0.093 A 
HETATM    5  C3  UNL     1     -22.561  17.755   8.291  1.00 20.00     0.035 A 
HETATM    6  C1  UNL     1     -22.362  17.303   9.596  1.00 20.00     0.009 A 
HETATM    7  C5  UNL     1     -23.307  17.589  10.584  1.00 20.00    -0.062 A 
HETATM    8  C2  UNL     1     -24.448  18.325  10.265  1.00 20.00     0.009 A 
HETATM    9  C7  UNL     1     -23.096  17.106  11.978  1.00 20.00     0.048 C 
HETATM   10  C4  UNL     1     -24.646  18.776   8.960  1.00 20.00     0.035 A 
ENDBRANCH   2   4
TORSDOF 1
ENDMDL
MODEL 7
REMARK VINA RESULT:      -4.7     15.676     15.905
REMARK  1 active torsions:
REMARK  status: ('A' for Active; 'I' for Inactive)
REMARK    1  A    between atoms: C6_6  and  N9_9 
ROOT
HETATM    1  N8  UNL     1     -24.416  19.261   5.665  1.00 20.00     0.068 N 
HETATM    2  N9  UNL     1     -22.946  18.287   7.281  1.00 20.00    -0.073 NA
HETATM    3  N10 UNL     1     -23.717  18.797   6.439  1.00 20.00    -0.162 NA
ENDROOT
BRANCH   2   4
HETATM    4  C6  UNL     1     -23.555  18.090   8.524  1.00 20.00     0.093 A 
HETATM    5  C3  UNL     1     -24.559  18.959   8.952  1.00 20.00     0.035 A 
HETATM    6  C1  UNL     1     -25.169  18.763  10.192  1.00 20.00     0.009 A 
HETATM    7  C5  UNL     1     -24.773  17.698  11.003  1.00 20.00    -0.062 A 
HETATM    8  C2  UNL     1     -23.769  16.831  10.575  1.00 20.00     0.009 A 
HETATM    9  C7  UNL     1     -25.424  17.489  12.328  1.00 20.00     0.048 C 
HETATM   10  C4  UNL     1     -23.160  17.027   9.335  1.00 20.00     0.035 A 
ENDBRANCH   2   4
TORSDOF 1
ENDMDL
MODEL 8
REMARK VINA RESULT:      -4.7     16.130     16.242
REMARK  1 active torsions:
REMARK  status: ('A' for Active; 'I' for Inactive)
REMARK    1  A    between atoms: C6_6  and  N9_9 
ROOT
HETATM    1  N8  UNL     1     -21.293  17.033   7.088  1.00 20.00     0.068 N 
HETATM    2  N9  UNL     1     -23.169  18.515   7.113  1.00 20.00    -0.073 NA
HETATM    3  N10 UNL     1     -22.189  17.739   7.103  1.00 20.00    -0.162 NA
ENDROOT
BRANCH   2   4
HETATM    4  C6  UNL     1     -23.838  18.529   8.341  1.00 20.00     0.093 A 
HETATM    5  C3  UNL     1     -23.316  17.823   9.425  1.00 20.00     0.035 A 
HETATM    6  C1  UNL     1     -23.981  17.837  10.652  1.00 20.00     0.009 A 
HETATM    7  C5  UNL     1     -25.169  18.557  10.793  1.00 20.00    -0.062 A 
HETATM    8  C2  UNL     1     -25.690  19.263   9.708  1.00 20.00     0.009 A 
HETATM    9  C7  UNL     1     -25.880  18.572  12.103  1.00 20.00     0.048 C 
HETATM   10  C4  UNL     1     -25.024  19.249   8.482  1.00 20.00     0.035 A 
ENDBRANCH   2   4
TORSDOF 1
ENDMDL
MODEL 9
REMARK VINA RESULT:      -4.5     11.287     11.884
REMARK  1 active torsions:
REMARK  status: ('A' for Active; 'I' for Inactive)
REMARK    1  A    between atoms: C6_6  and  N9_9 
ROOT
HETATM    1  N8  UNL     1     -30.848  18.217   0.164  1.00 20.00     0.068 N 
HETATM    2  N9  UNL     1     -32.959  18.681  -0.861  1.00 20.00    -0.073 NA
HETATM    3  N10 UNL     1     -31.855  18.435  -0.327  1.00 20.00    -0.162 NA
ENDROOT
BRANCH   2   4
HETATM    4  C6  UNL     1     -33.455  17.603  -1.601  1.00 20.00     0.093 A 
HETATM    5  C3  UNL     1     -32.720  17.098  -2.673  1.00 20.00     0.035 A 
HETATM    6  C1  UNL     1     -33.213  16.021  -3.412  1.00 20.00     0.009 A 
HETATM    7  C5  UNL     1     -34.443  15.451  -3.076  1.00 20.00    -0.062 A 
HETATM    8  C2  UNL     1     -35.177  15.957  -2.004  1.00 20.00     0.009 A 
HETATM    9  C7  UNL     1     -34.970  14.302  -3.865  1.00 20.00     0.048 C 
HETATM   10  C4  UNL     1     -34.683  17.033  -1.266  1.00 20.00     0.035 A 
ENDBRANCH   2   4
TORSDOF 1
ENDMDL
