MODEL 1
REMARK VINA RESULT:      -6.6      0.000      0.000
REMARK  0 active torsions:
REMARK  status: ('A' for Active; 'I' for Inactive)
ROOT
HETATM    1  C1  UNL     1     -34.499   6.165   6.235  1.00 20.00     0.001 A 
HETATM    2  C2  UNL     1     -35.015   4.990   5.663  1.00 20.00     0.001 A 
HETATM    3  C3  UNL     1     -33.654   7.006   5.505  1.00 20.00     0.012 A 
HETATM    4  C4  UNL     1     -34.696   4.634   4.351  1.00 20.00     0.008 A 
HETATM    5  C5  UNL     1     -33.344   6.646   4.206  1.00 20.00    -0.030 A 
HETATM    6  C6  UNL     1     -33.860   5.473   3.636  1.00 20.00    -0.044 A 
HETATM    7  C7  UNL     1     -32.505   7.317   3.227  1.00 20.00     0.008 A 
HETATM    8  C8  UNL     1     -32.511   6.578   2.106  1.00 20.00    -0.021 A 
HETATM    9  C9  UNL     1     -33.362   5.336   2.231  1.00 20.00     0.066 A 
ENDROOT
TORSDOF 0
ENDMDL
MODEL 2
REMARK VINA RESULT:      -6.5      0.104      1.981
REMARK  0 active torsions:
REMARK  status: ('A' for Active; 'I' for Inactive)
ROOT
HETATM    1  C1  UNL     1     -35.025   5.044   5.705  1.00 20.00     0.001 A 
HETATM    2  C2  UNL     1     -34.480   6.220   6.247  1.00 20.00     0.001 A 
HETATM    3  C3  UNL     1     -34.726   4.652   4.397  1.00 20.00     0.012 A 
HETATM    4  C4  UNL     1     -33.627   7.027   5.490  1.00 20.00     0.008 A 
HETATM    5  C5  UNL     1     -33.880   5.456   3.655  1.00 20.00    -0.030 A 
HETATM    6  C6  UNL     1     -33.336   6.631   4.197  1.00 20.00    -0.044 A 
HETATM    7  C7  UNL     1     -33.402   5.300   2.292  1.00 20.00     0.008 A 
HETATM    8  C8  UNL     1     -32.600   6.341   2.017  1.00 20.00    -0.021 A 
HETATM    9  C9  UNL     1     -32.465   7.296   3.178  1.00 20.00     0.066 A 
ENDROOT
TORSDOF 0
ENDMDL
MODEL 3
REMARK VINA RESULT:      -6.3      0.615      3.718
REMARK  0 active torsions:
REMARK  status: ('A' for Active; 'I' for Inactive)
ROOT
HETATM    1  C1  UNL     1     -32.893   5.899   1.938  1.00 20.00     0.001 A 
HETATM    2  C2  UNL     1     -32.367   7.066   2.518  1.00 20.00     0.001 A 
HETATM    3  C3  UNL     1     -33.752   5.066   2.660  1.00 20.00     0.012 A 
HETATM    4  C4  UNL     1     -32.690   7.421   3.830  1.00 20.00     0.008 A 
HETATM    5  C5  UNL     1     -34.067   5.425   3.958  1.00 20.00    -0.030 A 
HETATM    6  C6  UNL     1     -33.541   6.590   4.536  1.00 20.00    -0.044 A 
HETATM    7  C7  UNL     1     -34.919   4.760   4.929  1.00 20.00     0.008 A 
HETATM    8  C8  UNL     1     -34.911   5.494   6.053  1.00 20.00    -0.021 A 
HETATM    9  C9  UNL     1     -34.047   6.726   5.938  1.00 20.00     0.066 A 
ENDROOT
TORSDOF 0
ENDMDL
MODEL 4
REMARK VINA RESULT:      -6.3      0.594      3.147
REMARK  0 active torsions:
REMARK  status: ('A' for Active; 'I' for Inactive)
ROOT
HETATM    1  C1  UNL     1     -32.286   7.209   2.641  1.00 20.00     0.001 A 
HETATM    2  C2  UNL     1     -32.767   6.066   1.981  1.00 20.00     0.001 A 
HETATM    3  C3  UNL     1     -32.668   7.490   3.956  1.00 20.00     0.012 A 
HETATM    4  C4  UNL     1     -33.638   5.182   2.623  1.00 20.00     0.008 A 
HETATM    5  C5  UNL     1     -33.531   6.610   4.585  1.00 20.00    -0.030 A 
HETATM    6  C6  UNL     1     -34.010   5.469   3.925  1.00 20.00    -0.044 A 
HETATM    7  C7  UNL     1     -34.088   6.648   5.926  1.00 20.00     0.008 A 
HETATM    8  C8  UNL     1     -34.875   5.570   6.074  1.00 20.00    -0.021 A 
HETATM    9  C9  UNL     1     -34.917   4.705   4.837  1.00 20.00     0.066 A 
ENDROOT
TORSDOF 0
ENDMDL
MODEL 5
REMARK VINA RESULT:      -4.9     11.677     12.416
REMARK  0 active torsions:
REMARK  status: ('A' for Active; 'I' for Inactive)
ROOT
HETATM    1  C1  UNL     1     -33.539  14.571  -4.440  1.00 20.00     0.001 A 
HETATM    2  C2  UNL     1     -34.847  14.228  -4.060  1.00 20.00     0.001 A 
HETATM    3  C3  UNL     1     -32.854  15.605  -3.795  1.00 20.00     0.012 A 
HETATM    4  C4  UNL     1     -35.495  14.912  -3.028  1.00 20.00     0.008 A 
HETATM    5  C5  UNL     1     -33.502  16.277  -2.775  1.00 20.00    -0.030 A 
HETATM    6  C6  UNL     1     -34.809  15.934  -2.396  1.00 20.00    -0.044 A 
HETATM    7  C7  UNL     1     -33.043  17.376  -1.943  1.00 20.00     0.008 A 
HETATM    8  C8  UNL     1     -34.034  17.688  -1.092  1.00 20.00    -0.021 A 
HETATM    9  C9  UNL     1     -35.256  16.820  -1.276  1.00 20.00     0.066 A 
ENDROOT
TORSDOF 0
ENDMDL
MODEL 6
REMARK VINA RESULT:      -4.9     11.665     12.480
REMARK  0 active torsions:
REMARK  status: ('A' for Active; 'I' for Inactive)
ROOT
HETATM    1  C1  UNL     1     -34.881  14.233  -4.038  1.00 20.00     0.001 A 
HETATM    2  C2  UNL     1     -33.580  14.567  -4.449  1.00 20.00     0.001 A 
HETATM    3  C3  UNL     1     -35.502  14.923  -2.993  1.00 20.00     0.012 A 
HETATM    4  C4  UNL     1     -32.875  15.598  -3.822  1.00 20.00     0.008 A 
HETATM    5  C5  UNL     1     -34.797  15.942  -2.379  1.00 20.00    -0.030 A 
HETATM    6  C6  UNL     1     -33.498  16.275  -2.789  1.00 20.00    -0.044 A 
HETATM    7  C7  UNL     1     -35.184  16.816  -1.284  1.00 20.00     0.008 A 
HETATM    8  C8  UNL     1     -34.158  17.646  -1.039  1.00 20.00    -0.021 A 
HETATM    9  C9  UNL     1     -32.982  17.405  -1.955  1.00 20.00     0.066 A 
ENDROOT
TORSDOF 0
ENDMDL
MODEL 7
REMARK VINA RESULT:      -4.9     11.785     12.465
REMARK  0 active torsions:
REMARK  status: ('A' for Active; 'I' for Inactive)
ROOT
HETATM    1  C1  UNL     1     -34.564  17.797  -0.434  1.00 20.00     0.001 A 
HETATM    2  C2  UNL     1     -33.276  18.134  -0.883  1.00 20.00     0.001 A 
HETATM    3  C3  UNL     1     -35.305  16.797  -1.070  1.00 20.00     0.012 A 
HETATM    4  C4  UNL     1     -32.705  17.478  -1.976  1.00 20.00     0.008 A 
HETATM    5  C5  UNL     1     -34.731  16.151  -2.151  1.00 20.00    -0.030 A 
HETATM    6  C6  UNL     1     -33.446  16.489  -2.599  1.00 20.00    -0.044 A 
HETATM    7  C7  UNL     1     -35.260  15.090  -2.991  1.00 20.00     0.008 A 
HETATM    8  C8  UNL     1     -34.329  14.795  -3.913  1.00 20.00    -0.021 A 
HETATM    9  C9  UNL     1     -33.084  15.637  -3.774  1.00 20.00     0.066 A 
ENDROOT
TORSDOF 0
ENDMDL
MODEL 8
REMARK VINA RESULT:      -4.9     11.787     12.407
REMARK  0 active torsions:
REMARK  status: ('A' for Active; 'I' for Inactive)
ROOT
HETATM    1  C1  UNL     1     -33.283  18.134  -0.878  1.00 20.00     0.001 A 
HETATM    2  C2  UNL     1     -34.573  17.795  -0.438  1.00 20.00     0.001 A 
HETATM    3  C3  UNL     1     -32.704  17.481  -1.970  1.00 20.00     0.012 A 
HETATM    4  C4  UNL     1     -35.309  16.796  -1.081  1.00 20.00     0.008 A 
HETATM    5  C5  UNL     1     -33.440  16.494  -2.602  1.00 20.00    -0.030 A 
HETATM    6  C6  UNL     1     -34.728  16.156  -2.161  1.00 20.00    -0.044 A 
HETATM    7  C7  UNL     1     -33.098  15.662  -3.743  1.00 20.00     0.008 A 
HETATM    8  C8  UNL     1     -34.139  14.849  -3.985  1.00 20.00    -0.021 A 
HETATM    9  C9  UNL     1     -35.282  15.065  -3.022  1.00 20.00     0.066 A 
ENDROOT
TORSDOF 0
ENDMDL
MODEL 9
REMARK VINA RESULT:      -4.6     15.608     16.229
REMARK  0 active torsions:
REMARK  status: ('A' for Active; 'I' for Inactive)
ROOT
HETATM    1  C1  UNL     1     -25.443  16.530  12.221  1.00 20.00     0.001 A 
HETATM    2  C2  UNL     1     -26.012  17.808  12.093  1.00 20.00     0.001 A 
HETATM    3  C3  UNL     1     -24.429  16.107  11.357  1.00 20.00     0.012 A 
HETATM    4  C4  UNL     1     -25.578  18.687  11.097  1.00 20.00     0.008 A 
HETATM    5  C5  UNL     1     -24.005  16.984  10.374  1.00 20.00    -0.030 A 
HETATM    6  C6  UNL     1     -24.574  18.260  10.247  1.00 20.00    -0.044 A 
HETATM    7  C7  UNL     1     -22.986  16.818   9.352  1.00 20.00     0.008 A 
HETATM    8  C8  UNL     1     -22.939  17.950   8.632  1.00 20.00    -0.021 A 
HETATM    9  C9  UNL     1     -23.928  18.986   9.109  1.00 20.00     0.066 A 
ENDROOT
TORSDOF 0
ENDMDL
