MODEL 1
REMARK VINA RESULT:      -5.7      0.000      0.000
REMARK  1 active torsions:
REMARK  status: ('A' for Active; 'I' for Inactive)
REMARK    1  A    between atoms: C6_6  and  C9_9 
ROOT
HETATM    1  C1  UNL     1     -34.084   4.423   3.142  1.00 20.00     0.001 A 
HETATM    2  C2  UNL     1     -34.471   4.825   4.420  1.00 20.00     0.007 A 
HETATM    3  C3  UNL     1     -33.312   5.271   2.348  1.00 20.00     0.007 A 
HETATM    4  C4  UNL     1     -33.313   6.923   4.111  1.00 20.00     0.013 A 
HETATM    5  C5  UNL     1     -34.085   6.074   4.905  1.00 20.00    -0.061 A 
HETATM    6  C6  UNL     1     -32.927   6.521   2.833  1.00 20.00    -0.058 A 
HETATM    7  C7  UNL     1     -34.498   6.503   6.272  1.00 20.00     0.048 C 
ENDROOT
BRANCH   6   8
HETATM    8  C9  UNL     1     -32.101   7.428   1.983  1.00 20.00     0.034 C 
HETATM    9  C8  UNL     1     -32.954   8.309   1.075  1.00 20.00     0.010 C 
ENDBRANCH   6   8
TORSDOF 1
ENDMDL
MODEL 2
REMARK VINA RESULT:      -5.0      0.684      3.489
REMARK  1 active torsions:
REMARK  status: ('A' for Active; 'I' for Inactive)
REMARK    1  A    between atoms: C6_6  and  C9_9 
ROOT
HETATM    1  C1  UNL     1     -33.685   4.032   2.649  1.00 20.00     0.001 A 
HETATM    2  C2  UNL     1     -33.087   5.105   1.986  1.00 20.00     0.007 A 
HETATM    3  C3  UNL     1     -34.248   4.218   3.911  1.00 20.00     0.007 A 
HETATM    4  C4  UNL     1     -33.616   6.550   3.849  1.00 20.00     0.013 A 
HETATM    5  C5  UNL     1     -33.053   6.363   2.586  1.00 20.00    -0.061 A 
HETATM    6  C6  UNL     1     -34.213   5.477   4.511  1.00 20.00    -0.058 A 
HETATM    7  C7  UNL     1     -32.415   7.509   1.877  1.00 20.00     0.048 C 
ENDROOT
BRANCH   6   8
HETATM    8  C9  UNL     1     -34.816   5.677   5.862  1.00 20.00     0.034 C 
HETATM    9  C8  UNL     1     -34.208   6.868   6.598  1.00 20.00     0.010 C 
ENDBRANCH   6   8
TORSDOF 1
ENDMDL
MODEL 3
REMARK VINA RESULT:      -4.8     11.408     12.346
REMARK  1 active torsions:
REMARK  status: ('A' for Active; 'I' for Inactive)
REMARK    1  A    between atoms: C6_6  and  C9_9 
ROOT
HETATM    1  C1  UNL     1     -35.199  16.572  -1.500  1.00 20.00     0.001 A 
HETATM    2  C2  UNL     1     -34.961  15.649  -2.519  1.00 20.00     0.007 A 
HETATM    3  C3  UNL     1     -34.243  17.541  -1.199  1.00 20.00     0.007 A 
HETATM    4  C4  UNL     1     -32.810  16.667  -2.936  1.00 20.00     0.013 A 
HETATM    5  C5  UNL     1     -33.767  15.697  -3.237  1.00 20.00    -0.061 A 
HETATM    6  C6  UNL     1     -33.048  17.588  -1.916  1.00 20.00    -0.058 A 
HETATM    7  C7  UNL     1     -33.513  14.712  -4.328  1.00 20.00     0.048 C 
ENDROOT
BRANCH   6   8
HETATM    8  C9  UNL     1     -32.024  18.625  -1.594  1.00 20.00     0.034 C 
HETATM    9  C8  UNL     1     -31.182  18.249  -0.378  1.00 20.00     0.010 C 
ENDBRANCH   6   8
TORSDOF 1
ENDMDL
MODEL 4
REMARK VINA RESULT:      -4.7     11.071     12.095
REMARK  1 active torsions:
REMARK  status: ('A' for Active; 'I' for Inactive)
REMARK    1  A    between atoms: C6_6  and  C9_9 
ROOT
HETATM    1  C1  UNL     1     -35.242  16.852  -1.073  1.00 20.00     0.001 A 
HETATM    2  C2  UNL     1     -34.191  17.727  -0.799  1.00 20.00     0.007 A 
HETATM    3  C3  UNL     1     -35.134  15.941  -2.124  1.00 20.00     0.007 A 
HETATM    4  C4  UNL     1     -32.925  16.781  -2.626  1.00 20.00     0.013 A 
HETATM    5  C5  UNL     1     -33.033  17.691  -1.575  1.00 20.00    -0.061 A 
HETATM    6  C6  UNL     1     -33.976  15.906  -2.900  1.00 20.00    -0.058 A 
HETATM    7  C7  UNL     1     -31.910  18.627  -1.280  1.00 20.00     0.048 C 
ENDROOT
BRANCH   6   8
HETATM    8  C9  UNL     1     -33.861  14.932  -4.025  1.00 20.00     0.034 C 
HETATM    9  C8  UNL     1     -35.044  13.969  -4.081  1.00 20.00     0.010 C 
ENDBRANCH   6   8
TORSDOF 1
ENDMDL
MODEL 5
REMARK VINA RESULT:      -4.7     11.148     11.878
REMARK  1 active torsions:
REMARK  status: ('A' for Active; 'I' for Inactive)
REMARK    1  A    between atoms: C6_6  and  C9_9 
ROOT
HETATM    1  C1  UNL     1     -32.763  17.241  -2.578  1.00 20.00     0.001 A 
HETATM    2  C2  UNL     1     -33.613  17.641  -1.547  1.00 20.00     0.007 A 
HETATM    3  C3  UNL     1     -33.098  16.145  -3.372  1.00 20.00     0.007 A 
HETATM    4  C4  UNL     1     -35.133  15.848  -2.104  1.00 20.00     0.013 A 
HETATM    5  C5  UNL     1     -34.798  16.945  -1.310  1.00 20.00    -0.061 A 
HETATM    6  C6  UNL     1     -34.283  15.448  -3.135  1.00 20.00    -0.058 A 
HETATM    7  C7  UNL     1     -35.706  17.374  -0.208  1.00 20.00     0.048 C 
ENDROOT
BRANCH   6   8
HETATM    8  C9  UNL     1     -34.641  14.275  -3.984  1.00 20.00     0.034 C 
HETATM    9  C8  UNL     1     -36.144  14.178  -4.237  1.00 20.00     0.010 C 
ENDBRANCH   6   8
TORSDOF 1
ENDMDL
MODEL 6
REMARK VINA RESULT:      -4.6     11.267     11.872
REMARK  1 active torsions:
REMARK  status: ('A' for Active; 'I' for Inactive)
REMARK    1  A    between atoms: C6_6  and  C9_9 
ROOT
HETATM    1  C1  UNL     1     -32.918  15.514  -3.794  1.00 20.00     0.001 A 
HETATM    2  C2  UNL     1     -33.829  14.636  -4.382  1.00 20.00     0.007 A 
HETATM    3  C3  UNL     1     -33.311  16.308  -2.717  1.00 20.00     0.007 A 
HETATM    4  C4  UNL     1     -35.526  15.347  -2.816  1.00 20.00     0.013 A 
HETATM    5  C5  UNL     1     -35.132  14.552  -3.893  1.00 20.00    -0.061 A 
HETATM    6  C6  UNL     1     -34.615  16.225  -2.229  1.00 20.00    -0.058 A 
HETATM    7  C7  UNL     1     -36.105  13.613  -4.521  1.00 20.00     0.048 C 
ENDROOT
BRANCH   6   8
HETATM    8  C9  UNL     1     -35.035  17.076  -1.077  1.00 20.00     0.034 C 
HETATM    9  C8  UNL     1     -33.902  17.960  -0.564  1.00 20.00     0.010 C 
ENDBRANCH   6   8
TORSDOF 1
ENDMDL
MODEL 7
REMARK VINA RESULT:      -4.6     11.133     12.186
REMARK  1 active torsions:
REMARK  status: ('A' for Active; 'I' for Inactive)
REMARK    1  A    between atoms: C6_6  and  C9_9 
ROOT
HETATM    1  C1  UNL     1     -32.780  17.263  -2.509  1.00 20.00     0.001 A 
HETATM    2  C2  UNL     1     -33.113  16.174  -3.315  1.00 20.00     0.007 A 
HETATM    3  C3  UNL     1     -33.638  17.659  -1.483  1.00 20.00     0.007 A 
HETATM    4  C4  UNL     1     -35.162  15.878  -2.069  1.00 20.00     0.013 A 
HETATM    5  C5  UNL     1     -34.304  15.482  -3.094  1.00 20.00    -0.061 A 
HETATM    6  C6  UNL     1     -34.829  16.967  -1.263  1.00 20.00    -0.058 A 
HETATM    7  C7  UNL     1     -34.658  14.317  -3.955  1.00 20.00     0.048 C 
ENDROOT
BRANCH   6   8
HETATM    8  C9  UNL     1     -35.747  17.392  -0.166  1.00 20.00     0.034 C 
HETATM    9  C8  UNL     1     -34.999  17.712   1.125  1.00 20.00     0.010 C 
ENDBRANCH   6   8
TORSDOF 1
ENDMDL
MODEL 8
REMARK VINA RESULT:      -4.5      0.975      2.108
REMARK  1 active torsions:
REMARK  status: ('A' for Active; 'I' for Inactive)
REMARK    1  A    between atoms: C6_6  and  C9_9 
ROOT
HETATM    1  C1  UNL     1     -32.876   7.576   5.314  1.00 20.00     0.001 A 
HETATM    2  C2  UNL     1     -33.866   6.614   5.511  1.00 20.00     0.007 A 
HETATM    3  C3  UNL     1     -32.338   7.775   4.043  1.00 20.00     0.007 A 
HETATM    4  C4  UNL     1     -33.780   6.047   3.164  1.00 20.00     0.013 A 
HETATM    5  C5  UNL     1     -34.318   5.849   4.435  1.00 20.00    -0.061 A 
HETATM    6  C6  UNL     1     -32.790   7.009   2.968  1.00 20.00    -0.058 A 
HETATM    7  C7  UNL     1     -35.378   4.822   4.646  1.00 20.00     0.048 C 
ENDROOT
BRANCH   6   8
HETATM    8  C9  UNL     1     -32.214   7.221   1.607  1.00 20.00     0.034 C 
HETATM    9  C8  UNL     1     -32.772   8.468   0.928  1.00 20.00     0.010 C 
ENDBRANCH   6   8
TORSDOF 1
ENDMDL
MODEL 9
REMARK VINA RESULT:      -4.4     11.465     12.030
REMARK  1 active torsions:
REMARK  status: ('A' for Active; 'I' for Inactive)
REMARK    1  A    between atoms: C6_6  and  C9_9 
ROOT
HETATM    1  C1  UNL     1     -32.506  17.744  -1.804  1.00 20.00     0.001 A 
HETATM    2  C2  UNL     1     -33.438  18.027  -0.805  1.00 20.00     0.007 A 
HETATM    3  C3  UNL     1     -32.789  16.778  -2.768  1.00 20.00     0.007 A 
HETATM    4  C4  UNL     1     -34.937  16.378  -1.737  1.00 20.00     0.013 A 
HETATM    5  C5  UNL     1     -34.653  17.345  -0.772  1.00 20.00    -0.061 A 
HETATM    6  C6  UNL     1     -34.005  16.094  -2.734  1.00 20.00    -0.058 A 
HETATM    7  C7  UNL     1     -35.650  17.649   0.295  1.00 20.00     0.048 C 
ENDROOT
BRANCH   6   8
HETATM    8  C9  UNL     1     -34.308  15.060  -3.766  1.00 20.00     0.034 C 
HETATM    9  C8  UNL     1     -33.048  14.539  -4.453  1.00 20.00     0.010 C 
ENDBRANCH   6   8
TORSDOF 1
ENDMDL
