MODEL 1
REMARK VINA RESULT:      -6.1      0.000      0.000
REMARK  0 active torsions:
REMARK  status: ('A' for Active; 'I' for Inactive)
ROOT
HETATM    1  C1  UNL     1     -35.015   4.998   5.661  1.00 20.00     0.001 A 
HETATM    2  C2  UNL     1     -34.495   6.158   6.242  1.00 20.00     0.003 A 
HETATM    3  C3  UNL     1     -34.702   4.648   4.341  1.00 20.00     0.014 A 
HETATM    4  C4  UNL     1     -33.645   7.007   5.528  1.00 20.00     0.038 A 
HETATM    5  C5  UNL     1     -33.308   5.489   2.292  1.00 20.00     0.039 A 
HETATM    6  C6  UNL     1     -32.528   6.618   2.194  1.00 20.00     0.143 A 
HETATM    7  C7  UNL     1     -33.848   5.488   3.605  1.00 20.00    -0.001 A 
HETATM    8  C8  UNL     1     -33.351   6.633   4.219  1.00 20.00     0.085 A 
HETATM    9  O9  UNL     1     -32.548   7.318   3.358  1.00 20.00    -0.322 OA
ENDROOT
TORSDOF 0
ENDMDL
MODEL 2
REMARK VINA RESULT:      -6.0      0.871      1.947
REMARK  0 active torsions:
REMARK  status: ('A' for Active; 'I' for Inactive)
ROOT
HETATM    1  C1  UNL     1     -34.525   6.093   6.227  1.00 20.00     0.001 A 
HETATM    2  C2  UNL     1     -35.023   4.963   5.573  1.00 20.00     0.003 A 
HETATM    3  C3  UNL     1     -33.664   6.985   5.572  1.00 20.00     0.014 A 
HETATM    4  C4  UNL     1     -34.682   4.683   4.247  1.00 20.00     0.038 A 
HETATM    5  C5  UNL     1     -32.493   7.353   3.260  1.00 20.00     0.039 A 
HETATM    6  C6  UNL     1     -32.568   6.571   2.131  1.00 20.00     0.143 A 
HETATM    7  C7  UNL     1     -33.308   6.723   4.238  1.00 20.00    -0.001 A 
HETATM    8  C8  UNL     1     -33.826   5.587   3.624  1.00 20.00     0.085 A 
HETATM    9  O9  UNL     1     -33.374   5.498   2.341  1.00 20.00    -0.322 OA
ENDROOT
TORSDOF 0
ENDMDL
MODEL 3
REMARK VINA RESULT:      -5.5      1.448      3.660
REMARK  0 active torsions:
REMARK  status: ('A' for Active; 'I' for Inactive)
ROOT
HETATM    1  C1  UNL     1     -32.519   6.992   2.598  1.00 20.00     0.001 A 
HETATM    2  C2  UNL     1     -32.947   5.796   2.015  1.00 20.00     0.003 A 
HETATM    3  C3  UNL     1     -32.889   7.331   3.907  1.00 20.00     0.014 A 
HETATM    4  C4  UNL     1     -33.757   4.898   2.715  1.00 20.00     0.038 A 
HETATM    5  C5  UNL     1     -34.275   6.414   5.929  1.00 20.00     0.039 A 
HETATM    6  C6  UNL     1     -34.981   5.236   6.017  1.00 20.00     0.143 A 
HETATM    7  C7  UNL     1     -33.703   6.441   4.630  1.00 20.00    -0.001 A 
HETATM    8  C8  UNL     1     -34.107   5.261   4.013  1.00 20.00     0.085 A 
HETATM    9  O9  UNL     1     -34.885   4.530   4.860  1.00 20.00    -0.322 OA
ENDROOT
TORSDOF 0
ENDMDL
MODEL 4
REMARK VINA RESULT:      -5.4      1.110      3.050
REMARK  0 active torsions:
REMARK  status: ('A' for Active; 'I' for Inactive)
ROOT
HETATM    1  C1  UNL     1     -33.451   4.762   2.319  1.00 20.00     0.001 A 
HETATM    2  C2  UNL     1     -32.840   6.018   2.257  1.00 20.00     0.003 A 
HETATM    3  C3  UNL     1     -34.148   4.354   3.464  1.00 20.00     0.014 A 
HETATM    4  C4  UNL     1     -32.902   6.908   3.333  1.00 20.00     0.038 A 
HETATM    5  C5  UNL     1     -34.811   5.201   5.850  1.00 20.00     0.039 A 
HETATM    6  C6  UNL     1     -34.513   6.406   6.442  1.00 20.00     0.143 A 
HETATM    7  C7  UNL     1     -34.224   5.234   4.558  1.00 20.00    -0.001 A 
HETATM    8  C8  UNL     1     -33.602   6.474   4.456  1.00 20.00     0.085 A 
HETATM    9  O9  UNL     1     -33.780   7.186   5.605  1.00 20.00    -0.322 OA
ENDROOT
TORSDOF 0
ENDMDL
MODEL 5
REMARK VINA RESULT:      -4.5     12.168     12.399
REMARK  0 active torsions:
REMARK  status: ('A' for Active; 'I' for Inactive)
ROOT
HETATM    1  C1  UNL     1     -34.045  16.625  -2.186  1.00 20.00     0.001 A 
HETATM    2  C2  UNL     1     -32.990  16.193  -2.994  1.00 20.00     0.003 A 
HETATM    3  C3  UNL     1     -35.350  16.158  -2.392  1.00 20.00     0.014 A 
HETATM    4  C4  UNL     1     -33.198  15.282  -4.033  1.00 20.00     0.038 A 
HETATM    5  C5  UNL     1     -36.714  14.554  -3.948  1.00 20.00     0.039 A 
HETATM    6  C6  UNL     1     -36.258  13.788  -4.995  1.00 20.00     0.143 A 
HETATM    7  C7  UNL     1     -35.583  15.240  -3.431  1.00 20.00    -0.001 A 
HETATM    8  C8  UNL     1     -34.505  14.835  -4.213  1.00 20.00     0.085 A 
HETATM    9  O9  UNL     1     -34.919  13.951  -5.164  1.00 20.00    -0.322 OA
ENDROOT
TORSDOF 0
ENDMDL
MODEL 6
REMARK VINA RESULT:      -4.5     16.065     16.547
REMARK  0 active torsions:
REMARK  status: ('A' for Active; 'I' for Inactive)
ROOT
HETATM    1  C1  UNL     1     -23.733  17.951  10.858  1.00 20.00     0.001 A 
HETATM    2  C2  UNL     1     -22.555  17.652  10.167  1.00 20.00     0.003 A 
HETATM    3  C3  UNL     1     -24.841  18.497  10.197  1.00 20.00     0.014 A 
HETATM    4  C4  UNL     1     -22.442  17.886   8.794  1.00 20.00     0.038 A 
HETATM    5  C5  UNL     1     -25.611  19.263   7.815  1.00 20.00     0.039 A 
HETATM    6  C6  UNL     1     -24.901  19.235   6.637  1.00 20.00     0.143 A 
HETATM    7  C7  UNL     1     -24.749  18.740   8.815  1.00 20.00    -0.001 A 
HETATM    8  C8  UNL     1     -23.560  18.429   8.163  1.00 20.00     0.085 A 
HETATM    9  O9  UNL     1     -23.656  18.731   6.838  1.00 20.00    -0.322 OA
ENDROOT
TORSDOF 0
ENDMDL
MODEL 7
REMARK VINA RESULT:      -4.5     11.834     12.375
REMARK  0 active torsions:
REMARK  status: ('A' for Active; 'I' for Inactive)
ROOT
HETATM    1  C1  UNL     1     -34.643  17.521  -0.759  1.00 20.00     0.001 A 
HETATM    2  C2  UNL     1     -33.380  17.982  -1.138  1.00 20.00     0.003 A 
HETATM    3  C3  UNL     1     -35.258  16.459  -1.437  1.00 20.00     0.014 A 
HETATM    4  C4  UNL     1     -32.686  17.402  -2.203  1.00 20.00     0.038 A 
HETATM    5  C5  UNL     1     -34.843  14.802  -3.420  1.00 20.00     0.039 A 
HETATM    6  C6  UNL     1     -33.747  14.717  -4.248  1.00 20.00     0.143 A 
HETATM    7  C7  UNL     1     -34.577  15.860  -2.511  1.00 20.00    -0.001 A 
HETATM    8  C8  UNL     1     -33.321  16.349  -2.857  1.00 20.00     0.085 A 
HETATM    9  O9  UNL     1     -32.818  15.651  -3.914  1.00 20.00    -0.322 OA
ENDROOT
TORSDOF 0
ENDMDL
MODEL 8
REMARK VINA RESULT:      -4.4     15.458     16.138
REMARK  0 active torsions:
REMARK  status: ('A' for Active; 'I' for Inactive)
ROOT
HETATM    1  C1  UNL     1     -25.933  17.688  12.285  1.00 20.00     0.001 A 
HETATM    2  C2  UNL     1     -25.467  16.371  12.325  1.00 20.00     0.003 A 
HETATM    3  C3  UNL     1     -25.462  18.593  11.323  1.00 20.00     0.014 A 
HETATM    4  C4  UNL     1     -24.516  15.911  11.410  1.00 20.00     0.038 A 
HETATM    5  C5  UNL     1     -23.803  18.730   9.304  1.00 20.00     0.039 A 
HETATM    6  C6  UNL     1     -22.995  17.742   8.793  1.00 20.00     0.143 A 
HETATM    7  C7  UNL     1     -24.506  18.150  10.393  1.00 20.00    -0.001 A 
HETATM    8  C8  UNL     1     -24.067  16.832  10.467  1.00 20.00     0.085 A 
HETATM    9  O9  UNL     1     -23.148  16.586   9.491  1.00 20.00    -0.322 OA
ENDROOT
TORSDOF 0
ENDMDL
MODEL 9
REMARK VINA RESULT:      -4.4     15.655     16.143
REMARK  0 active torsions:
REMARK  status: ('A' for Active; 'I' for Inactive)
ROOT
HETATM    1  C1  UNL     1     -25.490  16.391  12.332  1.00 20.00     0.001 A 
HETATM    2  C2  UNL     1     -26.031  17.678  12.263  1.00 20.00     0.003 A 
HETATM    3  C3  UNL     1     -24.475  15.985  11.455  1.00 20.00     0.014 A 
HETATM    4  C4  UNL     1     -25.579  18.604  11.319  1.00 20.00     0.038 A 
HETATM    5  C5  UNL     1     -23.028  16.884   9.468  1.00 20.00     0.039 A 
HETATM    6  C6  UNL     1     -23.060  18.128   8.881  1.00 20.00     0.143 A 
HETATM    7  C7  UNL     1     -24.005  16.902  10.498  1.00 20.00    -0.001 A 
HETATM    8  C8  UNL     1     -24.569  18.173  10.462  1.00 20.00     0.085 A 
HETATM    9  O9  UNL     1     -23.992  18.917   9.477  1.00 20.00    -0.322 OA
ENDROOT
TORSDOF 0
ENDMDL
