MODEL 1
REMARK VINA RESULT:      -4.1      0.000      0.000
REMARK  3 active torsions:
REMARK  status: ('A' for Active; 'I' for Inactive)
REMARK    1  A    between atoms: C2_2  and  C4_4 
REMARK    2  A    between atoms: C4_4  and  S8_8 
REMARK    3  A    between atoms: C5_5  and  S8_8 
ROOT
HETATM    1  O6  UNL     1     -37.449  13.608  -4.475  1.00 20.00    -0.228 OA
HETATM    2  O7  UNL     1     -34.988  13.190  -4.100  1.00 20.00    -0.228 OA
HETATM    3  S8  UNL     1     -36.070  14.065  -4.524  1.00 20.00     0.147 S 
ENDROOT
BRANCH   3   4
HETATM    4  C4  UNL     1     -35.951  15.572  -3.618  1.00 20.00     0.166 C 
BRANCH   4   5
HETATM    5  C2  UNL     1     -34.773  15.454  -2.714  1.00 20.00    -0.022 C 
HETATM    6  C1  UNL     1     -33.673  16.208  -2.823  1.00 20.00     0.008 C 
ENDBRANCH   4   5
ENDBRANCH   3   4
BRANCH   3   7
HETATM    7  C5  UNL     1     -35.729  14.561  -6.199  1.00 20.00     0.136 C 
HETATM    8  C3  UNL     1     -34.289  14.992  -6.367  1.00 20.00     0.021 C 
ENDBRANCH   3   7
TORSDOF 3
ENDMDL
MODEL 2
REMARK VINA RESULT:      -3.8      1.576      2.127
REMARK  3 active torsions:
REMARK  status: ('A' for Active; 'I' for Inactive)
REMARK    1  A    between atoms: C2_2  and  C4_4 
REMARK    2  A    between atoms: C4_4  and  S8_8 
REMARK    3  A    between atoms: C5_5  and  S8_8 
ROOT
HETATM    1  O6  UNL     1     -35.766  12.527  -4.395  1.00 20.00    -0.228 OA
HETATM    2  O7  UNL     1     -36.024  14.001  -6.427  1.00 20.00    -0.228 OA
HETATM    3  S8  UNL     1     -35.871  13.849  -4.990  1.00 20.00     0.147 S 
ENDROOT
BRANCH   3   4
HETATM    4  C4  UNL     1     -34.479  14.801  -4.478  1.00 20.00     0.166 C 
BRANCH   4   5
HETATM    5  C2  UNL     1     -34.714  15.206  -3.064  1.00 20.00    -0.022 C 
HETATM    6  C1  UNL     1     -34.066  16.209  -2.460  1.00 20.00     0.008 C 
ENDBRANCH   4   5
ENDBRANCH   3   4
BRANCH   3   7
HETATM    7  C5  UNL     1     -37.244  14.676  -4.216  1.00 20.00     0.136 C 
HETATM    8  C3  UNL     1     -37.798  15.773  -5.098  1.00 20.00     0.021 C 
ENDBRANCH   3   7
TORSDOF 3
ENDMDL
MODEL 3
REMARK VINA RESULT:      -3.8      0.488      3.124
REMARK  3 active torsions:
REMARK  status: ('A' for Active; 'I' for Inactive)
REMARK    1  A    between atoms: C2_2  and  C4_4 
REMARK    2  A    between atoms: C4_4  and  S8_8 
REMARK    3  A    between atoms: C5_5  and  S8_8 
ROOT
HETATM    1  O6  UNL     1     -35.132  13.167  -4.147  1.00 20.00    -0.228 OA
HETATM    2  O7  UNL     1     -37.590  13.663  -4.440  1.00 20.00    -0.228 OA
HETATM    3  S8  UNL     1     -36.198  14.068  -4.554  1.00 20.00     0.147 S 
ENDROOT
BRANCH   3   4
HETATM    4  C4  UNL     1     -35.900  14.565  -6.218  1.00 20.00     0.166 C 
BRANCH   4   5
HETATM    5  C2  UNL     1     -34.465  14.951  -6.316  1.00 20.00    -0.022 C 
HETATM    6  C1  UNL     1     -33.845  15.222  -7.469  1.00 20.00     0.008 C 
ENDBRANCH   4   5
ENDBRANCH   3   4
BRANCH   3   7
HETATM    7  C5  UNL     1     -36.005  15.577  -3.630  1.00 20.00     0.136 C 
HETATM    8  C3  UNL     1     -34.803  15.515  -2.713  1.00 20.00     0.021 C 
ENDBRANCH   3   7
TORSDOF 3
ENDMDL
MODEL 4
REMARK VINA RESULT:      -3.7      1.186      3.021
REMARK  3 active torsions:
REMARK  status: ('A' for Active; 'I' for Inactive)
REMARK    1  A    between atoms: C2_2  and  C4_4 
REMARK    2  A    between atoms: C4_4  and  S8_8 
REMARK    3  A    between atoms: C5_5  and  S8_8 
ROOT
HETATM    1  O6  UNL     1     -35.679  12.570  -4.403  1.00 20.00    -0.228 OA
HETATM    2  O7  UNL     1     -37.811  13.919  -4.502  1.00 20.00    -0.228 OA
HETATM    3  S8  UNL     1     -36.361  13.841  -4.589  1.00 20.00     0.147 S 
ENDROOT
BRANCH   3   4
HETATM    4  C4  UNL     1     -35.863  14.517  -6.138  1.00 20.00     0.166 C 
BRANCH   4   5
HETATM    5  C2  UNL     1     -36.596  15.802  -6.318  1.00 20.00    -0.022 C 
HETATM    6  C1  UNL     1     -35.996  16.973  -6.559  1.00 20.00     0.008 C 
ENDBRANCH   4   5
ENDBRANCH   3   4
BRANCH   3   7
HETATM    7  C5  UNL     1     -35.692  14.986  -3.403  1.00 20.00     0.136 C 
HETATM    8  C3  UNL     1     -34.187  15.084  -3.516  1.00 20.00     0.021 C 
ENDBRANCH   3   7
TORSDOF 3
ENDMDL
MODEL 5
REMARK VINA RESULT:      -3.5     11.600     12.519
REMARK  3 active torsions:
REMARK  status: ('A' for Active; 'I' for Inactive)
REMARK    1  A    between atoms: C2_2  and  C4_4 
REMARK    2  A    between atoms: C4_4  and  S8_8 
REMARK    3  A    between atoms: C5_5  and  S8_8 
ROOT
HETATM    1  O6  UNL     1     -34.188   3.883   4.542  1.00 20.00    -0.228 OA
HETATM    2  O7  UNL     1     -35.880   5.593   3.780  1.00 20.00    -0.228 OA
HETATM    3  S8  UNL     1     -34.500   5.199   4.011  1.00 20.00     0.147 S 
ENDROOT
BRANCH   3   4
HETATM    4  C4  UNL     1     -33.603   5.420   2.510  1.00 20.00     0.166 C 
BRANCH   4   5
HETATM    5  C2  UNL     1     -32.695   6.585   2.703  1.00 20.00    -0.022 C 
HETATM    6  C1  UNL     1     -32.509   7.541   1.786  1.00 20.00     0.008 C 
ENDBRANCH   4   5
ENDBRANCH   3   4
BRANCH   3   7
HETATM    7  C5  UNL     1     -33.778   6.402   5.105  1.00 20.00     0.136 C 
HETATM    8  C3  UNL     1     -34.454   6.397   6.458  1.00 20.00     0.021 C 
ENDBRANCH   3   7
TORSDOF 3
ENDMDL
MODEL 6
REMARK VINA RESULT:      -3.4      1.784      2.761
REMARK  3 active torsions:
REMARK  status: ('A' for Active; 'I' for Inactive)
REMARK    1  A    between atoms: C2_2  and  C4_4 
REMARK    2  A    between atoms: C4_4  and  S8_8 
REMARK    3  A    between atoms: C5_5  and  S8_8 
ROOT
HETATM    1  O6  UNL     1     -35.982  14.038  -6.391  1.00 20.00    -0.228 OA
HETATM    2  O7  UNL     1     -35.820  12.525  -4.378  1.00 20.00    -0.228 OA
HETATM    3  S8  UNL     1     -35.900  13.858  -4.951  1.00 20.00     0.147 S 
ENDROOT
BRANCH   3   4
HETATM    4  C4  UNL     1     -37.259  14.700  -4.208  1.00 20.00     0.166 C 
BRANCH   4   5
HETATM    5  C2  UNL     1     -37.697  15.760  -5.158  1.00 20.00    -0.022 C 
HETATM    6  C1  UNL     1     -37.422  17.059  -5.000  1.00 20.00     0.008 C 
ENDBRANCH   4   5
ENDBRANCH   3   4
BRANCH   3   7
HETATM    7  C5  UNL     1     -34.484  14.772  -4.378  1.00 20.00     0.136 C 
HETATM    8  C3  UNL     1     -34.714  15.339  -2.995  1.00 20.00     0.021 C 
ENDBRANCH   3   7
TORSDOF 3
ENDMDL
MODEL 7
REMARK VINA RESULT:      -3.4      1.006      1.430
REMARK  3 active torsions:
REMARK  status: ('A' for Active; 'I' for Inactive)
REMARK    1  A    between atoms: C2_2  and  C4_4 
REMARK    2  A    between atoms: C4_4  and  S8_8 
REMARK    3  A    between atoms: C5_5  and  S8_8 
ROOT
HETATM    1  O6  UNL     1     -37.680  13.742  -4.447  1.00 20.00    -0.228 OA
HETATM    2  O7  UNL     1     -35.381  12.719  -4.249  1.00 20.00    -0.228 OA
HETATM    3  S8  UNL     1     -36.234  13.866  -4.519  1.00 20.00     0.147 S 
ENDROOT
BRANCH   3   4
HETATM    4  C4  UNL     1     -35.736  15.187  -3.465  1.00 20.00     0.166 C 
BRANCH   4   5
HETATM    5  C2  UNL     1     -36.710  16.298  -3.655  1.00 20.00    -0.022 C 
HETATM    6  C1  UNL     1     -36.577  17.506  -3.097  1.00 20.00     0.008 C 
ENDBRANCH   4   5
ENDBRANCH   3   4
BRANCH   3   7
HETATM    7  C5  UNL     1     -35.829  14.460  -6.147  1.00 20.00     0.136 C 
HETATM    8  C3  UNL     1     -34.414  14.992  -6.206  1.00 20.00     0.021 C 
ENDBRANCH   3   7
TORSDOF 3
ENDMDL
MODEL 8
REMARK VINA RESULT:      -3.4      2.005      2.552
REMARK  3 active torsions:
REMARK  status: ('A' for Active; 'I' for Inactive)
REMARK    1  A    between atoms: C2_2  and  C4_4 
REMARK    2  A    between atoms: C4_4  and  S8_8 
REMARK    3  A    between atoms: C5_5  and  S8_8 
ROOT
HETATM    1  O6  UNL     1     -33.519  13.854  -4.728  1.00 20.00    -0.228 OA
HETATM    2  O7  UNL     1     -33.667  15.199  -6.859  1.00 20.00    -0.228 OA
HETATM    3  S8  UNL     1     -34.143  14.904  -5.517  1.00 20.00     0.147 S 
ENDROOT
BRANCH   3   4
HETATM    4  C4  UNL     1     -34.115  16.395  -4.579  1.00 20.00     0.166 C 
BRANCH   4   5
HETATM    5  C2  UNL     1     -33.822  16.026  -3.166  1.00 20.00    -0.022 C 
HETATM    6  C1  UNL     1     -34.732  16.053  -2.186  1.00 20.00     0.008 C 
ENDBRANCH   4   5
ENDBRANCH   3   4
BRANCH   3   7
HETATM    7  C5  UNL     1     -35.877  14.523  -5.637  1.00 20.00     0.136 C 
HETATM    8  C3  UNL     1     -36.318  13.592  -4.529  1.00 20.00     0.021 C 
ENDBRANCH   3   7
TORSDOF 3
ENDMDL
MODEL 9
REMARK VINA RESULT:      -3.3     17.590     19.044
REMARK  3 active torsions:
REMARK  status: ('A' for Active; 'I' for Inactive)
REMARK    1  A    between atoms: C2_2  and  C4_4 
REMARK    2  A    between atoms: C4_4  and  S8_8 
REMARK    3  A    between atoms: C5_5  and  S8_8 
ROOT
HETATM    1  O6  UNL     1     -22.374  16.857   7.885  1.00 20.00    -0.228 OA
HETATM    2  O7  UNL     1     -21.294  18.001   9.858  1.00 20.00    -0.228 OA
HETATM    3  S8  UNL     1     -22.486  17.613   9.121  1.00 20.00     0.147 S 
ENDROOT
BRANCH   3   4
HETATM    4  C4  UNL     1     -23.552  16.735  10.216  1.00 20.00     0.166 C 
BRANCH   4   5
HETATM    5  C2  UNL     1     -23.201  17.148  11.603  1.00 20.00    -0.022 C 
HETATM    6  C1  UNL     1     -23.925  18.010  12.327  1.00 20.00     0.008 C 
ENDBRANCH   4   5
ENDBRANCH   3   4
BRANCH   3   7
HETATM    7  C5  UNL     1     -23.397  19.098   8.759  1.00 20.00     0.136 C 
HETATM    8  C3  UNL     1     -24.446  18.859   7.696  1.00 20.00     0.021 C 
ENDBRANCH   3   7
TORSDOF 3
ENDMDL
