MODEL 1
REMARK VINA RESULT:      -4.0      0.000      0.000
REMARK  1 active torsions:
REMARK  status: ('A' for Active; 'I' for Inactive)
REMARK    1  A    between atoms: C6_6  and  S8_8 
ROOT
HETATM    1  C1  UNL     1     -34.290   6.526   6.095  1.00 20.00     0.001 A 
HETATM    2  C2  UNL     1     -34.866   5.283   5.830  1.00 20.00     0.001 A 
HETATM    3  C3  UNL     1     -33.511   7.155   5.124  1.00 20.00     0.021 A 
HETATM    4  C4  UNL     1     -34.662   4.669   4.593  1.00 20.00     0.019 A 
HETATM    5  C5  UNL     1     -33.307   6.541   3.887  1.00 20.00     0.028 A 
HETATM    6  C6  UNL     1     -33.883   5.299   3.623  1.00 20.00     0.015 A 
HETATM    7  S7  UNL     1     -32.278   7.441   2.693  1.00 20.00    -0.051 SA
ENDROOT
BRANCH   6   8
HETATM    8  S8  UNL     1     -33.698   4.404   2.074  1.00 20.00    -0.142 SA
HETATM    9  H13 UNL     1     -34.761   3.605   2.228  1.00 20.00     0.107 HD
ENDBRANCH   6   8
TORSDOF 1
ENDMDL
MODEL 2
REMARK VINA RESULT:      -4.0      0.052      2.414
REMARK  1 active torsions:
REMARK  status: ('A' for Active; 'I' for Inactive)
REMARK    1  A    between atoms: C6_6  and  S8_8 
ROOT
HETATM    1  C1  UNL     1     -34.899   5.267   5.838  1.00 20.00     0.001 A 
HETATM    2  C2  UNL     1     -34.317   6.502   6.125  1.00 20.00     0.001 A 
HETATM    3  C3  UNL     1     -34.686   4.667   4.597  1.00 20.00     0.021 A 
HETATM    4  C4  UNL     1     -33.519   7.136   5.172  1.00 20.00     0.019 A 
HETATM    5  C5  UNL     1     -33.888   5.301   3.643  1.00 20.00     0.028 A 
HETATM    6  C6  UNL     1     -33.305   6.535   3.931  1.00 20.00     0.015 A 
HETATM    7  S7  UNL     1     -33.672   4.437   2.061  1.00 20.00    -0.051 SA
ENDROOT
BRANCH   6   8
HETATM    8  S8  UNL     1     -32.260   7.453   2.792  1.00 20.00    -0.142 SA
HETATM    9  H13 UNL     1     -33.205   7.696   1.875  1.00 20.00     0.107 HD
ENDBRANCH   6   8
TORSDOF 1
ENDMDL
MODEL 3
REMARK VINA RESULT:      -3.7     16.528     17.088
REMARK  1 active torsions:
REMARK  status: ('A' for Active; 'I' for Inactive)
REMARK    1  A    between atoms: C6_6  and  S8_8 
ROOT
HETATM    1  C1  UNL     1     -25.012  18.259  11.930  1.00 20.00     0.001 A 
HETATM    2  C2  UNL     1     -23.757  17.801  12.332  1.00 20.00     0.001 A 
HETATM    3  C3  UNL     1     -25.242  18.581  10.593  1.00 20.00     0.021 A 
HETATM    4  C4  UNL     1     -22.732  17.663  11.395  1.00 20.00     0.019 A 
HETATM    5  C5  UNL     1     -24.217  18.444   9.656  1.00 20.00     0.028 A 
HETATM    6  C6  UNL     1     -22.963  17.985  10.057  1.00 20.00     0.015 A 
HETATM    7  S7  UNL     1     -24.618  18.888   7.942  1.00 20.00    -0.051 SA
ENDROOT
BRANCH   6   8
HETATM    8  S8  UNL     1     -21.562  17.764   8.952  1.00 20.00    -0.142 SA
HETATM    9  H13 UNL     1     -22.266  17.366   7.885  1.00 20.00     0.107 HD
ENDBRANCH   6   8
TORSDOF 1
ENDMDL
MODEL 4
REMARK VINA RESULT:      -3.6     16.765     17.263
REMARK  1 active torsions:
REMARK  status: ('A' for Active; 'I' for Inactive)
REMARK    1  A    between atoms: C6_6  and  S8_8 
ROOT
HETATM    1  C1  UNL     1     -22.690  17.576  12.011  1.00 20.00     0.001 A 
HETATM    2  C2  UNL     1     -22.193  17.760  10.720  1.00 20.00     0.001 A 
HETATM    3  C3  UNL     1     -24.019  17.888  12.297  1.00 20.00     0.021 A 
HETATM    4  C4  UNL     1     -23.025  18.256   9.716  1.00 20.00     0.019 A 
HETATM    5  C5  UNL     1     -24.851  18.384  11.293  1.00 20.00     0.028 A 
HETATM    6  C6  UNL     1     -24.354  18.567  10.003  1.00 20.00     0.015 A 
HETATM    7  S7  UNL     1     -26.563  18.759  11.767  1.00 20.00    -0.051 SA
ENDROOT
BRANCH   6   8
HETATM    8  S8  UNL     1     -25.320  19.197   8.623  1.00 20.00    -0.142 SA
HETATM    9  H13 UNL     1     -26.439  19.446   9.317  1.00 20.00     0.107 HD
ENDBRANCH   6   8
TORSDOF 1
ENDMDL
MODEL 5
REMARK VINA RESULT:      -3.5     12.255     12.767
REMARK  1 active torsions:
REMARK  status: ('A' for Active; 'I' for Inactive)
REMARK    1  A    between atoms: C6_6  and  S8_8 
ROOT
HETATM    1  C1  UNL     1     -33.462  15.268  -3.939  1.00 20.00     0.001 A 
HETATM    2  C2  UNL     1     -34.737  14.903  -3.506  1.00 20.00     0.001 A 
HETATM    3  C3  UNL     1     -32.786  16.315  -3.312  1.00 20.00     0.021 A 
HETATM    4  C4  UNL     1     -35.336  15.584  -2.447  1.00 20.00     0.019 A 
HETATM    5  C5  UNL     1     -33.385  16.997  -2.252  1.00 20.00     0.028 A 
HETATM    6  C6  UNL     1     -34.660  16.632  -1.820  1.00 20.00     0.015 A 
HETATM    7  S7  UNL     1     -32.423  18.343  -1.505  1.00 20.00    -0.051 SA
ENDROOT
BRANCH   6   8
HETATM    8  S8  UNL     1     -35.540  17.428  -0.469  1.00 20.00    -0.142 SA
HETATM    9  H13 UNL     1     -36.094  16.316   0.031  1.00 20.00     0.107 HD
ENDBRANCH   6   8
TORSDOF 1
ENDMDL
MODEL 6
REMARK VINA RESULT:      -3.5     12.466     13.092
REMARK  1 active torsions:
REMARK  status: ('A' for Active; 'I' for Inactive)
REMARK    1  A    between atoms: C6_6  and  S8_8 
ROOT
HETATM    1  C1  UNL     1     -34.872  15.586  -2.718  1.00 20.00     0.001 A 
HETATM    2  C2  UNL     1     -33.638  15.828  -3.323  1.00 20.00     0.001 A 
HETATM    3  C3  UNL     1     -35.268  16.344  -1.616  1.00 20.00     0.021 A 
HETATM    4  C4  UNL     1     -32.801  16.828  -2.826  1.00 20.00     0.019 A 
HETATM    5  C5  UNL     1     -34.431  17.344  -1.119  1.00 20.00     0.028 A 
HETATM    6  C6  UNL     1     -33.198  17.585  -1.724  1.00 20.00     0.015 A 
HETATM    7  S7  UNL     1     -35.039  18.273   0.318  1.00 20.00    -0.051 SA
ENDROOT
BRANCH   6   8
HETATM    8  S8  UNL     1     -32.030  18.840  -1.182  1.00 20.00    -0.142 SA
HETATM    9  H13 UNL     1     -31.050  17.999  -0.830  1.00 20.00     0.107 HD
ENDBRANCH   6   8
TORSDOF 1
ENDMDL
MODEL 7
REMARK VINA RESULT:      -3.4     12.301     12.886
REMARK  1 active torsions:
REMARK  status: ('A' for Active; 'I' for Inactive)
REMARK    1  A    between atoms: C6_6  and  S8_8 
ROOT
HETATM    1  C1  UNL     1     -34.374  16.548  -1.824  1.00 20.00     0.001 A 
HETATM    2  C2  UNL     1     -33.229  16.731  -2.601  1.00 20.00     0.001 A 
HETATM    3  C3  UNL     1     -35.484  15.897  -2.361  1.00 20.00     0.021 A 
HETATM    4  C4  UNL     1     -33.194  16.261  -3.914  1.00 20.00     0.019 A 
HETATM    5  C5  UNL     1     -35.449  15.427  -3.675  1.00 20.00     0.028 A 
HETATM    6  C6  UNL     1     -34.305  15.609  -4.450  1.00 20.00     0.015 A 
HETATM    7  S7  UNL     1     -36.945  14.592  -4.279  1.00 20.00    -0.051 SA
ENDROOT
BRANCH   6   8
HETATM    8  S8  UNL     1     -34.133  15.053  -6.151  1.00 20.00    -0.142 SA
HETATM    9  H13 UNL     1     -33.882  16.256  -6.684  1.00 20.00     0.107 HD
ENDBRANCH   6   8
TORSDOF 1
ENDMDL
MODEL 8
REMARK VINA RESULT:      -3.4     12.333     12.795
REMARK  1 active torsions:
REMARK  status: ('A' for Active; 'I' for Inactive)
REMARK    1  A    between atoms: C6_6  and  S8_8 
ROOT
HETATM    1  C1  UNL     1     -33.164  16.723  -2.554  1.00 20.00     0.001 A 
HETATM    2  C2  UNL     1     -34.322  16.591  -1.787  1.00 20.00     0.001 A 
HETATM    3  C3  UNL     1     -33.132  16.232  -3.859  1.00 20.00     0.021 A 
HETATM    4  C4  UNL     1     -35.448  15.968  -2.326  1.00 20.00     0.019 A 
HETATM    5  C5  UNL     1     -34.259  15.609  -4.398  1.00 20.00     0.028 A 
HETATM    6  C6  UNL     1     -35.416  15.477  -3.631  1.00 20.00     0.015 A 
HETATM    7  S7  UNL     1     -34.115  15.005  -6.104  1.00 20.00    -0.051 SA
ENDROOT
BRANCH   6   8
HETATM    8  S8  UNL     1     -36.930  14.697  -4.206  1.00 20.00    -0.142 SA
HETATM    9  H13 UNL     1     -37.768  15.387  -3.421  1.00 20.00     0.107 HD
ENDBRANCH   6   8
TORSDOF 1
ENDMDL
MODEL 9
REMARK VINA RESULT:      -3.2     12.564     13.087
REMARK  1 active torsions:
REMARK  status: ('A' for Active; 'I' for Inactive)
REMARK    1  A    between atoms: C6_6  and  S8_8 
ROOT
HETATM    1  C1  UNL     1     -33.802  16.279  -2.469  1.00 20.00     0.001 A 
HETATM    2  C2  UNL     1     -35.012  16.147  -1.788  1.00 20.00     0.001 A 
HETATM    3  C3  UNL     1     -32.868  17.229  -2.055  1.00 20.00     0.021 A 
HETATM    4  C4  UNL     1     -35.287  16.964  -0.690  1.00 20.00     0.019 A 
HETATM    5  C5  UNL     1     -33.144  18.046  -0.957  1.00 20.00     0.028 A 
HETATM    6  C6  UNL     1     -34.353  17.913  -0.276  1.00 20.00     0.015 A 
HETATM    7  S7  UNL     1     -31.863  19.249  -0.498  1.00 20.00    -0.051 SA
ENDROOT
BRANCH   6   8
HETATM    8  S8  UNL     1     -34.828  18.901   1.149  1.00 20.00    -0.142 SA
HETATM    9  H13 UNL     1     -34.586  17.965   2.075  1.00 20.00     0.107 HD
ENDBRANCH   6   8
TORSDOF 1
ENDMDL
