MODEL 1
REMARK VINA RESULT:      -3.7      0.000      0.000
REMARK  3 active torsions:
REMARK  status: ('A' for Active; 'I' for Inactive)
REMARK    1  A    between atoms: C2_2  and  C4_4 
REMARK    2  A    between atoms: C4_4  and  S6_6 
REMARK    3  A    between atoms: C5_5  and  S6_6 
ROOT
HETATM    1  C4  UNL     1     -34.375   4.525   3.892  1.00 20.00     0.100 C 
ENDROOT
BRANCH   1   2
HETATM    2  C2  UNL     1     -34.682   5.717   4.740  1.00 20.00    -0.027 C 
HETATM    3  C1  UNL     1     -34.650   5.711   6.078  1.00 20.00     0.007 C 
ENDBRANCH   1   2
BRANCH   1   4
HETATM    4  S6  UNL     1     -33.278   4.992   2.527  1.00 20.00    -0.166 SA
BRANCH   4   5
HETATM    5  C5  UNL     1     -32.894   6.676   3.061  1.00 20.00     0.069 C 
HETATM    6  C3  UNL     1     -32.483   7.530   1.876  1.00 20.00     0.016 C 
ENDBRANCH   4   5
ENDBRANCH   1   4
TORSDOF 3
ENDMDL
MODEL 2
REMARK VINA RESULT:      -3.7      1.494      3.237
REMARK  3 active torsions:
REMARK  status: ('A' for Active; 'I' for Inactive)
REMARK    1  A    between atoms: C2_2  and  C4_4 
REMARK    2  A    between atoms: C4_4  and  S6_6 
REMARK    3  A    between atoms: C5_5  and  S6_6 
ROOT
HETATM    1  C4  UNL     1     -33.997   4.250   3.665  1.00 20.00     0.100 C 
ENDROOT
BRANCH   1   2
HETATM    2  C2  UNL     1     -33.302   4.966   2.552  1.00 20.00    -0.027 C 
HETATM    3  C1  UNL     1     -32.911   6.244   2.615  1.00 20.00     0.007 C 
ENDBRANCH   1   2
BRANCH   1   4
HETATM    4  S6  UNL     1     -35.311   5.290   4.354  1.00 20.00    -0.166 SA
BRANCH   4   5
HETATM    5  C5  UNL     1     -34.602   5.562   5.994  1.00 20.00     0.069 C 
HETATM    6  C3  UNL     1     -33.873   6.891   6.047  1.00 20.00     0.016 C 
ENDBRANCH   4   5
ENDBRANCH   1   4
TORSDOF 3
ENDMDL
MODEL 3
REMARK VINA RESULT:      -3.6      1.235      3.703
REMARK  3 active torsions:
REMARK  status: ('A' for Active; 'I' for Inactive)
REMARK    1  A    between atoms: C2_2  and  C4_4 
REMARK    2  A    between atoms: C4_4  and  S6_6 
REMARK    3  A    between atoms: C5_5  and  S6_6 
ROOT
HETATM    1  C4  UNL     1     -33.582   6.693   3.736  1.00 20.00     0.100 C 
ENDROOT
BRANCH   1   2
HETATM    2  C2  UNL     1     -32.649   6.627   2.569  1.00 20.00    -0.027 C 
HETATM    3  C1  UNL     1     -32.493   7.616   1.682  1.00 20.00     0.007 C 
ENDBRANCH   1   2
BRANCH   1   4
HETATM    4  S6  UNL     1     -34.494   5.134   3.896  1.00 20.00    -0.166 SA
BRANCH   4   5
HETATM    5  C5  UNL     1     -34.825   5.202   5.671  1.00 20.00     0.069 C 
HETATM    6  C3  UNL     1     -34.254   6.473   6.272  1.00 20.00     0.016 C 
ENDBRANCH   4   5
ENDBRANCH   1   4
TORSDOF 3
ENDMDL
MODEL 4
REMARK VINA RESULT:      -3.4      0.919      1.169
REMARK  3 active torsions:
REMARK  status: ('A' for Active; 'I' for Inactive)
REMARK    1  A    between atoms: C2_2  and  C4_4 
REMARK    2  A    between atoms: C4_4  and  S6_6 
REMARK    3  A    between atoms: C5_5  and  S6_6 
ROOT
HETATM    1  C4  UNL     1     -34.016   6.530   4.155  1.00 20.00     0.100 C 
ENDROOT
BRANCH   1   2
HETATM    2  C2  UNL     1     -34.814   5.428   4.773  1.00 20.00    -0.027 C 
HETATM    3  C1  UNL     1     -34.784   5.124   6.076  1.00 20.00     0.007 C 
ENDBRANCH   1   2
BRANCH   1   4
HETATM    4  S6  UNL     1     -33.165   5.930   2.671  1.00 20.00    -0.166 SA
BRANCH   4   5
HETATM    5  C5  UNL     1     -32.175   7.401   2.320  1.00 20.00     0.069 C 
HETATM    6  C3  UNL     1     -32.727   8.139   1.115  1.00 20.00     0.016 C 
ENDBRANCH   4   5
ENDBRANCH   1   4
TORSDOF 3
ENDMDL
MODEL 5
REMARK VINA RESULT:      -3.4      1.052      4.123
REMARK  3 active torsions:
REMARK  status: ('A' for Active; 'I' for Inactive)
REMARK    1  A    between atoms: C2_2  and  C4_4 
REMARK    2  A    between atoms: C4_4  and  S6_6 
REMARK    3  A    between atoms: C5_5  and  S6_6 
ROOT
HETATM    1  C4  UNL     1     -32.317   7.278   2.486  1.00 20.00     0.100 C 
ENDROOT
BRANCH   1   2
HETATM    2  C2  UNL     1     -32.517   7.785   1.094  1.00 20.00    -0.027 C 
HETATM    3  C1  UNL     1     -32.966   9.012   0.803  1.00 20.00     0.007 C 
ENDBRANCH   1   2
BRANCH   1   4
HETATM    4  S6  UNL     1     -33.253   5.746   2.734  1.00 20.00    -0.166 SA
BRANCH   4   5
HETATM    5  C5  UNL     1     -34.157   6.225   4.224  1.00 20.00     0.069 C 
HETATM    6  C3  UNL     1     -34.895   5.035   4.806  1.00 20.00     0.016 C 
ENDBRANCH   4   5
ENDBRANCH   1   4
TORSDOF 3
ENDMDL
MODEL 6
REMARK VINA RESULT:      -3.3      1.578      3.894
REMARK  3 active torsions:
REMARK  status: ('A' for Active; 'I' for Inactive)
REMARK    1  A    between atoms: C2_2  and  C4_4 
REMARK    2  A    between atoms: C4_4  and  S6_6 
REMARK    3  A    between atoms: C5_5  and  S6_6 
ROOT
HETATM    1  C4  UNL     1     -33.521   6.507   3.593  1.00 20.00     0.100 C 
ENDROOT
BRANCH   1   2
HETATM    2  C2  UNL     1     -32.362   7.159   2.911  1.00 20.00    -0.027 C 
HETATM    3  C1  UNL     1     -32.417   7.680   1.680  1.00 20.00     0.007 C 
ENDBRANCH   1   2
BRANCH   1   4
HETATM    4  S6  UNL     1     -33.544   6.951   5.350  1.00 20.00    -0.166 SA
BRANCH   4   5
HETATM    5  C5  UNL     1     -34.643   5.643   5.940  1.00 20.00     0.069 C 
HETATM    6  C3  UNL     1     -35.081   4.755   4.790  1.00 20.00     0.016 C 
ENDBRANCH   4   5
ENDBRANCH   1   4
TORSDOF 3
ENDMDL
MODEL 7
REMARK VINA RESULT:      -2.9      1.378      1.714
REMARK  3 active torsions:
REMARK  status: ('A' for Active; 'I' for Inactive)
REMARK    1  A    between atoms: C2_2  and  C4_4 
REMARK    2  A    between atoms: C4_4  and  S6_6 
REMARK    3  A    between atoms: C5_5  and  S6_6 
ROOT
HETATM    1  C4  UNL     1     -34.676   5.344   4.200  1.00 20.00     0.100 C 
ENDROOT
BRANCH   1   2
HETATM    2  C2  UNL     1     -34.848   5.317   5.685  1.00 20.00    -0.027 C 
HETATM    3  C1  UNL     1     -34.360   6.250   6.511  1.00 20.00     0.007 C 
ENDBRANCH   1   2
BRANCH   1   4
HETATM    4  S6  UNL     1     -33.690   6.784   3.711  1.00 20.00    -0.166 SA
BRANCH   4   5
HETATM    5  C5  UNL     1     -32.762   6.023   2.359  1.00 20.00     0.069 C 
HETATM    6  C3  UNL     1     -33.097   4.548   2.247  1.00 20.00     0.016 C 
ENDBRANCH   4   5
ENDBRANCH   1   4
TORSDOF 3
ENDMDL
MODEL 8
REMARK VINA RESULT:      -2.8      9.057      9.517
REMARK  3 active torsions:
REMARK  status: ('A' for Active; 'I' for Inactive)
REMARK    1  A    between atoms: C2_2  and  C4_4 
REMARK    2  A    between atoms: C4_4  and  S6_6 
REMARK    3  A    between atoms: C5_5  and  S6_6 
ROOT
HETATM    1  C4  UNL     1     -41.070   6.508   0.290  1.00 20.00     0.100 C 
ENDROOT
BRANCH   1   2
HETATM    2  C2  UNL     1     -41.093   5.620  -0.912  1.00 20.00    -0.027 C 
HETATM    3  C1  UNL     1     -42.204   5.064  -1.409  1.00 20.00     0.007 C 
ENDBRANCH   1   2
BRANCH   1   4
HETATM    4  S6  UNL     1     -42.760   6.866   0.836  1.00 20.00    -0.166 SA
BRANCH   4   5
HETATM    5  C5  UNL     1     -42.885   8.561   0.220  1.00 20.00     0.069 C 
HETATM    6  C3  UNL     1     -41.519   9.222   0.196  1.00 20.00     0.016 C 
ENDBRANCH   4   5
ENDBRANCH   1   4
TORSDOF 3
ENDMDL
MODEL 9
REMARK VINA RESULT:      -2.8      9.019      9.526
REMARK  3 active torsions:
REMARK  status: ('A' for Active; 'I' for Inactive)
REMARK    1  A    between atoms: C2_2  and  C4_4 
REMARK    2  A    between atoms: C4_4  and  S6_6 
REMARK    3  A    between atoms: C5_5  and  S6_6 
ROOT
HETATM    1  C4  UNL     1     -42.954   7.369   0.920  1.00 20.00     0.100 C 
ENDROOT
BRANCH   1   2
HETATM    2  C2  UNL     1     -41.634   8.039   0.712  1.00 20.00    -0.027 C 
HETATM    3  C1  UNL     1     -41.483   9.215   0.092  1.00 20.00     0.007 C 
ENDBRANCH   1   2
BRANCH   1   4
HETATM    4  S6  UNL     1     -42.765   5.569   0.822  1.00 20.00    -0.166 SA
BRANCH   4   5
HETATM    5  C5  UNL     1     -42.433   5.433  -0.950  1.00 20.00     0.069 C 
HETATM    6  C3  UNL     1     -40.970   5.118  -1.196  1.00 20.00     0.016 C 
ENDBRANCH   4   5
ENDBRANCH   1   4
TORSDOF 3
ENDMDL
