MODEL 1
REMARK VINA RESULT:      -6.0      0.000      0.000
REMARK  0 active torsions:
REMARK  status: ('A' for Active; 'I' for Inactive)
ROOT
HETATM    1  C1  UNL     1     -35.021   4.983   5.664  1.00 20.00     0.001 A 
HETATM    2  C2  UNL     1     -34.510   6.143   6.243  1.00 20.00     0.002 A 
HETATM    3  C3  UNL     1     -34.700   4.639   4.346  1.00 20.00     0.014 A 
HETATM    4  C4  UNL     1     -33.664   6.993   5.527  1.00 20.00     0.030 A 
HETATM    5  C5  UNL     1     -33.324   5.445   2.281  1.00 20.00     0.030 A 
HETATM    6  C6  UNL     1     -32.535   6.560   2.112  1.00 20.00     0.089 A 
HETATM    7  C7  UNL     1     -33.848   5.482   3.604  1.00 20.00    -0.008 A 
HETATM    8  C8  UNL     1     -33.350   6.637   4.211  1.00 20.00     0.042 A 
HETATM    9  N9  UNL     1     -32.557   7.272   3.282  1.00 20.00    -0.365 N 
HETATM   10  H16 UNL     1     -32.061   8.139   3.442  1.00 20.00     0.165 HD
ENDROOT
TORSDOF 0
ENDMDL
MODEL 2
REMARK VINA RESULT:      -5.9      0.855      1.935
REMARK  0 active torsions:
REMARK  status: ('A' for Active; 'I' for Inactive)
ROOT
HETATM    1  C1  UNL     1     -34.514   6.122   6.245  1.00 20.00     0.001 A 
HETATM    2  C2  UNL     1     -35.019   4.985   5.617  1.00 20.00     0.002 A 
HETATM    3  C3  UNL     1     -33.656   6.994   5.565  1.00 20.00     0.014 A 
HETATM    4  C4  UNL     1     -34.686   4.685   4.293  1.00 20.00     0.030 A 
HETATM    5  C5  UNL     1     -32.485   7.358   3.263  1.00 20.00     0.030 A 
HETATM    6  C6  UNL     1     -32.523   6.604   2.112  1.00 20.00     0.089 A 
HETATM    7  C7  UNL     1     -33.306   6.712   4.230  1.00 20.00    -0.008 A 
HETATM    8  C8  UNL     1     -33.828   5.566   3.626  1.00 20.00     0.042 A 
HETATM    9  N9  UNL     1     -33.336   5.526   2.341  1.00 20.00    -0.365 N 
HETATM   10  H16 UNL     1     -33.545   4.805   1.664  1.00 20.00     0.165 HD
ENDROOT
TORSDOF 0
ENDMDL
MODEL 3
REMARK VINA RESULT:      -5.5      1.448      3.680
REMARK  0 active torsions:
REMARK  status: ('A' for Active; 'I' for Inactive)
ROOT
HETATM    1  C1  UNL     1     -32.442   6.976   2.613  1.00 20.00     0.001 A 
HETATM    2  C2  UNL     1     -32.946   5.811   2.039  1.00 20.00     0.002 A 
HETATM    3  C3  UNL     1     -32.791   7.341   3.918  1.00 20.00     0.014 A 
HETATM    4  C4  UNL     1     -33.811   4.974   2.749  1.00 20.00     0.030 A 
HETATM    5  C5  UNL     1     -34.212   6.569   5.965  1.00 20.00     0.030 A 
HETATM    6  C6  UNL     1     -35.012   5.462   6.131  1.00 20.00     0.089 A 
HETATM    7  C7  UNL     1     -33.662   6.513   4.654  1.00 20.00    -0.008 A 
HETATM    8  C8  UNL     1     -34.151   5.350   4.053  1.00 20.00     0.042 A 
HETATM    9  N9  UNL     1     -34.967   4.732   4.973  1.00 20.00    -0.365 N 
HETATM   10  H16 UNL     1     -35.463   3.865   4.816  1.00 20.00     0.165 HD
ENDROOT
TORSDOF 0
ENDMDL
MODEL 4
REMARK VINA RESULT:      -5.3      1.219      3.131
REMARK  0 active torsions:
REMARK  status: ('A' for Active; 'I' for Inactive)
ROOT
HETATM    1  C1  UNL     1     -32.858   5.927   1.998  1.00 20.00     0.001 A 
HETATM    2  C2  UNL     1     -32.356   7.083   2.590  1.00 20.00     0.002 A 
HETATM    3  C3  UNL     1     -33.723   5.080   2.702  1.00 20.00     0.014 A 
HETATM    4  C4  UNL     1     -32.700   7.432   3.899  1.00 20.00     0.030 A 
HETATM    5  C5  UNL     1     -34.917   4.803   5.005  1.00 20.00     0.030 A 
HETATM    6  C6  UNL     1     -34.886   5.596   6.129  1.00 20.00     0.089 A 
HETATM    7  C7  UNL     1     -34.085   5.411   4.023  1.00 20.00    -0.008 A 
HETATM    8  C8  UNL     1     -33.566   6.577   4.590  1.00 20.00     0.042 A 
HETATM    9  N9  UNL     1     -34.069   6.664   5.868  1.00 20.00    -0.365 N 
HETATM   10  H16 UNL     1     -33.865   7.409   6.520  1.00 20.00     0.165 HD
ENDROOT
TORSDOF 0
ENDMDL
MODEL 5
REMARK VINA RESULT:      -4.8     15.546     16.147
REMARK  0 active torsions:
REMARK  status: ('A' for Active; 'I' for Inactive)
ROOT
HETATM    1  C1  UNL     1     -26.008  17.894  12.052  1.00 20.00     0.001 A 
HETATM    2  C2  UNL     1     -25.622  16.585  12.331  1.00 20.00     0.002 A 
HETATM    3  C3  UNL     1     -25.390  18.619  11.027  1.00 20.00     0.014 A 
HETATM    4  C4  UNL     1     -24.611  15.959  11.598  1.00 20.00     0.030 A 
HETATM    5  C5  UNL     1     -23.546  18.434   9.191  1.00 20.00     0.030 A 
HETATM    6  C6  UNL     1     -22.712  17.389   8.864  1.00 20.00     0.089 A 
HETATM    7  C7  UNL     1     -24.368  18.010  10.273  1.00 20.00    -0.008 A 
HETATM    8  C8  UNL     1     -24.002  16.696  10.576  1.00 20.00     0.042 A 
HETATM    9  N9  UNL     1     -22.996  16.345   9.704  1.00 20.00    -0.365 N 
HETATM   10  H16 UNL     1     -22.532  15.447   9.688  1.00 20.00     0.165 HD
ENDROOT
TORSDOF 0
ENDMDL
MODEL 6
REMARK VINA RESULT:      -4.8     11.838     12.397
REMARK  0 active torsions:
REMARK  status: ('A' for Active; 'I' for Inactive)
ROOT
HETATM    1  C1  UNL     1     -34.659  17.417  -0.877  1.00 20.00     0.001 A 
HETATM    2  C2  UNL     1     -33.426  17.955  -1.239  1.00 20.00     0.002 A 
HETATM    3  C3  UNL     1     -35.198  16.329  -1.573  1.00 20.00     0.014 A 
HETATM    4  C4  UNL     1     -32.693  17.425  -2.305  1.00 20.00     0.030 A 
HETATM    5  C5  UNL     1     -34.712  14.703  -3.554  1.00 20.00     0.030 A 
HETATM    6  C6  UNL     1     -33.638  14.633  -4.411  1.00 20.00     0.089 A 
HETATM    7  C7  UNL     1     -34.478  15.778  -2.651  1.00 20.00    -0.008 A 
HETATM    8  C8  UNL     1     -33.244  16.337  -2.991  1.00 20.00     0.042 A 
HETATM    9  N9  UNL     1     -32.757  15.623  -4.062  1.00 20.00    -0.365 N 
HETATM   10  H16 UNL     1     -31.876  15.803  -4.525  1.00 20.00     0.165 HD
ENDROOT
TORSDOF 0
ENDMDL
MODEL 7
REMARK VINA RESULT:      -4.5     12.268     12.433
REMARK  0 active torsions:
REMARK  status: ('A' for Active; 'I' for Inactive)
ROOT
HETATM    1  C1  UNL     1     -32.972  15.487  -3.698  1.00 20.00     0.001 A 
HETATM    2  C2  UNL     1     -33.564  16.264  -2.705  1.00 20.00     0.002 A 
HETATM    3  C3  UNL     1     -33.748  14.664  -4.522  1.00 20.00     0.014 A 
HETATM    4  C4  UNL     1     -34.946  16.246  -2.504  1.00 20.00     0.030 A 
HETATM    5  C5  UNL     1     -36.212  13.932  -4.972  1.00 20.00     0.030 A 
HETATM    6  C6  UNL     1     -37.383  14.304  -4.352  1.00 20.00     0.089 A 
HETATM    7  C7  UNL     1     -35.145  14.629  -4.338  1.00 20.00    -0.008 A 
HETATM    8  C8  UNL     1     -35.711  15.420  -3.335  1.00 20.00     0.042 A 
HETATM    9  N9  UNL     1     -37.070  15.202  -3.367  1.00 20.00    -0.365 N 
HETATM   10  H16 UNL     1     -37.740  15.642  -2.751  1.00 20.00     0.165 HD
ENDROOT
TORSDOF 0
ENDMDL
MODEL 8
REMARK VINA RESULT:      -4.5     11.787     12.503
REMARK  0 active torsions:
REMARK  status: ('A' for Active; 'I' for Inactive)
ROOT
HETATM    1  C1  UNL     1     -33.330  14.866  -4.249  1.00 20.00     0.001 A 
HETATM    2  C2  UNL     1     -34.617  14.352  -4.110  1.00 20.00     0.002 A 
HETATM    3  C3  UNL     1     -32.886  15.915  -3.436  1.00 20.00     0.014 A 
HETATM    4  C4  UNL     1     -35.500  14.866  -3.156  1.00 20.00     0.030 A 
HETATM    5  C5  UNL     1     -33.647  17.486  -1.498  1.00 20.00     0.030 A 
HETATM    6  C6  UNL     1     -34.845  17.560  -0.824  1.00 20.00     0.089 A 
HETATM    7  C7  UNL     1     -33.758  16.450  -2.467  1.00 20.00    -0.008 A 
HETATM    8  C8  UNL     1     -35.043  15.915  -2.350  1.00 20.00     0.042 A 
HETATM    9  N9  UNL     1     -35.679  16.607  -1.345  1.00 20.00    -0.365 N 
HETATM   10  H16 UNL     1     -36.627  16.437  -1.037  1.00 20.00     0.165 HD
ENDROOT
TORSDOF 0
ENDMDL
MODEL 9
REMARK VINA RESULT:      -4.4     11.881     12.417
REMARK  0 active torsions:
REMARK  status: ('A' for Active; 'I' for Inactive)
ROOT
HETATM    1  C1  UNL     1     -33.141  18.049  -1.024  1.00 20.00     0.001 A 
HETATM    2  C2  UNL     1     -34.386  17.872  -0.424  1.00 20.00     0.002 A 
HETATM    3  C3  UNL     1     -32.766  17.284  -2.134  1.00 20.00     0.014 A 
HETATM    4  C4  UNL     1     -35.295  16.929  -0.914  1.00 20.00     0.030 A 
HETATM    5  C5  UNL     1     -33.621  15.404  -3.728  1.00 20.00     0.030 A 
HETATM    6  C6  UNL     1     -34.813  14.717  -3.741  1.00 20.00     0.089 A 
HETATM    7  C7  UNL     1     -33.665  16.328  -2.646  1.00 20.00    -0.008 A 
HETATM    8  C8  UNL     1     -34.907  16.173  -2.025  1.00 20.00     0.042 A 
HETATM    9  N9  UNL     1     -35.582  15.189  -2.711  1.00 20.00    -0.365 N 
HETATM   10  H16 UNL     1     -36.512  14.862  -2.486  1.00 20.00     0.165 HD
ENDROOT
TORSDOF 0
ENDMDL
