MODEL 1
REMARK VINA RESULT:      -5.6      0.000      0.000
REMARK  2 active torsions:
REMARK  status: ('A' for Active; 'I' for Inactive)
REMARK    1  A    between atoms: C6_6  and  C8_8 
REMARK    2  A    between atoms: C8_8  and  N10_10 
ROOT
HETATM    1  N9  UNL     1     -33.477   9.175  -0.064  1.00 20.00     0.068 N 
HETATM    2  N10 UNL     1     -32.111   7.640   1.144  1.00 20.00    -0.111 NA
HETATM    3  N11 UNL     1     -32.825   8.442   0.519  1.00 20.00    -0.167 NA
ENDROOT
BRANCH   2   4
HETATM    4  C8  UNL     1     -32.227   7.693   2.607  1.00 20.00     0.227 C 
BRANCH   4   5
HETATM    5  C6  UNL     1     -33.017   6.552   3.154  1.00 20.00    -0.035 A 
HETATM    6  C3  UNL     1     -33.136   5.372   2.420  1.00 20.00     0.009 A 
HETATM    7  C1  UNL     1     -33.875   4.306   2.932  1.00 20.00     0.001 A 
HETATM    8  C2  UNL     1     -34.495   4.419   4.176  1.00 20.00     0.007 A 
HETATM    9  C5  UNL     1     -34.376   5.600   4.909  1.00 20.00    -0.061 A 
HETATM   10  C4  UNL     1     -33.637   6.667   4.398  1.00 20.00     0.015 A 
HETATM   11  C7  UNL     1     -35.038   5.720   6.240  1.00 20.00     0.048 C 
ENDBRANCH   4   5
ENDBRANCH   2   4
TORSDOF 2
ENDMDL
MODEL 2
REMARK VINA RESULT:      -5.5     11.255     11.642
REMARK  2 active torsions:
REMARK  status: ('A' for Active; 'I' for Inactive)
REMARK    1  A    between atoms: C6_6  and  C8_8 
REMARK    2  A    between atoms: C8_8  and  N10_10 
ROOT
HETATM    1  N9  UNL     1     -39.389  14.863  -4.550  1.00 20.00     0.068 N 
HETATM    2  N10 UNL     1     -37.387  13.593  -4.295  1.00 20.00    -0.111 NA
HETATM    3  N11 UNL     1     -38.428  14.259  -4.431  1.00 20.00    -0.167 NA
ENDROOT
BRANCH   2   4
HETATM    4  C8  UNL     1     -36.229  14.061  -5.066  1.00 20.00     0.227 C 
BRANCH   4   5
HETATM    5  C6  UNL     1     -35.256  14.816  -4.225  1.00 20.00    -0.035 A 
HETATM    6  C3  UNL     1     -33.915  14.887  -4.603  1.00 20.00     0.009 A 
HETATM    7  C1  UNL     1     -33.005  15.592  -3.815  1.00 20.00     0.001 A 
HETATM    8  C2  UNL     1     -33.435  16.226  -2.650  1.00 20.00     0.007 A 
HETATM    9  C5  UNL     1     -34.776  16.155  -2.272  1.00 20.00    -0.061 A 
HETATM   10  C4  UNL     1     -35.687  15.450  -3.059  1.00 20.00     0.015 A 
HETATM   11  C7  UNL     1     -35.236  16.835  -1.027  1.00 20.00     0.048 C 
ENDBRANCH   4   5
ENDBRANCH   2   4
TORSDOF 2
ENDMDL
MODEL 3
REMARK VINA RESULT:      -5.4     11.543     12.295
REMARK  2 active torsions:
REMARK  status: ('A' for Active; 'I' for Inactive)
REMARK    1  A    between atoms: C6_6  and  C8_8 
REMARK    2  A    between atoms: C8_8  and  N10_10 
ROOT
HETATM    1  N9  UNL     1     -30.111  18.977   1.670  1.00 20.00     0.068 N 
HETATM    2  N10 UNL     1     -30.707  18.273  -0.528  1.00 20.00    -0.111 NA
HETATM    3  N11 UNL     1     -30.401  18.644   0.617  1.00 20.00    -0.167 NA
ENDROOT
BRANCH   2   4
HETATM    4  C8  UNL     1     -31.895  18.915  -1.106  1.00 20.00     0.227 C 
BRANCH   4   5
HETATM    5  C6  UNL     1     -32.990  17.939  -1.376  1.00 20.00    -0.035 A 
HETATM    6  C3  UNL     1     -34.120  17.916  -0.559  1.00 20.00     0.009 A 
HETATM    7  C1  UNL     1     -35.144  17.003  -0.811  1.00 20.00     0.001 A 
HETATM    8  C2  UNL     1     -35.038  16.113  -1.879  1.00 20.00     0.007 A 
HETATM    9  C5  UNL     1     -33.908  16.136  -2.696  1.00 20.00    -0.061 A 
HETATM   10  C4  UNL     1     -32.884  17.049  -2.445  1.00 20.00     0.015 A 
HETATM   11  C7  UNL     1     -33.796  15.185  -3.840  1.00 20.00     0.048 C 
ENDBRANCH   4   5
ENDBRANCH   2   4
TORSDOF 2
ENDMDL
MODEL 4
REMARK VINA RESULT:      -5.2     10.907     11.686
REMARK  2 active torsions:
REMARK  status: ('A' for Active; 'I' for Inactive)
REMARK    1  A    between atoms: C6_6  and  C8_8 
REMARK    2  A    between atoms: C8_8  and  N10_10 
ROOT
HETATM    1  N9  UNL     1     -34.217  15.092  -7.140  1.00 20.00     0.068 N 
HETATM    2  N10 UNL     1     -33.593  14.285  -4.986  1.00 20.00    -0.111 NA
HETATM    3  N11 UNL     1     -33.923  14.707  -6.106  1.00 20.00    -0.167 NA
ENDROOT
BRANCH   2   4
HETATM    4  C8  UNL     1     -34.592  14.456  -3.923  1.00 20.00     0.227 C 
BRANCH   4   5
HETATM    5  C6  UNL     1     -34.266  15.596  -3.018  1.00 20.00    -0.035 A 
HETATM    6  C3  UNL     1     -33.069  16.294  -3.180  1.00 20.00     0.009 A 
HETATM    7  C1  UNL     1     -32.764  17.359  -2.333  1.00 20.00     0.001 A 
HETATM    8  C2  UNL     1     -33.655  17.726  -1.324  1.00 20.00     0.007 A 
HETATM    9  C5  UNL     1     -34.851  17.027  -1.163  1.00 20.00    -0.061 A 
HETATM   10  C4  UNL     1     -35.157  15.962  -2.009  1.00 20.00     0.015 A 
HETATM   11  C7  UNL     1     -35.803  17.421  -0.084  1.00 20.00     0.048 C 
ENDBRANCH   4   5
ENDBRANCH   2   4
TORSDOF 2
ENDMDL
MODEL 5
REMARK VINA RESULT:      -5.1     11.215     11.725
REMARK  2 active torsions:
REMARK  status: ('A' for Active; 'I' for Inactive)
REMARK    1  A    between atoms: C6_6  and  C8_8 
REMARK    2  A    between atoms: C8_8  and  N10_10 
ROOT
HETATM    1  N9  UNL     1     -36.618  15.832  -7.116  1.00 20.00     0.068 N 
HETATM    2  N10 UNL     1     -35.966  13.789  -6.074  1.00 20.00    -0.111 NA
HETATM    3  N11 UNL     1     -36.308  14.856  -6.612  1.00 20.00    -0.167 NA
ENDROOT
BRANCH   2   4
HETATM    4  C8  UNL     1     -36.114  13.739  -4.614  1.00 20.00     0.227 C 
BRANCH   4   5
HETATM    5  C6  UNL     1     -35.163  14.653  -3.917  1.00 20.00    -0.035 A 
HETATM    6  C3  UNL     1     -33.838  14.740  -4.347  1.00 20.00     0.009 A 
HETATM    7  C1  UNL     1     -32.949  15.594  -3.694  1.00 20.00     0.001 A 
HETATM    8  C2  UNL     1     -33.383  16.361  -2.614  1.00 20.00     0.007 A 
HETATM    9  C5  UNL     1     -34.708  16.273  -2.185  1.00 20.00    -0.061 A 
HETATM   10  C4  UNL     1     -35.598  15.420  -2.836  1.00 20.00     0.015 A 
HETATM   11  C7  UNL     1     -35.172  17.095  -1.029  1.00 20.00     0.048 C 
ENDBRANCH   4   5
ENDBRANCH   2   4
TORSDOF 2
ENDMDL
MODEL 6
REMARK VINA RESULT:      -5.1     11.103     11.907
REMARK  2 active torsions:
REMARK  status: ('A' for Active; 'I' for Inactive)
REMARK    1  A    between atoms: C6_6  and  C8_8 
REMARK    2  A    between atoms: C8_8  and  N10_10 
ROOT
HETATM    1  N9  UNL     1     -35.586  14.753  -7.185  1.00 20.00     0.068 N 
HETATM    2  N10 UNL     1     -34.882  14.128  -4.995  1.00 20.00    -0.111 NA
HETATM    3  N11 UNL     1     -35.245  14.458  -6.137  1.00 20.00    -0.167 NA
ENDROOT
BRANCH   2   4
HETATM    4  C8  UNL     1     -33.638  14.748  -4.521  1.00 20.00     0.227 C 
BRANCH   4   5
HETATM    5  C6  UNL     1     -33.864  15.659  -3.362  1.00 20.00    -0.035 A 
HETATM    6  C3  UNL     1     -35.067  15.604  -2.657  1.00 20.00     0.009 A 
HETATM    7  C1  UNL     1     -35.279  16.457  -1.575  1.00 20.00     0.001 A 
HETATM    8  C2  UNL     1     -34.290  17.364  -1.196  1.00 20.00     0.007 A 
HETATM    9  C5  UNL     1     -33.088  17.419  -1.902  1.00 20.00    -0.061 A 
HETATM   10  C4  UNL     1     -32.875  16.567  -2.985  1.00 20.00     0.015 A 
HETATM   11  C7  UNL     1     -32.030  18.390  -1.496  1.00 20.00     0.048 C 
ENDBRANCH   4   5
ENDBRANCH   2   4
TORSDOF 2
ENDMDL
MODEL 7
REMARK VINA RESULT:      -4.8     11.026     12.617
REMARK  2 active torsions:
REMARK  status: ('A' for Active; 'I' for Inactive)
REMARK    1  A    between atoms: C6_6  and  C8_8 
REMARK    2  A    between atoms: C8_8  and  N10_10 
ROOT
HETATM    1  N9  UNL     1     -39.217  14.637  -4.271  1.00 20.00     0.068 N 
HETATM    2  N10 UNL     1     -37.092  13.577  -4.478  1.00 20.00    -0.111 NA
HETATM    3  N11 UNL     1     -38.198  14.134  -4.373  1.00 20.00    -0.167 NA
ENDROOT
BRANCH   2   4
HETATM    4  C8  UNL     1     -36.132  14.235  -5.373  1.00 20.00     0.227 C 
BRANCH   4   5
HETATM    5  C6  UNL     1     -35.277  15.226  -4.656  1.00 20.00    -0.035 A 
HETATM    6  C3  UNL     1     -34.794  14.935  -3.381  1.00 20.00     0.009 A 
HETATM    7  C1  UNL     1     -33.995  15.862  -2.711  1.00 20.00     0.001 A 
HETATM    8  C2  UNL     1     -33.681  17.079  -3.315  1.00 20.00     0.007 A 
HETATM    9  C5  UNL     1     -34.165  17.369  -4.591  1.00 20.00    -0.061 A 
HETATM   10  C4  UNL     1     -34.963  16.443  -5.262  1.00 20.00     0.015 A 
HETATM   11  C7  UNL     1     -33.827  18.670  -5.238  1.00 20.00     0.048 C 
ENDBRANCH   4   5
ENDBRANCH   2   4
TORSDOF 2
ENDMDL
MODEL 8
REMARK VINA RESULT:      -4.8     15.589     15.891
REMARK  2 active torsions:
REMARK  status: ('A' for Active; 'I' for Inactive)
REMARK    1  A    between atoms: C6_6  and  C8_8 
REMARK    2  A    between atoms: C8_8  and  N10_10 
ROOT
HETATM    1  N9  UNL     1     -26.242  18.560   4.086  1.00 20.00     0.068 N 
HETATM    2  N10 UNL     1     -25.869  18.560   6.440  1.00 20.00    -0.111 NA
HETATM    3  N11 UNL     1     -26.058  18.563   5.212  1.00 20.00    -0.167 NA
ENDROOT
BRANCH   2   4
HETATM    4  C8  UNL     1     -24.629  19.204   6.893  1.00 20.00     0.227 C 
BRANCH   4   5
HETATM    5  C6  UNL     1     -24.114  18.613   8.162  1.00 20.00    -0.035 A 
HETATM    6  C3  UNL     1     -22.904  17.919   8.166  1.00 20.00     0.009 A 
HETATM    7  C1  UNL     1     -22.424  17.365   9.353  1.00 20.00     0.001 A 
HETATM    8  C2  UNL     1     -23.152  17.505  10.534  1.00 20.00     0.007 A 
HETATM    9  C5  UNL     1     -24.362  18.199  10.528  1.00 20.00    -0.061 A 
HETATM   10  C4  UNL     1     -24.843  18.753   9.343  1.00 20.00     0.015 A 
HETATM   11  C7  UNL     1     -25.139  18.349  11.793  1.00 20.00     0.048 C 
ENDBRANCH   4   5
ENDBRANCH   2   4
TORSDOF 2
ENDMDL
MODEL 9
REMARK VINA RESULT:      -4.6     15.405     16.532
REMARK  2 active torsions:
REMARK  status: ('A' for Active; 'I' for Inactive)
REMARK    1  A    between atoms: C6_6  and  C8_8 
REMARK    2  A    between atoms: C8_8  and  N10_10 
ROOT
HETATM    1  N9  UNL     1     -24.935  19.262   5.434  1.00 20.00     0.068 N 
HETATM    2  N10 UNL     1     -23.834  19.195   7.547  1.00 20.00    -0.111 NA
HETATM    3  N11 UNL     1     -24.406  19.225   6.444  1.00 20.00    -0.167 NA
ENDROOT
BRANCH   2   4
HETATM    4  C8  UNL     1     -23.124  17.949   7.861  1.00 20.00     0.227 C 
BRANCH   4   5
HETATM    5  C6  UNL     1     -23.029  17.705   9.329  1.00 20.00    -0.035 A 
HETATM    6  C3  UNL     1     -21.956  18.224  10.054  1.00 20.00     0.009 A 
HETATM    7  C1  UNL     1     -21.868  17.995  11.427  1.00 20.00     0.001 A 
HETATM    8  C2  UNL     1     -22.852  17.248  12.075  1.00 20.00     0.007 A 
HETATM    9  C5  UNL     1     -23.924  16.730  11.350  1.00 20.00    -0.061 A 
HETATM   10  C4  UNL     1     -24.013  16.958   9.977  1.00 20.00     0.015 A 
HETATM   11  C7  UNL     1     -24.976  15.932  12.044  1.00 20.00     0.048 C 
ENDBRANCH   4   5
ENDBRANCH   2   4
TORSDOF 2
ENDMDL
