MODEL 1
REMARK VINA RESULT:      -5.6      0.000      0.000
REMARK  1 active torsions:
REMARK  status: ('A' for Active; 'I' for Inactive)
REMARK    1  A    between atoms: C4_4  and  C7_7 
ROOT
HETATM    1  C1  UNL     1     -34.950   5.399   5.455  1.00 20.00     0.006 A 
HETATM    2  C2  UNL     1     -34.798   4.849   4.182  1.00 20.00     0.043 A 
HETATM    3  C3  UNL     1     -34.170   6.489   5.842  1.00 20.00     0.043 A 
HETATM    4  C4  UNL     1     -33.086   6.478   3.682  1.00 20.00     0.029 A 
HETATM    5  C5  UNL     1     -33.866   5.388   3.296  1.00 20.00     0.126 A 
HETATM    6  C6  UNL     1     -33.238   7.028   4.955  1.00 20.00     0.126 A 
HETATM    7  F8  UNL     1     -33.727   4.852   2.076  1.00 20.00    -0.205 F 
HETATM    8  F9  UNL     1     -32.492   8.075   5.335  1.00 20.00    -0.205 F 
ENDROOT
BRANCH   4   9
HETATM    9  C7  UNL     1     -32.089   7.055   2.735  1.00 20.00     0.130 C 
HETATM   10 BR10 UNL     1     -33.009   8.107   1.383  1.00 20.00    -0.091 Br
ENDBRANCH   4   9
TORSDOF 1
ENDMDL
MODEL 2
REMARK VINA RESULT:      -5.6      0.167      2.616
REMARK  1 active torsions:
REMARK  status: ('A' for Active; 'I' for Inactive)
REMARK    1  A    between atoms: C4_4  and  C7_7 
ROOT
HETATM    1  C1  UNL     1     -34.990   5.212   5.334  1.00 20.00     0.006 A 
HETATM    2  C2  UNL     1     -34.291   6.324   5.806  1.00 20.00     0.043 A 
HETATM    3  C3  UNL     1     -34.735   4.720   4.054  1.00 20.00     0.043 A 
HETATM    4  C4  UNL     1     -33.084   6.452   3.718  1.00 20.00     0.029 A 
HETATM    5  C5  UNL     1     -33.339   6.944   4.998  1.00 20.00     0.126 A 
HETATM    6  C6  UNL     1     -33.782   5.341   3.246  1.00 20.00     0.126 A 
HETATM    7  F8  UNL     1     -32.674   8.012   5.459  1.00 20.00    -0.205 F 
HETATM    8  F9  UNL     1     -33.544   4.861   2.017  1.00 20.00    -0.205 F 
ENDROOT
BRANCH   4   9
HETATM    9  C7  UNL     1     -32.066   7.115   2.853  1.00 20.00     0.130 C 
HETATM   10 BR10 UNL     1     -32.957   8.060   1.406  1.00 20.00    -0.091 Br
ENDBRANCH   4   9
TORSDOF 1
ENDMDL
MODEL 3
REMARK VINA RESULT:      -4.1     11.784     12.503
REMARK  1 active torsions:
REMARK  status: ('A' for Active; 'I' for Inactive)
REMARK    1  A    between atoms: C4_4  and  C7_7 
ROOT
HETATM    1  C1  UNL     1     -34.053  15.882  -2.825  1.00 20.00     0.006 A 
HETATM    2  C2  UNL     1     -35.120  16.046  -1.941  1.00 20.00     0.043 A 
HETATM    3  C3  UNL     1     -32.939  16.716  -2.736  1.00 20.00     0.043 A 
HETATM    4  C4  UNL     1     -33.960  17.881  -0.882  1.00 20.00     0.029 A 
HETATM    5  C5  UNL     1     -35.074  17.046  -0.970  1.00 20.00     0.126 A 
HETATM    6  C6  UNL     1     -32.893  17.717  -1.764  1.00 20.00     0.126 A 
HETATM    7  F8  UNL     1     -36.104  17.197  -0.127  1.00 20.00    -0.205 F 
HETATM    8  F9  UNL     1     -31.819  18.514  -1.687  1.00 20.00    -0.205 F 
ENDROOT
BRANCH   4   9
HETATM    9  C7  UNL     1     -33.911  18.951   0.157  1.00 20.00     0.130 C 
HETATM   10 BR10 UNL     1     -33.506  18.159   1.887  1.00 20.00    -0.091 Br
ENDBRANCH   4   9
TORSDOF 1
ENDMDL
MODEL 4
REMARK VINA RESULT:      -4.1     11.789     12.554
REMARK  1 active torsions:
REMARK  status: ('A' for Active; 'I' for Inactive)
REMARK    1  A    between atoms: C4_4  and  C7_7 
ROOT
HETATM    1  C1  UNL     1     -34.054  15.852  -2.850  1.00 20.00     0.006 A 
HETATM    2  C2  UNL     1     -32.939  16.686  -2.756  1.00 20.00     0.043 A 
HETATM    3  C3  UNL     1     -35.130  16.025  -1.979  1.00 20.00     0.043 A 
HETATM    4  C4  UNL     1     -33.974  17.863  -0.919  1.00 20.00     0.029 A 
HETATM    5  C5  UNL     1     -32.899  17.691  -1.790  1.00 20.00     0.126 A 
HETATM    6  C6  UNL     1     -35.089  17.031  -1.013  1.00 20.00     0.126 A 
HETATM    7  F8  UNL     1     -31.824  18.485  -1.706  1.00 20.00    -0.205 F 
HETATM    8  F9  UNL     1     -36.127  17.189  -0.180  1.00 20.00    -0.205 F 
ENDROOT
BRANCH   4   9
HETATM    9  C7  UNL     1     -33.932  18.938   0.115  1.00 20.00     0.130 C 
HETATM   10 BR10 UNL     1     -33.552  18.154   1.853  1.00 20.00    -0.091 Br
ENDBRANCH   4   9
TORSDOF 1
ENDMDL
MODEL 5
REMARK VINA RESULT:      -3.8     11.386     12.196
REMARK  1 active torsions:
REMARK  status: ('A' for Active; 'I' for Inactive)
REMARK    1  A    between atoms: C4_4  and  C7_7 
ROOT
HETATM    1  C1  UNL     1     -35.972  13.626  -4.456  1.00 20.00     0.006 A 
HETATM    2  C2  UNL     1     -37.065  14.485  -4.322  1.00 20.00     0.043 A 
HETATM    3  C3  UNL     1     -34.725  14.002  -3.959  1.00 20.00     0.043 A 
HETATM    4  C4  UNL     1     -35.660  16.095  -3.195  1.00 20.00     0.029 A 
HETATM    5  C5  UNL     1     -36.908  15.719  -3.692  1.00 20.00     0.126 A 
HETATM    6  C6  UNL     1     -34.569  15.237  -3.329  1.00 20.00     0.126 A 
HETATM    7  F8  UNL     1     -37.962  16.537  -3.569  1.00 20.00    -0.205 F 
HETATM    8  F9  UNL     1     -33.366  15.590  -2.855  1.00 20.00    -0.205 F 
ENDROOT
BRANCH   4   9
HETATM    9  C7  UNL     1     -35.493  17.415  -2.521  1.00 20.00     0.130 C 
HETATM   10 BR10 UNL     1     -35.335  17.150  -0.601  1.00 20.00    -0.091 Br
ENDBRANCH   4   9
TORSDOF 1
ENDMDL
MODEL 6
REMARK VINA RESULT:      -3.8     11.388     12.259
REMARK  1 active torsions:
REMARK  status: ('A' for Active; 'I' for Inactive)
REMARK    1  A    between atoms: C4_4  and  C7_7 
ROOT
HETATM    1  C1  UNL     1     -35.957  13.638  -4.447  1.00 20.00     0.006 A 
HETATM    2  C2  UNL     1     -34.708  14.014  -3.951  1.00 20.00     0.043 A 
HETATM    3  C3  UNL     1     -37.048  14.497  -4.314  1.00 20.00     0.043 A 
HETATM    4  C4  UNL     1     -35.641  16.107  -3.187  1.00 20.00     0.029 A 
HETATM    5  C5  UNL     1     -34.550  15.248  -3.320  1.00 20.00     0.126 A 
HETATM    6  C6  UNL     1     -36.890  15.731  -3.683  1.00 20.00     0.126 A 
HETATM    7  F8  UNL     1     -33.348  15.600  -2.846  1.00 20.00    -0.205 F 
HETATM    8  F9  UNL     1     -37.944  16.549  -3.559  1.00 20.00    -0.205 F 
ENDROOT
BRANCH   4   9
HETATM    9  C7  UNL     1     -35.473  17.426  -2.512  1.00 20.00     0.130 C 
HETATM   10 BR10 UNL     1     -35.359  17.164  -0.589  1.00 20.00    -0.091 Br
ENDBRANCH   4   9
TORSDOF 1
ENDMDL
MODEL 7
REMARK VINA RESULT:      -3.8     12.259     12.513
REMARK  1 active torsions:
REMARK  status: ('A' for Active; 'I' for Inactive)
REMARK    1  A    between atoms: C4_4  and  C7_7 
ROOT
HETATM    1  C1  UNL     1     -34.018  16.461  -2.314  1.00 20.00     0.006 A 
HETATM    2  C2  UNL     1     -35.410  16.410  -2.408  1.00 20.00     0.043 A 
HETATM    3  C3  UNL     1     -33.231  15.812  -3.264  1.00 20.00     0.043 A 
HETATM    4  C4  UNL     1     -35.226  15.059  -4.401  1.00 20.00     0.029 A 
HETATM    5  C5  UNL     1     -36.013  15.708  -3.451  1.00 20.00     0.126 A 
HETATM    6  C6  UNL     1     -33.835  15.110  -4.308  1.00 20.00     0.126 A 
HETATM    7  F8  UNL     1     -37.350  15.664  -3.532  1.00 20.00    -0.205 F 
HETATM    8  F9  UNL     1     -33.071  14.488  -5.216  1.00 20.00    -0.205 F 
ENDROOT
BRANCH   4   9
HETATM    9  C7  UNL     1     -35.871  14.308  -5.517  1.00 20.00     0.130 C 
HETATM   10 BR10 UNL     1     -35.761  15.354  -7.153  1.00 20.00    -0.091 Br
ENDBRANCH   4   9
TORSDOF 1
ENDMDL
MODEL 8
REMARK VINA RESULT:      -3.8     12.213     12.416
REMARK  1 active torsions:
REMARK  status: ('A' for Active; 'I' for Inactive)
REMARK    1  A    between atoms: C4_4  and  C7_7 
ROOT
HETATM    1  C1  UNL     1     -34.126  16.603  -2.274  1.00 20.00     0.006 A 
HETATM    2  C2  UNL     1     -33.278  15.906  -3.136  1.00 20.00     0.043 A 
HETATM    3  C3  UNL     1     -35.509  16.509  -2.429  1.00 20.00     0.043 A 
HETATM    4  C4  UNL     1     -35.196  15.022  -4.309  1.00 20.00     0.029 A 
HETATM    5  C5  UNL     1     -33.813  15.117  -4.154  1.00 20.00     0.126 A 
HETATM    6  C6  UNL     1     -36.044  15.719  -3.447  1.00 20.00     0.126 A 
HETATM    7  F8  UNL     1     -32.991  14.452  -4.977  1.00 20.00    -0.205 F 
HETATM    8  F9  UNL     1     -37.374  15.635  -3.589  1.00 20.00    -0.205 F 
ENDROOT
BRANCH   4   9
HETATM    9  C7  UNL     1     -35.769  14.178  -5.396  1.00 20.00     0.130 C 
HETATM   10 BR10 UNL     1     -35.647  15.127  -7.089  1.00 20.00    -0.091 Br
ENDBRANCH   4   9
TORSDOF 1
ENDMDL
MODEL 9
REMARK VINA RESULT:      -3.7     11.838     12.371
REMARK  1 active torsions:
REMARK  status: ('A' for Active; 'I' for Inactive)
REMARK    1  A    between atoms: C4_4  and  C7_7 
ROOT
HETATM    1  C1  UNL     1     -34.581  17.943   0.342  1.00 20.00     0.006 A 
HETATM    2  C2  UNL     1     -35.333  17.000  -0.359  1.00 20.00     0.043 A 
HETATM    3  C3  UNL     1     -33.371  18.400  -0.182  1.00 20.00     0.043 A 
HETATM    4  C4  UNL     1     -33.667  16.969  -2.107  1.00 20.00     0.029 A 
HETATM    5  C5  UNL     1     -34.876  16.512  -1.583  1.00 20.00     0.126 A 
HETATM    6  C6  UNL     1     -32.915  17.912  -1.407  1.00 20.00     0.126 A 
HETATM    7  F8  UNL     1     -35.605  15.606  -2.247  1.00 20.00    -0.205 F 
HETATM    8  F9  UNL     1     -31.752  18.356  -1.903  1.00 20.00    -0.205 F 
ENDROOT
BRANCH   4   9
HETATM    9  C7  UNL     1     -33.178  16.448  -3.416  1.00 20.00     0.130 C 
HETATM   10 BR10 UNL     1     -34.194  17.263  -4.861  1.00 20.00    -0.091 Br
ENDBRANCH   4   9
TORSDOF 1
ENDMDL
