MODEL 1
REMARK VINA RESULT:      -5.9      0.000      0.000
REMARK  0 active torsions:
REMARK  status: ('A' for Active; 'I' for Inactive)
ROOT
HETATM    1  C1  UNL     1     -34.466   6.139   6.199  1.00 20.00     0.001 A 
HETATM    2  C2  UNL     1     -34.991   4.973   5.632  1.00 20.00     0.003 A 
HETATM    3  C3  UNL     1     -33.638   6.995   5.458  1.00 20.00     0.016 A 
HETATM    4  C4  UNL     1     -34.710   4.618   4.309  1.00 20.00     0.040 A 
HETATM    5  C5  UNL     1     -32.599   7.182   3.062  1.00 20.00     0.161 A 
HETATM    6  C6  UNL     1     -33.348   6.651   4.130  1.00 20.00     0.019 A 
HETATM    7  C7  UNL     1     -33.886   5.489   3.604  1.00 20.00     0.113 A 
HETATM    8  N8  UNL     1     -32.663   6.420   1.966  1.00 20.00    -0.140 NA
HETATM    9  O9  UNL     1     -33.478   5.349   2.312  1.00 20.00    -0.213 OA
ENDROOT
TORSDOF 0
ENDMDL
MODEL 2
REMARK VINA RESULT:      -5.8      0.922      1.928
REMARK  0 active torsions:
REMARK  status: ('A' for Active; 'I' for Inactive)
ROOT
HETATM    1  C1  UNL     1     -35.013   5.023   5.674  1.00 20.00     0.001 A 
HETATM    2  C2  UNL     1     -34.479   6.193   6.225  1.00 20.00     0.003 A 
HETATM    3  C3  UNL     1     -34.717   4.641   4.358  1.00 20.00     0.016 A 
HETATM    4  C4  UNL     1     -33.633   7.024   5.484  1.00 20.00     0.040 A 
HETATM    5  C5  UNL     1     -33.324   5.480   2.305  1.00 20.00     0.161 A 
HETATM    6  C6  UNL     1     -33.869   5.465   3.604  1.00 20.00     0.019 A 
HETATM    7  C7  UNL     1     -33.360   6.615   4.183  1.00 20.00     0.113 A 
HETATM    8  N8  UNL     1     -32.544   6.545   2.092  1.00 20.00    -0.140 NA
HETATM    9  O9  UNL     1     -32.570   7.262   3.282  1.00 20.00    -0.213 OA
ENDROOT
TORSDOF 0
ENDMDL
MODEL 3
REMARK VINA RESULT:      -5.2      2.080      3.109
REMARK  0 active torsions:
REMARK  status: ('A' for Active; 'I' for Inactive)
ROOT
HETATM    1  C1  UNL     1     -32.504   7.024   2.696  1.00 20.00     0.001 A 
HETATM    2  C2  UNL     1     -32.913   5.841   2.071  1.00 20.00     0.003 A 
HETATM    3  C3  UNL     1     -32.907   7.330   4.004  1.00 20.00     0.016 A 
HETATM    4  C4  UNL     1     -33.738   4.921   2.727  1.00 20.00     0.040 A 
HETATM    5  C5  UNL     1     -34.356   6.311   5.932  1.00 20.00     0.161 A 
HETATM    6  C6  UNL     1     -33.734   6.416   4.673  1.00 20.00     0.019 A 
HETATM    7  C7  UNL     1     -34.118   5.256   4.022  1.00 20.00     0.113 A 
HETATM    8  N8  UNL     1     -35.066   5.185   6.057  1.00 20.00    -0.140 NA
HETATM    9  O9  UNL     1     -34.914   4.520   4.847  1.00 20.00    -0.213 OA
ENDROOT
TORSDOF 0
ENDMDL
MODEL 4
REMARK VINA RESULT:      -5.2      2.246      3.612
REMARK  0 active torsions:
REMARK  status: ('A' for Active; 'I' for Inactive)
ROOT
HETATM    1  C1  UNL     1     -33.294   5.028   2.251  1.00 20.00     0.001 A 
HETATM    2  C2  UNL     1     -32.696   6.288   2.355  1.00 20.00     0.003 A 
HETATM    3  C3  UNL     1     -34.067   4.504   3.297  1.00 20.00     0.016 A 
HETATM    4  C4  UNL     1     -32.847   7.071   3.505  1.00 20.00     0.040 A 
HETATM    5  C5  UNL     1     -34.882   5.162   5.696  1.00 20.00     0.161 A 
HETATM    6  C6  UNL     1     -34.227   5.278   4.455  1.00 20.00     0.019 A 
HETATM    7  C7  UNL     1     -33.620   6.520   4.522  1.00 20.00     0.113 A 
HETATM    8  N8  UNL     1     -34.701   6.237   6.470  1.00 20.00    -0.140 NA
HETATM    9  O9  UNL     1     -33.901   7.095   5.724  1.00 20.00    -0.213 OA
ENDROOT
TORSDOF 0
ENDMDL
MODEL 5
REMARK VINA RESULT:      -4.9     16.425     16.635
REMARK  0 active torsions:
REMARK  status: ('A' for Active; 'I' for Inactive)
ROOT
HETATM    1  C1  UNL     1     -24.060  17.980  10.828  1.00 20.00     0.001 A 
HETATM    2  C2  UNL     1     -22.830  17.376  10.548  1.00 20.00     0.003 A 
HETATM    3  C3  UNL     1     -24.799  18.620   9.821  1.00 20.00     0.016 A 
HETATM    4  C4  UNL     1     -22.292  17.386   9.257  1.00 20.00     0.040 A 
HETATM    5  C5  UNL     1     -24.643  19.139   7.260  1.00 20.00     0.161 A 
HETATM    6  C6  UNL     1     -24.271  18.637   8.522  1.00 20.00     0.019 A 
HETATM    7  C7  UNL     1     -23.051  18.028   8.284  1.00 20.00     0.113 A 
HETATM    8  N8  UNL     1     -23.736  18.867   6.316  1.00 20.00    -0.140 NA
HETATM    9  O9  UNL     1     -22.729  18.165   6.968  1.00 20.00    -0.213 OA
ENDROOT
TORSDOF 0
ENDMDL
MODEL 6
REMARK VINA RESULT:      -4.8     12.110     12.307
REMARK  0 active torsions:
REMARK  status: ('A' for Active; 'I' for Inactive)
ROOT
HETATM    1  C1  UNL     1     -33.220  15.608  -3.438  1.00 20.00     0.001 A 
HETATM    2  C2  UNL     1     -34.042  16.297  -2.540  1.00 20.00     0.003 A 
HETATM    3  C3  UNL     1     -33.751  14.660  -4.324  1.00 20.00     0.016 A 
HETATM    4  C4  UNL     1     -35.420  16.066  -2.492  1.00 20.00     0.040 A 
HETATM    5  C5  UNL     1     -36.058  13.595  -4.956  1.00 20.00     0.161 A 
HETATM    6  C6  UNL     1     -35.132  14.419  -4.287  1.00 20.00     0.019 A 
HETATM    7  C7  UNL     1     -35.912  15.119  -3.385  1.00 20.00     0.113 A 
HETATM    8  N8  UNL     1     -37.306  13.766  -4.511  1.00 20.00    -0.140 NA
HETATM    9  O9  UNL     1     -37.211  14.732  -3.516  1.00 20.00    -0.213 OA
ENDROOT
TORSDOF 0
ENDMDL
MODEL 7
REMARK VINA RESULT:      -4.8     12.051     12.300
REMARK  0 active torsions:
REMARK  status: ('A' for Active; 'I' for Inactive)
ROOT
HETATM    1  C1  UNL     1     -33.865  16.420  -2.840  1.00 20.00     0.001 A 
HETATM    2  C2  UNL     1     -33.046  15.558  -3.578  1.00 20.00     0.003 A 
HETATM    3  C3  UNL     1     -35.258  16.257  -2.824  1.00 20.00     0.016 A 
HETATM    4  C4  UNL     1     -33.584  14.505  -4.324  1.00 20.00     0.040 A 
HETATM    5  C5  UNL     1     -37.093  14.686  -3.835  1.00 20.00     0.161 A 
HETATM    6  C6  UNL     1     -35.811  15.205  -3.568  1.00 20.00     0.019 A 
HETATM    7  C7  UNL     1     -34.968  14.373  -4.285  1.00 20.00     0.113 A 
HETATM    8  N8  UNL     1     -37.055  13.625  -4.646  1.00 20.00    -0.140 NA
HETATM    9  O9  UNL     1     -35.708  13.430  -4.930  1.00 20.00    -0.213 OA
ENDROOT
TORSDOF 0
ENDMDL
MODEL 8
REMARK VINA RESULT:      -4.7     16.579     16.648
REMARK  0 active torsions:
REMARK  status: ('A' for Active; 'I' for Inactive)
ROOT
HETATM    1  C1  UNL     1     -24.501  18.142  10.873  1.00 20.00     0.001 A 
HETATM    2  C2  UNL     1     -25.258  18.956  10.024  1.00 20.00     0.003 A 
HETATM    3  C3  UNL     1     -23.351  17.485  10.412  1.00 20.00     0.016 A 
HETATM    4  C4  UNL     1     -24.897  19.144   8.686  1.00 20.00     0.040 A 
HETATM    5  C5  UNL     1     -21.952  17.223   8.215  1.00 20.00     0.161 A 
HETATM    6  C6  UNL     1     -22.978  17.665   9.073  1.00 20.00     0.019 A 
HETATM    7  C7  UNL     1     -23.751  18.478   8.263  1.00 20.00     0.113 A 
HETATM    8  N8  UNL     1     -22.073  17.717   6.979  1.00 20.00    -0.140 NA
HETATM    9  O9  UNL     1     -23.214  18.510   7.012  1.00 20.00    -0.213 OA
ENDROOT
TORSDOF 0
ENDMDL
MODEL 9
REMARK VINA RESULT:      -4.6     11.755     12.316
REMARK  0 active torsions:
REMARK  status: ('A' for Active; 'I' for Inactive)
ROOT
HETATM    1  C1  UNL     1     -34.739  17.148  -1.353  1.00 20.00     0.001 A 
HETATM    2  C2  UNL     1     -33.453  17.581  -1.695  1.00 20.00     0.003 A 
HETATM    3  C3  UNL     1     -35.324  16.043  -1.989  1.00 20.00     0.016 A 
HETATM    4  C4  UNL     1     -32.706  16.931  -2.682  1.00 20.00     0.040 A 
HETATM    5  C5  UNL     1     -34.761  14.282  -3.843  1.00 20.00     0.161 A 
HETATM    6  C6  UNL     1     -34.585  15.381  -2.980  1.00 20.00     0.019 A 
HETATM    7  C7  UNL     1     -33.317  15.840  -3.291  1.00 20.00     0.113 A 
HETATM    8  N8  UNL     1     -33.697  14.072  -4.624  1.00 20.00    -0.140 NA
HETATM    9  O9  UNL     1     -32.784  15.060  -4.273  1.00 20.00    -0.213 OA
ENDROOT
TORSDOF 0
ENDMDL
