MODEL 1
REMARK VINA RESULT:      -5.8      0.000      0.000
REMARK  3 active torsions:
REMARK  status: ('A' for Active; 'I' for Inactive)
REMARK    1  A    between atoms: C6_6  and  O9_9 
REMARK    2  A    between atoms: C7_7  and  C8_8 
REMARK    3  A    between atoms: C7_7  and  O9_9 
ROOT
HETATM    1  C1  UNL     1     -34.965   5.047   5.475  1.00 20.00     0.000 A 
HETATM    2  C2  UNL     1     -34.682   4.685   4.158  1.00 20.00     0.003 A 
HETATM    3  C3  UNL     1     -34.383   6.190   6.024  1.00 20.00     0.003 A 
HETATM    4  C4  UNL     1     -33.817   5.467   3.390  1.00 20.00     0.037 A 
HETATM    5  C5  UNL     1     -33.519   6.971   5.256  1.00 20.00     0.037 A 
HETATM    6  C6  UNL     1     -33.237   6.609   3.939  1.00 20.00     0.068 A 
ENDROOT
BRANCH   6   7
HETATM    7  O9  UNL     1     -32.392   7.370   3.191  1.00 20.00    -0.350 OA
BRANCH   7   8
HETATM    8  C7  UNL     1     -32.522   7.282   1.773  1.00 20.00     0.190 C 
BRANCH   8   9
HETATM    9  C8  UNL     1     -32.664   8.674   1.185  1.00 20.00     0.141 C 
HETATM   10 CL10 UNL     1     -33.485   8.612  -0.396  1.00 20.00    -0.128 Cl
ENDBRANCH   8   9
ENDBRANCH   7   8
ENDBRANCH   6   7
TORSDOF 3
ENDMDL
MODEL 2
REMARK VINA RESULT:      -4.3     11.319     11.919
REMARK  3 active torsions:
REMARK  status: ('A' for Active; 'I' for Inactive)
REMARK    1  A    between atoms: C6_6  and  O9_9 
REMARK    2  A    between atoms: C7_7  and  C8_8 
REMARK    3  A    between atoms: C7_7  and  O9_9 
ROOT
HETATM    1  C1  UNL     1     -33.957  16.899  -1.880  1.00 20.00     0.000 A 
HETATM    2  C2  UNL     1     -32.952  16.626  -2.806  1.00 20.00     0.003 A 
HETATM    3  C3  UNL     1     -35.179  16.231  -1.961  1.00 20.00     0.003 A 
HETATM    4  C4  UNL     1     -33.167  15.684  -3.814  1.00 20.00     0.037 A 
HETATM    5  C5  UNL     1     -35.395  15.290  -2.968  1.00 20.00     0.037 A 
HETATM    6  C6  UNL     1     -34.389  15.017  -3.894  1.00 20.00     0.068 A 
ENDROOT
BRANCH   6   7
HETATM    7  O9  UNL     1     -34.600  14.100  -4.877  1.00 20.00    -0.350 OA
BRANCH   7   8
HETATM    8  C7  UNL     1     -35.760  14.274  -5.688  1.00 20.00     0.190 C 
BRANCH   8   9
HETATM    9  C8  UNL     1     -35.454  15.235  -6.822  1.00 20.00     0.141 C 
HETATM   10 CL10 UNL     1     -33.768  15.049  -7.372  1.00 20.00    -0.128 Cl
ENDBRANCH   8   9
ENDBRANCH   7   8
ENDBRANCH   6   7
TORSDOF 3
ENDMDL
MODEL 3
REMARK VINA RESULT:      -4.2     11.081     11.754
REMARK  3 active torsions:
REMARK  status: ('A' for Active; 'I' for Inactive)
REMARK    1  A    between atoms: C6_6  and  O9_9 
REMARK    2  A    between atoms: C7_7  and  C8_8 
REMARK    3  A    between atoms: C7_7  and  O9_9 
ROOT
HETATM    1  C1  UNL     1     -33.976  17.700  -1.194  1.00 20.00     0.000 A 
HETATM    2  C2  UNL     1     -35.065  16.832  -1.270  1.00 20.00     0.003 A 
HETATM    3  C3  UNL     1     -32.903  17.550  -2.072  1.00 20.00     0.003 A 
HETATM    4  C4  UNL     1     -35.081  15.814  -2.224  1.00 20.00     0.037 A 
HETATM    5  C5  UNL     1     -32.918  16.532  -3.025  1.00 20.00     0.037 A 
HETATM    6  C6  UNL     1     -34.007  15.664  -3.101  1.00 20.00     0.068 A 
ENDROOT
BRANCH   6   7
HETATM    7  O9  UNL     1     -34.021  14.670  -4.030  1.00 20.00    -0.350 OA
BRANCH   7   8
HETATM    8  C7  UNL     1     -34.144  15.060  -5.397  1.00 20.00     0.190 C 
BRANCH   8   9
HETATM    9  C8  UNL     1     -35.521  14.686  -5.915  1.00 20.00     0.141 C 
HETATM   10 CL10 UNL     1     -36.341  13.575  -4.788  1.00 20.00    -0.128 Cl
ENDBRANCH   8   9
ENDBRANCH   7   8
ENDBRANCH   6   7
TORSDOF 3
ENDMDL
MODEL 4
REMARK VINA RESULT:      -4.1     11.284     11.886
REMARK  3 active torsions:
REMARK  status: ('A' for Active; 'I' for Inactive)
REMARK    1  A    between atoms: C6_6  and  O9_9 
REMARK    2  A    between atoms: C7_7  and  C8_8 
REMARK    3  A    between atoms: C7_7  and  O9_9 
ROOT
HETATM    1  C1  UNL     1     -34.718  14.429  -3.904  1.00 20.00     0.000 A 
HETATM    2  C2  UNL     1     -35.475  15.120  -2.958  1.00 20.00     0.003 A 
HETATM    3  C3  UNL     1     -33.403  14.816  -4.163  1.00 20.00     0.003 A 
HETATM    4  C4  UNL     1     -34.916  16.199  -2.271  1.00 20.00     0.037 A 
HETATM    5  C5  UNL     1     -32.845  15.894  -3.476  1.00 20.00     0.037 A 
HETATM    6  C6  UNL     1     -33.602  16.585  -2.529  1.00 20.00     0.068 A 
ENDROOT
BRANCH   6   7
HETATM    7  O9  UNL     1     -33.058  17.638  -1.861  1.00 20.00    -0.350 OA
BRANCH   7   8
HETATM    8  C7  UNL     1     -33.671  18.011  -0.628  1.00 20.00     0.190 C 
BRANCH   8   9
HETATM    9  C8  UNL     1     -32.619  18.553   0.323  1.00 20.00     0.141 C 
HETATM   10 CL10 UNL     1     -30.979  18.250  -0.307  1.00 20.00    -0.128 Cl
ENDBRANCH   8   9
ENDBRANCH   7   8
ENDBRANCH   6   7
TORSDOF 3
ENDMDL
MODEL 5
REMARK VINA RESULT:      -4.0     11.254     11.842
REMARK  3 active torsions:
REMARK  status: ('A' for Active; 'I' for Inactive)
REMARK    1  A    between atoms: C6_6  and  O9_9 
REMARK    2  A    between atoms: C7_7  and  C8_8 
REMARK    3  A    between atoms: C7_7  and  O9_9 
ROOT
HETATM    1  C1  UNL     1     -34.759  14.410  -3.884  1.00 20.00     0.000 A 
HETATM    2  C2  UNL     1     -33.455  14.787  -4.205  1.00 20.00     0.003 A 
HETATM    3  C3  UNL     1     -35.462  15.103  -2.898  1.00 20.00     0.003 A 
HETATM    4  C4  UNL     1     -32.854  15.856  -3.540  1.00 20.00     0.037 A 
HETATM    5  C5  UNL     1     -34.861  16.171  -2.233  1.00 20.00     0.037 A 
HETATM    6  C6  UNL     1     -33.556  16.548  -2.554  1.00 20.00     0.068 A 
ENDROOT
BRANCH   6   7
HETATM    7  O9  UNL     1     -32.969  17.589  -1.904  1.00 20.00    -0.350 OA
BRANCH   7   8
HETATM    8  C7  UNL     1     -33.659  18.122  -0.775  1.00 20.00     0.190 C 
BRANCH   8   9
HETATM    9  C8  UNL     1     -32.664  18.463   0.319  1.00 20.00     0.141 C 
HETATM   10 CL10 UNL     1     -30.991  18.312  -0.278  1.00 20.00    -0.128 Cl
ENDBRANCH   8   9
ENDBRANCH   7   8
ENDBRANCH   6   7
TORSDOF 3
ENDMDL
MODEL 6
REMARK VINA RESULT:      -4.0     11.430     12.161
REMARK  3 active torsions:
REMARK  status: ('A' for Active; 'I' for Inactive)
REMARK    1  A    between atoms: C6_6  and  O9_9 
REMARK    2  A    between atoms: C7_7  and  C8_8 
REMARK    3  A    between atoms: C7_7  and  O9_9 
ROOT
HETATM    1  C1  UNL     1     -34.501  15.381  -3.201  1.00 20.00     0.000 A 
HETATM    2  C2  UNL     1     -35.291  15.859  -2.156  1.00 20.00     0.003 A 
HETATM    3  C3  UNL     1     -33.247  15.943  -3.440  1.00 20.00     0.003 A 
HETATM    4  C4  UNL     1     -34.826  16.898  -1.349  1.00 20.00     0.037 A 
HETATM    5  C5  UNL     1     -32.782  16.981  -2.634  1.00 20.00     0.037 A 
HETATM    6  C6  UNL     1     -33.572  17.459  -1.588  1.00 20.00     0.068 A 
ENDROOT
BRANCH   6   7
HETATM    7  O9  UNL     1     -33.119  18.473  -0.802  1.00 20.00    -0.350 OA
BRANCH   7   8
HETATM    8  C7  UNL     1     -31.747  18.838  -0.938  1.00 20.00     0.190 C 
BRANCH   8   9
HETATM    9  C8  UNL     1     -31.001  18.511   0.342  1.00 20.00     0.141 C 
HETATM   10 CL10 UNL     1     -32.140  18.224   1.683  1.00 20.00    -0.128 Cl
ENDBRANCH   8   9
ENDBRANCH   7   8
ENDBRANCH   6   7
TORSDOF 3
ENDMDL
MODEL 7
REMARK VINA RESULT:      -3.9      9.693     10.393
REMARK  3 active torsions:
REMARK  status: ('A' for Active; 'I' for Inactive)
REMARK    1  A    between atoms: C6_6  and  O9_9 
REMARK    2  A    between atoms: C7_7  and  C8_8 
REMARK    3  A    between atoms: C7_7  and  O9_9 
ROOT
HETATM    1  C1  UNL     1     -42.099   7.694   0.784  1.00 20.00     0.000 A 
HETATM    2  C2  UNL     1     -42.816   6.527   1.048  1.00 20.00     0.003 A 
HETATM    3  C3  UNL     1     -41.310   7.783  -0.363  1.00 20.00     0.003 A 
HETATM    4  C4  UNL     1     -42.744   5.449   0.164  1.00 20.00     0.037 A 
HETATM    5  C5  UNL     1     -41.238   6.706  -1.246  1.00 20.00     0.037 A 
HETATM    6  C6  UNL     1     -41.955   5.539  -0.982  1.00 20.00     0.068 A 
ENDROOT
BRANCH   6   7
HETATM    7  O9  UNL     1     -41.884   4.488  -1.843  1.00 20.00    -0.350 OA
BRANCH   7   8
HETATM    8  C7  UNL     1     -43.117   3.922  -2.282  1.00 20.00     0.190 C 
BRANCH   8   9
HETATM    9  C8  UNL     1     -42.862   2.566  -2.914  1.00 20.00     0.141 C 
HETATM   10 CL10 UNL     1     -41.564   2.669  -4.132  1.00 20.00    -0.128 Cl
ENDBRANCH   8   9
ENDBRANCH   7   8
ENDBRANCH   6   7
TORSDOF 3
ENDMDL
MODEL 8
REMARK VINA RESULT:      -3.8     11.229     11.873
REMARK  3 active torsions:
REMARK  status: ('A' for Active; 'I' for Inactive)
REMARK    1  A    between atoms: C6_6  and  O9_9 
REMARK    2  A    between atoms: C7_7  and  C8_8 
REMARK    3  A    between atoms: C7_7  and  O9_9 
ROOT
HETATM    1  C1  UNL     1     -34.415  14.526  -3.923  1.00 20.00     0.000 A 
HETATM    2  C2  UNL     1     -35.362  14.962  -2.997  1.00 20.00     0.003 A 
HETATM    3  C3  UNL     1     -33.193  15.189  -4.035  1.00 20.00     0.003 A 
HETATM    4  C4  UNL     1     -35.085  16.060  -2.181  1.00 20.00     0.037 A 
HETATM    5  C5  UNL     1     -32.917  16.286  -3.220  1.00 20.00     0.037 A 
HETATM    6  C6  UNL     1     -33.863  16.722  -2.293  1.00 20.00     0.068 A 
ENDROOT
BRANCH   6   7
HETATM    7  O9  UNL     1     -33.595  17.794  -1.499  1.00 20.00    -0.350 OA
BRANCH   7   8
HETATM    8  C7  UNL     1     -34.196  17.812  -0.206  1.00 20.00     0.190 C 
BRANCH   8   9
HETATM    9  C8  UNL     1     -33.251  18.460   0.790  1.00 20.00     0.141 C 
HETATM   10 CL10 UNL     1     -33.776  18.138   2.462  1.00 20.00    -0.128 Cl
ENDBRANCH   8   9
ENDBRANCH   7   8
ENDBRANCH   6   7
TORSDOF 3
ENDMDL
MODEL 9
REMARK VINA RESULT:      -3.7     11.536     12.147
REMARK  3 active torsions:
REMARK  status: ('A' for Active; 'I' for Inactive)
REMARK    1  A    between atoms: C6_6  and  O9_9 
REMARK    2  A    between atoms: C7_7  and  C8_8 
REMARK    3  A    between atoms: C7_7  and  O9_9 
ROOT
HETATM    1  C1  UNL     1     -33.085  15.978  -3.163  1.00 20.00     0.000 A 
HETATM    2  C2  UNL     1     -34.179  16.386  -2.400  1.00 20.00     0.003 A 
HETATM    3  C3  UNL     1     -33.251  15.019  -4.163  1.00 20.00     0.003 A 
HETATM    4  C4  UNL     1     -35.439  15.835  -2.637  1.00 20.00     0.037 A 
HETATM    5  C5  UNL     1     -34.510  14.469  -4.399  1.00 20.00     0.037 A 
HETATM    6  C6  UNL     1     -35.605  14.877  -3.637  1.00 20.00     0.068 A 
ENDROOT
BRANCH   6   7
HETATM    7  O9  UNL     1     -36.833  14.339  -3.867  1.00 20.00    -0.350 OA
BRANCH   7   8
HETATM    8  C7  UNL     1     -37.903  15.247  -4.124  1.00 20.00     0.190 C 
BRANCH   8   9
HETATM    9  C8  UNL     1     -37.708  15.896  -5.482  1.00 20.00     0.141 C 
HETATM   10 CL10 UNL     1     -37.241  17.607  -5.304  1.00 20.00    -0.128 Cl
ENDBRANCH   8   9
ENDBRANCH   7   8
ENDBRANCH   6   7
TORSDOF 3
ENDMDL
