MODEL 1
REMARK VINA RESULT:      -0.5      0.000      0.000
REMARK  2 active torsions:
REMARK  status: ('A' for Active; 'I' for Inactive)
REMARK    1  A    between atoms: C5_5  and  S7_7 
REMARK    2  A    between atoms: C6_6  and  S8_8 
ROOT
HETATM    1  C1  UNL     1     -34.733   5.885   4.037  1.00 20.00     0.001 A 
HETATM    2  C2  UNL     1     -34.559   7.248   4.280  1.00 20.00     0.001 A 
HETATM    3  C3  UNL     1     -34.001   5.259   3.028  1.00 20.00     0.019 A 
HETATM    4  C4  UNL     1     -33.656   7.984   3.513  1.00 20.00     0.019 A 
HETATM    5  C5  UNL     1     -33.098   5.995   2.262  1.00 20.00     0.014 A 
HETATM    6  C6  UNL     1     -32.925   7.358   2.504  1.00 20.00     0.014 A 
ENDROOT
BRANCH   5   7
HETATM    7  S7  UNL     1     -32.204   5.101   0.989  1.00 20.00    -0.142 SA
HETATM    8  H13 UNL     1     -31.224   4.638   1.777  1.00 20.00     0.107 HD
ENDBRANCH   5   7
BRANCH   6   9
HETATM    9  S8  UNL     1     -31.789   8.387   1.574  1.00 20.00    -0.142 SA
HETATM   10  H14 UNL     1     -31.634   7.554   0.535  1.00 20.00     0.107 HD
ENDBRANCH   6   9
TORSDOF 2
ENDMDL
MODEL 2
REMARK VINA RESULT:      -0.5      0.005      2.397
REMARK  2 active torsions:
REMARK  status: ('A' for Active; 'I' for Inactive)
REMARK    1  A    between atoms: C5_5  and  S7_7 
REMARK    2  A    between atoms: C6_6  and  S8_8 
ROOT
HETATM    1  C1  UNL     1     -34.563   7.251   4.281  1.00 20.00     0.001 A 
HETATM    2  C2  UNL     1     -34.737   5.888   4.038  1.00 20.00     0.001 A 
HETATM    3  C3  UNL     1     -33.657   7.985   3.515  1.00 20.00     0.019 A 
HETATM    4  C4  UNL     1     -34.006   5.260   3.030  1.00 20.00     0.019 A 
HETATM    5  C5  UNL     1     -32.928   7.357   2.506  1.00 20.00     0.014 A 
HETATM    6  C6  UNL     1     -33.102   5.994   2.264  1.00 20.00     0.014 A 
ENDROOT
BRANCH   5   7
HETATM    7  S7  UNL     1     -31.789   8.384   1.575  1.00 20.00    -0.142 SA
HETATM    8  H13 UNL     1     -32.159   7.967   0.356  1.00 20.00     0.107 HD
ENDBRANCH   5   7
BRANCH   6   9
HETATM    9  S8  UNL     1     -32.210   5.099   0.991  1.00 20.00    -0.142 SA
HETATM   10  H14 UNL     1     -31.733   4.129   1.783  1.00 20.00     0.107 HD
ENDBRANCH   6   9
TORSDOF 2
ENDMDL
MODEL 3
REMARK VINA RESULT:       0.1      2.215      2.915
REMARK  2 active torsions:
REMARK  status: ('A' for Active; 'I' for Inactive)
REMARK    1  A    between atoms: C5_5  and  S7_7 
REMARK    2  A    between atoms: C6_6  and  S8_8 
ROOT
HETATM    1  C1  UNL     1     -32.392   6.142   1.115  1.00 20.00     0.001 A 
HETATM    2  C2  UNL     1     -31.907   7.408   1.442  1.00 20.00     0.001 A 
HETATM    3  C3  UNL     1     -33.302   5.504   1.960  1.00 20.00     0.019 A 
HETATM    4  C4  UNL     1     -32.330   8.037   2.613  1.00 20.00     0.019 A 
HETATM    5  C5  UNL     1     -33.725   6.134   3.130  1.00 20.00     0.014 A 
HETATM    6  C6  UNL     1     -33.239   7.400   3.457  1.00 20.00     0.014 A 
ENDROOT
BRANCH   5   7
HETATM    7  S7  UNL     1     -34.896   5.236   4.150  1.00 20.00    -0.142 SA
HETATM    8  H13 UNL     1     -33.993   4.651   4.950  1.00 20.00     0.107 HD
ENDBRANCH   5   7
BRANCH   6   9
HETATM    9  S8  UNL     1     -33.723   8.289   4.938  1.00 20.00    -0.142 SA
HETATM   10  H14 UNL     1     -34.490   9.204   4.330  1.00 20.00     0.107 HD
ENDBRANCH   6   9
TORSDOF 2
ENDMDL
MODEL 4
REMARK VINA RESULT:       0.1      2.216      3.750
REMARK  2 active torsions:
REMARK  status: ('A' for Active; 'I' for Inactive)
REMARK    1  A    between atoms: C5_5  and  S7_7 
REMARK    2  A    between atoms: C6_6  and  S8_8 
ROOT
HETATM    1  C1  UNL     1     -31.886   7.381   1.439  1.00 20.00     0.001 A 
HETATM    2  C2  UNL     1     -32.392   6.122   1.117  1.00 20.00     0.001 A 
HETATM    3  C3  UNL     1     -32.303   8.022   2.606  1.00 20.00     0.019 A 
HETATM    4  C4  UNL     1     -33.315   5.504   1.961  1.00 20.00     0.019 A 
HETATM    5  C5  UNL     1     -33.225   7.404   3.450  1.00 20.00     0.014 A 
HETATM    6  C6  UNL     1     -33.732   6.144   3.127  1.00 20.00     0.014 A 
ENDROOT
BRANCH   5   7
HETATM    7  S7  UNL     1     -33.699   8.306   4.926  1.00 20.00    -0.142 SA
HETATM    8  H13 UNL     1     -34.601   9.106   4.341  1.00 20.00     0.107 HD
ENDBRANCH   5   7
BRANCH   6   9
HETATM    9  S8  UNL     1     -34.920   5.270   4.147  1.00 20.00    -0.142 SA
HETATM   10  H14 UNL     1     -35.380   4.453   3.190  1.00 20.00     0.107 HD
ENDBRANCH   6   9
TORSDOF 2
ENDMDL
MODEL 5
REMARK VINA RESULT:       0.8      1.607      2.693
REMARK  2 active torsions:
REMARK  status: ('A' for Active; 'I' for Inactive)
REMARK    1  A    between atoms: C5_5  and  S7_7 
REMARK    2  A    between atoms: C6_6  and  S8_8 
ROOT
HETATM    1  C1  UNL     1     -33.231   8.405   3.456  1.00 20.00     0.001 A 
HETATM    2  C2  UNL     1     -32.420   8.496   2.326  1.00 20.00     0.001 A 
HETATM    3  C3  UNL     1     -33.758   7.170   3.837  1.00 20.00     0.019 A 
HETATM    4  C4  UNL     1     -32.135   7.355   1.576  1.00 20.00     0.019 A 
HETATM    5  C5  UNL     1     -33.473   6.029   3.088  1.00 20.00     0.014 A 
HETATM    6  C6  UNL     1     -32.662   6.121   1.957  1.00 20.00     0.014 A 
ENDROOT
BRANCH   5   7
HETATM    7  S7  UNL     1     -34.196   4.489   3.657  1.00 20.00    -0.142 SA
HETATM    8  H13 UNL     1     -34.495   3.996   2.447  1.00 20.00     0.107 HD
ENDBRANCH   5   7
BRANCH   6   9
HETATM    9  S8  UNL     1     -32.239   4.712   0.931  1.00 20.00    -0.142 SA
HETATM   10  H14 UNL     1     -32.861   5.132  -0.179  1.00 20.00     0.107 HD
ENDBRANCH   6   9
TORSDOF 2
ENDMDL
MODEL 6
REMARK VINA RESULT:       0.8      1.472      2.640
REMARK  2 active torsions:
REMARK  status: ('A' for Active; 'I' for Inactive)
REMARK    1  A    between atoms: C5_5  and  S7_7 
REMARK    2  A    between atoms: C6_6  and  S8_8 
ROOT
HETATM    1  C1  UNL     1     -32.766   8.505   2.564  1.00 20.00     0.001 A 
HETATM    2  C2  UNL     1     -33.573   8.281   3.679  1.00 20.00     0.001 A 
HETATM    3  C3  UNL     1     -32.363   7.431   1.769  1.00 20.00     0.019 A 
HETATM    4  C4  UNL     1     -33.978   6.985   3.999  1.00 20.00     0.019 A 
HETATM    5  C5  UNL     1     -32.768   6.136   2.089  1.00 20.00     0.014 A 
HETATM    6  C6  UNL     1     -33.575   5.913   3.205  1.00 20.00     0.014 A 
ENDROOT
BRANCH   5   7
HETATM    7  S7  UNL     1     -32.200   4.823   1.007  1.00 20.00    -0.142 SA
HETATM    8  H13 UNL     1     -32.624   5.368  -0.141  1.00 20.00     0.107 HD
ENDBRANCH   5   7
BRANCH   6   9
HETATM    9  S8  UNL     1     -34.147   4.285   3.697  1.00 20.00    -0.142 SA
HETATM   10  H14 UNL     1     -34.899   4.047   2.614  1.00 20.00     0.107 HD
ENDBRANCH   6   9
TORSDOF 2
ENDMDL
MODEL 7
REMARK VINA RESULT:       1.6      1.701      2.741
REMARK  2 active torsions:
REMARK  status: ('A' for Active; 'I' for Inactive)
REMARK    1  A    between atoms: C5_5  and  S7_7 
REMARK    2  A    between atoms: C6_6  and  S8_8 
ROOT
HETATM    1  C1  UNL     1     -33.447   4.665   2.512  1.00 20.00     0.001 A 
HETATM    2  C2  UNL     1     -32.675   4.933   1.382  1.00 20.00     0.001 A 
HETATM    3  C3  UNL     1     -33.795   5.700   3.381  1.00 20.00     0.019 A 
HETATM    4  C4  UNL     1     -32.249   6.236   1.121  1.00 20.00     0.019 A 
HETATM    5  C5  UNL     1     -33.371   7.002   3.118  1.00 20.00     0.014 A 
HETATM    6  C6  UNL     1     -32.597   7.270   1.988  1.00 20.00     0.014 A 
ENDROOT
BRANCH   5   7
HETATM    7  S7  UNL     1     -33.869   8.264   4.292  1.00 20.00    -0.142 SA
HETATM    8  H13 UNL     1     -33.079   9.239   3.822  1.00 20.00     0.107 HD
ENDBRANCH   5   7
BRANCH   6   9
HETATM    9  S8  UNL     1     -32.005   8.910   1.568  1.00 20.00    -0.142 SA
HETATM   10  H14 UNL     1     -32.461   8.925   0.307  1.00 20.00     0.107 HD
ENDBRANCH   6   9
TORSDOF 2
ENDMDL
MODEL 8
REMARK VINA RESULT:       1.6      1.716      2.868
REMARK  2 active torsions:
REMARK  status: ('A' for Active; 'I' for Inactive)
REMARK    1  A    between atoms: C5_5  and  S7_7 
REMARK    2  A    between atoms: C6_6  and  S8_8 
ROOT
HETATM    1  C1  UNL     1     -32.697   5.002   1.365  1.00 20.00     0.001 A 
HETATM    2  C2  UNL     1     -33.460   4.717   2.497  1.00 20.00     0.001 A 
HETATM    3  C3  UNL     1     -32.265   6.307   1.125  1.00 20.00     0.019 A 
HETATM    4  C4  UNL     1     -33.793   5.736   3.389  1.00 20.00     0.019 A 
HETATM    5  C5  UNL     1     -32.598   7.326   2.017  1.00 20.00     0.014 A 
HETATM    6  C6  UNL     1     -33.362   7.041   3.149  1.00 20.00     0.014 A 
ENDROOT
BRANCH   5   7
HETATM    7  S7  UNL     1     -31.998   8.970   1.624  1.00 20.00    -0.142 SA
HETATM    8  H13 UNL     1     -30.966   8.971   2.479  1.00 20.00     0.107 HD
ENDBRANCH   5   7
BRANCH   6   9
HETATM    9  S8  UNL     1     -33.839   8.282   4.353  1.00 20.00    -0.142 SA
HETATM   10  H14 UNL     1     -35.132   7.938   4.431  1.00 20.00     0.107 HD
ENDBRANCH   6   9
TORSDOF 2
ENDMDL
MODEL 9
REMARK VINA RESULT:       1.7      1.512      2.111
REMARK  2 active torsions:
REMARK  status: ('A' for Active; 'I' for Inactive)
REMARK    1  A    between atoms: C5_5  and  S7_7 
REMARK    2  A    between atoms: C6_6  and  S8_8 
ROOT
HETATM    1  C1  UNL     1     -34.004   4.148   3.718  1.00 20.00     0.001 A 
HETATM    2  C2  UNL     1     -34.995   4.811   4.441  1.00 20.00     0.001 A 
HETATM    3  C3  UNL     1     -33.138   4.871   2.897  1.00 20.00     0.019 A 
HETATM    4  C4  UNL     1     -35.122   6.197   4.343  1.00 20.00     0.019 A 
HETATM    5  C5  UNL     1     -33.264   6.256   2.800  1.00 20.00     0.014 A 
HETATM    6  C6  UNL     1     -34.256   6.920   3.522  1.00 20.00     0.014 A 
ENDROOT
BRANCH   5   7
HETATM    7  S7  UNL     1     -32.105   7.098   1.720  1.00 20.00    -0.142 SA
HETATM    8  H13 UNL     1     -31.025   6.951   2.500  1.00 20.00     0.107 HD
ENDBRANCH   5   7
BRANCH   6   9
HETATM    9  S8  UNL     1     -34.496   8.696   3.463  1.00 20.00    -0.142 SA
HETATM   10  H14 UNL     1     -35.634   8.679   2.754  1.00 20.00     0.107 HD
ENDBRANCH   6   9
TORSDOF 2
ENDMDL
