MODEL 1
REMARK VINA RESULT:      -2.1      0.000      0.000
REMARK  0 active torsions:
REMARK  status: ('A' for Active; 'I' for Inactive)
ROOT
HETATM    1  C1  UNL     1     -34.711   5.948   4.007  1.00 20.00     0.002 A 
HETATM    2  C2  UNL     1     -34.504   7.307   4.245  1.00 20.00     0.002 A 
HETATM    3  C3  UNL     1     -33.994   5.298   3.002  1.00 20.00     0.025 A 
HETATM    4  C4  UNL     1     -33.579   8.015   3.478  1.00 20.00     0.025 A 
HETATM    5  C5  UNL     1     -33.071   6.007   2.235  1.00 20.00     0.055 A 
HETATM    6  C6  UNL     1     -32.863   7.366   2.472  1.00 20.00     0.055 A 
HETATM    7 CL7  UNL     1     -32.213   5.147   1.004  1.00 20.00    -0.083 Cl
HETATM    8 CL8  UNL     1     -31.733   8.299   1.556  1.00 20.00    -0.083 Cl
ENDROOT
TORSDOF 0
ENDMDL
MODEL 2
REMARK VINA RESULT:      -2.1      0.079      2.353
REMARK  0 active torsions:
REMARK  status: ('A' for Active; 'I' for Inactive)
ROOT
HETATM    1  C1  UNL     1     -34.464   7.336   4.184  1.00 20.00     0.002 A 
HETATM    2  C2  UNL     1     -34.647   5.969   3.976  1.00 20.00     0.002 A 
HETATM    3  C3  UNL     1     -33.550   8.044   3.404  1.00 20.00     0.025 A 
HETATM    4  C4  UNL     1     -33.916   5.310   2.988  1.00 20.00     0.025 A 
HETATM    5  C5  UNL     1     -32.819   7.385   2.416  1.00 20.00     0.055 A 
HETATM    6  C6  UNL     1     -33.001   6.018   2.207  1.00 20.00     0.055 A 
HETATM    7 CL7  UNL     1     -31.701   8.316   1.482  1.00 20.00    -0.083 Cl
HETATM    8 CL8  UNL     1     -32.127   5.146   0.999  1.00 20.00    -0.083 Cl
ENDROOT
TORSDOF 0
ENDMDL
MODEL 3
REMARK VINA RESULT:      -2.0      2.267      3.706
REMARK  0 active torsions:
REMARK  status: ('A' for Active; 'I' for Inactive)
ROOT
HETATM    1  C1  UNL     1     -31.976   7.347   1.630  1.00 20.00     0.002 A 
HETATM    2  C2  UNL     1     -32.543   6.114   1.305  1.00 20.00     0.002 A 
HETATM    3  C3  UNL     1     -32.393   8.026   2.775  1.00 20.00     0.025 A 
HETATM    4  C4  UNL     1     -33.525   5.561   2.126  1.00 20.00     0.025 A 
HETATM    5  C5  UNL     1     -33.376   7.473   3.595  1.00 20.00     0.055 A 
HETATM    6  C6  UNL     1     -33.943   6.240   3.271  1.00 20.00     0.055 A 
HETATM    7 CL7  UNL     1     -33.850   8.362   5.000  1.00 20.00    -0.083 Cl
HETATM    8 CL8  UNL     1     -35.164   5.503   4.246  1.00 20.00    -0.083 Cl
ENDROOT
TORSDOF 0
ENDMDL
MODEL 4
REMARK VINA RESULT:      -2.0      2.259      2.900
REMARK  0 active torsions:
REMARK  status: ('A' for Active; 'I' for Inactive)
ROOT
HETATM    1  C1  UNL     1     -32.490   6.145   1.309  1.00 20.00     0.002 A 
HETATM    2  C2  UNL     1     -31.959   7.390   1.643  1.00 20.00     0.002 A 
HETATM    3  C3  UNL     1     -33.465   5.562   2.119  1.00 20.00     0.025 A 
HETATM    4  C4  UNL     1     -32.403   8.054   2.786  1.00 20.00     0.025 A 
HETATM    5  C5  UNL     1     -33.908   6.226   3.262  1.00 20.00     0.055 A 
HETATM    6  C6  UNL     1     -33.378   7.472   3.597  1.00 20.00     0.055 A 
HETATM    7 CL7  UNL     1     -35.118   5.454   4.227  1.00 20.00    -0.083 Cl
HETATM    8 CL8  UNL     1     -33.886   8.343   5.000  1.00 20.00    -0.083 Cl
ENDROOT
TORSDOF 0
ENDMDL
MODEL 5
REMARK VINA RESULT:      -1.0      1.432      2.602
REMARK  0 active torsions:
REMARK  status: ('A' for Active; 'I' for Inactive)
ROOT
HETATM    1  C1  UNL     1     -32.750   8.447   2.563  1.00 20.00     0.002 A 
HETATM    2  C2  UNL     1     -33.580   8.238   3.664  1.00 20.00     0.002 A 
HETATM    3  C3  UNL     1     -32.353   7.367   1.774  1.00 20.00     0.025 A 
HETATM    4  C4  UNL     1     -34.013   6.950   3.976  1.00 20.00     0.025 A 
HETATM    5  C5  UNL     1     -32.785   6.079   2.087  1.00 20.00     0.055 A 
HETATM    6  C6  UNL     1     -33.615   5.869   3.188  1.00 20.00     0.055 A 
HETATM    7 CL7  UNL     1     -32.259   4.782   1.072  1.00 20.00    -0.083 Cl
HETATM    8 CL8  UNL     1     -34.185   4.298   3.626  1.00 20.00    -0.083 Cl
ENDROOT
TORSDOF 0
ENDMDL
MODEL 6
REMARK VINA RESULT:      -1.0      1.432      2.496
REMARK  0 active torsions:
REMARK  status: ('A' for Active; 'I' for Inactive)
ROOT
HETATM    1  C1  UNL     1     -33.586   8.238   3.668  1.00 20.00     0.002 A 
HETATM    2  C2  UNL     1     -32.759   8.445   2.564  1.00 20.00     0.002 A 
HETATM    3  C3  UNL     1     -34.016   6.950   3.985  1.00 20.00     0.025 A 
HETATM    4  C4  UNL     1     -32.363   7.363   1.777  1.00 20.00     0.025 A 
HETATM    5  C5  UNL     1     -33.620   5.869   3.199  1.00 20.00     0.055 A 
HETATM    6  C6  UNL     1     -32.793   6.075   2.094  1.00 20.00     0.055 A 
HETATM    7 CL7  UNL     1     -34.185   4.296   3.643  1.00 20.00    -0.083 Cl
HETATM    8 CL8  UNL     1     -32.268   4.777   1.082  1.00 20.00    -0.083 Cl
ENDROOT
TORSDOF 0
ENDMDL
MODEL 7
REMARK VINA RESULT:      -0.3      2.114      3.427
REMARK  0 active torsions:
REMARK  status: ('A' for Active; 'I' for Inactive)
ROOT
HETATM    1  C1  UNL     1     -32.585   8.342   2.547  1.00 20.00     0.002 A 
HETATM    2  C2  UNL     1     -31.907   7.377   1.803  1.00 20.00     0.002 A 
HETATM    3  C3  UNL     1     -33.647   7.969   3.371  1.00 20.00     0.025 A 
HETATM    4  C4  UNL     1     -32.289   6.038   1.885  1.00 20.00     0.025 A 
HETATM    5  C5  UNL     1     -34.029   6.630   3.452  1.00 20.00     0.055 A 
HETATM    6  C6  UNL     1     -33.351   5.664   2.709  1.00 20.00     0.055 A 
HETATM    7 CL7  UNL     1     -35.352   6.229   4.491  1.00 20.00    -0.083 Cl
HETATM    8 CL8  UNL     1     -33.777   3.990   2.767  1.00 20.00    -0.083 Cl
ENDROOT
TORSDOF 0
ENDMDL
MODEL 8
REMARK VINA RESULT:      -0.2      1.546      2.675
REMARK  0 active torsions:
REMARK  status: ('A' for Active; 'I' for Inactive)
ROOT
HETATM    1  C1  UNL     1     -34.986   4.796   4.421  1.00 20.00     0.002 A 
HETATM    2  C2  UNL     1     -33.990   4.182   3.661  1.00 20.00     0.002 A 
HETATM    3  C3  UNL     1     -35.145   6.181   4.375  1.00 20.00     0.025 A 
HETATM    4  C4  UNL     1     -33.153   4.954   2.856  1.00 20.00     0.025 A 
HETATM    5  C5  UNL     1     -34.307   6.952   3.570  1.00 20.00     0.055 A 
HETATM    6  C6  UNL     1     -33.311   6.339   2.810  1.00 20.00     0.055 A 
HETATM    7 CL7  UNL     1     -34.552   8.663   3.555  1.00 20.00    -0.083 Cl
HETATM    8 CL8  UNL     1     -32.242   7.239   1.793  1.00 20.00    -0.083 Cl
ENDROOT
TORSDOF 0
ENDMDL
MODEL 9
REMARK VINA RESULT:      -0.2      1.719      2.700
REMARK  0 active torsions:
REMARK  status: ('A' for Active; 'I' for Inactive)
ROOT
HETATM    1  C1  UNL     1     -33.525   4.909   2.556  1.00 20.00     0.002 A 
HETATM    2  C2  UNL     1     -32.734   5.253   1.460  1.00 20.00     0.002 A 
HETATM    3  C3  UNL     1     -33.899   5.885   3.480  1.00 20.00     0.025 A 
HETATM    4  C4  UNL     1     -32.318   6.573   1.288  1.00 20.00     0.025 A 
HETATM    5  C5  UNL     1     -33.482   7.204   3.308  1.00 20.00     0.055 A 
HETATM    6  C6  UNL     1     -32.691   7.549   2.212  1.00 20.00     0.055 A 
HETATM    7 CL7  UNL     1     -33.978   8.369   4.486  1.00 20.00    -0.083 Cl
HETATM    8 CL8  UNL     1     -32.143   9.165   1.943  1.00 20.00    -0.083 Cl
ENDROOT
TORSDOF 0
ENDMDL
