MODEL 1
REMARK VINA RESULT:      -2.0      0.000      0.000
REMARK  0 active torsions:
REMARK  status: ('A' for Active; 'I' for Inactive)
ROOT
HETATM    1  C1  UNL     1     -31.901   6.587   1.171  1.00 20.00     0.001 A 
HETATM    2  C2  UNL     1     -31.748   7.880   1.680  1.00 20.00     0.003 A 
HETATM    3  C3  UNL     1     -32.854   5.706   1.700  1.00 20.00     0.016 A 
HETATM    4  C4  UNL     1     -32.541   8.344   2.735  1.00 20.00     0.040 A 
HETATM    5  C5  UNL     1     -34.691   5.647   3.566  1.00 20.00     0.161 A 
HETATM    6  C6  UNL     1     -33.655   6.158   2.759  1.00 20.00     0.019 A 
HETATM    7  C7  UNL     1     -33.477   7.444   3.237  1.00 20.00     0.113 A 
HETATM    8  N8  UNL     1     -35.120   6.536   4.466  1.00 20.00    -0.140 NA
HETATM    9  O9  UNL     1     -34.349   7.672   4.256  1.00 20.00    -0.213 OA
ENDROOT
TORSDOF 0
ENDMDL
MODEL 2
REMARK VINA RESULT:      -2.0      0.918      1.932
REMARK  0 active torsions:
REMARK  status: ('A' for Active; 'I' for Inactive)
ROOT
HETATM    1  C1  UNL     1     -31.711   7.672   1.555  1.00 20.00     0.001 A 
HETATM    2  C2  UNL     1     -31.896   6.348   1.144  1.00 20.00     0.003 A 
HETATM    3  C3  UNL     1     -32.484   8.227   2.585  1.00 20.00     0.016 A 
HETATM    4  C4  UNL     1     -32.858   5.528   1.744  1.00 20.00     0.040 A 
HETATM    5  C5  UNL     1     -34.414   7.540   4.217  1.00 20.00     0.161 A 
HETATM    6  C6  UNL     1     -33.453   7.416   3.195  1.00 20.00     0.019 A 
HETATM    7  C7  UNL     1     -33.607   6.110   2.762  1.00 20.00     0.113 A 
HETATM    8  N8  UNL     1     -35.105   6.413   4.405  1.00 20.00    -0.140 NA
HETATM    9  O9  UNL     1     -34.593   5.510   3.482  1.00 20.00    -0.213 OA
ENDROOT
TORSDOF 0
ENDMDL
MODEL 3
REMARK VINA RESULT:      -1.8      2.202      3.634
REMARK  0 active torsions:
REMARK  status: ('A' for Active; 'I' for Inactive)
ROOT
HETATM    1  C1  UNL     1     -34.949   6.419   4.366  1.00 20.00     0.001 A 
HETATM    2  C2  UNL     1     -34.659   5.157   3.837  1.00 20.00     0.003 A 
HETATM    3  C3  UNL     1     -34.264   7.563   3.935  1.00 20.00     0.016 A 
HETATM    4  C4  UNL     1     -33.674   4.990   2.857  1.00 20.00     0.040 A 
HETATM    5  C5  UNL     1     -32.371   8.234   2.253  1.00 20.00     0.161 A 
HETATM    6  C6  UNL     1     -33.273   7.409   2.954  1.00 20.00     0.019 A 
HETATM    7  C7  UNL     1     -33.013   6.145   2.452  1.00 20.00     0.113 A 
HETATM    8  N8  UNL     1     -31.616   7.546   1.392  1.00 20.00    -0.140 NA
HETATM    9  O9  UNL     1     -32.024   6.225   1.521  1.00 20.00    -0.213 OA
ENDROOT
TORSDOF 0
ENDMDL
MODEL 4
REMARK VINA RESULT:      -1.7      1.994      3.109
REMARK  0 active torsions:
REMARK  status: ('A' for Active; 'I' for Inactive)
ROOT
HETATM    1  C1  UNL     1     -34.789   5.277   3.915  1.00 20.00     0.001 A 
HETATM    2  C2  UNL     1     -34.976   6.566   4.422  1.00 20.00     0.003 A 
HETATM    3  C3  UNL     1     -33.834   5.019   2.922  1.00 20.00     0.016 A 
HETATM    4  C4  UNL     1     -34.217   7.647   3.959  1.00 20.00     0.040 A 
HETATM    5  C5  UNL     1     -32.042   6.297   1.503  1.00 20.00     0.161 A 
HETATM    6  C6  UNL     1     -33.066   6.093   2.448  1.00 20.00     0.019 A 
HETATM    7  C7  UNL     1     -33.279   7.356   2.974  1.00 20.00     0.113 A 
HETATM    8  N8  UNL     1     -31.650   7.574   1.445  1.00 20.00    -0.140 NA
HETATM    9  O9  UNL     1     -32.435   8.241   2.376  1.00 20.00    -0.213 OA
ENDROOT
TORSDOF 0
ENDMDL
MODEL 5
REMARK VINA RESULT:      -1.4      1.460      2.159
REMARK  0 active torsions:
REMARK  status: ('A' for Active; 'I' for Inactive)
ROOT
HETATM    1  C1  UNL     1     -32.795   8.224   2.419  1.00 20.00     0.001 A 
HETATM    2  C2  UNL     1     -32.127   7.173   1.782  1.00 20.00     0.003 A 
HETATM    3  C3  UNL     1     -33.831   7.980   3.331  1.00 20.00     0.016 A 
HETATM    4  C4  UNL     1     -32.469   5.839   2.031  1.00 20.00     0.040 A 
HETATM    5  C5  UNL     1     -35.117   5.958   4.388  1.00 20.00     0.161 A 
HETATM    6  C6  UNL     1     -34.184   6.647   3.589  1.00 20.00     0.019 A 
HETATM    7  C7  UNL     1     -33.501   5.632   2.940  1.00 20.00     0.113 A 
HETATM    8  N8  UNL     1     -35.024   4.632   4.250  1.00 20.00    -0.140 NA
HETATM    9  O9  UNL     1     -34.001   4.429   3.333  1.00 20.00    -0.213 OA
ENDROOT
TORSDOF 0
ENDMDL
MODEL 6
REMARK VINA RESULT:      -1.1      1.152      1.355
REMARK  0 active torsions:
REMARK  status: ('A' for Active; 'I' for Inactive)
ROOT
HETATM    1  C1  UNL     1     -32.158   7.194   1.915  1.00 20.00     0.001 A 
HETATM    2  C2  UNL     1     -32.877   8.217   2.541  1.00 20.00     0.003 A 
HETATM    3  C3  UNL     1     -32.448   5.845   2.163  1.00 20.00     0.016 A 
HETATM    4  C4  UNL     1     -33.912   7.933   3.439  1.00 20.00     0.040 A 
HETATM    5  C5  UNL     1     -34.095   4.393   3.591  1.00 20.00     0.161 A 
HETATM    6  C6  UNL     1     -33.484   5.546   3.061  1.00 20.00     0.019 A 
HETATM    7  C7  UNL     1     -34.174   6.584   3.662  1.00 20.00     0.113 A 
HETATM    8  N8  UNL     1     -35.079   4.686   4.446  1.00 20.00    -0.140 NA
HETATM    9  O9  UNL     1     -35.126   6.074   4.490  1.00 20.00    -0.213 OA
ENDROOT
TORSDOF 0
ENDMDL
