MODEL 1
REMARK VINA RESULT:      -1.7      0.000      0.000
REMARK  0 active torsions:
REMARK  status: ('A' for Active; 'I' for Inactive)
ROOT
HETATM    1  C1  UNL     1     -31.947   7.699   1.827  1.00 20.00     0.019 A 
HETATM    2  C2  UNL     1     -32.125   6.383   1.329  1.00 20.00     0.019 A 
HETATM    3  C3  UNL     1     -32.884   7.893   2.818  1.00 20.00     0.090 A 
HETATM    4  C4  UNL     1     -33.165   5.815   2.031  1.00 20.00     0.090 A 
HETATM    5  C5  UNL     1     -34.707   6.538   3.862  1.00 20.00     0.154 C 
HETATM    6  N6  UNL     1     -33.619   6.743   2.932  1.00 20.00    -0.371 N 
ENDROOT
TORSDOF 0
ENDMDL
MODEL 2
REMARK VINA RESULT:      -1.7      0.021      1.531
REMARK  0 active torsions:
REMARK  status: ('A' for Active; 'I' for Inactive)
ROOT
HETATM    1  C1  UNL     1     -32.123   6.356   1.328  1.00 20.00     0.019 A 
HETATM    2  C2  UNL     1     -31.946   7.675   1.816  1.00 20.00     0.019 A 
HETATM    3  C3  UNL     1     -33.165   5.794   2.032  1.00 20.00     0.090 A 
HETATM    4  C4  UNL     1     -32.885   7.879   2.803  1.00 20.00     0.090 A 
HETATM    5  C5  UNL     1     -34.709   6.530   3.856  1.00 20.00     0.154 C 
HETATM    6  N6  UNL     1     -33.620   6.728   2.925  1.00 20.00    -0.371 N 
ENDROOT
TORSDOF 0
ENDMDL
MODEL 3
REMARK VINA RESULT:      -1.6      0.945      2.513
REMARK  0 active torsions:
REMARK  status: ('A' for Active; 'I' for Inactive)
ROOT
HETATM    1  C1  UNL     1     -34.516   6.888   4.088  1.00 20.00     0.019 A 
HETATM    2  C2  UNL     1     -34.294   5.720   3.317  1.00 20.00     0.019 A 
HETATM    3  C3  UNL     1     -33.669   7.863   3.611  1.00 20.00     0.090 A 
HETATM    4  C4  UNL     1     -33.317   6.017   2.393  1.00 20.00     0.090 A 
HETATM    5  C5  UNL     1     -31.939   8.022   1.812  1.00 20.00     0.154 C 
HETATM    6  N6  UNL     1     -32.944   7.322   2.581  1.00 20.00    -0.371 N 
ENDROOT
TORSDOF 0
ENDMDL
MODEL 4
REMARK VINA RESULT:      -1.6      0.921      2.921
REMARK  0 active torsions:
REMARK  status: ('A' for Active; 'I' for Inactive)
ROOT
HETATM    1  C1  UNL     1     -34.822   6.522   4.163  1.00 20.00     0.019 A 
HETATM    2  C2  UNL     1     -34.078   7.726   4.084  1.00 20.00     0.019 A 
HETATM    3  C3  UNL     1     -34.326   5.669   3.202  1.00 20.00     0.090 A 
HETATM    4  C4  UNL     1     -33.151   7.572   3.077  1.00 20.00     0.090 A 
HETATM    5  C5  UNL     1     -32.530   5.764   1.465  1.00 20.00     0.154 C 
HETATM    6  N6  UNL     1     -33.312   6.317   2.548  1.00 20.00    -0.371 N 
ENDROOT
TORSDOF 0
ENDMDL
MODEL 5
REMARK VINA RESULT:      -1.6      0.916      2.559
REMARK  0 active torsions:
REMARK  status: ('A' for Active; 'I' for Inactive)
ROOT
HETATM    1  C1  UNL     1     -34.072   7.746   4.066  1.00 20.00     0.019 A 
HETATM    2  C2  UNL     1     -34.817   6.543   4.158  1.00 20.00     0.019 A 
HETATM    3  C3  UNL     1     -33.146   7.580   3.060  1.00 20.00     0.090 A 
HETATM    4  C4  UNL     1     -34.323   5.680   3.206  1.00 20.00     0.090 A 
HETATM    5  C5  UNL     1     -32.525   5.753   1.469  1.00 20.00     0.154 C 
HETATM    6  N6  UNL     1     -33.308   6.320   2.545  1.00 20.00    -0.371 N 
ENDROOT
TORSDOF 0
ENDMDL
MODEL 6
REMARK VINA RESULT:      -1.6      0.963      2.926
REMARK  0 active torsions:
REMARK  status: ('A' for Active; 'I' for Inactive)
ROOT
HETATM    1  C1  UNL     1     -34.321   5.715   3.355  1.00 20.00     0.019 A 
HETATM    2  C2  UNL     1     -34.543   6.888   4.120  1.00 20.00     0.019 A 
HETATM    3  C3  UNL     1     -33.345   6.008   2.428  1.00 20.00     0.090 A 
HETATM    4  C4  UNL     1     -33.697   7.861   3.637  1.00 20.00     0.090 A 
HETATM    5  C5  UNL     1     -31.972   8.011   1.832  1.00 20.00     0.154 C 
HETATM    6  N6  UNL     1     -32.974   7.314   2.609  1.00 20.00    -0.371 N 
ENDROOT
TORSDOF 0
ENDMDL
MODEL 7
REMARK VINA RESULT:      -1.1      2.052      3.172
REMARK  0 active torsions:
REMARK  status: ('A' for Active; 'I' for Inactive)
ROOT
HETATM    1  C1  UNL     1     -34.166   6.644   3.197  1.00 20.00     0.019 A 
HETATM    2  C2  UNL     1     -35.312   6.405   3.996  1.00 20.00     0.019 A 
HETATM    3  C3  UNL     1     -33.399   5.501   3.226  1.00 20.00     0.090 A 
HETATM    4  C4  UNL     1     -35.210   5.123   4.488  1.00 20.00     0.090 A 
HETATM    5  C5  UNL     1     -33.563   3.250   4.303  1.00 20.00     0.154 C 
HETATM    6  N6  UNL     1     -34.043   4.584   4.014  1.00 20.00    -0.371 N 
ENDROOT
TORSDOF 0
ENDMDL
MODEL 8
REMARK VINA RESULT:       0.2      2.779      3.536
REMARK  0 active torsions:
REMARK  status: ('A' for Active; 'I' for Inactive)
ROOT
HETATM    1  C1  UNL     1     -32.898  10.815   0.446  1.00 20.00     0.019 A 
HETATM    2  C2  UNL     1     -32.521  10.083  -0.708  1.00 20.00     0.019 A 
HETATM    3  C3  UNL     1     -32.698   9.997   1.536  1.00 20.00     0.090 A 
HETATM    4  C4  UNL     1     -32.103   8.840  -0.287  1.00 20.00     0.090 A 
HETATM    5  C5  UNL     1     -31.876   7.666   1.909  1.00 20.00     0.154 C 
HETATM    6  N6  UNL     1     -32.215   8.800   1.078  1.00 20.00    -0.371 N 
ENDROOT
TORSDOF 0
ENDMDL
MODEL 9
REMARK VINA RESULT:       0.5      1.728      3.058
REMARK  0 active torsions:
REMARK  status: ('A' for Active; 'I' for Inactive)
ROOT
HETATM    1  C1  UNL     1     -32.210   6.587   1.824  1.00 20.00     0.019 A 
HETATM    2  C2  UNL     1     -32.829   7.323   2.865  1.00 20.00     0.019 A 
HETATM    3  C3  UNL     1     -31.937   7.471   0.803  1.00 20.00     0.090 A 
HETATM    4  C4  UNL     1     -32.916   8.632   2.449  1.00 20.00     0.090 A 
HETATM    5  C5  UNL     1     -32.272   9.916   0.402  1.00 20.00     0.154 C 
HETATM    6  N6  UNL     1     -32.372   8.710   1.194  1.00 20.00    -0.371 N 
ENDROOT
TORSDOF 0
ENDMDL
