MODEL 1
REMARK VINA RESULT:      -1.9      0.000      0.000
REMARK  1 active torsions:
REMARK  status: ('A' for Active; 'I' for Inactive)
REMARK    1  A    between atoms: C1_1  and  C8_8 
ROOT
HETATM    1  C1  UNL     1     -32.863   7.465   2.076  1.00 20.00    -0.067 C 
HETATM    2  C2  UNL     1     -32.266   8.249   1.390  1.00 20.00    -0.105 C 
HETATM    3  C9  UNL     1     -31.540   9.204   0.553  1.00 20.00     0.112 C 
ENDROOT
BRANCH   1   4
HETATM    4  C8  UNL     1     -33.576   6.533   2.890  1.00 20.00     0.017 A 
HETATM    5  C6  UNL     1     -33.168   5.200   2.948  1.00 20.00     0.020 A 
HETATM    6  C4  UNL     1     -33.866   4.291   3.743  1.00 20.00     0.001 A 
HETATM    7  C3  UNL     1     -34.971   4.714   4.482  1.00 20.00     0.000 A 
HETATM    8  C5  UNL     1     -35.378   6.046   4.425  1.00 20.00     0.001 A 
HETATM    9  C7  UNL     1     -34.681   6.956   3.630  1.00 20.00     0.020 A 
ENDBRANCH   1   4
TORSDOF 1
ENDMDL
MODEL 2
REMARK VINA RESULT:      -1.9      0.007      1.611
REMARK  1 active torsions:
REMARK  status: ('A' for Active; 'I' for Inactive)
REMARK    1  A    between atoms: C1_1  and  C8_8 
ROOT
HETATM    1  C1  UNL     1     -32.862   7.465   2.074  1.00 20.00    -0.067 C 
HETATM    2  C2  UNL     1     -32.267   8.250   1.387  1.00 20.00    -0.105 C 
HETATM    3  C9  UNL     1     -31.543   9.206   0.551  1.00 20.00     0.112 C 
ENDROOT
BRANCH   1   4
HETATM    4  C8  UNL     1     -33.574   6.532   2.889  1.00 20.00     0.017 A 
HETATM    5  C6  UNL     1     -34.678   6.952   3.631  1.00 20.00     0.020 A 
HETATM    6  C4  UNL     1     -35.371   6.040   4.427  1.00 20.00     0.001 A 
HETATM    7  C3  UNL     1     -34.960   4.708   4.481  1.00 20.00     0.000 A 
HETATM    8  C5  UNL     1     -33.857   4.288   3.739  1.00 20.00     0.001 A 
HETATM    9  C7  UNL     1     -33.164   5.200   2.943  1.00 20.00     0.020 A 
ENDBRANCH   1   4
TORSDOF 1
ENDMDL
MODEL 3
REMARK VINA RESULT:      -0.6      2.135      3.272
REMARK  1 active torsions:
REMARK  status: ('A' for Active; 'I' for Inactive)
REMARK    1  A    between atoms: C1_1  and  C8_8 
ROOT
HETATM    1  C1  UNL     1     -32.076   5.117   1.103  1.00 20.00    -0.067 C 
HETATM    2  C2  UNL     1     -31.522   4.374   0.339  1.00 20.00    -0.105 C 
HETATM    3  C9  UNL     1     -30.847   3.469  -0.590  1.00 20.00     0.112 C 
ENDROOT
BRANCH   1   4
HETATM    4  C8  UNL     1     -32.733   6.000   2.014  1.00 20.00     0.017 A 
HETATM    5  C6  UNL     1     -33.768   5.529   2.820  1.00 20.00     0.020 A 
HETATM    6  C4  UNL     1     -34.409   6.393   3.709  1.00 20.00     0.001 A 
HETATM    7  C3  UNL     1     -34.013   7.728   3.791  1.00 20.00     0.000 A 
HETATM    8  C5  UNL     1     -32.977   8.199   2.986  1.00 20.00     0.001 A 
HETATM    9  C7  UNL     1     -32.337   7.336   2.097  1.00 20.00     0.020 A 
ENDBRANCH   1   4
TORSDOF 1
ENDMDL
MODEL 4
REMARK VINA RESULT:      -0.6      2.134      3.305
REMARK  1 active torsions:
REMARK  status: ('A' for Active; 'I' for Inactive)
REMARK    1  A    between atoms: C1_1  and  C8_8 
ROOT
HETATM    1  C1  UNL     1     -32.076   5.118   1.104  1.00 20.00    -0.067 C 
HETATM    2  C2  UNL     1     -31.523   4.375   0.340  1.00 20.00    -0.105 C 
HETATM    3  C9  UNL     1     -30.849   3.469  -0.589  1.00 20.00     0.112 C 
ENDROOT
BRANCH   1   4
HETATM    4  C8  UNL     1     -32.733   6.002   2.014  1.00 20.00     0.017 A 
HETATM    5  C6  UNL     1     -32.339   7.337   2.098  1.00 20.00     0.020 A 
HETATM    6  C4  UNL     1     -32.980   8.199   2.988  1.00 20.00     0.001 A 
HETATM    7  C3  UNL     1     -34.016   7.725   3.794  1.00 20.00     0.000 A 
HETATM    8  C5  UNL     1     -34.410   6.390   3.710  1.00 20.00     0.001 A 
HETATM    9  C7  UNL     1     -33.769   5.528   2.820  1.00 20.00     0.020 A 
ENDBRANCH   1   4
TORSDOF 1
ENDMDL
MODEL 5
REMARK VINA RESULT:      -0.4      1.184      1.941
REMARK  1 active torsions:
REMARK  status: ('A' for Active; 'I' for Inactive)
REMARK    1  A    between atoms: C1_1  and  C8_8 
ROOT
HETATM    1  C1  UNL     1     -32.506   8.556   1.031  1.00 20.00    -0.067 C 
HETATM    2  C2  UNL     1     -32.312   9.610   0.489  1.00 20.00    -0.105 C 
HETATM    3  C9  UNL     1     -32.076  10.895  -0.169  1.00 20.00     0.112 C 
ENDROOT
BRANCH   1   4
HETATM    4  C8  UNL     1     -32.739   7.304   1.677  1.00 20.00     0.017 A 
HETATM    5  C6  UNL     1     -32.127   6.146   1.199  1.00 20.00     0.020 A 
HETATM    6  C4  UNL     1     -32.356   4.923   1.830  1.00 20.00     0.001 A 
HETATM    7  C3  UNL     1     -33.197   4.859   2.941  1.00 20.00     0.000 A 
HETATM    8  C5  UNL     1     -33.809   6.017   3.421  1.00 20.00     0.001 A 
HETATM    9  C7  UNL     1     -33.580   7.239   2.789  1.00 20.00     0.020 A 
ENDBRANCH   1   4
TORSDOF 1
ENDMDL
MODEL 6
REMARK VINA RESULT:       0.2      1.331      4.579
REMARK  1 active torsions:
REMARK  status: ('A' for Active; 'I' for Inactive)
REMARK    1  A    between atoms: C1_1  and  C8_8 
ROOT
HETATM    1  C1  UNL     1     -33.400   4.196   3.785  1.00 20.00    -0.067 C 
HETATM    2  C2  UNL     1     -33.419   3.077   4.222  1.00 20.00    -0.105 C 
HETATM    3  C9  UNL     1     -33.441   1.715   4.754  1.00 20.00     0.112 C 
ENDROOT
BRANCH   1   4
HETATM    4  C8  UNL     1     -33.374   5.527   3.267  1.00 20.00     0.017 A 
HETATM    5  C6  UNL     1     -34.125   6.530   3.881  1.00 20.00     0.020 A 
HETATM    6  C4  UNL     1     -34.099   7.829   3.374  1.00 20.00     0.001 A 
HETATM    7  C3  UNL     1     -33.323   8.125   2.253  1.00 20.00     0.000 A 
HETATM    8  C5  UNL     1     -32.572   7.123   1.640  1.00 20.00     0.001 A 
HETATM    9  C7  UNL     1     -32.597   5.824   2.147  1.00 20.00     0.020 A 
ENDBRANCH   1   4
TORSDOF 1
ENDMDL
MODEL 7
REMARK VINA RESULT:       0.2      1.334      4.344
REMARK  1 active torsions:
REMARK  status: ('A' for Active; 'I' for Inactive)
REMARK    1  A    between atoms: C1_1  and  C8_8 
ROOT
HETATM    1  C1  UNL     1     -33.383   4.226   3.761  1.00 20.00    -0.067 C 
HETATM    2  C2  UNL     1     -33.411   3.113   4.210  1.00 20.00    -0.105 C 
HETATM    3  C9  UNL     1     -33.445   1.757   4.758  1.00 20.00     0.112 C 
ENDROOT
BRANCH   1   4
HETATM    4  C8  UNL     1     -33.346   5.551   3.228  1.00 20.00     0.017 A 
HETATM    5  C6  UNL     1     -32.583   5.826   2.094  1.00 20.00     0.020 A 
HETATM    6  C4  UNL     1     -32.547   7.120   1.574  1.00 20.00     0.001 A 
HETATM    7  C3  UNL     1     -33.276   8.139   2.188  1.00 20.00     0.000 A 
HETATM    8  C5  UNL     1     -34.040   7.864   3.322  1.00 20.00     0.001 A 
HETATM    9  C7  UNL     1     -34.075   6.570   3.842  1.00 20.00     0.020 A 
ENDBRANCH   1   4
TORSDOF 1
ENDMDL
MODEL 8
REMARK VINA RESULT:       0.7      1.123      5.011
REMARK  1 active torsions:
REMARK  status: ('A' for Active; 'I' for Inactive)
REMARK    1  A    between atoms: C1_1  and  C8_8 
ROOT
HETATM    1  C1  UNL     1     -33.743   7.156   2.850  1.00 20.00    -0.067 C 
HETATM    2  C2  UNL     1     -34.407   6.502   3.607  1.00 20.00    -0.105 C 
HETATM    3  C9  UNL     1     -35.217   5.706   4.529  1.00 20.00     0.112 C 
ENDROOT
BRANCH   1   4
HETATM    4  C8  UNL     1     -32.955   7.936   1.949  1.00 20.00     0.017 A 
HETATM    5  C6  UNL     1     -33.331   9.244   1.644  1.00 20.00     0.020 A 
HETATM    6  C4  UNL     1     -32.561  10.004   0.764  1.00 20.00     0.001 A 
HETATM    7  C3  UNL     1     -31.415   9.456   0.188  1.00 20.00     0.000 A 
HETATM    8  C5  UNL     1     -31.038   8.149   0.492  1.00 20.00     0.001 A 
HETATM    9  C7  UNL     1     -31.808   7.388   1.373  1.00 20.00     0.020 A 
ENDBRANCH   1   4
TORSDOF 1
ENDMDL
MODEL 9
REMARK VINA RESULT:       0.7      1.102      4.648
REMARK  1 active torsions:
REMARK  status: ('A' for Active; 'I' for Inactive)
REMARK    1  A    between atoms: C1_1  and  C8_8 
ROOT
HETATM    1  C1  UNL     1     -33.849   6.927   2.988  1.00 20.00    -0.067 C 
HETATM    2  C2  UNL     1     -34.519   6.253   3.722  1.00 20.00    -0.105 C 
HETATM    3  C9  UNL     1     -35.336   5.432   4.616  1.00 20.00     0.112 C 
ENDROOT
BRANCH   1   4
HETATM    4  C8  UNL     1     -33.053   7.727   2.112  1.00 20.00     0.017 A 
HETATM    5  C6  UNL     1     -31.946   7.172   1.471  1.00 20.00     0.020 A 
HETATM    6  C4  UNL     1     -31.170   7.955   0.615  1.00 20.00     0.001 A 
HETATM    7  C3  UNL     1     -31.502   9.293   0.402  1.00 20.00     0.000 A 
HETATM    8  C5  UNL     1     -32.609   9.849   1.043  1.00 20.00     0.001 A 
HETATM    9  C7  UNL     1     -33.385   9.066   1.898  1.00 20.00     0.020 A 
ENDBRANCH   1   4
TORSDOF 1
ENDMDL
