MODEL 1
REMARK VINA RESULT:      -2.1      0.000      0.000
REMARK  0 active torsions:
REMARK  status: ('A' for Active; 'I' for Inactive)
ROOT
HETATM    1  C1  UNL     1     -33.427   5.433   2.318  1.00 20.00     0.035 A 
HETATM    2  C2  UNL     1     -32.444   6.058   1.515  1.00 20.00     0.035 A 
HETATM    3  C3  UNL     1     -33.952   6.421   3.119  1.00 20.00     0.049 A 
HETATM    4  C4  UNL     1     -32.438   7.385   1.882  1.00 20.00     0.049 A 
HETATM    5  C5  UNL     1     -34.992   6.427   4.157  1.00 20.00     0.076 C 
HETATM    6  C6  UNL     1     -31.660   8.548   1.434  1.00 20.00     0.076 C 
HETATM    7  O7  UNL     1     -33.355   7.613   2.859  1.00 20.00    -0.320 OA
ENDROOT
TORSDOF 0
ENDMDL
MODEL 2
REMARK VINA RESULT:      -2.1      0.030      2.916
REMARK  0 active torsions:
REMARK  status: ('A' for Active; 'I' for Inactive)
ROOT
HETATM    1  C1  UNL     1     -32.428   6.088   1.494  1.00 20.00     0.035 A 
HETATM    2  C2  UNL     1     -33.405   5.446   2.291  1.00 20.00     0.035 A 
HETATM    3  C3  UNL     1     -32.430   7.409   1.876  1.00 20.00     0.049 A 
HETATM    4  C4  UNL     1     -33.936   6.421   3.104  1.00 20.00     0.049 A 
HETATM    5  C5  UNL     1     -31.662   8.584   1.441  1.00 20.00     0.076 C 
HETATM    6  C6  UNL     1     -34.975   6.408   4.143  1.00 20.00     0.076 C 
HETATM    7  O7  UNL     1     -33.347   7.621   2.857  1.00 20.00    -0.320 OA
ENDROOT
TORSDOF 0
ENDMDL
MODEL 3
REMARK VINA RESULT:      -2.0      1.141      1.886
REMARK  0 active torsions:
REMARK  status: ('A' for Active; 'I' for Inactive)
ROOT
HETATM    1  C1  UNL     1     -33.551   7.773   3.379  1.00 20.00     0.035 A 
HETATM    2  C2  UNL     1     -32.541   7.601   2.403  1.00 20.00     0.035 A 
HETATM    3  C3  UNL     1     -34.222   6.575   3.451  1.00 20.00     0.049 A 
HETATM    4  C4  UNL     1     -32.666   6.308   1.949  1.00 20.00     0.049 A 
HETATM    5  C5  UNL     1     -35.358   6.105   4.256  1.00 20.00     0.076 C 
HETATM    6  C6  UNL     1     -31.932   5.519   0.950  1.00 20.00     0.076 C 
HETATM    7  O7  UNL     1     -33.689   5.677   2.582  1.00 20.00    -0.320 OA
ENDROOT
TORSDOF 0
ENDMDL
MODEL 4
REMARK VINA RESULT:      -1.9      1.167      3.283
REMARK  0 active torsions:
REMARK  status: ('A' for Active; 'I' for Inactive)
ROOT
HETATM    1  C1  UNL     1     -32.595   7.679   2.489  1.00 20.00     0.035 A 
HETATM    2  C2  UNL     1     -33.611   7.790   3.467  1.00 20.00     0.035 A 
HETATM    3  C3  UNL     1     -32.687   6.402   1.984  1.00 20.00     0.049 A 
HETATM    4  C4  UNL     1     -34.253   6.573   3.490  1.00 20.00     0.049 A 
HETATM    5  C5  UNL     1     -31.933   5.669   0.958  1.00 20.00     0.076 C 
HETATM    6  C6  UNL     1     -35.379   6.046   4.274  1.00 20.00     0.076 C 
HETATM    7  O7  UNL     1     -33.695   5.722   2.589  1.00 20.00    -0.320 OA
ENDROOT
TORSDOF 0
ENDMDL
MODEL 5
REMARK VINA RESULT:      -1.8      1.359      2.037
REMARK  0 active torsions:
REMARK  status: ('A' for Active; 'I' for Inactive)
ROOT
HETATM    1  C1  UNL     1     -34.788   6.514   4.084  1.00 20.00     0.035 A 
HETATM    2  C2  UNL     1     -34.230   7.652   3.457  1.00 20.00     0.035 A 
HETATM    3  C3  UNL     1     -34.042   5.439   3.660  1.00 20.00     0.049 A 
HETATM    4  C4  UNL     1     -33.181   7.193   2.694  1.00 20.00     0.049 A 
HETATM    5  C5  UNL     1     -34.104   3.998   3.939  1.00 20.00     0.076 C 
HETATM    6  C6  UNL     1     -32.211   7.859   1.815  1.00 20.00     0.076 C 
HETATM    7  O7  UNL     1     -33.060   5.845   2.813  1.00 20.00    -0.320 OA
ENDROOT
TORSDOF 0
ENDMDL
MODEL 6
REMARK VINA RESULT:      -1.8      1.368      3.417
REMARK  0 active torsions:
REMARK  status: ('A' for Active; 'I' for Inactive)
ROOT
HETATM    1  C1  UNL     1     -34.222   7.631   3.471  1.00 20.00     0.035 A 
HETATM    2  C2  UNL     1     -34.773   6.494   4.107  1.00 20.00     0.035 A 
HETATM    3  C3  UNL     1     -33.184   7.170   2.695  1.00 20.00     0.049 A 
HETATM    4  C4  UNL     1     -34.033   5.417   3.675  1.00 20.00     0.049 A 
HETATM    5  C5  UNL     1     -32.224   7.833   1.802  1.00 20.00     0.076 C 
HETATM    6  C6  UNL     1     -34.093   3.977   3.959  1.00 20.00     0.076 C 
HETATM    7  O7  UNL     1     -33.062   5.822   2.815  1.00 20.00    -0.320 OA
ENDROOT
TORSDOF 0
ENDMDL
MODEL 7
REMARK VINA RESULT:      -0.6      1.344      2.020
REMARK  0 active torsions:
REMARK  status: ('A' for Active; 'I' for Inactive)
ROOT
HETATM    1  C1  UNL     1     -34.631   6.182   3.995  1.00 20.00     0.035 A 
HETATM    2  C2  UNL     1     -34.181   5.384   2.916  1.00 20.00     0.035 A 
HETATM    3  C3  UNL     1     -33.862   7.323   3.974  1.00 20.00     0.049 A 
HETATM    4  C4  UNL     1     -33.170   6.095   2.311  1.00 20.00     0.049 A 
HETATM    5  C5  UNL     1     -33.827   8.527   4.814  1.00 20.00     0.076 C 
HETATM    6  C6  UNL     1     -32.304   5.825   1.155  1.00 20.00     0.076 C 
HETATM    7  O7  UNL     1     -32.969   7.277   2.951  1.00 20.00    -0.320 OA
ENDROOT
TORSDOF 0
ENDMDL
MODEL 8
REMARK VINA RESULT:      -0.6      1.337      2.750
REMARK  0 active torsions:
REMARK  status: ('A' for Active; 'I' for Inactive)
ROOT
HETATM    1  C1  UNL     1     -34.203   5.400   2.925  1.00 20.00     0.035 A 
HETATM    2  C2  UNL     1     -34.654   6.195   4.005  1.00 20.00     0.035 A 
HETATM    3  C3  UNL     1     -33.186   6.108   2.327  1.00 20.00     0.049 A 
HETATM    4  C4  UNL     1     -33.879   7.333   3.992  1.00 20.00     0.049 A 
HETATM    5  C5  UNL     1     -32.317   5.840   1.173  1.00 20.00     0.076 C 
HETATM    6  C6  UNL     1     -33.843   8.534   4.837  1.00 20.00     0.076 C 
HETATM    7  O7  UNL     1     -32.983   7.287   2.971  1.00 20.00    -0.320 OA
ENDROOT
TORSDOF 0
ENDMDL
MODEL 9
REMARK VINA RESULT:      -0.5      1.283      2.160
REMARK  0 active torsions:
REMARK  status: ('A' for Active; 'I' for Inactive)
ROOT
HETATM    1  C1  UNL     1     -31.866   7.920   2.831  1.00 20.00     0.035 A 
HETATM    2  C2  UNL     1     -31.488   7.174   1.690  1.00 20.00     0.035 A 
HETATM    3  C3  UNL     1     -33.007   7.325   3.317  1.00 20.00     0.049 A 
HETATM    4  C4  UNL     1     -32.425   6.174   1.560  1.00 20.00     0.049 A 
HETATM    5  C5  UNL     1     -33.882   7.612   4.461  1.00 20.00     0.076 C 
HETATM    6  C6  UNL     1     -32.600   5.081   0.594  1.00 20.00     0.076 C 
HETATM    7  O7  UNL     1     -33.354   6.260   2.547  1.00 20.00    -0.320 OA
ENDROOT
TORSDOF 0
ENDMDL
