MODEL 1
REMARK VINA RESULT:      -2.1      0.000      0.000
REMARK  1 active torsions:
REMARK  status: ('A' for Active; 'I' for Inactive)
REMARK    1  A    between atoms: C4_4  and  C7_7 
ROOT
HETATM    1  C1  UNL     1     -31.918   8.116   1.933  1.00 20.00     0.006 A 
HETATM    2  C2  UNL     1     -32.624   8.438   3.092  1.00 20.00     0.043 A 
HETATM    3  C3  UNL     1     -32.092   6.868   1.335  1.00 20.00     0.043 A 
HETATM    4  C4  UNL     1     -33.675   6.263   3.057  1.00 20.00     0.029 A 
HETATM    5  C5  UNL     1     -33.503   7.512   3.654  1.00 20.00     0.126 A 
HETATM    6  C6  UNL     1     -32.970   5.941   1.897  1.00 20.00     0.126 A 
HETATM    7  F8  UNL     1     -34.175   7.830   4.768  1.00 20.00    -0.205 F 
HETATM    8  F9  UNL     1     -33.130   4.744   1.316  1.00 20.00    -0.205 F 
ENDROOT
BRANCH   4   9
HETATM    9  C7  UNL     1     -34.615   5.273   3.657  1.00 20.00     0.130 C 
HETATM   10 BR10 UNL     1     -33.613   3.747   4.328  1.00 20.00    -0.091 Br
ENDBRANCH   4   9
TORSDOF 1
ENDMDL
MODEL 2
REMARK VINA RESULT:      -2.1      0.003      2.616
REMARK  1 active torsions:
REMARK  status: ('A' for Active; 'I' for Inactive)
REMARK    1  A    between atoms: C4_4  and  C7_7 
ROOT
HETATM    1  C1  UNL     1     -31.915   8.114   1.932  1.00 20.00     0.006 A 
HETATM    2  C2  UNL     1     -32.092   6.865   1.335  1.00 20.00     0.043 A 
HETATM    3  C3  UNL     1     -32.619   8.437   3.092  1.00 20.00     0.043 A 
HETATM    4  C4  UNL     1     -33.676   6.264   3.057  1.00 20.00     0.029 A 
HETATM    5  C5  UNL     1     -32.971   5.940   1.897  1.00 20.00     0.126 A 
HETATM    6  C6  UNL     1     -33.499   7.513   3.654  1.00 20.00     0.126 A 
HETATM    7  F8  UNL     1     -33.134   4.744   1.316  1.00 20.00    -0.205 F 
HETATM    8  F9  UNL     1     -34.171   7.833   4.769  1.00 20.00    -0.205 F 
ENDROOT
BRANCH   4   9
HETATM    9  C7  UNL     1     -34.616   5.276   3.659  1.00 20.00     0.130 C 
HETATM   10 BR10 UNL     1     -33.615   3.748   4.328  1.00 20.00    -0.091 Br
ENDBRANCH   4   9
TORSDOF 1
ENDMDL
MODEL 3
REMARK VINA RESULT:      -1.5      1.156      1.394
REMARK  1 active torsions:
REMARK  status: ('A' for Active; 'I' for Inactive)
REMARK    1  A    between atoms: C4_4  and  C7_7 
ROOT
HETATM    1  C1  UNL     1     -33.174   8.192   2.878  1.00 20.00     0.006 A 
HETATM    2  C2  UNL     1     -34.155   7.699   3.739  1.00 20.00     0.043 A 
HETATM    3  C3  UNL     1     -32.444   7.314   2.078  1.00 20.00     0.043 A 
HETATM    4  C4  UNL     1     -33.675   5.450   2.999  1.00 20.00     0.029 A 
HETATM    5  C5  UNL     1     -34.406   6.328   3.799  1.00 20.00     0.126 A 
HETATM    6  C6  UNL     1     -32.693   5.943   2.138  1.00 20.00     0.126 A 
HETATM    7  F8  UNL     1     -35.349   5.864   4.630  1.00 20.00    -0.205 F 
HETATM    8  F9  UNL     1     -31.987   5.106   1.366  1.00 20.00    -0.205 F 
ENDROOT
BRANCH   4   9
HETATM    9  C7  UNL     1     -33.942   3.984   3.063  1.00 20.00     0.130 C 
HETATM   10 BR10 UNL     1     -33.187   3.254   4.701  1.00 20.00    -0.091 Br
ENDBRANCH   4   9
TORSDOF 1
ENDMDL
MODEL 4
REMARK VINA RESULT:      -1.2      2.491      4.118
REMARK  1 active torsions:
REMARK  status: ('A' for Active; 'I' for Inactive)
REMARK    1  A    between atoms: C4_4  and  C7_7 
ROOT
HETATM    1  C1  UNL     1     -34.589   6.494   4.126  1.00 20.00     0.006 A 
HETATM    2  C2  UNL     1     -34.370   5.832   2.917  1.00 20.00     0.043 A 
HETATM    3  C3  UNL     1     -33.801   7.591   4.471  1.00 20.00     0.043 A 
HETATM    4  C4  UNL     1     -32.574   7.363   2.403  1.00 20.00     0.029 A 
HETATM    5  C5  UNL     1     -33.363   6.266   2.056  1.00 20.00     0.126 A 
HETATM    6  C6  UNL     1     -32.793   8.026   3.611  1.00 20.00     0.126 A 
HETATM    7  F8  UNL     1     -33.160   5.623   0.898  1.00 20.00    -0.205 F 
HETATM    8  F9  UNL     1     -32.041   9.081   3.952  1.00 20.00    -0.205 F 
ENDROOT
BRANCH   4   9
HETATM    9  C7  UNL     1     -31.498   7.829   1.482  1.00 20.00     0.130 C 
HETATM   10 BR10 UNL     1     -32.124   9.371   0.475  1.00 20.00    -0.091 Br
ENDBRANCH   4   9
TORSDOF 1
ENDMDL
MODEL 5
REMARK VINA RESULT:      -1.2      2.492      3.298
REMARK  1 active torsions:
REMARK  status: ('A' for Active; 'I' for Inactive)
REMARK    1  A    between atoms: C4_4  and  C7_7 
ROOT
HETATM    1  C1  UNL     1     -34.590   6.491   4.125  1.00 20.00     0.006 A 
HETATM    2  C2  UNL     1     -33.798   7.585   4.474  1.00 20.00     0.043 A 
HETATM    3  C3  UNL     1     -34.374   5.833   2.914  1.00 20.00     0.043 A 
HETATM    4  C4  UNL     1     -32.576   7.364   2.402  1.00 20.00     0.029 A 
HETATM    5  C5  UNL     1     -32.791   8.021   3.614  1.00 20.00     0.126 A 
HETATM    6  C6  UNL     1     -33.368   6.269   2.053  1.00 20.00     0.126 A 
HETATM    7  F8  UNL     1     -32.037   9.074   3.958  1.00 20.00    -0.205 F 
HETATM    8  F9  UNL     1     -33.167   5.631   0.892  1.00 20.00    -0.205 F 
ENDROOT
BRANCH   4   9
HETATM    9  C7  UNL     1     -31.498   7.829   1.482  1.00 20.00     0.130 C 
HETATM   10 BR10 UNL     1     -32.118   9.380   0.485  1.00 20.00    -0.091 Br
ENDBRANCH   4   9
TORSDOF 1
ENDMDL
MODEL 6
REMARK VINA RESULT:      -1.2      2.303      3.207
REMARK  1 active torsions:
REMARK  status: ('A' for Active; 'I' for Inactive)
REMARK    1  A    between atoms: C4_4  and  C7_7 
ROOT
HETATM    1  C1  UNL     1     -34.608   5.258   3.523  1.00 20.00     0.006 A 
HETATM    2  C2  UNL     1     -34.725   6.512   4.124  1.00 20.00     0.043 A 
HETATM    3  C3  UNL     1     -33.630   5.040   2.553  1.00 20.00     0.043 A 
HETATM    4  C4  UNL     1     -32.887   7.327   2.785  1.00 20.00     0.029 A 
HETATM    5  C5  UNL     1     -33.865   7.546   3.756  1.00 20.00     0.126 A 
HETATM    6  C6  UNL     1     -32.770   6.074   2.183  1.00 20.00     0.126 A 
HETATM    7  F8  UNL     1     -33.985   8.746   4.339  1.00 20.00    -0.205 F 
HETATM    8  F9  UNL     1     -31.834   5.854   1.249  1.00 20.00    -0.205 F 
ENDROOT
BRANCH   4   9
HETATM    9  C7  UNL     1     -31.967   8.432   2.390  1.00 20.00     0.130 C 
HETATM   10 BR10 UNL     1     -32.519   9.158   0.672  1.00 20.00    -0.091 Br
ENDBRANCH   4   9
TORSDOF 1
ENDMDL
MODEL 7
REMARK VINA RESULT:      -1.2      2.300      4.112
REMARK  1 active torsions:
REMARK  status: ('A' for Active; 'I' for Inactive)
REMARK    1  A    between atoms: C4_4  and  C7_7 
ROOT
HETATM    1  C1  UNL     1     -34.612   5.253   3.524  1.00 20.00     0.006 A 
HETATM    2  C2  UNL     1     -33.633   5.037   2.553  1.00 20.00     0.043 A 
HETATM    3  C3  UNL     1     -34.728   6.503   4.129  1.00 20.00     0.043 A 
HETATM    4  C4  UNL     1     -32.888   7.323   2.795  1.00 20.00     0.029 A 
HETATM    5  C5  UNL     1     -32.772   6.072   2.188  1.00 20.00     0.126 A 
HETATM    6  C6  UNL     1     -33.867   7.538   3.766  1.00 20.00     0.126 A 
HETATM    7  F8  UNL     1     -31.834   5.855   1.255  1.00 20.00    -0.205 F 
HETATM    8  F9  UNL     1     -33.987   8.737   4.354  1.00 20.00    -0.205 F 
ENDROOT
BRANCH   4   9
HETATM    9  C7  UNL     1     -31.968   8.430   2.405  1.00 20.00     0.130 C 
HETATM   10 BR10 UNL     1     -32.511   9.153   0.683  1.00 20.00    -0.091 Br
ENDBRANCH   4   9
TORSDOF 1
ENDMDL
MODEL 8
REMARK VINA RESULT:      -0.7      1.079      2.825
REMARK  1 active torsions:
REMARK  status: ('A' for Active; 'I' for Inactive)
REMARK    1  A    between atoms: C4_4  and  C7_7 
ROOT
HETATM    1  C1  UNL     1     -31.821   8.373   1.472  1.00 20.00     0.006 A 
HETATM    2  C2  UNL     1     -31.968   7.124   0.866  1.00 20.00     0.043 A 
HETATM    3  C3  UNL     1     -32.357   8.598   2.740  1.00 20.00     0.043 A 
HETATM    4  C4  UNL     1     -33.185   6.329   2.795  1.00 20.00     0.029 A 
HETATM    5  C5  UNL     1     -32.648   6.103   1.527  1.00 20.00     0.126 A 
HETATM    6  C6  UNL     1     -33.039   7.577   3.402  1.00 20.00     0.126 A 
HETATM    7  F8  UNL     1     -32.784   4.908   0.936  1.00 20.00    -0.205 F 
HETATM    8  F9  UNL     1     -33.550   7.803   4.620  1.00 20.00    -0.205 F 
ENDROOT
BRANCH   4   9
HETATM    9  C7  UNL     1     -33.912   5.236   3.503  1.00 20.00     0.130 C 
HETATM   10 BR10 UNL     1     -35.634   5.896   4.123  1.00 20.00    -0.091 Br
ENDBRANCH   4   9
TORSDOF 1
ENDMDL
MODEL 9
REMARK VINA RESULT:      -0.2      2.072      2.888
REMARK  1 active torsions:
REMARK  status: ('A' for Active; 'I' for Inactive)
REMARK    1  A    between atoms: C4_4  and  C7_7 
ROOT
HETATM    1  C1  UNL     1     -33.905   8.012   4.037  1.00 20.00     0.006 A 
HETATM    2  C2  UNL     1     -32.978   8.417   3.077  1.00 20.00     0.043 A 
HETATM    3  C3  UNL     1     -34.318   6.681   4.090  1.00 20.00     0.043 A 
HETATM    4  C4  UNL     1     -32.878   6.160   2.221  1.00 20.00     0.029 A 
HETATM    5  C5  UNL     1     -32.464   7.491   2.169  1.00 20.00     0.126 A 
HETATM    6  C6  UNL     1     -33.805   5.755   3.182  1.00 20.00     0.126 A 
HETATM    7  F8  UNL     1     -31.575   7.890   1.250  1.00 20.00    -0.205 F 
HETATM    8  F9  UNL     1     -34.208   4.478   3.239  1.00 20.00    -0.205 F 
ENDROOT
BRANCH   4   9
HETATM    9  C7  UNL     1     -32.328   5.169   1.251  1.00 20.00     0.130 C 
HETATM   10 BR10 UNL     1     -33.692   4.715  -0.060  1.00 20.00    -0.091 Br
ENDBRANCH   4   9
TORSDOF 1
ENDMDL
