MODEL 1
REMARK VINA RESULT:      -0.9      0.000      0.000
REMARK  1 active torsions:
REMARK  status: ('A' for Active; 'I' for Inactive)
REMARK    1  A    between atoms: C4_4  and  S7_7 
ROOT
HETATM    1  C1  UNL     1     -32.205   8.245   2.369  1.00 20.00     0.009 A 
HETATM    2  C2  UNL     1     -33.210   7.897   3.317  1.00 20.00     0.026 A 
HETATM    3  C3  UNL     1     -31.966   7.229   1.471  1.00 20.00     0.051 A 
HETATM    4  C4  UNL     1     -33.703   6.628   3.106  1.00 20.00     0.040 A 
HETATM    5  S6  UNL     1     -32.953   5.862   1.770  1.00 20.00    -0.095 SA
ENDROOT
BRANCH   4   6
HETATM    6  S7  UNL     1     -34.947   5.834   4.052  1.00 20.00    -0.127 SA
HETATM    7  C5  UNL     1     -34.202   4.197   4.271  1.00 20.00     0.096 C 
ENDBRANCH   4   6
TORSDOF 1
ENDMDL
MODEL 2
REMARK VINA RESULT:      -0.8      1.555      3.620
REMARK  1 active torsions:
REMARK  status: ('A' for Active; 'I' for Inactive)
REMARK    1  A    between atoms: C4_4  and  S7_7 
ROOT
HETATM    1  C1  UNL     1     -34.363   7.041   3.973  1.00 20.00     0.009 A 
HETATM    2  C2  UNL     1     -33.469   8.010   3.433  1.00 20.00     0.026 A 
HETATM    3  C3  UNL     1     -34.269   5.831   3.321  1.00 20.00     0.051 A 
HETATM    4  C4  UNL     1     -32.725   7.504   2.390  1.00 20.00     0.040 A 
HETATM    5  S6  UNL     1     -33.106   5.866   2.065  1.00 20.00    -0.095 SA
ENDROOT
BRANCH   4   6
HETATM    6  S7  UNL     1     -31.517   8.377   1.466  1.00 20.00    -0.127 SA
HETATM    7  C5  UNL     1     -32.570   9.547   0.569  1.00 20.00     0.096 C 
ENDBRANCH   4   6
TORSDOF 1
ENDMDL
MODEL 3
REMARK VINA RESULT:      -0.8      1.231      1.592
REMARK  1 active torsions:
REMARK  status: ('A' for Active; 'I' for Inactive)
REMARK    1  A    between atoms: C4_4  and  S7_7 
ROOT
HETATM    1  C1  UNL     1     -32.121   6.814   1.355  1.00 20.00     0.009 A 
HETATM    2  C2  UNL     1     -33.010   5.850   1.913  1.00 20.00     0.026 A 
HETATM    3  C3  UNL     1     -32.108   7.985   2.081  1.00 20.00     0.051 A 
HETATM    4  C4  UNL     1     -33.639   6.319   3.044  1.00 20.00     0.040 A 
HETATM    5  S6  UNL     1     -33.160   7.918   3.429  1.00 20.00    -0.095 SA
ENDROOT
BRANCH   4   6
HETATM    6  S7  UNL     1     -34.800   5.438   4.019  1.00 20.00    -0.127 SA
HETATM    7  C5  UNL     1     -33.907   3.883   4.273  1.00 20.00     0.096 C 
ENDBRANCH   4   6
TORSDOF 1
ENDMDL
MODEL 4
REMARK VINA RESULT:      -0.7      1.269      3.540
REMARK  1 active torsions:
REMARK  status: ('A' for Active; 'I' for Inactive)
REMARK    1  A    between atoms: C4_4  and  S7_7 
ROOT
HETATM    1  C1  UNL     1     -35.294   6.390   4.255  1.00 20.00     0.009 A 
HETATM    2  C2  UNL     1     -34.371   6.867   3.280  1.00 20.00     0.026 A 
HETATM    3  C3  UNL     1     -35.130   5.046   4.508  1.00 20.00     0.051 A 
HETATM    4  C4  UNL     1     -33.536   5.869   2.826  1.00 20.00     0.040 A 
HETATM    5  S6  UNL     1     -33.868   4.365   3.574  1.00 20.00    -0.095 SA
ENDROOT
BRANCH   4   6
HETATM    6  S7  UNL     1     -32.267   6.051   1.629  1.00 20.00    -0.127 SA
HETATM    7  C5  UNL     1     -31.967   7.835   1.734  1.00 20.00     0.096 C 
ENDBRANCH   4   6
TORSDOF 1
ENDMDL
MODEL 5
REMARK VINA RESULT:      -0.4      1.847      3.899
REMARK  1 active torsions:
REMARK  status: ('A' for Active; 'I' for Inactive)
REMARK    1  A    between atoms: C4_4  and  S7_7 
ROOT
HETATM    1  C1  UNL     1     -34.247   5.638   3.072  1.00 20.00     0.009 A 
HETATM    2  C2  UNL     1     -33.198   6.100   2.225  1.00 20.00     0.026 A 
HETATM    3  C3  UNL     1     -34.614   6.585   4.002  1.00 20.00     0.051 A 
HETATM    4  C4  UNL     1     -32.804   7.382   2.539  1.00 20.00     0.040 A 
HETATM    5  S6  UNL     1     -33.697   8.023   3.852  1.00 20.00    -0.095 SA
ENDROOT
BRANCH   4   6
HETATM    6  S7  UNL     1     -31.548   8.302   1.733  1.00 20.00    -0.127 SA
HETATM    7  C5  UNL     1     -32.552   9.353   0.651  1.00 20.00     0.096 C 
ENDBRANCH   4   6
TORSDOF 1
ENDMDL
MODEL 6
REMARK VINA RESULT:      -0.4      1.582      1.951
REMARK  1 active torsions:
REMARK  status: ('A' for Active; 'I' for Inactive)
REMARK    1  A    between atoms: C4_4  and  S7_7 
ROOT
HETATM    1  C1  UNL     1     -32.233   5.789   1.168  1.00 20.00     0.009 A 
HETATM    2  C2  UNL     1     -33.216   5.773   2.200  1.00 20.00     0.026 A 
HETATM    3  C3  UNL     1     -31.611   7.014   1.066  1.00 20.00     0.051 A 
HETATM    4  C4  UNL     1     -33.306   6.985   2.848  1.00 20.00     0.040 A 
HETATM    5  S6  UNL     1     -32.210   8.137   2.211  1.00 20.00    -0.095 SA
ENDROOT
BRANCH   4   6
HETATM    6  S7  UNL     1     -34.391   7.368   4.172  1.00 20.00    -0.127 SA
HETATM    7  C5  UNL     1     -35.382   5.853   4.236  1.00 20.00     0.096 C 
ENDBRANCH   4   6
TORSDOF 1
ENDMDL
MODEL 7
REMARK VINA RESULT:      -0.4      1.257      3.784
REMARK  1 active torsions:
REMARK  status: ('A' for Active; 'I' for Inactive)
REMARK    1  A    between atoms: C4_4  and  S7_7 
ROOT
HETATM    1  C1  UNL     1     -34.887   4.855   4.316  1.00 20.00     0.009 A 
HETATM    2  C2  UNL     1     -33.847   4.697   3.355  1.00 20.00     0.026 A 
HETATM    3  C3  UNL     1     -35.261   6.173   4.460  1.00 20.00     0.051 A 
HETATM    4  C4  UNL     1     -33.467   5.899   2.800  1.00 20.00     0.040 A 
HETATM    5  S6  UNL     1     -34.362   7.212   3.438  1.00 20.00    -0.095 SA
ENDROOT
BRANCH   4   6
HETATM    6  S7  UNL     1     -32.226   6.126   1.582  1.00 20.00    -0.127 SA
HETATM    7  C5  UNL     1     -31.934   7.907   1.737  1.00 20.00     0.096 C 
ENDBRANCH   4   6
TORSDOF 1
ENDMDL
MODEL 8
REMARK VINA RESULT:      -0.3      1.184      1.374
REMARK  1 active torsions:
REMARK  status: ('A' for Active; 'I' for Inactive)
REMARK    1  A    between atoms: C4_4  and  S7_7 
ROOT
HETATM    1  C1  UNL     1     -31.607   7.665   1.326  1.00 20.00     0.009 A 
HETATM    2  C2  UNL     1     -32.349   8.179   2.428  1.00 20.00     0.026 A 
HETATM    3  C3  UNL     1     -31.931   6.354   1.051  1.00 20.00     0.051 A 
HETATM    4  C4  UNL     1     -33.213   7.243   2.953  1.00 20.00     0.040 A 
HETATM    5  S6  UNL     1     -33.125   5.750   2.118  1.00 20.00    -0.095 SA
ENDROOT
BRANCH   4   6
HETATM    6  S7  UNL     1     -34.297   7.486   4.310  1.00 20.00    -0.127 SA
HETATM    7  C5  UNL     1     -35.385   6.050   4.125  1.00 20.00     0.096 C 
ENDBRANCH   4   6
TORSDOF 1
ENDMDL
MODEL 9
REMARK VINA RESULT:       0.1      1.552      3.403
REMARK  1 active torsions:
REMARK  status: ('A' for Active; 'I' for Inactive)
REMARK    1  A    between atoms: C4_4  and  S7_7 
ROOT
HETATM    1  C1  UNL     1     -35.239   6.130   4.336  1.00 20.00     0.009 A 
HETATM    2  C2  UNL     1     -34.579   7.353   4.022  1.00 20.00     0.026 A 
HETATM    3  C3  UNL     1     -34.617   5.044   3.761  1.00 20.00     0.051 A 
HETATM    4  C4  UNL     1     -33.477   7.155   3.220  1.00 20.00     0.040 A 
HETATM    5  S6  UNL     1     -33.243   5.499   2.848  1.00 20.00    -0.095 SA
ENDROOT
BRANCH   4   6
HETATM    6  S7  UNL     1     -32.402   8.403   2.618  1.00 20.00    -0.127 SA
HETATM    7  C5  UNL     1     -31.606   7.522   1.249  1.00 20.00     0.096 C 
ENDBRANCH   4   6
TORSDOF 1
ENDMDL
