MODEL 1
REMARK VINA RESULT:      -0.6      0.000      0.000
REMARK  3 active torsions:
REMARK  status: ('A' for Active; 'I' for Inactive)
REMARK    1  A    between atoms: C4_4  and  S10_10 
REMARK    2  A    between atoms: C5_5  and  C7_7 
REMARK    3  A    between atoms: C7_7  and  S10_10 
ROOT
HETATM    1  C1  UNL     1     -35.342   6.215   4.352  1.00 20.00     0.009 A 
HETATM    2  C2  UNL     1     -34.482   6.878   3.429  1.00 20.00     0.026 A 
HETATM    3  C3  UNL     1     -35.029   4.881   4.486  1.00 20.00     0.051 A 
HETATM    4  C4  UNL     1     -33.542   6.024   2.893  1.00 20.00     0.041 A 
HETATM    5  S9  UNL     1     -33.700   4.432   3.502  1.00 20.00    -0.095 SA
ENDROOT
BRANCH   4   6
HETATM    6  S10 UNL     1     -32.296   6.456   1.717  1.00 20.00    -0.115 SA
BRANCH   6   7
HETATM    7  C7  UNL     1     -32.221   8.243   1.978  1.00 20.00     0.157 C 
BRANCH   7   8
HETATM    8  C5  UNL     1     -31.886   8.979   0.701  1.00 20.00     0.132 C 
HETATM    9  C6  UNL     1     -32.688  10.217   0.465  1.00 20.00     0.091 C 
HETATM   10  O8  UNL     1     -31.038   8.646  -0.116  1.00 20.00    -0.298 OA
ENDBRANCH   7   8
ENDBRANCH   6   7
ENDBRANCH   4   6
TORSDOF 3
ENDMDL
MODEL 2
REMARK VINA RESULT:      -0.6      1.392      1.618
REMARK  3 active torsions:
REMARK  status: ('A' for Active; 'I' for Inactive)
REMARK    1  A    between atoms: C4_4  and  S10_10 
REMARK    2  A    between atoms: C5_5  and  C7_7 
REMARK    3  A    between atoms: C7_7  and  S10_10 
ROOT
HETATM    1  C1  UNL     1     -34.773   6.756   4.087  1.00 20.00     0.009 A 
HETATM    2  C2  UNL     1     -33.854   7.815   3.835  1.00 20.00     0.026 A 
HETATM    3  C3  UNL     1     -34.489   5.634   3.341  1.00 20.00     0.051 A 
HETATM    4  C4  UNL     1     -32.901   7.462   2.905  1.00 20.00     0.041 A 
HETATM    5  S9  UNL     1     -33.117   5.860   2.340  1.00 20.00    -0.095 SA
ENDROOT
BRANCH   4   6
HETATM    6  S10 UNL     1     -31.587   8.489   2.322  1.00 20.00    -0.115 SA
BRANCH   6   7
HETATM    7  C7  UNL     1     -31.909   8.440   0.544  1.00 20.00     0.157 C 
BRANCH   7   8
HETATM    8  C5  UNL     1     -32.570   9.710   0.063  1.00 20.00     0.132 C 
HETATM    9  C6  UNL     1     -32.687  10.784   1.095  1.00 20.00     0.091 C 
HETATM   10  O8  UNL     1     -32.996   9.912  -1.067  1.00 20.00    -0.298 OA
ENDBRANCH   7   8
ENDBRANCH   6   7
ENDBRANCH   4   6
TORSDOF 3
ENDMDL
MODEL 3
REMARK VINA RESULT:      -0.3      1.027      1.314
REMARK  3 active torsions:
REMARK  status: ('A' for Active; 'I' for Inactive)
REMARK    1  A    between atoms: C4_4  and  S10_10 
REMARK    2  A    between atoms: C5_5  and  C7_7 
REMARK    3  A    between atoms: C7_7  and  S10_10 
ROOT
HETATM    1  C1  UNL     1     -34.711   4.678   4.263  1.00 20.00     0.009 A 
HETATM    2  C2  UNL     1     -33.658   4.734   3.305  1.00 20.00     0.026 A 
HETATM    3  C3  UNL     1     -35.263   5.918   4.498  1.00 20.00     0.051 A 
HETATM    4  C4  UNL     1     -33.445   6.015   2.843  1.00 20.00     0.041 A 
HETATM    5  S9  UNL     1     -34.511   7.143   3.565  1.00 20.00    -0.095 SA
ENDROOT
BRANCH   4   6
HETATM    6  S10 UNL     1     -32.235   6.501   1.651  1.00 20.00    -0.115 SA
BRANCH   6   7
HETATM    7  C7  UNL     1     -32.252   8.292   1.895  1.00 20.00     0.157 C 
BRANCH   7   8
HETATM    8  C5  UNL     1     -31.890   9.030   0.628  1.00 20.00     0.132 C 
HETATM    9  C6  UNL     1     -32.679  10.275   0.382  1.00 20.00     0.091 C 
HETATM   10  O8  UNL     1     -31.029   8.695  -0.175  1.00 20.00    -0.298 OA
ENDBRANCH   7   8
ENDBRANCH   6   7
ENDBRANCH   4   6
TORSDOF 3
ENDMDL
MODEL 4
REMARK VINA RESULT:      -0.3      1.744      1.981
REMARK  3 active torsions:
REMARK  status: ('A' for Active; 'I' for Inactive)
REMARK    1  A    between atoms: C4_4  and  S10_10 
REMARK    2  A    between atoms: C5_5  and  C7_7 
REMARK    3  A    between atoms: C7_7  and  S10_10 
ROOT
HETATM    1  C1  UNL     1     -34.289   5.561   3.082  1.00 20.00     0.009 A 
HETATM    2  C2  UNL     1     -33.170   6.143   2.418  1.00 20.00     0.026 A 
HETATM    3  C3  UNL     1     -34.826   6.407   4.027  1.00 20.00     0.051 A 
HETATM    4  C4  UNL     1     -32.895   7.411   2.881  1.00 20.00     0.041 A 
HETATM    5  S9  UNL     1     -33.983   7.896   4.111  1.00 20.00    -0.095 SA
ENDROOT
BRANCH   4   6
HETATM    6  S10 UNL     1     -31.594   8.464   2.315  1.00 20.00    -0.115 SA
BRANCH   6   7
HETATM    7  C7  UNL     1     -31.903   8.422   0.534  1.00 20.00     0.157 C 
BRANCH   7   8
HETATM    8  C5  UNL     1     -32.558   9.695   0.052  1.00 20.00     0.132 C 
HETATM    9  C6  UNL     1     -32.670  10.769   1.084  1.00 20.00     0.091 C 
HETATM   10  O8  UNL     1     -32.982   9.898  -1.078  1.00 20.00    -0.298 OA
ENDBRANCH   7   8
ENDBRANCH   6   7
ENDBRANCH   4   6
TORSDOF 3
ENDMDL
MODEL 5
REMARK VINA RESULT:       0.6      2.725      5.316
REMARK  3 active torsions:
REMARK  status: ('A' for Active; 'I' for Inactive)
REMARK    1  A    between atoms: C4_4  and  S10_10 
REMARK    2  A    between atoms: C5_5  and  C7_7 
REMARK    3  A    between atoms: C7_7  and  S10_10 
ROOT
HETATM    1  C1  UNL     1     -32.325   9.645   0.676  1.00 20.00     0.009 A 
HETATM    2  C2  UNL     1     -33.187   9.325   1.764  1.00 20.00     0.026 A 
HETATM    3  C3  UNL     1     -31.465   8.613   0.376  1.00 20.00     0.051 A 
HETATM    4  C4  UNL     1     -32.953   8.059   2.254  1.00 20.00     0.041 A 
HETATM    5  S9  UNL     1     -31.698   7.263   1.405  1.00 20.00    -0.095 SA
ENDROOT
BRANCH   4   6
HETATM    6  S10 UNL     1     -33.810   7.289   3.595  1.00 20.00    -0.115 SA
BRANCH   6   7
HETATM    7  C7  UNL     1     -33.681   5.555   3.100  1.00 20.00     0.157 C 
BRANCH   7   8
HETATM    8  C5  UNL     1     -34.351   4.640   4.098  1.00 20.00     0.132 C 
HETATM    9  C6  UNL     1     -33.581   3.402   4.425  1.00 20.00     0.091 C 
HETATM   10  O8  UNL     1     -35.432   4.836   4.636  1.00 20.00    -0.298 OA
ENDBRANCH   7   8
ENDBRANCH   6   7
ENDBRANCH   4   6
TORSDOF 3
ENDMDL
MODEL 6
REMARK VINA RESULT:       0.6      3.235      5.420
REMARK  3 active torsions:
REMARK  status: ('A' for Active; 'I' for Inactive)
REMARK    1  A    between atoms: C4_4  and  S10_10 
REMARK    2  A    between atoms: C5_5  and  C7_7 
REMARK    3  A    between atoms: C7_7  and  S10_10 
ROOT
HETATM    1  C1  UNL     1     -32.452   8.386   2.615  1.00 20.00     0.009 A 
HETATM    2  C2  UNL     1     -33.302   7.716   3.542  1.00 20.00     0.026 A 
HETATM    3  C3  UNL     1     -32.044   7.556   1.595  1.00 20.00     0.051 A 
HETATM    4  C4  UNL     1     -33.512   6.399   3.194  1.00 20.00     0.041 A 
HETATM    5  S9  UNL     1     -32.686   5.976   1.756  1.00 20.00    -0.095 SA
ENDROOT
BRANCH   4   6
HETATM    6  S10 UNL     1     -34.504   5.236   4.080  1.00 20.00    -0.115 SA
BRANCH   6   7
HETATM    7  C7  UNL     1     -33.790   3.688   3.478  1.00 20.00     0.157 C 
BRANCH   7   8
HETATM    8  C5  UNL     1     -33.338   2.804   4.616  1.00 20.00     0.132 C 
HETATM    9  C6  UNL     1     -32.641   3.521   5.726  1.00 20.00     0.091 C 
HETATM   10  O8  UNL     1     -33.500   1.592   4.690  1.00 20.00    -0.298 OA
ENDBRANCH   7   8
ENDBRANCH   6   7
ENDBRANCH   4   6
TORSDOF 3
ENDMDL
MODEL 7
REMARK VINA RESULT:       0.7      2.810      5.472
REMARK  3 active torsions:
REMARK  status: ('A' for Active; 'I' for Inactive)
REMARK    1  A    between atoms: C4_4  and  S10_10 
REMARK    2  A    between atoms: C5_5  and  C7_7 
REMARK    3  A    between atoms: C7_7  and  S10_10 
ROOT
HETATM    1  C1  UNL     1     -31.321   8.385   0.401  1.00 20.00     0.009 A 
HETATM    2  C2  UNL     1     -31.750   7.523   1.451  1.00 20.00     0.026 A 
HETATM    3  C3  UNL     1     -32.006   9.579   0.399  1.00 20.00     0.051 A 
HETATM    4  C4  UNL     1     -32.748   8.092   2.213  1.00 20.00     0.041 A 
HETATM    5  S9  UNL     1     -33.162   9.659   1.661  1.00 20.00    -0.095 SA
ENDROOT
BRANCH   4   6
HETATM    6  S10 UNL     1     -33.544   7.350   3.605  1.00 20.00    -0.115 SA
BRANCH   6   7
HETATM    7  C7  UNL     1     -33.691   5.647   3.015  1.00 20.00     0.157 C 
BRANCH   7   8
HETATM    8  C5  UNL     1     -34.375   4.763   4.031  1.00 20.00     0.132 C 
HETATM    9  C6  UNL     1     -33.649   3.496   4.346  1.00 20.00     0.091 C 
HETATM   10  O8  UNL     1     -35.436   5.004   4.592  1.00 20.00    -0.298 OA
ENDBRANCH   7   8
ENDBRANCH   6   7
ENDBRANCH   4   6
TORSDOF 3
ENDMDL
MODEL 8
REMARK VINA RESULT:       0.8      2.182      5.098
REMARK  3 active torsions:
REMARK  status: ('A' for Active; 'I' for Inactive)
REMARK    1  A    between atoms: C4_4  and  S10_10 
REMARK    2  A    between atoms: C5_5  and  C7_7 
REMARK    3  A    between atoms: C7_7  and  S10_10 
ROOT
HETATM    1  C1  UNL     1     -32.952  10.753   0.394  1.00 20.00     0.009 A 
HETATM    2  C2  UNL     1     -32.870   9.811   1.461  1.00 20.00     0.026 A 
HETATM    3  C3  UNL     1     -32.275  10.326  -0.726  1.00 20.00     0.051 A 
HETATM    4  C4  UNL     1     -32.134   8.699   1.114  1.00 20.00     0.041 A 
HETATM    5  S9  UNL     1     -31.545   8.794  -0.491  1.00 20.00    -0.095 SA
ENDROOT
BRANCH   4   6
HETATM    6  S10 UNL     1     -31.802   7.308   2.152  1.00 20.00    -0.115 SA
BRANCH   6   7
HETATM    7  C7  UNL     1     -33.466   6.617   2.298  1.00 20.00     0.157 C 
BRANCH   7   8
HETATM    8  C5  UNL     1     -34.105   6.980   3.618  1.00 20.00     0.132 C 
HETATM    9  C6  UNL     1     -35.306   6.166   3.975  1.00 20.00     0.091 C 
HETATM   10  O8  UNL     1     -33.722   7.855   4.383  1.00 20.00    -0.298 OA
ENDBRANCH   7   8
ENDBRANCH   6   7
ENDBRANCH   4   6
TORSDOF 3
ENDMDL
MODEL 9
REMARK VINA RESULT:       0.8      2.180      5.177
REMARK  3 active torsions:
REMARK  status: ('A' for Active; 'I' for Inactive)
REMARK    1  A    between atoms: C4_4  and  S10_10 
REMARK    2  A    between atoms: C5_5  and  C7_7 
REMARK    3  A    between atoms: C7_7  and  S10_10 
ROOT
HETATM    1  C1  UNL     1     -32.412   9.989  -0.833  1.00 20.00     0.009 A 
HETATM    2  C2  UNL     1     -32.011   8.734  -0.291  1.00 20.00     0.026 A 
HETATM    3  C3  UNL     1     -32.898  10.840   0.135  1.00 20.00     0.051 A 
HETATM    4  C4  UNL     1     -32.204   8.674   1.072  1.00 20.00     0.041 A 
HETATM    5  S9  UNL     1     -32.867  10.125   1.692  1.00 20.00    -0.095 SA
ENDROOT
BRANCH   4   6
HETATM    6  S10 UNL     1     -31.833   7.296   2.114  1.00 20.00    -0.115 SA
BRANCH   6   7
HETATM    7  C7  UNL     1     -33.481   6.572   2.283  1.00 20.00     0.157 C 
BRANCH   7   8
HETATM    8  C5  UNL     1     -34.116   6.935   3.604  1.00 20.00     0.132 C 
HETATM    9  C6  UNL     1     -35.266   6.069   4.004  1.00 20.00     0.091 C 
HETATM   10  O8  UNL     1     -33.766   7.850   4.339  1.00 20.00    -0.298 OA
ENDBRANCH   7   8
ENDBRANCH   6   7
ENDBRANCH   4   6
TORSDOF 3
ENDMDL
