MODEL 1
REMARK VINA RESULT:      -2.6      0.000      0.000
REMARK  1 active torsions:
REMARK  status: ('A' for Active; 'I' for Inactive)
REMARK    1  A    between atoms: C4_4  and  C6_6 
ROOT
HETATM    1  C1  UNL     1     -31.722   7.409   1.400  1.00 20.00     0.027 A 
HETATM    2  C2  UNL     1     -32.356   8.107   2.455  1.00 20.00     0.034 A 
HETATM    3  C3  UNL     1     -32.333   6.178   1.335  1.00 20.00     0.142 A 
HETATM    4  C4  UNL     1     -33.310   7.254   2.960  1.00 20.00     0.052 A 
HETATM    5  O7  UNL     1     -33.302   6.075   2.282  1.00 20.00    -0.327 OA
ENDROOT
BRANCH   4   6
HETATM    6  C6  UNL     1     -34.292   7.373   4.047  1.00 20.00     0.060 C 
HETATM    7  C5  UNL     1     -35.306   6.223   4.070  1.00 20.00     0.012 C 
ENDBRANCH   4   6
TORSDOF 1
ENDMDL
MODEL 2
REMARK VINA RESULT:      -2.6      0.949      1.409
REMARK  1 active torsions:
REMARK  status: ('A' for Active; 'I' for Inactive)
REMARK    1  A    between atoms: C4_4  and  C6_6 
ROOT
HETATM    1  C1  UNL     1     -32.058   6.400   1.234  1.00 20.00     0.027 A 
HETATM    2  C2  UNL     1     -33.097   5.968   2.094  1.00 20.00     0.034 A 
HETATM    3  C3  UNL     1     -31.779   7.698   1.594  1.00 20.00     0.142 A 
HETATM    4  C4  UNL     1     -33.379   7.033   2.917  1.00 20.00     0.052 A 
HETATM    5  O7  UNL     1     -32.580   8.092   2.619  1.00 20.00    -0.327 OA
ENDROOT
BRANCH   4   6
HETATM    6  C6  UNL     1     -34.340   7.231   4.011  1.00 20.00     0.060 C 
HETATM    7  C5  UNL     1     -35.361   6.092   4.129  1.00 20.00     0.012 C 
ENDBRANCH   4   6
TORSDOF 1
ENDMDL
MODEL 3
REMARK VINA RESULT:      -2.4      1.010      3.053
REMARK  1 active torsions:
REMARK  status: ('A' for Active; 'I' for Inactive)
REMARK    1  A    between atoms: C4_4  and  C6_6 
ROOT
HETATM    1  C1  UNL     1     -34.509   6.902   4.114  1.00 20.00     0.027 A 
HETATM    2  C2  UNL     1     -33.623   7.918   3.680  1.00 20.00     0.034 A 
HETATM    3  C3  UNL     1     -34.299   5.830   3.279  1.00 20.00     0.142 A 
HETATM    4  C4  UNL     1     -32.936   7.394   2.610  1.00 20.00     0.052 A 
HETATM    5  O7  UNL     1     -33.341   6.121   2.359  1.00 20.00    -0.327 OA
ENDROOT
BRANCH   4   6
HETATM    6  C6  UNL     1     -31.890   7.930   1.727  1.00 20.00     0.060 C 
HETATM    7  C5  UNL     1     -32.364   9.124   0.889  1.00 20.00     0.012 C 
ENDBRANCH   4   6
TORSDOF 1
ENDMDL
MODEL 4
REMARK VINA RESULT:      -2.2      1.037      3.292
REMARK  1 active torsions:
REMARK  status: ('A' for Active; 'I' for Inactive)
REMARK    1  A    between atoms: C4_4  and  C6_6 
ROOT
HETATM    1  C1  UNL     1     -35.216   6.124   4.326  1.00 20.00     0.027 A 
HETATM    2  C2  UNL     1     -34.501   6.966   3.440  1.00 20.00     0.034 A 
HETATM    3  C3  UNL     1     -34.669   4.870   4.186  1.00 20.00     0.142 A 
HETATM    4  C4  UNL     1     -33.568   6.166   2.822  1.00 20.00     0.052 A 
HETATM    5  O7  UNL     1     -33.664   4.886   3.271  1.00 20.00    -0.327 OA
ENDROOT
BRANCH   4   6
HETATM    6  C6  UNL     1     -32.533   6.425   1.811  1.00 20.00     0.060 C 
HETATM    7  C5  UNL     1     -32.048   7.881   1.807  1.00 20.00     0.012 C 
ENDBRANCH   4   6
TORSDOF 1
ENDMDL
MODEL 5
REMARK VINA RESULT:      -2.2      1.311      3.351
REMARK  1 active torsions:
REMARK  status: ('A' for Active; 'I' for Inactive)
REMARK    1  A    between atoms: C4_4  and  C6_6 
ROOT
HETATM    1  C1  UNL     1     -34.470   6.162   3.592  1.00 20.00     0.027 A 
HETATM    2  C2  UNL     1     -33.575   6.076   2.500  1.00 20.00     0.034 A 
HETATM    3  C3  UNL     1     -34.261   7.397   4.161  1.00 20.00     0.142 A 
HETATM    4  C4  UNL     1     -32.882   7.265   2.479  1.00 20.00     0.052 A 
HETATM    5  O7  UNL     1     -33.295   8.076   3.488  1.00 20.00    -0.327 OA
ENDROOT
BRANCH   4   6
HETATM    6  C6  UNL     1     -31.826   7.797   1.606  1.00 20.00     0.060 C 
HETATM    7  C5  UNL     1     -32.244   9.074   0.865  1.00 20.00     0.012 C 
ENDBRANCH   4   6
TORSDOF 1
ENDMDL
MODEL 6
REMARK VINA RESULT:      -1.9      2.674      3.679
REMARK  1 active torsions:
REMARK  status: ('A' for Active; 'I' for Inactive)
REMARK    1  A    between atoms: C4_4  and  C6_6 
ROOT
HETATM    1  C1  UNL     1     -34.363   6.670   3.458  1.00 20.00     0.027 A 
HETATM    2  C2  UNL     1     -33.467   5.582   3.330  1.00 20.00     0.034 A 
HETATM    3  C3  UNL     1     -35.437   6.199   4.176  1.00 20.00     0.142 A 
HETATM    4  C4  UNL     1     -34.057   4.523   3.980  1.00 20.00     0.052 A 
HETATM    5  O7  UNL     1     -35.259   4.890   4.499  1.00 20.00    -0.327 OA
ENDROOT
BRANCH   4   6
HETATM    6  C6  UNL     1     -33.649   3.129   4.208  1.00 20.00     0.060 C 
HETATM    7  C5  UNL     1     -32.649   2.976   5.362  1.00 20.00     0.012 C 
ENDBRANCH   4   6
TORSDOF 1
ENDMDL
MODEL 7
REMARK VINA RESULT:      -1.7      1.151      3.365
REMARK  1 active torsions:
REMARK  status: ('A' for Active; 'I' for Inactive)
REMARK    1  A    between atoms: C4_4  and  C6_6 
ROOT
HETATM    1  C1  UNL     1     -34.925   6.413   4.151  1.00 20.00     0.027 A 
HETATM    2  C2  UNL     1     -34.259   5.753   3.091  1.00 20.00     0.034 A 
HETATM    3  C3  UNL     1     -34.325   7.645   4.271  1.00 20.00     0.142 A 
HETATM    4  C4  UNL     1     -33.299   6.628   2.638  1.00 20.00     0.052 A 
HETATM    5  O7  UNL     1     -33.333   7.785   3.352  1.00 20.00    -0.327 OA
ENDROOT
BRANCH   4   6
HETATM    6  C6  UNL     1     -32.289   6.550   1.573  1.00 20.00     0.060 C 
HETATM    7  C5  UNL     1     -32.088   5.127   1.038  1.00 20.00     0.012 C 
ENDBRANCH   4   6
TORSDOF 1
ENDMDL
MODEL 8
REMARK VINA RESULT:      -0.8      2.452      3.450
REMARK  1 active torsions:
REMARK  status: ('A' for Active; 'I' for Inactive)
REMARK    1  A    between atoms: C4_4  and  C6_6 
ROOT
HETATM    1  C1  UNL     1     -32.435  10.123  -0.503  1.00 20.00     0.027 A 
HETATM    2  C2  UNL     1     -31.997   8.802  -0.247  1.00 20.00     0.034 A 
HETATM    3  C3  UNL     1     -32.844  10.632   0.709  1.00 20.00     0.142 A 
HETATM    4  C4  UNL     1     -32.169   8.597   1.103  1.00 20.00     0.052 A 
HETATM    5  O7  UNL     1     -32.685   9.708   1.693  1.00 20.00    -0.327 OA
ENDROOT
BRANCH   4   6
HETATM    6  C6  UNL     1     -31.910   7.451   1.986  1.00 20.00     0.060 C 
HETATM    7  C5  UNL     1     -32.693   6.193   1.586  1.00 20.00     0.012 C 
ENDBRANCH   4   6
TORSDOF 1
ENDMDL
MODEL 9
REMARK VINA RESULT:      -0.8      1.000      1.480
REMARK  1 active torsions:
REMARK  status: ('A' for Active; 'I' for Inactive)
REMARK    1  A    between atoms: C4_4  and  C6_6 
ROOT
HETATM    1  C1  UNL     1     -32.250   6.019   1.243  1.00 20.00     0.027 A 
HETATM    2  C2  UNL     1     -32.671   7.208   1.885  1.00 20.00     0.034 A 
HETATM    3  C3  UNL     1     -32.832   4.983   1.938  1.00 20.00     0.142 A 
HETATM    4  C4  UNL     1     -33.480   6.815   2.927  1.00 20.00     0.052 A 
HETATM    5  O7  UNL     1     -33.583   5.460   2.966  1.00 20.00    -0.327 OA
ENDROOT
BRANCH   4   6
HETATM    6  C6  UNL     1     -34.220   7.554   3.959  1.00 20.00     0.060 C 
HETATM    7  C5  UNL     1     -33.311   8.147   5.043  1.00 20.00     0.012 C 
ENDBRANCH   4   6
TORSDOF 1
ENDMDL
