MODEL 1
REMARK VINA RESULT:      -2.1      0.000      0.000
REMARK  3 active torsions:
REMARK  status: ('A' for Active; 'I' for Inactive)
REMARK    1  A    between atoms: C5_5  and  O9_9 
REMARK    2  A    between atoms: C6_6  and  O10_10 
REMARK    3  A    between atoms: C8_8  and  O10_10 
ROOT
HETATM    1  C1  UNL     1     -34.462   6.019   3.912  1.00 20.00     0.003 A 
HETATM    2  C2  UNL     1     -34.275   7.390   4.091  1.00 20.00     0.003 A 
HETATM    3  C3  UNL     1     -33.793   5.352   2.886  1.00 20.00     0.039 A 
HETATM    4  C4  UNL     1     -33.417   8.092   3.244  1.00 20.00     0.039 A 
HETATM    5  C5  UNL     1     -32.936   6.055   2.039  1.00 20.00     0.099 A 
HETATM    6  C6  UNL     1     -32.749   7.426   2.219  1.00 20.00     0.101 A 
ENDROOT
BRANCH   6   7
HETATM    7  O10 UNL     1     -31.915   8.123   1.398  1.00 20.00    -0.349 OA
BRANCH   7   8
HETATM    8  C8  UNL     1     -32.239   9.491   1.157  1.00 20.00     0.171 C 
HETATM    9  C7  UNL     1     -32.494   9.684  -0.323  1.00 20.00     0.034 C 
ENDBRANCH   7   8
ENDBRANCH   6   7
BRANCH   5  10
HETATM   10  O9  UNL     1     -32.289   5.392   1.040  1.00 20.00    -0.358 OA
HETATM   11  H20 UNL     1     -32.710   4.532   0.882  1.00 20.00     0.217 HD
ENDBRANCH   5  10
TORSDOF 3
ENDMDL
MODEL 2
REMARK VINA RESULT:      -1.8      2.100      4.558
REMARK  3 active torsions:
REMARK  status: ('A' for Active; 'I' for Inactive)
REMARK    1  A    between atoms: C5_5  and  O9_9 
REMARK    2  A    between atoms: C6_6  and  O10_10 
REMARK    3  A    between atoms: C8_8  and  O10_10 
ROOT
HETATM    1  C1  UNL     1     -32.034   7.788   1.581  1.00 20.00     0.003 A 
HETATM    2  C2  UNL     1     -32.113   6.446   1.213  1.00 20.00     0.003 A 
HETATM    3  C3  UNL     1     -32.699   8.240   2.721  1.00 20.00     0.039 A 
HETATM    4  C4  UNL     1     -32.857   5.554   1.986  1.00 20.00     0.039 A 
HETATM    5  C5  UNL     1     -33.443   7.347   3.494  1.00 20.00     0.099 A 
HETATM    6  C6  UNL     1     -33.521   6.004   3.125  1.00 20.00     0.101 A 
ENDROOT
BRANCH   6   7
HETATM    7  O10 UNL     1     -34.246   5.124   3.871  1.00 20.00    -0.349 OA
BRANCH   7   8
HETATM    8  C8  UNL     1     -33.923   3.742   3.735  1.00 20.00     0.171 C 
HETATM    9  C7  UNL     1     -33.155   3.291   4.960  1.00 20.00     0.034 C 
ENDBRANCH   7   8
ENDBRANCH   6   7
BRANCH   5  10
HETATM   10  O9  UNL     1     -34.089   7.801   4.604  1.00 20.00    -0.358 OA
HETATM   11  H20 UNL     1     -33.643   8.590   4.952  1.00 20.00     0.217 HD
ENDBRANCH   5  10
TORSDOF 3
ENDMDL
MODEL 3
REMARK VINA RESULT:      -1.6      1.578      4.035
REMARK  3 active torsions:
REMARK  status: ('A' for Active; 'I' for Inactive)
REMARK    1  A    between atoms: C5_5  and  O9_9 
REMARK    2  A    between atoms: C6_6  and  O10_10 
REMARK    3  A    between atoms: C8_8  and  O10_10 
ROOT
HETATM    1  C1  UNL     1     -32.675   8.397   2.594  1.00 20.00     0.003 A 
HETATM    2  C2  UNL     1     -33.594   8.085   3.595  1.00 20.00     0.003 A 
HETATM    3  C3  UNL     1     -32.180   7.392   1.762  1.00 20.00     0.039 A 
HETATM    4  C4  UNL     1     -34.018   6.767   3.764  1.00 20.00     0.039 A 
HETATM    5  C5  UNL     1     -32.605   6.074   1.932  1.00 20.00     0.099 A 
HETATM    6  C6  UNL     1     -33.524   5.762   2.934  1.00 20.00     0.101 A 
ENDROOT
BRANCH   6   7
HETATM    7  O10 UNL     1     -33.946   4.479   3.110  1.00 20.00    -0.349 OA
BRANCH   7   8
HETATM    8  C8  UNL     1     -34.101   4.027   4.454  1.00 20.00     0.171 C 
HETATM    9  C7  UNL     1     -33.142   2.881   4.701  1.00 20.00     0.034 C 
ENDBRANCH   7   8
ENDBRANCH   6   7
BRANCH   5  10
HETATM   10  O9  UNL     1     -32.114   5.102   1.115  1.00 20.00    -0.358 OA
HETATM   11  H20 UNL     1     -31.693   4.403   1.640  1.00 20.00     0.217 HD
ENDBRANCH   5  10
TORSDOF 3
ENDMDL
MODEL 4
REMARK VINA RESULT:      -1.3      1.344      2.259
REMARK  3 active torsions:
REMARK  status: ('A' for Active; 'I' for Inactive)
REMARK    1  A    between atoms: C5_5  and  O9_9 
REMARK    2  A    between atoms: C6_6  and  O10_10 
REMARK    3  A    between atoms: C8_8  and  O10_10 
ROOT
HETATM    1  C1  UNL     1     -33.628   4.931   2.746  1.00 20.00     0.003 A 
HETATM    2  C2  UNL     1     -32.763   5.194   1.684  1.00 20.00     0.003 A 
HETATM    3  C3  UNL     1     -34.061   5.973   3.568  1.00 20.00     0.039 A 
HETATM    4  C4  UNL     1     -32.331   6.498   1.443  1.00 20.00     0.039 A 
HETATM    5  C5  UNL     1     -33.628   7.277   3.326  1.00 20.00     0.099 A 
HETATM    6  C6  UNL     1     -32.763   7.539   2.264  1.00 20.00     0.101 A 
ENDROOT
BRANCH   6   7
HETATM    7  O10 UNL     1     -32.333   8.808   2.019  1.00 20.00    -0.349 OA
BRANCH   7   8
HETATM    8  C8  UNL     1     -31.928   9.108   0.685  1.00 20.00     0.171 C 
HETATM    9  C7  UNL     1     -32.634  10.368   0.227  1.00 20.00     0.034 C 
ENDBRANCH   7   8
ENDBRANCH   6   7
BRANCH   5  10
HETATM   10  O9  UNL     1     -34.056   8.285   4.136  1.00 20.00    -0.358 OA
HETATM   11  H20 UNL     1     -33.638   8.214   5.009  1.00 20.00     0.217 HD
ENDBRANCH   5  10
TORSDOF 3
ENDMDL
MODEL 5
REMARK VINA RESULT:      -0.1      1.415      3.079
REMARK  3 active torsions:
REMARK  status: ('A' for Active; 'I' for Inactive)
REMARK    1  A    between atoms: C5_5  and  O9_9 
REMARK    2  A    between atoms: C6_6  and  O10_10 
REMARK    3  A    between atoms: C8_8  and  O10_10 
ROOT
HETATM    1  C1  UNL     1     -34.248   7.628   4.419  1.00 20.00     0.003 A 
HETATM    2  C2  UNL     1     -34.712   6.351   4.107  1.00 20.00     0.003 A 
HETATM    3  C3  UNL     1     -33.273   8.231   3.625  1.00 20.00     0.039 A 
HETATM    4  C4  UNL     1     -34.199   5.675   2.999  1.00 20.00     0.039 A 
HETATM    5  C5  UNL     1     -32.760   7.554   2.517  1.00 20.00     0.099 A 
HETATM    6  C6  UNL     1     -33.225   6.277   2.205  1.00 20.00     0.101 A 
ENDROOT
BRANCH   6   7
HETATM    7  O10 UNL     1     -32.732   5.606   1.126  1.00 20.00    -0.349 OA
BRANCH   7   8
HETATM    8  C8  UNL     1     -31.554   4.829   1.330  1.00 20.00     0.171 C 
HETATM    9  C7  UNL     1     -31.241   4.064   0.061  1.00 20.00     0.034 C 
ENDBRANCH   7   8
ENDBRANCH   6   7
BRANCH   5  10
HETATM   10  O9  UNL     1     -31.808   8.153   1.750  1.00 20.00    -0.358 OA
HETATM   11  H20 UNL     1     -31.831   9.115   1.876  1.00 20.00     0.217 HD
ENDBRANCH   5  10
TORSDOF 3
ENDMDL
MODEL 6
REMARK VINA RESULT:       0.2      1.623      3.525
REMARK  3 active torsions:
REMARK  status: ('A' for Active; 'I' for Inactive)
REMARK    1  A    between atoms: C5_5  and  O9_9 
REMARK    2  A    between atoms: C6_6  and  O10_10 
REMARK    3  A    between atoms: C8_8  and  O10_10 
ROOT
HETATM    1  C1  UNL     1     -31.948   8.325   1.815  1.00 20.00     0.003 A 
HETATM    2  C2  UNL     1     -32.542   8.456   3.070  1.00 20.00     0.003 A 
HETATM    3  C3  UNL     1     -32.028   7.114   1.128  1.00 20.00     0.039 A 
HETATM    4  C4  UNL     1     -33.218   7.375   3.637  1.00 20.00     0.039 A 
HETATM    5  C5  UNL     1     -32.704   6.033   1.696  1.00 20.00     0.099 A 
HETATM    6  C6  UNL     1     -33.299   6.165   2.951  1.00 20.00     0.101 A 
ENDROOT
BRANCH   6   7
HETATM    7  O10 UNL     1     -33.960   5.117   3.516  1.00 20.00    -0.349 OA
BRANCH   7   8
HETATM    8  C8  UNL     1     -35.102   5.425   4.312  1.00 20.00     0.171 C 
HETATM    9  C7  UNL     1     -35.926   6.480   3.605  1.00 20.00     0.034 C 
ENDBRANCH   7   8
ENDBRANCH   6   7
BRANCH   5  10
HETATM   10  O9  UNL     1     -32.774   4.855   1.016  1.00 20.00    -0.358 OA
HETATM   11  H20 UNL     1     -32.588   5.000   0.074  1.00 20.00     0.217 HD
ENDBRANCH   5  10
TORSDOF 3
ENDMDL
MODEL 7
REMARK VINA RESULT:       0.3      1.244      3.717
REMARK  3 active torsions:
REMARK  status: ('A' for Active; 'I' for Inactive)
REMARK    1  A    between atoms: C5_5  and  O9_9 
REMARK    2  A    between atoms: C6_6  and  O10_10 
REMARK    3  A    between atoms: C8_8  and  O10_10 
ROOT
HETATM    1  C1  UNL     1     -32.064   9.504  -0.064  1.00 20.00     0.003 A 
HETATM    2  C2  UNL     1     -32.706  10.201   0.959  1.00 20.00     0.003 A 
HETATM    3  C3  UNL     1     -31.696   8.171   0.123  1.00 20.00     0.039 A 
HETATM    4  C4  UNL     1     -32.980   9.565   2.170  1.00 20.00     0.039 A 
HETATM    5  C5  UNL     1     -31.970   7.536   1.335  1.00 20.00     0.099 A 
HETATM    6  C6  UNL     1     -32.613   8.233   2.358  1.00 20.00     0.101 A 
ENDROOT
BRANCH   6   7
HETATM    7  O10 UNL     1     -32.885   7.624   3.545  1.00 20.00    -0.349 OA
BRANCH   7   8
HETATM    8  C8  UNL     1     -34.224   7.715   4.028  1.00 20.00     0.171 C 
HETATM    9  C7  UNL     1     -34.913   6.381   3.823  1.00 20.00     0.034 C 
ENDBRANCH   7   8
ENDBRANCH   6   7
BRANCH   5  10
HETATM   10  O9  UNL     1     -31.605   6.235   1.506  1.00 20.00    -0.358 OA
HETATM   11  H20 UNL     1     -30.638   6.153   1.489  1.00 20.00     0.217 HD
ENDBRANCH   5  10
TORSDOF 3
ENDMDL
MODEL 8
REMARK VINA RESULT:       0.6      1.730      2.431
REMARK  3 active torsions:
REMARK  status: ('A' for Active; 'I' for Inactive)
REMARK    1  A    between atoms: C5_5  and  O9_9 
REMARK    2  A    between atoms: C6_6  and  O10_10 
REMARK    3  A    between atoms: C8_8  and  O10_10 
ROOT
HETATM    1  C1  UNL     1     -35.599   5.860   4.637  1.00 20.00     0.003 A 
HETATM    2  C2  UNL     1     -35.183   6.926   3.839  1.00 20.00     0.003 A 
HETATM    3  C3  UNL     1     -34.927   4.639   4.576  1.00 20.00     0.039 A 
HETATM    4  C4  UNL     1     -34.094   6.771   2.981  1.00 20.00     0.039 A 
HETATM    5  C5  UNL     1     -33.838   4.484   3.717  1.00 20.00     0.099 A 
HETATM    6  C6  UNL     1     -33.422   5.551   2.920  1.00 20.00     0.101 A 
ENDROOT
BRANCH   6   7
HETATM    7  O10 UNL     1     -32.361   5.412   2.078  1.00 20.00    -0.349 OA
BRANCH   7   8
HETATM    8  C8  UNL     1     -32.204   6.403   1.065  1.00 20.00     0.171 C 
HETATM    9  C7  UNL     1     -31.604   7.649   1.683  1.00 20.00     0.034 C 
ENDBRANCH   7   8
ENDBRANCH   6   7
BRANCH   5  10
HETATM   10  O9  UNL     1     -33.191   3.287   3.666  1.00 20.00    -0.358 OA
HETATM   11  H20 UNL     1     -33.786   2.572   3.943  1.00 20.00     0.217 HD
ENDBRANCH   5  10
TORSDOF 3
ENDMDL
MODEL 9
REMARK VINA RESULT:       0.7      2.309      3.009
REMARK  3 active torsions:
REMARK  status: ('A' for Active; 'I' for Inactive)
REMARK    1  A    between atoms: C5_5  and  O9_9 
REMARK    2  A    between atoms: C6_6  and  O10_10 
REMARK    3  A    between atoms: C8_8  and  O10_10 
ROOT
HETATM    1  C1  UNL     1     -35.422   6.433   4.472  1.00 20.00     0.003 A 
HETATM    2  C2  UNL     1     -34.627   7.276   3.696  1.00 20.00     0.003 A 
HETATM    3  C3  UNL     1     -35.152   5.065   4.516  1.00 20.00     0.039 A 
HETATM    4  C4  UNL     1     -33.562   6.751   2.964  1.00 20.00     0.039 A 
HETATM    5  C5  UNL     1     -34.086   4.540   3.783  1.00 20.00     0.099 A 
HETATM    6  C6  UNL     1     -33.292   5.384   3.008  1.00 20.00     0.101 A 
ENDROOT
BRANCH   6   7
HETATM    7  O10 UNL     1     -32.249   4.884   2.287  1.00 20.00    -0.349 OA
BRANCH   7   8
HETATM    8  C8  UNL     1     -32.147   5.294   0.926  1.00 20.00     0.171 C 
HETATM    9  C7  UNL     1     -33.223   4.599   0.119  1.00 20.00     0.034 C 
ENDBRANCH   7   8
ENDBRANCH   6   7
BRANCH   5  10
HETATM   10  O9  UNL     1     -33.834   3.203   3.834  1.00 20.00    -0.358 OA
HETATM   11  H20 UNL     1     -34.345   2.739   3.152  1.00 20.00     0.217 HD
ENDBRANCH   5  10
TORSDOF 3
ENDMDL
