MODEL 1
REMARK VINA RESULT:      -2.9      0.000      0.000
REMARK  1 active torsions:
REMARK  status: ('A' for Active; 'I' for Inactive)
REMARK    1  A    between atoms: C6_6  and  C9_9 
ROOT
HETATM    1  C1  UNL     1     -34.638   6.159   3.908  1.00 20.00     0.001 A 
HETATM    2  C2  UNL     1     -34.332   7.497   4.157  1.00 20.00     0.001 A 
HETATM    3  C3  UNL     1     -33.981   5.471   2.887  1.00 20.00     0.007 A 
HETATM    4  C4  UNL     1     -33.369   8.147   3.385  1.00 20.00     0.007 A 
HETATM    5  C5  UNL     1     -33.019   6.121   2.116  1.00 20.00    -0.056 A 
HETATM    6  C6  UNL     1     -32.712   7.460   2.364  1.00 20.00    -0.053 A 
HETATM    7  C7  UNL     1     -32.328   5.366   1.029  1.00 20.00     0.049 C 
ENDROOT
BRANCH   6   8
HETATM    8  C9  UNL     1     -31.686   8.178   1.551  1.00 20.00     0.034 C 
HETATM    9  C8  UNL     1     -32.292   9.298   0.713  1.00 20.00     0.010 C 
ENDBRANCH   6   8
TORSDOF 1
ENDMDL
MODEL 2
REMARK VINA RESULT:      -2.6      1.020      4.022
REMARK  1 active torsions:
REMARK  status: ('A' for Active; 'I' for Inactive)
REMARK    1  A    between atoms: C6_6  and  C9_9 
ROOT
HETATM    1  C1  UNL     1     -31.943   7.639   1.552  1.00 20.00     0.001 A 
HETATM    2  C2  UNL     1     -32.240   6.327   1.181  1.00 20.00     0.001 A 
HETATM    3  C3  UNL     1     -32.511   8.183   2.705  1.00 20.00     0.007 A 
HETATM    4  C4  UNL     1     -33.104   5.560   1.961  1.00 20.00     0.007 A 
HETATM    5  C5  UNL     1     -33.375   7.416   3.485  1.00 20.00    -0.056 A 
HETATM    6  C6  UNL     1     -33.672   6.104   3.113  1.00 20.00    -0.053 A 
HETATM    7  C7  UNL     1     -33.970   8.018   4.714  1.00 20.00     0.049 C 
ENDROOT
BRANCH   6   8
HETATM    8  C9  UNL     1     -34.595   5.263   3.933  1.00 20.00     0.034 C 
HETATM    9  C8  UNL     1     -33.977   3.918   4.301  1.00 20.00     0.010 C 
ENDBRANCH   6   8
TORSDOF 1
ENDMDL
MODEL 3
REMARK VINA RESULT:      -1.7      0.543      2.662
REMARK  1 active torsions:
REMARK  status: ('A' for Active; 'I' for Inactive)
REMARK    1  A    between atoms: C6_6  and  C9_9 
ROOT
HETATM    1  C1  UNL     1     -34.514   7.327   4.222  1.00 20.00     0.001 A 
HETATM    2  C2  UNL     1     -34.681   5.964   3.980  1.00 20.00     0.001 A 
HETATM    3  C3  UNL     1     -33.591   8.061   3.474  1.00 20.00     0.007 A 
HETATM    4  C4  UNL     1     -33.925   5.333   2.992  1.00 20.00     0.007 A 
HETATM    5  C5  UNL     1     -32.836   7.430   2.487  1.00 20.00    -0.056 A 
HETATM    6  C6  UNL     1     -33.002   6.066   2.245  1.00 20.00    -0.053 A 
HETATM    7  C7  UNL     1     -31.855   8.234   1.699  1.00 20.00     0.049 C 
ENDROOT
BRANCH   6   8
HETATM    8  C9  UNL     1     -32.204   5.368   1.193  1.00 20.00     0.034 C 
HETATM    9  C8  UNL     1     -33.085   4.585   0.224  1.00 20.00     0.010 C 
ENDBRANCH   6   8
TORSDOF 1
ENDMDL
MODEL 4
REMARK VINA RESULT:      -1.5      1.052      3.287
REMARK  1 active torsions:
REMARK  status: ('A' for Active; 'I' for Inactive)
REMARK    1  A    between atoms: C6_6  and  C9_9 
ROOT
HETATM    1  C1  UNL     1     -32.920   8.362   2.889  1.00 20.00     0.001 A 
HETATM    2  C2  UNL     1     -33.793   8.009   3.919  1.00 20.00     0.001 A 
HETATM    3  C3  UNL     1     -32.461   7.389   2.000  1.00 20.00     0.007 A 
HETATM    4  C4  UNL     1     -34.206   6.685   4.060  1.00 20.00     0.007 A 
HETATM    5  C5  UNL     1     -32.874   6.066   2.141  1.00 20.00    -0.056 A 
HETATM    6  C6  UNL     1     -33.747   5.713   3.171  1.00 20.00    -0.053 A 
HETATM    7  C7  UNL     1     -32.371   5.042   1.178  1.00 20.00     0.049 C 
ENDROOT
BRANCH   6   8
HETATM    8  C9  UNL     1     -34.203   4.301   3.343  1.00 20.00     0.034 C 
HETATM    9  C8  UNL     1     -33.497   3.602   4.499  1.00 20.00     0.010 C 
ENDBRANCH   6   8
TORSDOF 1
ENDMDL
MODEL 5
REMARK VINA RESULT:      -1.4      0.970      3.170
REMARK  1 active torsions:
REMARK  status: ('A' for Active; 'I' for Inactive)
REMARK    1  A    between atoms: C6_6  and  C9_9 
ROOT
HETATM    1  C1  UNL     1     -32.015   8.444   2.097  1.00 20.00     0.001 A 
HETATM    2  C2  UNL     1     -32.802   8.541   3.244  1.00 20.00     0.001 A 
HETATM    3  C3  UNL     1     -31.960   7.243   1.388  1.00 20.00     0.007 A 
HETATM    4  C4  UNL     1     -33.534   7.439   3.684  1.00 20.00     0.007 A 
HETATM    5  C5  UNL     1     -32.692   6.141   1.827  1.00 20.00    -0.056 A 
HETATM    6  C6  UNL     1     -33.479   6.238   2.976  1.00 20.00    -0.053 A 
HETATM    7  C7  UNL     1     -32.619   4.866   1.053  1.00 20.00     0.049 C 
ENDROOT
BRANCH   6   8
HETATM    8  C9  UNL     1     -34.271   5.070   3.466  1.00 20.00     0.034 C 
HETATM    9  C8  UNL     1     -35.406   5.491   4.394  1.00 20.00     0.010 C 
ENDBRANCH   6   8
TORSDOF 1
ENDMDL
MODEL 6
REMARK VINA RESULT:      -1.3      0.983      3.070
REMARK  1 active torsions:
REMARK  status: ('A' for Active; 'I' for Inactive)
REMARK    1  A    between atoms: C6_6  and  C9_9 
ROOT
HETATM    1  C1  UNL     1     -31.988   6.283   1.043  1.00 20.00     0.001 A 
HETATM    2  C2  UNL     1     -31.863   7.621   1.416  1.00 20.00     0.001 A 
HETATM    3  C3  UNL     1     -32.815   5.429   1.774  1.00 20.00     0.007 A 
HETATM    4  C4  UNL     1     -32.564   8.106   2.519  1.00 20.00     0.007 A 
HETATM    5  C5  UNL     1     -33.516   5.914   2.878  1.00 20.00    -0.056 A 
HETATM    6  C6  UNL     1     -33.391   7.253   3.251  1.00 20.00    -0.053 A 
HETATM    7  C7  UNL     1     -34.396   4.983   3.645  1.00 20.00     0.049 C 
ENDROOT
BRANCH   6   8
HETATM    8  C9  UNL     1     -34.131   7.795   4.429  1.00 20.00     0.034 C 
HETATM    9  C8  UNL     1     -33.197   8.420   5.461  1.00 20.00     0.010 C 
ENDBRANCH   6   8
TORSDOF 1
ENDMDL
MODEL 7
REMARK VINA RESULT:      -1.3      0.794      2.442
REMARK  1 active torsions:
REMARK  status: ('A' for Active; 'I' for Inactive)
REMARK    1  A    between atoms: C6_6  and  C9_9 
ROOT
HETATM    1  C1  UNL     1     -33.509   4.917   2.450  1.00 20.00     0.001 A 
HETATM    2  C2  UNL     1     -32.644   5.239   1.404  1.00 20.00     0.001 A 
HETATM    3  C3  UNL     1     -33.910   5.903   3.352  1.00 20.00     0.007 A 
HETATM    4  C4  UNL     1     -32.180   6.546   1.259  1.00 20.00     0.007 A 
HETATM    5  C5  UNL     1     -33.447   7.210   3.207  1.00 20.00    -0.056 A 
HETATM    6  C6  UNL     1     -32.581   7.532   2.161  1.00 20.00    -0.053 A 
HETATM    7  C7  UNL     1     -33.890   8.249   4.183  1.00 20.00     0.049 C 
ENDROOT
BRANCH   6   8
HETATM    8  C9  UNL     1     -32.071   8.925   1.986  1.00 20.00     0.034 C 
HETATM    9  C8  UNL     1     -32.346   9.470   0.588  1.00 20.00     0.010 C 
ENDBRANCH   6   8
TORSDOF 1
ENDMDL
MODEL 8
REMARK VINA RESULT:      -0.6      1.086      3.061
REMARK  1 active torsions:
REMARK  status: ('A' for Active; 'I' for Inactive)
REMARK    1  A    between atoms: C6_6  and  C9_9 
ROOT
HETATM    1  C1  UNL     1     -32.372   8.702   3.752  1.00 20.00     0.001 A 
HETATM    2  C2  UNL     1     -31.657   8.439   2.583  1.00 20.00     0.001 A 
HETATM    3  C3  UNL     1     -33.433   7.875   4.122  1.00 20.00     0.007 A 
HETATM    4  C4  UNL     1     -32.003   7.349   1.785  1.00 20.00     0.007 A 
HETATM    5  C5  UNL     1     -33.778   6.785   3.324  1.00 20.00    -0.056 A 
HETATM    6  C6  UNL     1     -33.063   6.522   2.155  1.00 20.00    -0.053 A 
HETATM    7  C7  UNL     1     -34.916   5.912   3.740  1.00 20.00     0.049 C 
ENDROOT
BRANCH   6   8
HETATM    8  C9  UNL     1     -33.415   5.361   1.283  1.00 20.00     0.034 C 
HETATM    9  C8  UNL     1     -32.190   4.754   0.607  1.00 20.00     0.010 C 
ENDBRANCH   6   8
TORSDOF 1
ENDMDL
MODEL 9
REMARK VINA RESULT:      -0.3      1.791      2.609
REMARK  1 active torsions:
REMARK  status: ('A' for Active; 'I' for Inactive)
REMARK    1  A    between atoms: C6_6  and  C9_9 
ROOT
HETATM    1  C1  UNL     1     -35.484   6.273   4.377  1.00 20.00     0.001 A 
HETATM    2  C2  UNL     1     -34.821   7.142   3.510  1.00 20.00     0.001 A 
HETATM    3  C3  UNL     1     -35.026   4.965   4.539  1.00 20.00     0.007 A 
HETATM    4  C4  UNL     1     -33.701   6.703   2.804  1.00 20.00     0.007 A 
HETATM    5  C5  UNL     1     -33.906   4.526   3.833  1.00 20.00    -0.056 A 
HETATM    6  C6  UNL     1     -33.243   5.395   2.965  1.00 20.00    -0.053 A 
HETATM    7  C7  UNL     1     -33.433   3.123   4.022  1.00 20.00     0.049 C 
ENDROOT
BRANCH   6   8
HETATM    8  C9  UNL     1     -32.042   4.948   2.198  1.00 20.00     0.034 C 
HETATM    9  C8  UNL     1     -32.108   5.358   0.731  1.00 20.00     0.010 C 
ENDBRANCH   6   8
TORSDOF 1
ENDMDL
