MODEL 1
REMARK VINA RESULT:      -1.4      0.000      0.000
REMARK  0 active torsions:
REMARK  status: ('A' for Active; 'I' for Inactive)
ROOT
HETATM    1  C1  UNL     1     -32.490   5.545   1.533  1.00 20.00     0.021 C 
HETATM    2  C2  UNL     1     -31.926   7.975   1.874  1.00 20.00     0.021 C 
HETATM    3  C3  UNL     1     -33.047   6.943   1.789  1.00 20.00     0.045 C 
HETATM    4  I4  UNL     1     -34.180   6.948   3.626  1.00 20.00    -0.086 I 
ENDROOT
TORSDOF 0
ENDMDL
MODEL 2
REMARK VINA RESULT:      -1.2      0.486      1.845
REMARK  0 active torsions:
REMARK  status: ('A' for Active; 'I' for Inactive)
ROOT
HETATM    1  C1  UNL     1     -32.161   8.179   1.627  1.00 20.00     0.021 C 
HETATM    2  C2  UNL     1     -32.734   5.755   1.258  1.00 20.00     0.021 C 
HETATM    3  C3  UNL     1     -32.477   6.844   2.296  1.00 20.00     0.045 C 
HETATM    4  I4  UNL     1     -34.208   7.060   3.567  1.00 20.00    -0.086 I 
ENDROOT
TORSDOF 0
ENDMDL
MODEL 3
REMARK VINA RESULT:      -1.0      2.682      3.321
REMARK  0 active torsions:
REMARK  status: ('A' for Active; 'I' for Inactive)
ROOT
HETATM    1  C1  UNL     1     -33.496   7.928   4.736  1.00 20.00     0.021 C 
HETATM    2  C2  UNL     1     -35.149   6.173   4.012  1.00 20.00     0.021 C 
HETATM    3  C3  UNL     1     -34.240   7.310   3.555  1.00 20.00     0.045 C 
HETATM    4  I4  UNL     1     -32.820   6.570   2.108  1.00 20.00    -0.086 I 
ENDROOT
TORSDOF 0
ENDMDL
MODEL 4
REMARK VINA RESULT:      -0.8      2.625      2.858
REMARK  0 active torsions:
REMARK  status: ('A' for Active; 'I' for Inactive)
ROOT
HETATM    1  C1  UNL     1     -35.418   6.141   3.794  1.00 20.00     0.021 C 
HETATM    2  C2  UNL     1     -33.787   8.027   4.140  1.00 20.00     0.021 C 
HETATM    3  C3  UNL     1     -33.946   6.545   3.816  1.00 20.00     0.045 C 
HETATM    4  I4  UNL     1     -33.046   6.117   1.902  1.00 20.00    -0.086 I 
ENDROOT
TORSDOF 0
ENDMDL
MODEL 5
REMARK VINA RESULT:      -0.7      1.894      2.426
REMARK  0 active torsions:
REMARK  status: ('A' for Active; 'I' for Inactive)
ROOT
HETATM    1  C1  UNL     1     -33.807   6.396   3.231  1.00 20.00     0.021 C 
HETATM    2  C2  UNL     1     -32.416   5.281   1.453  1.00 20.00     0.021 C 
HETATM    3  C3  UNL     1     -33.210   6.528   1.833  1.00 20.00     0.045 C 
HETATM    4  I4  UNL     1     -31.924   8.260   1.753  1.00 20.00    -0.086 I 
ENDROOT
TORSDOF 0
ENDMDL
MODEL 6
REMARK VINA RESULT:      -0.6      2.384      2.470
REMARK  0 active torsions:
REMARK  status: ('A' for Active; 'I' for Inactive)
ROOT
HETATM    1  C1  UNL     1     -32.336   6.418   1.281  1.00 20.00     0.021 C 
HETATM    2  C2  UNL     1     -32.934   8.017   3.131  1.00 20.00     0.021 C 
HETATM    3  C3  UNL     1     -32.028   7.765   1.930  1.00 20.00     0.045 C 
HETATM    4  I4  UNL     1     -32.283   9.345   0.482  1.00 20.00    -0.086 I 
ENDROOT
TORSDOF 0
ENDMDL
MODEL 7
REMARK VINA RESULT:      -0.5      2.038      2.301
REMARK  0 active torsions:
REMARK  status: ('A' for Active; 'I' for Inactive)
ROOT
HETATM    1  C1  UNL     1     -33.418   7.744   3.282  1.00 20.00     0.021 C 
HETATM    2  C2  UNL     1     -32.257   8.721   1.273  1.00 20.00     0.021 C 
HETATM    3  C3  UNL     1     -32.269   7.584   2.291  1.00 20.00     0.045 C 
HETATM    4  I4  UNL     1     -32.452   5.693   1.266  1.00 20.00    -0.086 I 
ENDROOT
TORSDOF 0
ENDMDL
MODEL 8
REMARK VINA RESULT:      -0.5      1.957      2.218
REMARK  0 active torsions:
REMARK  status: ('A' for Active; 'I' for Inactive)
ROOT
HETATM    1  C1  UNL     1     -33.109   5.569   1.485  1.00 20.00     0.021 C 
HETATM    2  C2  UNL     1     -34.075   6.950   3.354  1.00 20.00     0.021 C 
HETATM    3  C3  UNL     1     -32.814   6.602   2.569  1.00 20.00     0.045 C 
HETATM    4  I4  UNL     1     -32.002   8.388   1.669  1.00 20.00    -0.086 I 
ENDROOT
TORSDOF 0
ENDMDL
MODEL 9
REMARK VINA RESULT:      -0.5      2.072      2.302
REMARK  0 active torsions:
REMARK  status: ('A' for Active; 'I' for Inactive)
ROOT
HETATM    1  C1  UNL     1     -32.995   6.338   2.078  1.00 20.00     0.021 C 
HETATM    2  C2  UNL     1     -34.087   7.423   4.070  1.00 20.00     0.021 C 
HETATM    3  C3  UNL     1     -34.134   6.255   3.090  1.00 20.00     0.045 C 
HETATM    4  I4  UNL     1     -34.009   4.392   4.173  1.00 20.00    -0.086 I 
ENDROOT
TORSDOF 0
ENDMDL
