MODEL 1
REMARK VINA RESULT:      -1.2      0.000      0.000
REMARK  0 active torsions:
REMARK  status: ('A' for Active; 'I' for Inactive)
ROOT
HETATM    1  C1  UNL     1     -34.710   5.636   4.031  1.00 20.00     0.001 A 
HETATM    2  C2  UNL     1     -34.672   7.008   4.286  1.00 20.00     0.001 A 
HETATM    3  C3  UNL     1     -33.923   5.093   3.015  1.00 20.00     0.008 A 
HETATM    4  C4  UNL     1     -33.847   7.835   3.525  1.00 20.00     0.019 A 
HETATM    5  C5  UNL     1     -33.098   5.922   2.253  1.00 20.00    -0.045 A 
HETATM    6  C6  UNL     1     -33.060   7.293   2.508  1.00 20.00     0.012 A 
HETATM    7  C7  UNL     1     -32.278   5.285   1.178  1.00 20.00     0.049 C 
HETATM    8  I8  UNL     1     -31.845   8.590   1.405  1.00 20.00    -0.044 I 
ENDROOT
TORSDOF 0
ENDMDL
MODEL 2
REMARK VINA RESULT:      -0.9      1.478      2.404
REMARK  0 active torsions:
REMARK  status: ('A' for Active; 'I' for Inactive)
ROOT
HETATM    1  C1  UNL     1     -34.510   7.428   4.252  1.00 20.00     0.001 A 
HETATM    2  C2  UNL     1     -34.769   6.073   4.044  1.00 20.00     0.001 A 
HETATM    3  C3  UNL     1     -33.550   8.081   3.480  1.00 20.00     0.008 A 
HETATM    4  C4  UNL     1     -34.068   5.372   3.064  1.00 20.00     0.019 A 
HETATM    5  C5  UNL     1     -32.848   7.380   2.499  1.00 20.00    -0.045 A 
HETATM    6  C6  UNL     1     -33.107   6.024   2.291  1.00 20.00     0.012 A 
HETATM    7  C7  UNL     1     -31.830   8.131   1.702  1.00 20.00     0.049 C 
HETATM    8  I8  UNL     1     -32.091   4.914   0.838  1.00 20.00    -0.044 I 
ENDROOT
TORSDOF 0
ENDMDL
MODEL 3
REMARK VINA RESULT:      -0.7      2.211      3.779
REMARK  0 active torsions:
REMARK  status: ('A' for Active; 'I' for Inactive)
ROOT
HETATM    1  C1  UNL     1     -31.793   7.661   1.514  1.00 20.00     0.001 A 
HETATM    2  C2  UNL     1     -32.229   6.386   1.149  1.00 20.00     0.001 A 
HETATM    3  C3  UNL     1     -32.278   8.258   2.677  1.00 20.00     0.008 A 
HETATM    4  C4  UNL     1     -33.149   5.710   1.949  1.00 20.00     0.019 A 
HETATM    5  C5  UNL     1     -33.199   7.581   3.477  1.00 20.00    -0.045 A 
HETATM    6  C6  UNL     1     -33.635   6.307   3.113  1.00 20.00     0.012 A 
HETATM    7  C7  UNL     1     -33.685   8.270   4.711  1.00 20.00     0.049 C 
HETATM    8  I8  UNL     1     -35.013   5.237   4.267  1.00 20.00    -0.044 I 
ENDROOT
TORSDOF 0
ENDMDL
MODEL 4
REMARK VINA RESULT:       0.0      1.074      2.549
REMARK  0 active torsions:
REMARK  status: ('A' for Active; 'I' for Inactive)
ROOT
HETATM    1  C1  UNL     1     -34.990   4.773   4.425  1.00 20.00     0.001 A 
HETATM    2  C2  UNL     1     -33.992   4.208   3.629  1.00 20.00     0.001 A 
HETATM    3  C3  UNL     1     -35.158   6.157   4.456  1.00 20.00     0.008 A 
HETATM    4  C4  UNL     1     -33.164   5.029   2.864  1.00 20.00     0.019 A 
HETATM    5  C5  UNL     1     -34.330   6.978   3.690  1.00 20.00    -0.045 A 
HETATM    6  C6  UNL     1     -33.332   6.413   2.894  1.00 20.00     0.012 A 
HETATM    7  C7  UNL     1     -34.556   8.453   3.763  1.00 20.00     0.049 C 
HETATM    8  I8  UNL     1     -32.056   7.586   1.722  1.00 20.00    -0.044 I 
ENDROOT
TORSDOF 0
ENDMDL
MODEL 5
REMARK VINA RESULT:       0.2      2.187      2.988
REMARK  0 active torsions:
REMARK  status: ('A' for Active; 'I' for Inactive)
ROOT
HETATM    1  C1  UNL     1     -31.622   8.297   1.869  1.00 20.00     0.001 A 
HETATM    2  C2  UNL     1     -32.235   8.691   3.059  1.00 20.00     0.001 A 
HETATM    3  C3  UNL     1     -31.959   7.079   1.280  1.00 20.00     0.008 A 
HETATM    4  C4  UNL     1     -33.185   7.864   3.660  1.00 20.00     0.019 A 
HETATM    5  C5  UNL     1     -32.909   6.252   1.881  1.00 20.00    -0.045 A 
HETATM    6  C6  UNL     1     -33.522   6.645   3.072  1.00 20.00     0.012 A 
HETATM    7  C7  UNL     1     -33.229   4.958   1.205  1.00 20.00     0.049 C 
HETATM    8  I8  UNL     1     -34.953   5.455   4.025  1.00 20.00    -0.044 I 
ENDROOT
TORSDOF 0
ENDMDL
MODEL 6
REMARK VINA RESULT:       0.6      1.608      2.491
REMARK  0 active torsions:
REMARK  status: ('A' for Active; 'I' for Inactive)
ROOT
HETATM    1  C1  UNL     1     -33.878   8.123   3.927  1.00 20.00     0.001 A 
HETATM    2  C2  UNL     1     -33.030   8.481   2.878  1.00 20.00     0.001 A 
HETATM    3  C3  UNL     1     -34.226   6.786   4.118  1.00 20.00     0.008 A 
HETATM    4  C4  UNL     1     -32.530   7.501   2.021  1.00 20.00     0.019 A 
HETATM    5  C5  UNL     1     -33.725   5.806   3.261  1.00 20.00    -0.045 A 
HETATM    6  C6  UNL     1     -32.877   6.163   2.212  1.00 20.00     0.012 A 
HETATM    7  C7  UNL     1     -34.132   4.390   3.514  1.00 20.00     0.049 C 
HETATM    8  I8  UNL     1     -32.092   4.744   0.891  1.00 20.00    -0.044 I 
ENDROOT
TORSDOF 0
ENDMDL
MODEL 7
REMARK VINA RESULT:       0.6      1.701      2.926
REMARK  0 active torsions:
REMARK  status: ('A' for Active; 'I' for Inactive)
ROOT
HETATM    1  C1  UNL     1     -32.566   5.906   1.044  1.00 20.00     0.001 A 
HETATM    2  C2  UNL     1     -31.923   7.118   1.300  1.00 20.00     0.001 A 
HETATM    3  C3  UNL     1     -33.503   5.408   1.949  1.00 20.00     0.008 A 
HETATM    4  C4  UNL     1     -32.218   7.831   2.462  1.00 20.00     0.019 A 
HETATM    5  C5  UNL     1     -33.798   6.121   3.111  1.00 20.00    -0.045 A 
HETATM    6  C6  UNL     1     -33.155   7.333   3.368  1.00 20.00     0.012 A 
HETATM    7  C7  UNL     1     -34.810   5.539   4.044  1.00 20.00     0.049 C 
HETATM    8  I8  UNL     1     -33.551   8.453   5.090  1.00 20.00    -0.044 I 
ENDROOT
TORSDOF 0
ENDMDL
MODEL 8
REMARK VINA RESULT:       0.9      2.190      2.749
REMARK  0 active torsions:
REMARK  status: ('A' for Active; 'I' for Inactive)
ROOT
HETATM    1  C1  UNL     1     -33.520   8.154   2.506  1.00 20.00     0.001 A 
HETATM    2  C2  UNL     1     -34.166   7.776   3.683  1.00 20.00     0.001 A 
HETATM    3  C3  UNL     1     -32.851   7.200   1.740  1.00 20.00     0.008 A 
HETATM    4  C4  UNL     1     -34.143   6.444   4.094  1.00 20.00     0.019 A 
HETATM    5  C5  UNL     1     -32.826   5.867   2.152  1.00 20.00    -0.045 A 
HETATM    6  C6  UNL     1     -33.473   5.489   3.329  1.00 20.00     0.012 A 
HETATM    7  C7  UNL     1     -32.093   4.888   1.292  1.00 20.00     0.049 C 
HETATM    8  I8  UNL     1     -33.476   3.508   4.003  1.00 20.00    -0.044 I 
ENDROOT
TORSDOF 0
ENDMDL
MODEL 9
REMARK VINA RESULT:       1.7      1.700      2.972
REMARK  0 active torsions:
REMARK  status: ('A' for Active; 'I' for Inactive)
ROOT
HETATM    1  C1  UNL     1     -32.433   5.060   1.050  1.00 20.00     0.001 A 
HETATM    2  C2  UNL     1     -33.238   4.641   2.110  1.00 20.00     0.001 A 
HETATM    3  C3  UNL     1     -32.021   6.389   0.970  1.00 20.00     0.008 A 
HETATM    4  C4  UNL     1     -33.630   5.554   3.090  1.00 20.00     0.019 A 
HETATM    5  C5  UNL     1     -32.413   7.302   1.950  1.00 20.00    -0.045 A 
HETATM    6  C6  UNL     1     -33.218   6.884   3.010  1.00 20.00     0.012 A 
HETATM    7  C7  UNL     1     -31.941   8.714   1.812  1.00 20.00     0.049 C 
HETATM    8  I8  UNL     1     -33.841   8.200   4.512  1.00 20.00    -0.044 I 
ENDROOT
TORSDOF 0
ENDMDL
