MODEL 1
REMARK VINA RESULT:      -1.3      0.000      0.000
REMARK  0 active torsions:
REMARK  status: ('A' for Active; 'I' for Inactive)
ROOT
HETATM    1  C1  UNL     1     -34.557   4.487   4.091  1.00 20.00     0.001 A 
HETATM    2  C2  UNL     1     -35.187   5.650   4.541  1.00 20.00     0.003 A 
HETATM    3  C3  UNL     1     -33.528   4.543   3.142  1.00 20.00     0.014 A 
HETATM    4  C4  UNL     1     -34.814   6.909   4.061  1.00 20.00     0.038 A 
HETATM    5  C5  UNL     1     -32.173   6.269   1.714  1.00 20.00     0.046 A 
HETATM    6  C6  UNL     1     -33.135   5.799   2.646  1.00 20.00     0.000 A 
HETATM    7  C7  UNL     1     -33.788   6.934   3.119  1.00 20.00     0.086 A 
HETATM    8  C8  UNL     1     -32.300   7.638   1.681  1.00 20.00     0.050 A 
HETATM    9  C9  UNL     1     -31.604   8.691   0.929  1.00 20.00     0.077 C 
HETATM   10  O10 UNL     1     -33.277   8.051   2.530  1.00 20.00    -0.315 OA
ENDROOT
TORSDOF 0
ENDMDL
MODEL 2
REMARK VINA RESULT:      -0.9      1.297      4.135
REMARK  0 active torsions:
REMARK  status: ('A' for Active; 'I' for Inactive)
ROOT
HETATM    1  C1  UNL     1     -31.716   8.330   1.508  1.00 20.00     0.001 A 
HETATM    2  C2  UNL     1     -31.558   7.071   0.925  1.00 20.00     0.003 A 
HETATM    3  C3  UNL     1     -32.609   8.529   2.570  1.00 20.00     0.014 A 
HETATM    4  C4  UNL     1     -32.284   5.965   1.378  1.00 20.00     0.038 A 
HETATM    5  C5  UNL     1     -34.318   7.219   4.058  1.00 20.00     0.046 A 
HETATM    6  C6  UNL     1     -33.349   7.430   3.043  1.00 20.00     0.000 A 
HETATM    7  C7  UNL     1     -33.163   6.192   2.434  1.00 20.00     0.086 A 
HETATM    8  C8  UNL     1     -34.654   5.886   4.004  1.00 20.00     0.050 A 
HETATM    9  C9  UNL     1     -35.586   5.055   4.777  1.00 20.00     0.077 C 
HETATM   10  O10 UNL     1     -33.959   5.255   3.021  1.00 20.00    -0.315 OA
ENDROOT
TORSDOF 0
ENDMDL
MODEL 3
REMARK VINA RESULT:      -0.8      0.819      1.857
REMARK  0 active torsions:
REMARK  status: ('A' for Active; 'I' for Inactive)
ROOT
HETATM    1  C1  UNL     1     -35.082   5.212   4.470  1.00 20.00     0.001 A 
HETATM    2  C2  UNL     1     -34.263   4.248   3.878  1.00 20.00     0.003 A 
HETATM    3  C3  UNL     1     -34.936   6.572   4.164  1.00 20.00     0.014 A 
HETATM    4  C4  UNL     1     -33.269   4.604   2.960  1.00 20.00     0.038 A 
HETATM    5  C5  UNL     1     -33.492   8.177   2.685  1.00 20.00     0.046 A 
HETATM    6  C6  UNL     1     -33.944   6.953   3.243  1.00 20.00     0.000 A 
HETATM    7  C7  UNL     1     -33.148   5.962   2.676  1.00 20.00     0.086 A 
HETATM    8  C8  UNL     1     -32.466   7.858   1.827  1.00 20.00     0.050 A 
HETATM    9  C9  UNL     1     -31.597   8.664   0.958  1.00 20.00     0.077 C 
HETATM   10  O10 UNL     1     -32.249   6.516   1.814  1.00 20.00    -0.315 OA
ENDROOT
TORSDOF 0
ENDMDL
MODEL 4
REMARK VINA RESULT:      -0.0      1.023      3.728
REMARK  0 active torsions:
REMARK  status: ('A' for Active; 'I' for Inactive)
ROOT
HETATM    1  C1  UNL     1     -31.463   7.318   0.992  1.00 20.00     0.001 A 
HETATM    2  C2  UNL     1     -31.789   8.476   1.701  1.00 20.00     0.003 A 
HETATM    3  C3  UNL     1     -32.078   6.093   1.285  1.00 20.00     0.014 A 
HETATM    4  C4  UNL     1     -32.739   8.455   2.727  1.00 20.00     0.038 A 
HETATM    5  C5  UNL     1     -33.858   5.047   2.894  1.00 20.00     0.046 A 
HETATM    6  C6  UNL     1     -33.038   6.049   2.312  1.00 20.00     0.000 A 
HETATM    7  C7  UNL     1     -33.334   7.224   2.995  1.00 20.00     0.086 A 
HETATM    8  C8  UNL     1     -34.591   5.668   3.878  1.00 20.00     0.050 A 
HETATM    9  C9  UNL     1     -35.603   5.189   4.829  1.00 20.00     0.077 C 
HETATM   10  O10 UNL     1     -34.280   6.990   3.948  1.00 20.00    -0.315 OA
ENDROOT
TORSDOF 0
ENDMDL
MODEL 5
REMARK VINA RESULT:       0.2      1.577      2.598
REMARK  0 active torsions:
REMARK  status: ('A' for Active; 'I' for Inactive)
ROOT
HETATM    1  C1  UNL     1     -34.222   8.014   4.169  1.00 20.00     0.001 A 
HETATM    2  C2  UNL     1     -34.903   6.812   4.376  1.00 20.00     0.003 A 
HETATM    3  C3  UNL     1     -33.188   8.106   3.226  1.00 20.00     0.014 A 
HETATM    4  C4  UNL     1     -34.578   5.660   3.653  1.00 20.00     0.038 A 
HETATM    5  C5  UNL     1     -31.898   6.647   1.478  1.00 20.00     0.046 A 
HETATM    6  C6  UNL     1     -32.846   6.960   2.487  1.00 20.00     0.000 A 
HETATM    7  C7  UNL     1     -33.548   5.782   2.724  1.00 20.00     0.086 A 
HETATM    8  C8  UNL     1     -32.082   5.319   1.170  1.00 20.00     0.050 A 
HETATM    9  C9  UNL     1     -31.426   4.410   0.221  1.00 20.00     0.077 C 
HETATM   10  O10 UNL     1     -33.081   4.785   1.921  1.00 20.00    -0.315 OA
ENDROOT
TORSDOF 0
ENDMDL
MODEL 6
REMARK VINA RESULT:       0.7      1.660      4.053
REMARK  0 active torsions:
REMARK  status: ('A' for Active; 'I' for Inactive)
ROOT
HETATM    1  C1  UNL     1     -33.965   8.118   2.906  1.00 20.00     0.001 A 
HETATM    2  C2  UNL     1     -32.994   7.686   2.000  1.00 20.00     0.003 A 
HETATM    3  C3  UNL     1     -34.533   7.235   3.834  1.00 20.00     0.014 A 
HETATM    4  C4  UNL     1     -32.555   6.358   1.986  1.00 20.00     0.038 A 
HETATM    5  C5  UNL     1     -34.418   4.731   4.588  1.00 20.00     0.046 A 
HETATM    6  C6  UNL     1     -34.105   5.895   3.838  1.00 20.00     0.000 A 
HETATM    7  C7  UNL     1     -33.136   5.504   2.919  1.00 20.00     0.086 A 
HETATM    8  C8  UNL     1     -33.631   3.721   4.084  1.00 20.00     0.050 A 
HETATM    9  C9  UNL     1     -33.485   2.300   4.424  1.00 20.00     0.077 C 
HETATM   10  O10 UNL     1     -32.850   4.180   3.071  1.00 20.00    -0.315 OA
ENDROOT
TORSDOF 0
ENDMDL
MODEL 7
REMARK VINA RESULT:       0.9      1.523      2.613
REMARK  0 active torsions:
REMARK  status: ('A' for Active; 'I' for Inactive)
ROOT
HETATM    1  C1  UNL     1     -34.553   7.445   4.294  1.00 20.00     0.001 A 
HETATM    2  C2  UNL     1     -33.593   8.395   3.938  1.00 20.00     0.003 A 
HETATM    3  C3  UNL     1     -34.570   6.176   3.699  1.00 20.00     0.014 A 
HETATM    4  C4  UNL     1     -32.616   8.116   2.977  1.00 20.00     0.038 A 
HETATM    5  C5  UNL     1     -33.281   4.748   1.925  1.00 20.00     0.046 A 
HETATM    6  C6  UNL     1     -33.596   5.873   2.731  1.00 20.00     0.000 A 
HETATM    7  C7  UNL     1     -32.658   6.847   2.404  1.00 20.00     0.086 A 
HETATM    8  C8  UNL     1     -32.187   5.104   1.171  1.00 20.00     0.050 A 
HETATM    9  C9  UNL     1     -31.392   4.395   0.159  1.00 20.00     0.077 C 
HETATM   10  O10 UNL     1     -31.801   6.376   1.454  1.00 20.00    -0.315 OA
ENDROOT
TORSDOF 0
ENDMDL
MODEL 8
REMARK VINA RESULT:       1.4      1.937      3.825
REMARK  0 active torsions:
REMARK  status: ('A' for Active; 'I' for Inactive)
ROOT
HETATM    1  C1  UNL     1     -33.691   7.518   2.555  1.00 20.00     0.001 A 
HETATM    2  C2  UNL     1     -34.768   7.514   3.445  1.00 20.00     0.003 A 
HETATM    3  C3  UNL     1     -32.892   6.380   2.382  1.00 20.00     0.014 A 
HETATM    4  C4  UNL     1     -35.086   6.377   4.194  1.00 20.00     0.038 A 
HETATM    5  C5  UNL     1     -32.653   3.917   3.234  1.00 20.00     0.046 A 
HETATM    6  C6  UNL     1     -33.195   5.224   3.124  1.00 20.00     0.000 A 
HETATM    7  C7  UNL     1     -34.275   5.262   4.000  1.00 20.00     0.086 A 
HETATM    8  C8  UNL     1     -33.428   3.252   4.156  1.00 20.00     0.050 A 
HETATM    9  C9  UNL     1     -33.387   1.889   4.704  1.00 20.00     0.077 C 
HETATM   10  O10 UNL     1     -34.415   4.059   4.627  1.00 20.00    -0.315 OA
ENDROOT
TORSDOF 0
ENDMDL
MODEL 9
REMARK VINA RESULT:       1.4      1.253      3.727
REMARK  0 active torsions:
REMARK  status: ('A' for Active; 'I' for Inactive)
ROOT
HETATM    1  C1  UNL     1     -31.907   8.495   0.965  1.00 20.00     0.001 A 
HETATM    2  C2  UNL     1     -32.648   9.201   1.915  1.00 20.00     0.003 A 
HETATM    3  C3  UNL     1     -31.870   7.093   0.971  1.00 20.00     0.014 A 
HETATM    4  C4  UNL     1     -33.379   8.536   2.905  1.00 20.00     0.038 A 
HETATM    5  C5  UNL     1     -32.817   5.043   2.295  1.00 20.00     0.046 A 
HETATM    6  C6  UNL     1     -32.599   6.404   1.957  1.00 20.00     0.000 A 
HETATM    7  C7  UNL     1     -33.325   7.145   2.886  1.00 20.00     0.086 A 
HETATM    8  C8  UNL     1     -33.649   5.042   3.390  1.00 20.00     0.050 A 
HETATM    9  C9  UNL     1     -34.235   3.968   4.203  1.00 20.00     0.077 C 
HETATM   10  O10 UNL     1     -33.962   6.313   3.757  1.00 20.00    -0.315 OA
ENDROOT
TORSDOF 0
ENDMDL
