MODEL 1
REMARK VINA RESULT:      -1.9      0.000      0.000
REMARK  3 active torsions:
REMARK  status: ('A' for Active; 'I' for Inactive)
REMARK    1  A    between atoms: C6_6  and  C9_9 
REMARK    2  A    between atoms: C8_8  and  C9_9 
REMARK    3  A    between atoms: C8_8  and  O10_10 
ROOT
HETATM    1  C1  UNL     1     -35.190   5.074   4.708  1.00 20.00     0.000 A 
HETATM    2  C2  UNL     1     -35.331   6.387   4.259  1.00 20.00     0.001 A 
HETATM    3  C3  UNL     1     -34.233   4.238   4.133  1.00 20.00     0.001 A 
HETATM    4  C4  UNL     1     -34.514   6.863   3.233  1.00 20.00     0.007 A 
HETATM    5  C5  UNL     1     -33.418   4.715   3.106  1.00 20.00     0.007 A 
HETATM    6  C6  UNL     1     -33.558   6.028   2.657  1.00 20.00    -0.052 A 
ENDROOT
BRANCH   6   7
HETATM    7  C9  UNL     1     -32.686   6.536   1.560  1.00 20.00     0.038 C 
HETATM    8  C7  UNL     1     -31.702   5.461   1.055  1.00 20.00     0.017 C 
BRANCH   7   9
HETATM    9  C8  UNL     1     -31.902   7.809   1.952  1.00 20.00     0.173 C 
BRANCH   9  10
HETATM   10  O10 UNL     1     -32.237   8.861   1.053  1.00 20.00    -0.400 OA
HETATM   11  H22 UNL     1     -31.403   9.280   0.791  1.00 20.00     0.209 HD
ENDBRANCH   9  10
ENDBRANCH   7   9
ENDBRANCH   6   7
TORSDOF 3
ENDMDL
MODEL 2
REMARK VINA RESULT:      -1.9      2.408      4.167
REMARK  3 active torsions:
REMARK  status: ('A' for Active; 'I' for Inactive)
REMARK    1  A    between atoms: C6_6  and  C9_9 
REMARK    2  A    between atoms: C8_8  and  C9_9 
REMARK    3  A    between atoms: C8_8  and  O10_10 
ROOT
HETATM    1  C1  UNL     1     -32.034   8.005   1.774  1.00 20.00     0.000 A 
HETATM    2  C2  UNL     1     -32.761   8.278   2.933  1.00 20.00     0.001 A 
HETATM    3  C3  UNL     1     -32.062   6.727   1.217  1.00 20.00     0.001 A 
HETATM    4  C4  UNL     1     -33.517   7.271   3.534  1.00 20.00     0.007 A 
HETATM    5  C5  UNL     1     -32.817   5.720   1.820  1.00 20.00     0.007 A 
HETATM    6  C6  UNL     1     -33.544   5.992   2.978  1.00 20.00    -0.052 A 
ENDROOT
BRANCH   6   7
HETATM    7  C9  UNL     1     -34.351   4.916   3.622  1.00 20.00     0.038 C 
HETATM    8  C7  UNL     1     -35.507   5.486   4.470  1.00 20.00     0.017 C 
BRANCH   7   9
HETATM    9  C8  UNL     1     -33.500   3.958   4.486  1.00 20.00     0.173 C 
BRANCH   9  10
HETATM   10  O10 UNL     1     -33.821   2.613   4.147  1.00 20.00    -0.400 OA
HETATM   11  H22 UNL     1     -32.980   2.161   3.976  1.00 20.00     0.209 HD
ENDBRANCH   9  10
ENDBRANCH   7   9
ENDBRANCH   6   7
TORSDOF 3
ENDMDL
MODEL 3
REMARK VINA RESULT:      -1.9      2.409      4.370
REMARK  3 active torsions:
REMARK  status: ('A' for Active; 'I' for Inactive)
REMARK    1  A    between atoms: C6_6  and  C9_9 
REMARK    2  A    between atoms: C8_8  and  C9_9 
REMARK    3  A    between atoms: C8_8  and  O10_10 
ROOT
HETATM    1  C1  UNL     1     -32.012   8.014   1.791  1.00 20.00     0.000 A 
HETATM    2  C2  UNL     1     -32.019   6.734   1.238  1.00 20.00     0.001 A 
HETATM    3  C3  UNL     1     -32.761   8.284   2.936  1.00 20.00     0.001 A 
HETATM    4  C4  UNL     1     -32.777   5.723   1.831  1.00 20.00     0.007 A 
HETATM    5  C5  UNL     1     -33.519   7.274   3.528  1.00 20.00     0.007 A 
HETATM    6  C6  UNL     1     -33.526   5.993   2.975  1.00 20.00    -0.052 A 
ENDROOT
BRANCH   6   7
HETATM    7  C9  UNL     1     -34.337   4.913   3.609  1.00 20.00     0.038 C 
HETATM    8  C7  UNL     1     -35.505   5.478   4.442  1.00 20.00     0.017 C 
BRANCH   7   9
HETATM    9  C8  UNL     1     -33.493   3.959   4.485  1.00 20.00     0.173 C 
BRANCH   9  10
HETATM   10  O10 UNL     1     -33.815   2.613   4.153  1.00 20.00    -0.400 OA
HETATM   11  H22 UNL     1     -33.472   2.059   4.873  1.00 20.00     0.209 HD
ENDBRANCH   9  10
ENDBRANCH   7   9
ENDBRANCH   6   7
TORSDOF 3
ENDMDL
MODEL 4
REMARK VINA RESULT:      -1.3      2.259      4.472
REMARK  3 active torsions:
REMARK  status: ('A' for Active; 'I' for Inactive)
REMARK    1  A    between atoms: C6_6  and  C9_9 
REMARK    2  A    between atoms: C8_8  and  C9_9 
REMARK    3  A    between atoms: C8_8  and  O10_10 
ROOT
HETATM    1  C1  UNL     1     -31.326   7.326   0.841  1.00 20.00     0.000 A 
HETATM    2  C2  UNL     1     -31.883   6.048   0.882  1.00 20.00     0.001 A 
HETATM    3  C3  UNL     1     -31.802   8.323   1.692  1.00 20.00     0.001 A 
HETATM    4  C4  UNL     1     -32.918   5.768   1.774  1.00 20.00     0.007 A 
HETATM    5  C5  UNL     1     -32.838   8.042   2.584  1.00 20.00     0.007 A 
HETATM    6  C6  UNL     1     -33.395   6.765   2.625  1.00 20.00    -0.052 A 
ENDROOT
BRANCH   6   7
HETATM    7  C9  UNL     1     -34.502   6.466   3.578  1.00 20.00     0.038 C 
HETATM    8  C7  UNL     1     -34.495   7.417   4.792  1.00 20.00     0.017 C 
BRANCH   7   9
HETATM    9  C8  UNL     1     -34.496   5.001   4.071  1.00 20.00     0.173 C 
BRANCH   9  10
HETATM   10  O10 UNL     1     -35.689   4.750   4.806  1.00 20.00    -0.400 OA
HETATM   11  H22 UNL     1     -36.215   4.128   4.279  1.00 20.00     0.209 HD
ENDBRANCH   9  10
ENDBRANCH   7   9
ENDBRANCH   6   7
TORSDOF 3
ENDMDL
MODEL 5
REMARK VINA RESULT:      -1.0      1.183      1.749
REMARK  3 active torsions:
REMARK  status: ('A' for Active; 'I' for Inactive)
REMARK    1  A    between atoms: C6_6  and  C9_9 
REMARK    2  A    between atoms: C8_8  and  C9_9 
REMARK    3  A    between atoms: C8_8  and  O10_10 
ROOT
HETATM    1  C1  UNL     1     -34.717   5.676   3.967  1.00 20.00     0.000 A 
HETATM    2  C2  UNL     1     -34.648   7.051   4.190  1.00 20.00     0.001 A 
HETATM    3  C3  UNL     1     -33.928   5.089   2.978  1.00 20.00     0.001 A 
HETATM    4  C4  UNL     1     -33.790   7.839   3.422  1.00 20.00     0.007 A 
HETATM    5  C5  UNL     1     -33.071   5.878   2.210  1.00 20.00     0.007 A 
HETATM    6  C6  UNL     1     -33.002   7.253   2.433  1.00 20.00    -0.052 A 
ENDROOT
BRANCH   6   7
HETATM    7  C9  UNL     1     -32.086   8.095   1.611  1.00 20.00     0.038 C 
HETATM    8  C7  UNL     1     -30.805   8.478   2.380  1.00 20.00     0.017 C 
BRANCH   7   9
HETATM    9  C8  UNL     1     -32.764   9.374   1.069  1.00 20.00     0.173 C 
BRANCH   9  10
HETATM   10  O10 UNL     1     -32.362   9.580  -0.281  1.00 20.00    -0.400 OA
HETATM   11  H22 UNL     1     -32.669  10.466  -0.531  1.00 20.00     0.209 HD
ENDBRANCH   9  10
ENDBRANCH   7   9
ENDBRANCH   6   7
TORSDOF 3
ENDMDL
MODEL 6
REMARK VINA RESULT:      -1.0      1.180      2.261
REMARK  3 active torsions:
REMARK  status: ('A' for Active; 'I' for Inactive)
REMARK    1  A    between atoms: C6_6  and  C9_9 
REMARK    2  A    between atoms: C8_8  and  C9_9 
REMARK    3  A    between atoms: C8_8  and  O10_10 
ROOT
HETATM    1  C1  UNL     1     -34.723   5.673   3.971  1.00 20.00     0.000 A 
HETATM    2  C2  UNL     1     -33.935   5.086   2.981  1.00 20.00     0.001 A 
HETATM    3  C3  UNL     1     -34.652   7.048   4.196  1.00 20.00     0.001 A 
HETATM    4  C4  UNL     1     -33.076   5.875   2.216  1.00 20.00     0.007 A 
HETATM    5  C5  UNL     1     -33.792   7.836   3.431  1.00 20.00     0.007 A 
HETATM    6  C6  UNL     1     -33.004   7.250   2.441  1.00 20.00    -0.052 A 
ENDROOT
BRANCH   6   7
HETATM    7  C9  UNL     1     -32.085   8.093   1.623  1.00 20.00     0.038 C 
HETATM    8  C7  UNL     1     -30.812   8.483   2.400  1.00 20.00     0.017 C 
BRANCH   7   9
HETATM    9  C8  UNL     1     -32.765   9.368   1.072  1.00 20.00     0.173 C 
BRANCH   9  10
HETATM   10  O10 UNL     1     -32.355   9.570  -0.276  1.00 20.00    -0.400 OA
HETATM   11  H22 UNL     1     -32.959  10.228  -0.654  1.00 20.00     0.209 HD
ENDBRANCH   9  10
ENDBRANCH   7   9
ENDBRANCH   6   7
TORSDOF 3
ENDMDL
MODEL 7
REMARK VINA RESULT:      -0.7      1.468      1.843
REMARK  3 active torsions:
REMARK  status: ('A' for Active; 'I' for Inactive)
REMARK    1  A    between atoms: C6_6  and  C9_9 
REMARK    2  A    between atoms: C8_8  and  C9_9 
REMARK    3  A    between atoms: C8_8  and  O10_10 
ROOT
HETATM    1  C1  UNL     1     -35.383   5.263   4.658  1.00 20.00     0.000 A 
HETATM    2  C2  UNL     1     -35.299   6.553   4.133  1.00 20.00     0.001 A 
HETATM    3  C3  UNL     1     -34.443   4.299   4.295  1.00 20.00     0.001 A 
HETATM    4  C4  UNL     1     -34.275   6.877   3.243  1.00 20.00     0.007 A 
HETATM    5  C5  UNL     1     -33.419   4.624   3.405  1.00 20.00     0.007 A 
HETATM    6  C6  UNL     1     -33.335   5.913   2.879  1.00 20.00    -0.052 A 
ENDROOT
BRANCH   6   7
HETATM    7  C9  UNL     1     -32.241   6.260   1.927  1.00 20.00     0.038 C 
HETATM    8  C7  UNL     1     -32.118   7.783   1.715  1.00 20.00     0.017 C 
BRANCH   7   9
HETATM    9  C8  UNL     1     -32.386   5.558   0.558  1.00 20.00     0.173 C 
BRANCH   9  10
HETATM   10  O10 UNL     1     -31.412   4.525   0.457  1.00 20.00    -0.400 OA
HETATM   11  H22 UNL     1     -31.307   4.152   1.347  1.00 20.00     0.209 HD
ENDBRANCH   9  10
ENDBRANCH   7   9
ENDBRANCH   6   7
TORSDOF 3
ENDMDL
MODEL 8
REMARK VINA RESULT:      -0.7      1.296      2.292
REMARK  3 active torsions:
REMARK  status: ('A' for Active; 'I' for Inactive)
REMARK    1  A    between atoms: C6_6  and  C9_9 
REMARK    2  A    between atoms: C8_8  and  C9_9 
REMARK    3  A    between atoms: C8_8  and  O10_10 
ROOT
HETATM    1  C1  UNL     1     -35.398   5.264   4.597  1.00 20.00     0.000 A 
HETATM    2  C2  UNL     1     -34.423   4.318   4.280  1.00 20.00     0.001 A 
HETATM    3  C3  UNL     1     -35.311   6.556   4.077  1.00 20.00     0.001 A 
HETATM    4  C4  UNL     1     -33.361   4.664   3.445  1.00 20.00     0.007 A 
HETATM    5  C5  UNL     1     -34.247   6.902   3.243  1.00 20.00     0.007 A 
HETATM    6  C6  UNL     1     -33.273   5.956   2.927  1.00 20.00    -0.052 A 
ENDROOT
BRANCH   6   7
HETATM    7  C9  UNL     1     -32.137   6.326   2.035  1.00 20.00     0.038 C 
HETATM    8  C7  UNL     1     -32.179   7.814   1.630  1.00 20.00     0.017 C 
BRANCH   7   9
HETATM    9  C8  UNL     1     -32.053   5.448   0.766  1.00 20.00     0.173 C 
BRANCH   9  10
HETATM   10  O10 UNL     1     -33.369   5.203   0.280  1.00 20.00    -0.400 OA
HETATM   11  H22 UNL     1     -33.649   4.353   0.652  1.00 20.00     0.209 HD
ENDBRANCH   9  10
ENDBRANCH   7   9
ENDBRANCH   6   7
TORSDOF 3
ENDMDL
MODEL 9
REMARK VINA RESULT:      -0.4      1.454      1.556
REMARK  3 active torsions:
REMARK  status: ('A' for Active; 'I' for Inactive)
REMARK    1  A    between atoms: C6_6  and  C9_9 
REMARK    2  A    between atoms: C8_8  and  C9_9 
REMARK    3  A    between atoms: C8_8  and  O10_10 
ROOT
HETATM    1  C1  UNL     1     -35.041   4.664   4.410  1.00 20.00     0.000 A 
HETATM    2  C2  UNL     1     -35.510   5.978   4.414  1.00 20.00     0.001 A 
HETATM    3  C3  UNL     1     -33.843   4.353   3.768  1.00 20.00     0.001 A 
HETATM    4  C4  UNL     1     -34.781   6.980   3.774  1.00 20.00     0.007 A 
HETATM    5  C5  UNL     1     -33.114   5.355   3.127  1.00 20.00     0.007 A 
HETATM    6  C6  UNL     1     -33.583   6.669   3.131  1.00 20.00    -0.052 A 
ENDROOT
BRANCH   6   7
HETATM    7  C9  UNL     1     -32.804   7.740   2.446  1.00 20.00     0.038 C 
HETATM    8  C7  UNL     1     -31.938   7.182   1.297  1.00 20.00     0.017 C 
BRANCH   7   9
HETATM    9  C8  UNL     1     -31.914   8.553   3.414  1.00 20.00     0.173 C 
BRANCH   9  10
HETATM   10  O10 UNL     1     -32.390   8.378   4.745  1.00 20.00    -0.400 OA
HETATM   11  H22 UNL     1     -32.139   9.175   5.237  1.00 20.00     0.209 HD
ENDBRANCH   9  10
ENDBRANCH   7   9
ENDBRANCH   6   7
TORSDOF 3
ENDMDL
