MODEL 1
REMARK VINA RESULT:      -2.5      0.000      0.000
REMARK  1 active torsions:
REMARK  status: ('A' for Active; 'I' for Inactive)
REMARK    1  A    between atoms: C6_6  and  C9_9 
ROOT
HETATM    1  C1  UNL     1     -32.501   5.438   1.555  1.00 20.00     0.001 A 
HETATM    2  C2  UNL     1     -33.502   5.391   2.526  1.00 20.00     0.007 A 
HETATM    3  C3  UNL     1     -31.946   6.664   1.186  1.00 20.00     0.007 A 
HETATM    4  C4  UNL     1     -33.391   7.793   2.758  1.00 20.00     0.013 A 
HETATM    5  C5  UNL     1     -33.946   6.568   3.128  1.00 20.00    -0.061 A 
HETATM    6  C6  UNL     1     -32.390   7.841   1.787  1.00 20.00    -0.058 A 
HETATM    7  C7  UNL     1     -35.015   6.515   4.167  1.00 20.00     0.048 C 
ENDROOT
BRANCH   6   8
HETATM    8  C9  UNL     1     -31.797   9.152   1.392  1.00 20.00     0.034 C 
HETATM    9  C8  UNL     1     -32.487   9.757   0.172  1.00 20.00     0.010 C 
ENDBRANCH   6   8
TORSDOF 1
ENDMDL
MODEL 2
REMARK VINA RESULT:      -2.5      1.492      2.995
REMARK  1 active torsions:
REMARK  status: ('A' for Active; 'I' for Inactive)
REMARK    1  A    between atoms: C6_6  and  C9_9 
ROOT
HETATM    1  C1  UNL     1     -35.298   6.160   4.146  1.00 20.00     0.001 A 
HETATM    2  C2  UNL     1     -34.957   4.887   4.603  1.00 20.00     0.007 A 
HETATM    3  C3  UNL     1     -34.525   6.778   3.162  1.00 20.00     0.007 A 
HETATM    4  C4  UNL     1     -33.074   4.848   3.091  1.00 20.00     0.013 A 
HETATM    5  C5  UNL     1     -33.846   4.231   4.075  1.00 20.00    -0.061 A 
HETATM    6  C6  UNL     1     -33.413   6.122   2.635  1.00 20.00    -0.058 A 
HETATM    7  C7  UNL     1     -33.484   2.868   4.563  1.00 20.00     0.048 C 
ENDROOT
BRANCH   6   8
HETATM    8  C9  UNL     1     -32.587   6.783   1.583  1.00 20.00     0.034 C 
HETATM    9  C8  UNL     1     -32.027   8.126   2.043  1.00 20.00     0.010 C 
ENDBRANCH   6   8
TORSDOF 1
ENDMDL
MODEL 3
REMARK VINA RESULT:      -2.4      1.042      3.887
REMARK  1 active torsions:
REMARK  status: ('A' for Active; 'I' for Inactive)
REMARK    1  A    between atoms: C6_6  and  C9_9 
ROOT
HETATM    1  C1  UNL     1     -32.215   8.142   2.216  1.00 20.00     0.001 A 
HETATM    2  C2  UNL     1     -31.801   7.090   1.399  1.00 20.00     0.007 A 
HETATM    3  C3  UNL     1     -33.277   7.960   3.103  1.00 20.00     0.007 A 
HETATM    4  C4  UNL     1     -33.508   5.674   2.355  1.00 20.00     0.013 A 
HETATM    5  C5  UNL     1     -32.447   5.856   1.468  1.00 20.00    -0.061 A 
HETATM    6  C6  UNL     1     -33.924   6.726   3.172  1.00 20.00    -0.058 A 
HETATM    7  C7  UNL     1     -32.002   4.732   0.595  1.00 20.00     0.048 C 
ENDROOT
BRANCH   6   8
HETATM    8  C9  UNL     1     -35.059   6.531   4.120  1.00 20.00     0.034 C 
HETATM    9  C8  UNL     1     -35.266   5.063   4.484  1.00 20.00     0.010 C 
ENDBRANCH   6   8
TORSDOF 1
ENDMDL
MODEL 4
REMARK VINA RESULT:      -2.3      1.727      4.672
REMARK  1 active torsions:
REMARK  status: ('A' for Active; 'I' for Inactive)
REMARK    1  A    between atoms: C6_6  and  C9_9 
ROOT
HETATM    1  C1  UNL     1     -35.270   6.583   4.115  1.00 20.00     0.001 A 
HETATM    2  C2  UNL     1     -34.405   7.340   3.325  1.00 20.00     0.007 A 
HETATM    3  C3  UNL     1     -35.014   5.227   4.325  1.00 20.00     0.007 A 
HETATM    4  C4  UNL     1     -33.031   5.389   2.956  1.00 20.00     0.013 A 
HETATM    5  C5  UNL     1     -33.285   6.744   2.746  1.00 20.00    -0.061 A 
HETATM    6  C6  UNL     1     -33.895   4.630   3.745  1.00 20.00    -0.058 A 
HETATM    7  C7  UNL     1     -32.361   7.556   1.903  1.00 20.00     0.048 C 
ENDROOT
BRANCH   6   8
HETATM    8  C9  UNL     1     -33.623   3.180   3.969  1.00 20.00     0.034 C 
HETATM    9  C8  UNL     1     -32.827   2.931   5.247  1.00 20.00     0.010 C 
ENDBRANCH   6   8
TORSDOF 1
ENDMDL
MODEL 5
REMARK VINA RESULT:      -2.0      0.498      3.663
REMARK  1 active torsions:
REMARK  status: ('A' for Active; 'I' for Inactive)
REMARK    1  A    between atoms: C6_6  and  C9_9 
ROOT
HETATM    1  C1  UNL     1     -32.432   5.426   1.556  1.00 20.00     0.001 A 
HETATM    2  C2  UNL     1     -31.873   6.624   1.111  1.00 20.00     0.007 A 
HETATM    3  C3  UNL     1     -33.417   5.442   2.544  1.00 20.00     0.007 A 
HETATM    4  C4  UNL     1     -33.284   7.852   2.639  1.00 20.00     0.013 A 
HETATM    5  C5  UNL     1     -32.299   7.837   1.651  1.00 20.00    -0.061 A 
HETATM    6  C6  UNL     1     -33.843   6.655   3.085  1.00 20.00    -0.058 A 
HETATM    7  C7  UNL     1     -31.701   9.116   1.172  1.00 20.00     0.048 C 
ENDROOT
BRANCH   6   8
HETATM    8  C9  UNL     1     -34.897   6.671   4.142  1.00 20.00     0.034 C 
HETATM    9  C8  UNL     1     -35.363   5.268   4.518  1.00 20.00     0.010 C 
ENDBRANCH   6   8
TORSDOF 1
ENDMDL
MODEL 6
REMARK VINA RESULT:      -1.5      1.317      2.828
REMARK  1 active torsions:
REMARK  status: ('A' for Active; 'I' for Inactive)
REMARK    1  A    between atoms: C6_6  and  C9_9 
ROOT
HETATM    1  C1  UNL     1     -32.629   8.234   2.855  1.00 20.00     0.001 A 
HETATM    2  C2  UNL     1     -33.701   7.806   3.639  1.00 20.00     0.007 A 
HETATM    3  C3  UNL     1     -32.074   7.375   1.906  1.00 20.00     0.007 A 
HETATM    4  C4  UNL     1     -33.662   5.664   2.524  1.00 20.00     0.013 A 
HETATM    5  C5  UNL     1     -34.218   6.521   3.473  1.00 20.00    -0.061 A 
HETATM    6  C6  UNL     1     -32.590   6.091   1.740  1.00 20.00    -0.058 A 
HETATM    7  C7  UNL     1     -35.365   6.067   4.310  1.00 20.00     0.048 C 
ENDROOT
BRANCH   6   8
HETATM    8  C9  UNL     1     -31.995   5.173   0.726  1.00 20.00     0.034 C 
HETATM    9  C8  UNL     1     -33.053   4.340   0.006  1.00 20.00     0.010 C 
ENDBRANCH   6   8
TORSDOF 1
ENDMDL
MODEL 7
REMARK VINA RESULT:      -1.5      1.273      2.192
REMARK  1 active torsions:
REMARK  status: ('A' for Active; 'I' for Inactive)
REMARK    1  A    between atoms: C6_6  and  C9_9 
ROOT
HETATM    1  C1  UNL     1     -32.689   8.490   4.737  1.00 20.00     0.001 A 
HETATM    2  C2  UNL     1     -33.802   7.658   4.862  1.00 20.00     0.007 A 
HETATM    3  C3  UNL     1     -32.039   8.604   3.508  1.00 20.00     0.007 A 
HETATM    4  C4  UNL     1     -33.616   7.057   2.530  1.00 20.00     0.013 A 
HETATM    5  C5  UNL     1     -34.266   6.942   3.759  1.00 20.00    -0.061 A 
HETATM    6  C6  UNL     1     -32.502   7.888   2.404  1.00 20.00    -0.058 A 
HETATM    7  C7  UNL     1     -35.458   6.055   3.894  1.00 20.00     0.048 C 
ENDROOT
BRANCH   6   8
HETATM    8  C9  UNL     1     -31.807   8.010   1.090  1.00 20.00     0.034 C 
HETATM    9  C8  UNL     1     -32.134   9.321   0.380  1.00 20.00     0.010 C 
ENDBRANCH   6   8
TORSDOF 1
ENDMDL
MODEL 8
REMARK VINA RESULT:      -1.3      0.572      2.302
REMARK  1 active torsions:
REMARK  status: ('A' for Active; 'I' for Inactive)
REMARK    1  A    between atoms: C6_6  and  C9_9 
ROOT
HETATM    1  C1  UNL     1     -33.835   6.718   3.368  1.00 20.00     0.001 A 
HETATM    2  C2  UNL     1     -33.407   5.598   2.656  1.00 20.00     0.007 A 
HETATM    3  C3  UNL     1     -33.401   7.990   2.992  1.00 20.00     0.007 A 
HETATM    4  C4  UNL     1     -32.115   7.020   1.192  1.00 20.00     0.013 A 
HETATM    5  C5  UNL     1     -32.548   5.749   1.567  1.00 20.00    -0.061 A 
HETATM    6  C6  UNL     1     -32.542   8.141   1.905  1.00 20.00    -0.058 A 
HETATM    7  C7  UNL     1     -32.094   4.550   0.806  1.00 20.00     0.048 C 
ENDROOT
BRANCH   6   8
HETATM    8  C9  UNL     1     -32.078   9.502   1.503  1.00 20.00     0.034 C 
HETATM    9  C8  UNL     1     -32.496   9.860   0.080  1.00 20.00     0.010 C 
ENDBRANCH   6   8
TORSDOF 1
ENDMDL
MODEL 9
REMARK VINA RESULT:      -0.7      1.625      3.946
REMARK  1 active torsions:
REMARK  status: ('A' for Active; 'I' for Inactive)
REMARK    1  A    between atoms: C6_6  and  C9_9 
ROOT
HETATM    1  C1  UNL     1     -32.544   6.438   1.648  1.00 20.00     0.001 A 
HETATM    2  C2  UNL     1     -32.973   7.521   2.415  1.00 20.00     0.007 A 
HETATM    3  C3  UNL     1     -32.833   5.136   2.058  1.00 20.00     0.007 A 
HETATM    4  C4  UNL     1     -33.980   6.002   4.000  1.00 20.00     0.013 A 
HETATM    5  C5  UNL     1     -33.691   7.304   3.590  1.00 20.00    -0.061 A 
HETATM    6  C6  UNL     1     -33.551   4.918   3.234  1.00 20.00    -0.058 A 
HETATM    7  C7  UNL     1     -34.150   8.464   4.408  1.00 20.00     0.048 C 
ENDROOT
BRANCH   6   8
HETATM    8  C9  UNL     1     -33.860   3.526   3.672  1.00 20.00     0.034 C 
HETATM    9  C8  UNL     1     -33.035   3.103   4.884  1.00 20.00     0.010 C 
ENDBRANCH   6   8
TORSDOF 1
ENDMDL
