MODEL 1
REMARK VINA RESULT:      -1.6      0.000      0.000
REMARK  0 active torsions:
REMARK  status: ('A' for Active; 'I' for Inactive)
ROOT
HETATM    1  C1  UNL     1     -35.455   6.189   4.237  1.00 20.00     0.002 A 
HETATM    2  C2  UNL     1     -35.072   4.884   4.545  1.00 20.00     0.007 A 
HETATM    3  C3  UNL     1     -34.638   6.985   3.435  1.00 20.00     0.018 A 
HETATM    4  C4  UNL     1     -33.052   5.173   3.249  1.00 20.00     0.025 A 
HETATM    5  C5  UNL     1     -33.870   4.376   4.051  1.00 20.00    -0.061 A 
HETATM    6  C6  UNL     1     -33.437   6.477   2.941  1.00 20.00     0.006 A 
HETATM    7  C7  UNL     1     -33.459   2.980   4.382  1.00 20.00     0.048 C 
HETATM    8  I8  UNL     1     -32.221   7.664   1.744  1.00 20.00    -0.045 I 
ENDROOT
TORSDOF 0
ENDMDL
MODEL 2
REMARK VINA RESULT:      -0.5      1.559      2.947
REMARK  0 active torsions:
REMARK  status: ('A' for Active; 'I' for Inactive)
ROOT
HETATM    1  C1  UNL     1     -32.407   5.335   1.770  1.00 20.00     0.002 A 
HETATM    2  C2  UNL     1     -33.392   5.295   2.758  1.00 20.00     0.007 A 
HETATM    3  C3  UNL     1     -32.036   6.554   1.204  1.00 20.00     0.018 A 
HETATM    4  C4  UNL     1     -33.635   7.695   2.610  1.00 20.00     0.025 A 
HETATM    5  C5  UNL     1     -34.005   6.475   3.177  1.00 20.00    -0.061 A 
HETATM    6  C6  UNL     1     -32.650   7.734   1.623  1.00 20.00     0.006 A 
HETATM    7  C7  UNL     1     -35.059   6.432   4.233  1.00 20.00     0.048 C 
HETATM    8  I8  UNL     1     -32.096   9.550   0.779  1.00 20.00    -0.045 I 
ENDROOT
TORSDOF 0
ENDMDL
MODEL 3
REMARK VINA RESULT:      -0.4      1.888      2.886
REMARK  0 active torsions:
REMARK  status: ('A' for Active; 'I' for Inactive)
ROOT
HETATM    1  C1  UNL     1     -32.686   8.188   2.787  1.00 20.00     0.002 A 
HETATM    2  C2  UNL     1     -33.771   7.807   3.577  1.00 20.00     0.007 A 
HETATM    3  C3  UNL     1     -32.100   7.270   1.916  1.00 20.00     0.018 A 
HETATM    4  C4  UNL     1     -33.683   5.588   2.623  1.00 20.00     0.025 A 
HETATM    5  C5  UNL     1     -34.269   6.507   3.494  1.00 20.00    -0.061 A 
HETATM    6  C6  UNL     1     -32.599   5.970   1.834  1.00 20.00     0.006 A 
HETATM    7  C7  UNL     1     -35.429   6.099   4.340  1.00 20.00     0.048 C 
HETATM    8  I8  UNL     1     -31.727   4.603   0.534  1.00 20.00    -0.045 I 
ENDROOT
TORSDOF 0
ENDMDL
MODEL 4
REMARK VINA RESULT:      -0.4      2.145      3.255
REMARK  0 active torsions:
REMARK  status: ('A' for Active; 'I' for Inactive)
ROOT
HETATM    1  C1  UNL     1     -35.368   6.434   4.017  1.00 20.00     0.002 A 
HETATM    2  C2  UNL     1     -34.555   7.195   3.176  1.00 20.00     0.007 A 
HETATM    3  C3  UNL     1     -34.978   5.148   4.388  1.00 20.00     0.018 A 
HETATM    4  C4  UNL     1     -32.961   5.381   3.080  1.00 20.00     0.025 A 
HETATM    5  C5  UNL     1     -33.351   6.668   2.708  1.00 20.00    -0.061 A 
HETATM    6  C6  UNL     1     -33.774   4.622   3.920  1.00 20.00     0.006 A 
HETATM    7  C7  UNL     1     -32.482   7.482   1.809  1.00 20.00     0.048 C 
HETATM    8  I8  UNL     1     -33.192   2.706   4.476  1.00 20.00    -0.045 I 
ENDROOT
TORSDOF 0
ENDMDL
MODEL 5
REMARK VINA RESULT:      -0.0      2.484      3.622
REMARK  0 active torsions:
REMARK  status: ('A' for Active; 'I' for Inactive)
ROOT
HETATM    1  C1  UNL     1     -32.142   8.131   2.148  1.00 20.00     0.002 A 
HETATM    2  C2  UNL     1     -31.590   7.155   1.317  1.00 20.00     0.007 A 
HETATM    3  C3  UNL     1     -33.200   7.808   2.996  1.00 20.00     0.018 A 
HETATM    4  C4  UNL     1     -33.159   5.533   2.184  1.00 20.00     0.025 A 
HETATM    5  C5  UNL     1     -32.099   5.856   1.336  1.00 20.00    -0.061 A 
HETATM    6  C6  UNL     1     -33.709   6.510   3.015  1.00 20.00     0.006 A 
HETATM    7  C7  UNL     1     -31.510   4.812   0.447  1.00 20.00     0.048 C 
HETATM    8  I8  UNL     1     -35.286   6.029   4.280  1.00 20.00    -0.045 I 
ENDROOT
TORSDOF 0
ENDMDL
MODEL 6
REMARK VINA RESULT:       0.2      2.564      4.444
REMARK  0 active torsions:
REMARK  status: ('A' for Active; 'I' for Inactive)
ROOT
HETATM    1  C1  UNL     1     -31.968   5.683   1.280  1.00 20.00     0.002 A 
HETATM    2  C2  UNL     1     -31.657   7.001   0.946  1.00 20.00     0.007 A 
HETATM    3  C3  UNL     1     -32.959   5.417   2.224  1.00 20.00     0.018 A 
HETATM    4  C4  UNL     1     -33.328   7.788   2.506  1.00 20.00     0.025 A 
HETATM    5  C5  UNL     1     -32.337   8.053   1.560  1.00 20.00    -0.061 A 
HETATM    6  C6  UNL     1     -33.639   6.469   2.838  1.00 20.00     0.006 A 
HETATM    7  C7  UNL     1     -32.004   9.464   1.204  1.00 20.00     0.048 C 
HETATM    8  I8  UNL     1     -35.115   6.072   4.245  1.00 20.00    -0.045 I 
ENDROOT
TORSDOF 0
ENDMDL
MODEL 7
REMARK VINA RESULT:       0.7      2.070      2.748
REMARK  0 active torsions:
REMARK  status: ('A' for Active; 'I' for Inactive)
ROOT
HETATM    1  C1  UNL     1     -33.728   7.032   3.422  1.00 20.00     0.002 A 
HETATM    2  C2  UNL     1     -33.263   5.829   2.888  1.00 20.00     0.007 A 
HETATM    3  C3  UNL     1     -33.460   8.234   2.770  1.00 20.00     0.018 A 
HETATM    4  C4  UNL     1     -32.260   7.036   1.050  1.00 20.00     0.025 A 
HETATM    5  C5  UNL     1     -32.530   5.832   1.702  1.00 20.00    -0.061 A 
HETATM    6  C6  UNL     1     -32.726   8.237   1.584  1.00 20.00     0.006 A 
HETATM    7  C7  UNL     1     -32.032   4.546   1.132  1.00 20.00     0.048 C 
HETATM    8  I8  UNL     1     -32.328  10.030   0.612  1.00 20.00    -0.045 I 
ENDROOT
TORSDOF 0
ENDMDL
