MODEL 1
REMARK VINA RESULT:      -2.7      0.000      0.000
REMARK  2 active torsions:
REMARK  status: ('A' for Active; 'I' for Inactive)
REMARK    1  A    between atoms: C6_6  and  C8_8 
REMARK    2  A    between atoms: C8_8  and  N10_10 
ROOT
HETATM    1  N9  UNL     1     -32.351   9.864   0.101  1.00 20.00     0.068 N 
HETATM    2  N10 UNL     1     -32.300   8.350   1.940  1.00 20.00    -0.111 NA
HETATM    3  N11 UNL     1     -32.327   9.134   0.978  1.00 20.00    -0.167 NA
ENDROOT
BRANCH   2   4
HETATM    4  C8  UNL     1     -32.546   6.938   1.616  1.00 20.00     0.227 C 
BRANCH   4   5
HETATM    5  C6  UNL     1     -33.395   6.263   2.640  1.00 20.00    -0.035 A 
HETATM    6  C3  UNL     1     -34.512   6.915   3.161  1.00 20.00     0.009 A 
HETATM    7  C1  UNL     1     -35.305   6.284   4.118  1.00 20.00     0.001 A 
HETATM    8  C2  UNL     1     -34.982   4.999   4.554  1.00 20.00     0.007 A 
HETATM    9  C5  UNL     1     -33.865   4.345   4.033  1.00 20.00    -0.061 A 
HETATM   10  C4  UNL     1     -33.071   4.977   3.076  1.00 20.00     0.015 A 
HETATM   11  C7  UNL     1     -33.520   2.971   4.499  1.00 20.00     0.048 C 
ENDBRANCH   4   5
ENDBRANCH   2   4
TORSDOF 2
ENDMDL
MODEL 2
REMARK VINA RESULT:      -2.0      3.578      4.549
REMARK  2 active torsions:
REMARK  status: ('A' for Active; 'I' for Inactive)
REMARK    1  A    between atoms: C6_6  and  C8_8 
REMARK    2  A    between atoms: C8_8  and  N10_10 
ROOT
HETATM    1  N9  UNL     1     -33.376   3.305   4.846  1.00 20.00     0.068 N 
HETATM    2  N10 UNL     1     -35.265   4.653   4.306  1.00 20.00    -0.111 NA
HETATM    3  N11 UNL     1     -34.277   3.955   4.587  1.00 20.00    -0.167 NA
ENDROOT
BRANCH   2   4
HETATM    4  C8  UNL     1     -35.043   6.104   4.321  1.00 20.00     0.227 C 
BRANCH   4   5
HETATM    5  C6  UNL     1     -33.966   6.521   3.378  1.00 20.00    -0.035 A 
HETATM    6  C3  UNL     1     -33.430   7.807   3.455  1.00 20.00     0.009 A 
HETATM    7  C1  UNL     1     -32.423   8.197   2.574  1.00 20.00     0.001 A 
HETATM    8  C2  UNL     1     -31.950   7.301   1.614  1.00 20.00     0.007 A 
HETATM    9  C5  UNL     1     -32.485   6.016   1.537  1.00 20.00    -0.061 A 
HETATM   10  C4  UNL     1     -33.493   5.625   2.419  1.00 20.00     0.015 A 
HETATM   11  C7  UNL     1     -31.978   5.058   0.512  1.00 20.00     0.048 C 
ENDBRANCH   4   5
ENDBRANCH   2   4
TORSDOF 2
ENDMDL
MODEL 3
REMARK VINA RESULT:      -1.7      3.717      4.705
REMARK  2 active torsions:
REMARK  status: ('A' for Active; 'I' for Inactive)
REMARK    1  A    between atoms: C6_6  and  C8_8 
REMARK    2  A    between atoms: C8_8  and  N10_10 
ROOT
HETATM    1  N9  UNL     1     -33.545   3.352   4.222  1.00 20.00     0.068 N 
HETATM    2  N10 UNL     1     -35.291   4.887   4.744  1.00 20.00    -0.111 NA
HETATM    3  N11 UNL     1     -34.380   4.090   4.466  1.00 20.00    -0.167 NA
ENDROOT
BRANCH   2   4
HETATM    4  C8  UNL     1     -35.496   5.978   3.782  1.00 20.00     0.227 C 
BRANCH   4   5
HETATM    5  C6  UNL     1     -34.298   6.859   3.663  1.00 20.00    -0.035 A 
HETATM    6  C3  UNL     1     -33.898   7.642   4.745  1.00 20.00     0.009 A 
HETATM    7  C1  UNL     1     -32.779   8.466   4.635  1.00 20.00     0.001 A 
HETATM    8  C2  UNL     1     -32.059   8.508   3.440  1.00 20.00     0.007 A 
HETATM    9  C5  UNL     1     -32.459   7.725   2.357  1.00 20.00    -0.061 A 
HETATM   10  C4  UNL     1     -33.579   6.900   2.468  1.00 20.00     0.015 A 
HETATM   11  C7  UNL     1     -31.688   7.769   1.081  1.00 20.00     0.048 C 
ENDBRANCH   4   5
ENDBRANCH   2   4
TORSDOF 2
ENDMDL
MODEL 4
REMARK VINA RESULT:      -1.6      1.364      2.484
REMARK  2 active torsions:
REMARK  status: ('A' for Active; 'I' for Inactive)
REMARK    1  A    between atoms: C6_6  and  C8_8 
REMARK    2  A    between atoms: C8_8  and  N10_10 
ROOT
HETATM    1  N9  UNL     1     -33.118  10.632  -0.417  1.00 20.00     0.068 N 
HETATM    2  N10 UNL     1     -31.525   9.041   0.362  1.00 20.00    -0.111 NA
HETATM    3  N11 UNL     1     -32.358   9.870  -0.038  1.00 20.00    -0.167 NA
ENDROOT
BRANCH   2   4
HETATM    4  C8  UNL     1     -31.578   8.730   1.797  1.00 20.00     0.227 C 
BRANCH   4   5
HETATM    5  C6  UNL     1     -32.346   7.483   2.077  1.00 20.00    -0.035 A 
HETATM    6  C3  UNL     1     -32.022   6.300   1.414  1.00 20.00     0.009 A 
HETATM    7  C1  UNL     1     -32.740   5.133   1.676  1.00 20.00     0.001 A 
HETATM    8  C2  UNL     1     -33.784   5.150   2.601  1.00 20.00     0.007 A 
HETATM    9  C5  UNL     1     -34.108   6.333   3.265  1.00 20.00    -0.061 A 
HETATM   10  C4  UNL     1     -33.390   7.500   3.003  1.00 20.00     0.015 A 
HETATM   11  C7  UNL     1     -35.223   6.349   4.256  1.00 20.00     0.048 C 
ENDBRANCH   4   5
ENDBRANCH   2   4
TORSDOF 2
ENDMDL
MODEL 5
REMARK VINA RESULT:      -1.3      3.500      5.049
REMARK  2 active torsions:
REMARK  status: ('A' for Active; 'I' for Inactive)
REMARK    1  A    between atoms: C6_6  and  C8_8 
REMARK    2  A    between atoms: C8_8  and  N10_10 
ROOT
HETATM    1  N9  UNL     1     -33.292   3.099   4.876  1.00 20.00     0.068 N 
HETATM    2  N10 UNL     1     -35.009   4.611   4.212  1.00 20.00    -0.111 NA
HETATM    3  N11 UNL     1     -34.110   3.828   4.558  1.00 20.00    -0.167 NA
ENDROOT
BRANCH   2   4
HETATM    4  C8  UNL     1     -34.635   6.031   4.175  1.00 20.00     0.227 C 
BRANCH   4   5
HETATM    5  C6  UNL     1     -33.686   6.337   3.066  1.00 20.00    -0.035 A 
HETATM    6  C3  UNL     1     -33.165   5.304   2.289  1.00 20.00     0.009 A 
HETATM    7  C1  UNL     1     -32.277   5.590   1.252  1.00 20.00     0.001 A 
HETATM    8  C2  UNL     1     -31.912   6.911   0.992  1.00 20.00     0.007 A 
HETATM    9  C5  UNL     1     -32.433   7.945   1.768  1.00 20.00    -0.061 A 
HETATM   10  C4  UNL     1     -33.321   7.659   2.806  1.00 20.00     0.015 A 
HETATM   11  C7  UNL     1     -32.043   9.357   1.488  1.00 20.00     0.048 C 
ENDBRANCH   4   5
ENDBRANCH   2   4
TORSDOF 2
ENDMDL
MODEL 6
REMARK VINA RESULT:      -1.3      1.646      2.331
REMARK  2 active torsions:
REMARK  status: ('A' for Active; 'I' for Inactive)
REMARK    1  A    between atoms: C6_6  and  C8_8 
REMARK    2  A    between atoms: C8_8  and  N10_10 
ROOT
HETATM    1  N9  UNL     1     -33.030  10.261  -0.403  1.00 20.00     0.068 N 
HETATM    2  N10 UNL     1     -31.375   8.957   0.708  1.00 20.00    -0.111 NA
HETATM    3  N11 UNL     1     -32.242   9.632   0.129  1.00 20.00    -0.167 NA
ENDROOT
BRANCH   2   4
HETATM    4  C8  UNL     1     -31.792   7.612   1.128  1.00 20.00     0.227 C 
BRANCH   4   5
HETATM    5  C6  UNL     1     -32.537   7.629   2.420  1.00 20.00    -0.035 A 
HETATM    6  C3  UNL     1     -32.121   8.468   3.454  1.00 20.00     0.009 A 
HETATM    7  C1  UNL     1     -32.816   8.484   4.662  1.00 20.00     0.001 A 
HETATM    8  C2  UNL     1     -33.929   7.660   4.837  1.00 20.00     0.007 A 
HETATM    9  C5  UNL     1     -34.345   6.821   3.804  1.00 20.00    -0.061 A 
HETATM   10  C4  UNL     1     -33.649   6.805   2.595  1.00 20.00     0.015 A 
HETATM   11  C7  UNL     1     -35.535   5.942   3.992  1.00 20.00     0.048 C 
ENDBRANCH   4   5
ENDBRANCH   2   4
TORSDOF 2
ENDMDL
MODEL 7
REMARK VINA RESULT:      -1.1      1.654      2.673
REMARK  2 active torsions:
REMARK  status: ('A' for Active; 'I' for Inactive)
REMARK    1  A    between atoms: C6_6  and  C8_8 
REMARK    2  A    between atoms: C8_8  and  N10_10 
ROOT
HETATM    1  N9  UNL     1     -32.833  11.096   0.691  1.00 20.00     0.068 N 
HETATM    2  N10 UNL     1     -31.999   9.023  -0.133  1.00 20.00    -0.111 NA
HETATM    3  N11 UNL     1     -32.432  10.102   0.302  1.00 20.00    -0.167 NA
ENDROOT
BRANCH   2   4
HETATM    4  C8  UNL     1     -31.306   8.175   0.846  1.00 20.00     0.227 C 
BRANCH   4   5
HETATM    5  C6  UNL     1     -32.255   7.466   1.752  1.00 20.00    -0.035 A 
HETATM    6  C3  UNL     1     -32.711   6.190   1.424  1.00 20.00     0.009 A 
HETATM    7  C1  UNL     1     -33.599   5.526   2.270  1.00 20.00     0.001 A 
HETATM    8  C2  UNL     1     -34.030   6.140   3.447  1.00 20.00     0.007 A 
HETATM    9  C5  UNL     1     -33.574   7.416   3.776  1.00 20.00    -0.061 A 
HETATM   10  C4  UNL     1     -32.686   8.080   2.928  1.00 20.00     0.015 A 
HETATM   11  C7  UNL     1     -34.034   8.071   5.035  1.00 20.00     0.048 C 
ENDBRANCH   4   5
ENDBRANCH   2   4
TORSDOF 2
ENDMDL
MODEL 8
REMARK VINA RESULT:      -0.8      3.612      4.875
REMARK  2 active torsions:
REMARK  status: ('A' for Active; 'I' for Inactive)
REMARK    1  A    between atoms: C6_6  and  C8_8 
REMARK    2  A    between atoms: C8_8  and  N10_10 
ROOT
HETATM    1  N9  UNL     1     -32.649   2.716   5.524  1.00 20.00     0.068 N 
HETATM    2  N10 UNL     1     -34.310   3.789   4.195  1.00 20.00    -0.111 NA
HETATM    3  N11 UNL     1     -33.440   3.230   4.883  1.00 20.00    -0.167 NA
ENDROOT
BRANCH   2   4
HETATM    4  C8  UNL     1     -33.862   4.292   2.890  1.00 20.00     0.227 C 
BRANCH   4   5
HETATM    5  C6  UNL     1     -33.579   5.756   2.914  1.00 20.00    -0.035 A 
HETATM    6  C3  UNL     1     -34.182   6.567   3.875  1.00 20.00     0.009 A 
HETATM    7  C1  UNL     1     -33.917   7.936   3.898  1.00 20.00     0.001 A 
HETATM    8  C2  UNL     1     -33.048   8.494   2.960  1.00 20.00     0.007 A 
HETATM    9  C5  UNL     1     -32.444   7.683   2.000  1.00 20.00    -0.061 A 
HETATM   10  C4  UNL     1     -32.709   6.313   1.976  1.00 20.00     0.015 A 
HETATM   11  C7  UNL     1     -31.513   8.280   0.998  1.00 20.00     0.048 C 
ENDBRANCH   4   5
ENDBRANCH   2   4
TORSDOF 2
ENDMDL
MODEL 9
REMARK VINA RESULT:      -0.2      1.584      2.367
REMARK  2 active torsions:
REMARK  status: ('A' for Active; 'I' for Inactive)
REMARK    1  A    between atoms: C6_6  and  C8_8 
REMARK    2  A    between atoms: C8_8  and  N10_10 
ROOT
HETATM    1  N9  UNL     1     -32.707   9.879  -0.921  1.00 20.00     0.068 N 
HETATM    2  N10 UNL     1     -32.631  10.232   1.434  1.00 20.00    -0.111 NA
HETATM    3  N11 UNL     1     -32.666  10.044   0.207  1.00 20.00    -0.167 NA
ENDROOT
BRANCH   2   4
HETATM    4  C8  UNL     1     -31.811   9.285   2.199  1.00 20.00     0.227 C 
BRANCH   4   5
HETATM    5  C6  UNL     1     -32.463   7.950   2.331  1.00 20.00    -0.035 A 
HETATM    6  C3  UNL     1     -33.419   7.735   3.323  1.00 20.00     0.009 A 
HETATM    7  C1  UNL     1     -34.028   6.487   3.447  1.00 20.00     0.001 A 
HETATM    8  C2  UNL     1     -33.682   5.453   2.577  1.00 20.00     0.007 A 
HETATM    9  C5  UNL     1     -32.726   5.667   1.584  1.00 20.00    -0.061 A 
HETATM   10  C4  UNL     1     -32.116   6.916   1.461  1.00 20.00     0.015 A 
HETATM   11  C7  UNL     1     -32.358   4.561   0.653  1.00 20.00     0.048 C 
ENDBRANCH   4   5
ENDBRANCH   2   4
TORSDOF 2
ENDMDL
