MODEL 1
REMARK VINA RESULT:      -2.7      0.000      0.000
REMARK  4 active torsions:
REMARK  status: ('A' for Active; 'I' for Inactive)
REMARK    1  A    between atoms: C6_6  and  C7_7 
REMARK    2  A    between atoms: C7_7  and  C8_8 
REMARK    3  A    between atoms: C8_8  and  C9_9 
REMARK    4  A    between atoms: C9_9  and  O10_10 
ROOT
HETATM    1  C1  UNL     1     -34.623   5.966   3.714  1.00 20.00     0.000 A 
HETATM    2  C2  UNL     1     -33.882   5.431   2.659  1.00 20.00     0.001 A 
HETATM    3  C3  UNL     1     -34.381   7.269   4.147  1.00 20.00     0.001 A 
HETATM    4  C4  UNL     1     -32.899   6.202   2.038  1.00 20.00     0.007 A 
HETATM    5  C5  UNL     1     -33.398   8.039   3.526  1.00 20.00     0.007 A 
HETATM    6  C6  UNL     1     -32.657   7.506   2.471  1.00 20.00    -0.058 A 
ENDROOT
BRANCH   6   7
HETATM    7  C7  UNL     1     -31.606   8.329   1.808  1.00 20.00     0.041 C 
BRANCH   7   8
HETATM    8  C8  UNL     1     -31.991   8.713   0.373  1.00 20.00     0.030 C 
BRANCH   8   9
HETATM    9  C9  UNL     1     -32.495  10.147   0.277  1.00 20.00     0.164 C 
BRANCH   9  10
HETATM   10  O10 UNL     1     -33.307  10.272  -0.881  1.00 20.00    -0.401 OA
HETATM   11  H22 UNL     1     -32.781   9.942  -1.629  1.00 20.00     0.209 HD
ENDBRANCH   9  10
ENDBRANCH   8   9
ENDBRANCH   7   8
ENDBRANCH   6   7
TORSDOF 4
ENDMDL
MODEL 2
REMARK VINA RESULT:      -2.7      0.009      1.528
REMARK  4 active torsions:
REMARK  status: ('A' for Active; 'I' for Inactive)
REMARK    1  A    between atoms: C6_6  and  C7_7 
REMARK    2  A    between atoms: C7_7  and  C8_8 
REMARK    3  A    between atoms: C8_8  and  C9_9 
REMARK    4  A    between atoms: C9_9  and  O10_10 
ROOT
HETATM    1  C1  UNL     1     -34.624   5.962   3.714  1.00 20.00     0.000 A 
HETATM    2  C2  UNL     1     -34.382   7.264   4.151  1.00 20.00     0.001 A 
HETATM    3  C3  UNL     1     -33.885   5.431   2.657  1.00 20.00     0.001 A 
HETATM    4  C4  UNL     1     -33.399   8.035   3.529  1.00 20.00     0.007 A 
HETATM    5  C5  UNL     1     -32.903   6.203   2.036  1.00 20.00     0.007 A 
HETATM    6  C6  UNL     1     -32.660   7.505   2.472  1.00 20.00    -0.058 A 
ENDROOT
BRANCH   6   7
HETATM    7  C7  UNL     1     -31.611   8.330   1.807  1.00 20.00     0.041 C 
BRANCH   7   8
HETATM    8  C8  UNL     1     -32.002   8.719   0.374  1.00 20.00     0.030 C 
BRANCH   8   9
HETATM    9  C9  UNL     1     -32.502  10.154   0.285  1.00 20.00     0.164 C 
BRANCH   9  10
HETATM   10  O10 UNL     1     -33.312  10.286  -0.874  1.00 20.00    -0.401 OA
HETATM   11  H22 UNL     1     -33.390   9.400  -1.264  1.00 20.00     0.209 HD
ENDBRANCH   9  10
ENDBRANCH   8   9
ENDBRANCH   7   8
ENDBRANCH   6   7
TORSDOF 4
ENDMDL
MODEL 3
REMARK VINA RESULT:      -2.5      1.051      1.482
REMARK  4 active torsions:
REMARK  status: ('A' for Active; 'I' for Inactive)
REMARK    1  A    between atoms: C6_6  and  C7_7 
REMARK    2  A    between atoms: C7_7  and  C8_8 
REMARK    3  A    between atoms: C8_8  and  C9_9 
REMARK    4  A    between atoms: C9_9  and  O10_10 
ROOT
HETATM    1  C1  UNL     1     -35.120   5.182   4.469  1.00 20.00     0.000 A 
HETATM    2  C2  UNL     1     -34.171   4.339   3.891  1.00 20.00     0.001 A 
HETATM    3  C3  UNL     1     -35.159   6.532   4.121  1.00 20.00     0.001 A 
HETATM    4  C4  UNL     1     -33.261   4.848   2.964  1.00 20.00     0.007 A 
HETATM    5  C5  UNL     1     -34.249   7.040   3.194  1.00 20.00     0.007 A 
HETATM    6  C6  UNL     1     -33.300   6.197   2.615  1.00 20.00    -0.058 A 
ENDROOT
BRANCH   6   7
HETATM    7  C7  UNL     1     -32.327   6.741   1.625  1.00 20.00     0.041 C 
BRANCH   7   8
HETATM    8  C8  UNL     1     -32.066   8.239   1.831  1.00 20.00     0.030 C 
BRANCH   8   9
HETATM    9  C9  UNL     1     -31.935   8.987   0.512  1.00 20.00     0.164 C 
BRANCH   9  10
HETATM   10  O10 UNL     1     -32.646  10.213   0.606  1.00 20.00    -0.401 OA
HETATM   11  H22 UNL     1     -33.575  10.014   0.401  1.00 20.00     0.209 HD
ENDBRANCH   9  10
ENDBRANCH   8   9
ENDBRANCH   7   8
ENDBRANCH   6   7
TORSDOF 4
ENDMDL
MODEL 4
REMARK VINA RESULT:      -2.5      1.051      2.033
REMARK  4 active torsions:
REMARK  status: ('A' for Active; 'I' for Inactive)
REMARK    1  A    between atoms: C6_6  and  C7_7 
REMARK    2  A    between atoms: C7_7  and  C8_8 
REMARK    3  A    between atoms: C8_8  and  C9_9 
REMARK    4  A    between atoms: C9_9  and  O10_10 
ROOT
HETATM    1  C1  UNL     1     -35.120   5.185   4.471  1.00 20.00     0.000 A 
HETATM    2  C2  UNL     1     -35.164   6.534   4.119  1.00 20.00     0.001 A 
HETATM    3  C3  UNL     1     -34.166   4.344   3.899  1.00 20.00     0.001 A 
HETATM    4  C4  UNL     1     -34.252   7.041   3.192  1.00 20.00     0.007 A 
HETATM    5  C5  UNL     1     -33.255   4.852   2.973  1.00 20.00     0.007 A 
HETATM    6  C6  UNL     1     -33.297   6.200   2.620  1.00 20.00    -0.058 A 
ENDROOT
BRANCH   6   7
HETATM    7  C7  UNL     1     -32.323   6.742   1.630  1.00 20.00     0.041 C 
BRANCH   7   8
HETATM    8  C8  UNL     1     -32.067   8.242   1.831  1.00 20.00     0.030 C 
BRANCH   8   9
HETATM    9  C9  UNL     1     -31.930   8.985   0.509  1.00 20.00     0.164 C 
BRANCH   9  10
HETATM   10  O10 UNL     1     -32.638  10.213   0.596  1.00 20.00    -0.401 OA
HETATM   11  H22 UNL     1     -32.933  10.301   1.518  1.00 20.00     0.209 HD
ENDBRANCH   9  10
ENDBRANCH   8   9
ENDBRANCH   7   8
ENDBRANCH   6   7
TORSDOF 4
ENDMDL
MODEL 5
REMARK VINA RESULT:      -2.1      3.241      4.922
REMARK  4 active torsions:
REMARK  status: ('A' for Active; 'I' for Inactive)
REMARK    1  A    between atoms: C6_6  and  C7_7 
REMARK    2  A    between atoms: C7_7  and  C8_8 
REMARK    3  A    between atoms: C8_8  and  C9_9 
REMARK    4  A    between atoms: C9_9  and  O10_10 
ROOT
HETATM    1  C1  UNL     1     -31.876   7.825   1.929  1.00 20.00     0.000 A 
HETATM    2  C2  UNL     1     -32.341   6.623   1.397  1.00 20.00     0.001 A 
HETATM    3  C3  UNL     1     -32.463   8.354   3.078  1.00 20.00     0.001 A 
HETATM    4  C4  UNL     1     -33.395   5.950   2.016  1.00 20.00     0.007 A 
HETATM    5  C5  UNL     1     -33.517   7.681   3.696  1.00 20.00     0.007 A 
HETATM    6  C6  UNL     1     -33.983   6.478   3.165  1.00 20.00    -0.058 A 
ENDROOT
BRANCH   6   7
HETATM    7  C7  UNL     1     -35.110   5.759   3.826  1.00 20.00     0.041 C 
BRANCH   7   8
HETATM    8  C8  UNL     1     -34.617   4.646   4.760  1.00 20.00     0.030 C 
BRANCH   8   9
HETATM    9  C9  UNL     1     -33.746   3.630   4.035  1.00 20.00     0.164 C 
BRANCH   9  10
HETATM   10  O10 UNL     1     -33.008   2.889   4.995  1.00 20.00    -0.401 OA
HETATM   11  H22 UNL     1     -32.390   3.510   5.414  1.00 20.00     0.209 HD
ENDBRANCH   9  10
ENDBRANCH   8   9
ENDBRANCH   7   8
ENDBRANCH   6   7
TORSDOF 4
ENDMDL
MODEL 6
REMARK VINA RESULT:      -2.1      3.241      5.154
REMARK  4 active torsions:
REMARK  status: ('A' for Active; 'I' for Inactive)
REMARK    1  A    between atoms: C6_6  and  C7_7 
REMARK    2  A    between atoms: C7_7  and  C8_8 
REMARK    3  A    between atoms: C8_8  and  C9_9 
REMARK    4  A    between atoms: C9_9  and  O10_10 
ROOT
HETATM    1  C1  UNL     1     -31.884   7.813   1.902  1.00 20.00     0.000 A 
HETATM    2  C2  UNL     1     -32.475   8.356   3.042  1.00 20.00     0.001 A 
HETATM    3  C3  UNL     1     -32.342   6.600   1.388  1.00 20.00     0.001 A 
HETATM    4  C4  UNL     1     -33.525   7.684   3.669  1.00 20.00     0.007 A 
HETATM    5  C5  UNL     1     -33.391   5.929   2.015  1.00 20.00     0.007 A 
HETATM    6  C6  UNL     1     -33.983   6.471   3.156  1.00 20.00    -0.058 A 
ENDROOT
BRANCH   6   7
HETATM    7  C7  UNL     1     -35.105   5.753   3.827  1.00 20.00     0.041 C 
BRANCH   7   8
HETATM    8  C8  UNL     1     -34.604   4.648   4.767  1.00 20.00     0.030 C 
BRANCH   8   9
HETATM    9  C9  UNL     1     -33.750   3.618   4.040  1.00 20.00     0.164 C 
BRANCH   9  10
HETATM   10  O10 UNL     1     -33.004   2.882   4.998  1.00 20.00    -0.401 OA
HETATM   11  H22 UNL     1     -33.112   3.339   5.849  1.00 20.00     0.209 HD
ENDBRANCH   9  10
ENDBRANCH   8   9
ENDBRANCH   7   8
ENDBRANCH   6   7
TORSDOF 4
ENDMDL
MODEL 7
REMARK VINA RESULT:      -1.7      2.804      4.572
REMARK  4 active torsions:
REMARK  status: ('A' for Active; 'I' for Inactive)
REMARK    1  A    between atoms: C6_6  and  C7_7 
REMARK    2  A    between atoms: C7_7  and  C8_8 
REMARK    3  A    between atoms: C8_8  and  C9_9 
REMARK    4  A    between atoms: C9_9  and  O10_10 
ROOT
HETATM    1  C1  UNL     1     -31.500   7.280   0.929  1.00 20.00     0.000 A 
HETATM    2  C2  UNL     1     -32.238   6.120   1.168  1.00 20.00     0.001 A 
HETATM    3  C3  UNL     1     -31.688   8.404   1.732  1.00 20.00     0.001 A 
HETATM    4  C4  UNL     1     -33.165   6.087   2.210  1.00 20.00     0.007 A 
HETATM    5  C5  UNL     1     -32.615   8.371   2.773  1.00 20.00     0.007 A 
HETATM    6  C6  UNL     1     -33.354   7.212   3.012  1.00 20.00    -0.058 A 
ENDROOT
BRANCH   6   7
HETATM    7  C7  UNL     1     -34.345   7.177   4.125  1.00 20.00     0.041 C 
BRANCH   7   8
HETATM    8  C8  UNL     1     -35.457   6.149   3.877  1.00 20.00     0.030 C 
BRANCH   8   9
HETATM    9  C9  UNL     1     -35.360   4.959   4.822  1.00 20.00     0.164 C 
BRANCH   9  10
HETATM   10  O10 UNL     1     -34.402   4.043   4.310  1.00 20.00    -0.401 OA
HETATM   11  H22 UNL     1     -34.147   3.464   5.046  1.00 20.00     0.209 HD
ENDBRANCH   9  10
ENDBRANCH   8   9
ENDBRANCH   7   8
ENDBRANCH   6   7
TORSDOF 4
ENDMDL
MODEL 8
REMARK VINA RESULT:      -1.4      3.423      5.142
REMARK  4 active torsions:
REMARK  status: ('A' for Active; 'I' for Inactive)
REMARK    1  A    between atoms: C6_6  and  C7_7 
REMARK    2  A    between atoms: C7_7  and  C8_8 
REMARK    3  A    between atoms: C8_8  and  C9_9 
REMARK    4  A    between atoms: C9_9  and  O10_10 
ROOT
HETATM    1  C1  UNL     1     -32.380   8.344   2.415  1.00 20.00     0.000 A 
HETATM    2  C2  UNL     1     -32.038   7.281   1.579  1.00 20.00     0.001 A 
HETATM    3  C3  UNL     1     -33.292   8.150   3.452  1.00 20.00     0.001 A 
HETATM    4  C4  UNL     1     -32.610   6.024   1.781  1.00 20.00     0.007 A 
HETATM    5  C5  UNL     1     -33.863   6.894   3.653  1.00 20.00     0.007 A 
HETATM    6  C6  UNL     1     -33.522   5.831   2.818  1.00 20.00    -0.058 A 
ENDROOT
BRANCH   6   7
HETATM    7  C7  UNL     1     -34.133   4.488   3.033  1.00 20.00     0.041 C 
BRANCH   7   8
HETATM    8  C8  UNL     1     -34.082   4.058   4.505  1.00 20.00     0.030 C 
BRANCH   8   9
HETATM    9  C9  UNL     1     -33.183   2.848   4.719  1.00 20.00     0.164 C 
BRANCH   9  10
HETATM   10  O10 UNL     1     -32.307   3.113   5.805  1.00 20.00    -0.401 OA
HETATM   11  H22 UNL     1     -31.406   2.935   5.488  1.00 20.00     0.209 HD
ENDBRANCH   9  10
ENDBRANCH   8   9
ENDBRANCH   7   8
ENDBRANCH   6   7
TORSDOF 4
ENDMDL
MODEL 9
REMARK VINA RESULT:      -0.9      2.672      4.779
REMARK  4 active torsions:
REMARK  status: ('A' for Active; 'I' for Inactive)
REMARK    1  A    between atoms: C6_6  and  C7_7 
REMARK    2  A    between atoms: C7_7  and  C8_8 
REMARK    3  A    between atoms: C8_8  and  C9_9 
REMARK    4  A    between atoms: C9_9  and  O10_10 
ROOT
HETATM    1  C1  UNL     1     -31.808   9.422  -0.054  1.00 20.00     0.000 A 
HETATM    2  C2  UNL     1     -32.750  10.120   0.700  1.00 20.00     0.001 A 
HETATM    3  C3  UNL     1     -31.356   8.174   0.375  1.00 20.00     0.001 A 
HETATM    4  C4  UNL     1     -33.240   9.570   1.885  1.00 20.00     0.007 A 
HETATM    5  C5  UNL     1     -31.845   7.625   1.559  1.00 20.00     0.007 A 
HETATM    6  C6  UNL     1     -32.788   8.323   2.314  1.00 20.00    -0.058 A 
ENDROOT
BRANCH   6   7
HETATM    7  C7  UNL     1     -33.310   7.735   3.581  1.00 20.00     0.041 C 
BRANCH   7   8
HETATM    8  C8  UNL     1     -34.011   6.389   3.349  1.00 20.00     0.030 C 
BRANCH   8   9
HETATM    9  C9  UNL     1     -35.349   6.306   4.070  1.00 20.00     0.164 C 
BRANCH   9  10
HETATM   10  O10 UNL     1     -35.536   4.979   4.540  1.00 20.00    -0.401 OA
HETATM   11  H22 UNL     1     -36.266   4.600   4.024  1.00 20.00     0.209 HD
ENDBRANCH   9  10
ENDBRANCH   8   9
ENDBRANCH   7   8
ENDBRANCH   6   7
TORSDOF 4
ENDMDL
