MODEL 1
REMARK VINA RESULT:      -2.1      0.000      0.000
REMARK  4 active torsions:
REMARK  status: ('A' for Active; 'I' for Inactive)
REMARK    1  A    between atoms: C6_6  and  C7_7 
REMARK    2  A    between atoms: C7_7  and  C8_8 
REMARK    3  A    between atoms: C8_8  and  C9_9 
REMARK    4  A    between atoms: C9_9  and  S10_10 
ROOT
HETATM    1  C1  UNL     1     -35.186   5.173   4.531  1.00 20.00     0.000 A 
HETATM    2  C2  UNL     1     -34.210   4.315   4.027  1.00 20.00     0.001 A 
HETATM    3  C3  UNL     1     -35.238   6.500   4.106  1.00 20.00     0.001 A 
HETATM    4  C4  UNL     1     -33.283   4.785   3.095  1.00 20.00     0.007 A 
HETATM    5  C5  UNL     1     -34.312   6.971   3.175  1.00 20.00     0.007 A 
HETATM    6  C6  UNL     1     -33.335   6.113   2.670  1.00 20.00    -0.058 A 
ENDROOT
BRANCH   6   7
HETATM    7  C7  UNL     1     -32.344   6.616   1.674  1.00 20.00     0.039 C 
BRANCH   7   8
HETATM    8  C8  UNL     1     -31.998   8.111   1.820  1.00 20.00     0.014 C 
BRANCH   8   9
HETATM    9  C9  UNL     1     -31.626   8.757   0.485  1.00 20.00     0.071 C 
BRANCH   9  10
HETATM   10  S10 UNL     1     -32.618  10.251   0.198  1.00 20.00    -0.182 SA
HETATM   11  H22 UNL     1     -31.584  11.103   0.173  1.00 20.00     0.101 HD
ENDBRANCH   9  10
ENDBRANCH   8   9
ENDBRANCH   7   8
ENDBRANCH   6   7
TORSDOF 4
ENDMDL
MODEL 2
REMARK VINA RESULT:      -2.1      0.026      1.528
REMARK  4 active torsions:
REMARK  status: ('A' for Active; 'I' for Inactive)
REMARK    1  A    between atoms: C6_6  and  C7_7 
REMARK    2  A    between atoms: C7_7  and  C8_8 
REMARK    3  A    between atoms: C8_8  and  C9_9 
REMARK    4  A    between atoms: C9_9  and  S10_10 
ROOT
HETATM    1  C1  UNL     1     -35.204   5.192   4.528  1.00 20.00     0.000 A 
HETATM    2  C2  UNL     1     -35.244   6.519   4.102  1.00 20.00     0.001 A 
HETATM    3  C3  UNL     1     -34.237   4.324   4.020  1.00 20.00     0.001 A 
HETATM    4  C4  UNL     1     -34.317   6.979   3.167  1.00 20.00     0.007 A 
HETATM    5  C5  UNL     1     -33.311   4.784   3.085  1.00 20.00     0.007 A 
HETATM    6  C6  UNL     1     -33.350   6.112   2.659  1.00 20.00    -0.058 A 
ENDROOT
BRANCH   6   7
HETATM    7  C7  UNL     1     -32.359   6.603   1.657  1.00 20.00     0.039 C 
BRANCH   7   8
HETATM    8  C8  UNL     1     -31.995   8.093   1.800  1.00 20.00     0.014 C 
BRANCH   8   9
HETATM    9  C9  UNL     1     -31.647   8.740   0.459  1.00 20.00     0.071 C 
BRANCH   9  10
HETATM   10  S10 UNL     1     -32.612  10.259   0.213  1.00 20.00    -0.182 SA
HETATM   11  H22 UNL     1     -31.661  11.100   0.641  1.00 20.00     0.101 HD
ENDBRANCH   9  10
ENDBRANCH   8   9
ENDBRANCH   7   8
ENDBRANCH   6   7
TORSDOF 4
ENDMDL
MODEL 3
REMARK VINA RESULT:      -1.5      2.903      4.837
REMARK  4 active torsions:
REMARK  status: ('A' for Active; 'I' for Inactive)
REMARK    1  A    between atoms: C6_6  and  C7_7 
REMARK    2  A    between atoms: C7_7  and  C8_8 
REMARK    3  A    between atoms: C8_8  and  C9_9 
REMARK    4  A    between atoms: C9_9  and  S10_10 
ROOT
HETATM    1  C1  UNL     1     -31.815   7.734   1.877  1.00 20.00     0.000 A 
HETATM    2  C2  UNL     1     -32.303   8.372   3.016  1.00 20.00     0.001 A 
HETATM    3  C3  UNL     1     -32.434   6.577   1.405  1.00 20.00     0.001 A 
HETATM    4  C4  UNL     1     -33.412   7.853   3.684  1.00 20.00     0.007 A 
HETATM    5  C5  UNL     1     -33.542   6.057   2.073  1.00 20.00     0.007 A 
HETATM    6  C6  UNL     1     -34.032   6.696   3.213  1.00 20.00    -0.058 A 
ENDROOT
BRANCH   6   7
HETATM    7  C7  UNL     1     -35.217   6.139   3.928  1.00 20.00     0.039 C 
BRANCH   7   8
HETATM    8  C8  UNL     1     -34.974   4.772   4.595  1.00 20.00     0.014 C 
BRANCH   8   9
HETATM    9  C9  UNL     1     -33.904   3.952   3.873  1.00 20.00     0.071 C 
BRANCH   9  10
HETATM   10  S10 UNL     1     -33.031   2.869   5.041  1.00 20.00    -0.182 SA
HETATM   11  H22 UNL     1     -32.469   2.085   4.111  1.00 20.00     0.101 HD
ENDBRANCH   9  10
ENDBRANCH   8   9
ENDBRANCH   7   8
ENDBRANCH   6   7
TORSDOF 4
ENDMDL
MODEL 4
REMARK VINA RESULT:      -1.5      2.905      4.670
REMARK  4 active torsions:
REMARK  status: ('A' for Active; 'I' for Inactive)
REMARK    1  A    between atoms: C6_6  and  C7_7 
REMARK    2  A    between atoms: C7_7  and  C8_8 
REMARK    3  A    between atoms: C8_8  and  C9_9 
REMARK    4  A    between atoms: C9_9  and  S10_10 
ROOT
HETATM    1  C1  UNL     1     -31.820   7.701   1.848  1.00 20.00     0.000 A 
HETATM    2  C2  UNL     1     -32.442   6.536   1.402  1.00 20.00     0.001 A 
HETATM    3  C3  UNL     1     -32.297   8.357   2.983  1.00 20.00     0.001 A 
HETATM    4  C4  UNL     1     -33.543   6.026   2.090  1.00 20.00     0.007 A 
HETATM    5  C5  UNL     1     -33.398   7.848   3.671  1.00 20.00     0.007 A 
HETATM    6  C6  UNL     1     -34.021   6.682   3.225  1.00 20.00    -0.058 A 
ENDROOT
BRANCH   6   7
HETATM    7  C7  UNL     1     -35.199   6.138   3.961  1.00 20.00     0.039 C 
BRANCH   7   8
HETATM    8  C8  UNL     1     -34.964   4.760   4.609  1.00 20.00     0.014 C 
BRANCH   8   9
HETATM    9  C9  UNL     1     -33.874   3.959   3.896  1.00 20.00     0.071 C 
BRANCH   9  10
HETATM   10  S10 UNL     1     -33.001   2.881   5.070  1.00 20.00    -0.182 SA
HETATM   11  H22 UNL     1     -31.924   2.679   4.300  1.00 20.00     0.101 HD
ENDBRANCH   9  10
ENDBRANCH   8   9
ENDBRANCH   7   8
ENDBRANCH   6   7
TORSDOF 4
ENDMDL
MODEL 5
REMARK VINA RESULT:      -0.7      2.625      4.847
REMARK  4 active torsions:
REMARK  status: ('A' for Active; 'I' for Inactive)
REMARK    1  A    between atoms: C6_6  and  C7_7 
REMARK    2  A    between atoms: C7_7  and  C8_8 
REMARK    3  A    between atoms: C8_8  and  C9_9 
REMARK    4  A    between atoms: C9_9  and  S10_10 
ROOT
HETATM    1  C1  UNL     1     -31.462   7.449   0.914  1.00 20.00     0.000 A 
HETATM    2  C2  UNL     1     -31.659   8.526   1.778  1.00 20.00     0.001 A 
HETATM    3  C3  UNL     1     -32.193   6.274   1.085  1.00 20.00     0.001 A 
HETATM    4  C4  UNL     1     -32.589   8.427   2.813  1.00 20.00     0.007 A 
HETATM    5  C5  UNL     1     -33.122   6.175   2.120  1.00 20.00     0.007 A 
HETATM    6  C6  UNL     1     -33.320   7.252   2.984  1.00 20.00    -0.058 A 
ENDROOT
BRANCH   6   7
HETATM    7  C7  UNL     1     -34.314   7.145   4.091  1.00 20.00     0.039 C 
BRANCH   7   8
HETATM    8  C8  UNL     1     -35.421   6.099   3.856  1.00 20.00     0.014 C 
BRANCH   8   9
HETATM    9  C9  UNL     1     -35.307   4.906   4.805  1.00 20.00     0.071 C 
BRANCH   9  10
HETATM   10  S10 UNL     1     -33.884   3.868   4.361  1.00 20.00    -0.182 SA
HETATM   11  H22 UNL     1     -33.571   4.531   3.241  1.00 20.00     0.101 HD
ENDBRANCH   9  10
ENDBRANCH   8   9
ENDBRANCH   7   8
ENDBRANCH   6   7
TORSDOF 4
ENDMDL
MODEL 6
REMARK VINA RESULT:       0.1      2.544      4.959
REMARK  4 active torsions:
REMARK  status: ('A' for Active; 'I' for Inactive)
REMARK    1  A    between atoms: C6_6  and  C7_7 
REMARK    2  A    between atoms: C7_7  and  C8_8 
REMARK    3  A    between atoms: C8_8  and  C9_9 
REMARK    4  A    between atoms: C9_9  and  S10_10 
ROOT
HETATM    1  C1  UNL     1     -31.918   9.894  -0.018  1.00 20.00     0.000 A 
HETATM    2  C2  UNL     1     -31.286   8.652   0.034  1.00 20.00     0.001 A 
HETATM    3  C3  UNL     1     -32.878  10.230   0.936  1.00 20.00     0.001 A 
HETATM    4  C4  UNL     1     -31.614   7.746   1.042  1.00 20.00     0.007 A 
HETATM    5  C5  UNL     1     -33.207   9.324   1.944  1.00 20.00     0.007 A 
HETATM    6  C6  UNL     1     -32.574   8.081   1.997  1.00 20.00    -0.058 A 
ENDROOT
BRANCH   6   7
HETATM    7  C7  UNL     1     -32.926   7.112   3.075  1.00 20.00     0.039 C 
BRANCH   7   8
HETATM    8  C8  UNL     1     -34.196   7.475   3.868  1.00 20.00     0.014 C 
BRANCH   8   9
HETATM    9  C9  UNL     1     -35.170   6.302   3.979  1.00 20.00     0.071 C 
BRANCH   9  10
HETATM   10  S10 UNL     1     -34.271   4.723   3.991  1.00 20.00    -0.182 SA
HETATM   11  H22 UNL     1     -33.181   5.178   3.359  1.00 20.00     0.101 HD
ENDBRANCH   9  10
ENDBRANCH   8   9
ENDBRANCH   7   8
ENDBRANCH   6   7
TORSDOF 4
ENDMDL
MODEL 7
REMARK VINA RESULT:       0.1      2.517      5.154
REMARK  4 active torsions:
REMARK  status: ('A' for Active; 'I' for Inactive)
REMARK    1  A    between atoms: C6_6  and  C7_7 
REMARK    2  A    between atoms: C7_7  and  C8_8 
REMARK    3  A    between atoms: C8_8  and  C9_9 
REMARK    4  A    between atoms: C9_9  and  S10_10 
ROOT
HETATM    1  C1  UNL     1     -31.977   9.868  -0.145  1.00 20.00     0.000 A 
HETATM    2  C2  UNL     1     -32.898  10.254   0.829  1.00 20.00     0.001 A 
HETATM    3  C3  UNL     1     -31.347   8.627  -0.058  1.00 20.00     0.001 A 
HETATM    4  C4  UNL     1     -33.188   9.397   1.891  1.00 20.00     0.007 A 
HETATM    5  C5  UNL     1     -31.637   7.771   1.004  1.00 20.00     0.007 A 
HETATM    6  C6  UNL     1     -32.558   8.156   1.979  1.00 20.00    -0.058 A 
ENDROOT
BRANCH   6   7
HETATM    7  C7  UNL     1     -32.868   7.240   3.115  1.00 20.00     0.039 C 
BRANCH   7   8
HETATM    8  C8  UNL     1     -34.183   7.560   3.851  1.00 20.00     0.014 C 
BRANCH   8   9
HETATM    9  C9  UNL     1     -35.110   6.348   3.943  1.00 20.00     0.071 C 
BRANCH   9  10
HETATM   10  S10 UNL     1     -34.164   4.806   3.782  1.00 20.00    -0.182 SA
HETATM   11  H22 UNL     1     -33.091   5.228   4.464  1.00 20.00     0.101 HD
ENDBRANCH   9  10
ENDBRANCH   8   9
ENDBRANCH   7   8
ENDBRANCH   6   7
TORSDOF 4
ENDMDL
MODEL 8
REMARK VINA RESULT:       0.4      1.292      2.052
REMARK  4 active torsions:
REMARK  status: ('A' for Active; 'I' for Inactive)
REMARK    1  A    between atoms: C6_6  and  C7_7 
REMARK    2  A    between atoms: C7_7  and  C8_8 
REMARK    3  A    between atoms: C8_8  and  C9_9 
REMARK    4  A    between atoms: C9_9  and  S10_10 
ROOT
HETATM    1  C1  UNL     1     -35.173   5.043   4.813  1.00 20.00     0.000 A 
HETATM    2  C2  UNL     1     -35.356   6.243   4.127  1.00 20.00     0.001 A 
HETATM    3  C3  UNL     1     -34.229   4.119   4.364  1.00 20.00     0.001 A 
HETATM    4  C4  UNL     1     -34.595   6.520   2.991  1.00 20.00     0.007 A 
HETATM    5  C5  UNL     1     -33.468   4.395   3.228  1.00 20.00     0.007 A 
HETATM    6  C6  UNL     1     -33.651   5.596   2.542  1.00 20.00    -0.058 A 
ENDROOT
BRANCH   6   7
HETATM    7  C7  UNL     1     -32.837   5.891   1.327  1.00 20.00     0.039 C 
BRANCH   7   8
HETATM    8  C8  UNL     1     -31.601   6.774   1.587  1.00 20.00     0.014 C 
BRANCH   8   9
HETATM    9  C9  UNL     1     -31.957   8.257   1.694  1.00 20.00     0.071 C 
BRANCH   9  10
HETATM   10  S10 UNL     1     -31.816   8.826   3.414  1.00 20.00    -0.182 SA
HETATM   11  H22 UNL     1     -32.929   9.571   3.407  1.00 20.00     0.101 HD
ENDBRANCH   9  10
ENDBRANCH   8   9
ENDBRANCH   7   8
ENDBRANCH   6   7
TORSDOF 4
ENDMDL
MODEL 9
REMARK VINA RESULT:       0.4      2.177      5.111
REMARK  4 active torsions:
REMARK  status: ('A' for Active; 'I' for Inactive)
REMARK    1  A    between atoms: C6_6  and  C7_7 
REMARK    2  A    between atoms: C7_7  and  C8_8 
REMARK    3  A    between atoms: C8_8  and  C9_9 
REMARK    4  A    between atoms: C9_9  and  S10_10 
ROOT
HETATM    1  C1  UNL     1     -32.480  10.677  -0.154  1.00 20.00     0.000 A 
HETATM    2  C2  UNL     1     -32.978  10.546   1.142  1.00 20.00     0.001 A 
HETATM    3  C3  UNL     1     -31.793   9.618  -0.748  1.00 20.00     0.001 A 
HETATM    4  C4  UNL     1     -32.789   9.356   1.844  1.00 20.00     0.007 A 
HETATM    5  C5  UNL     1     -31.603   8.428  -0.046  1.00 20.00     0.007 A 
HETATM    6  C6  UNL     1     -32.102   8.297   1.250  1.00 20.00    -0.058 A 
ENDROOT
BRANCH   6   7
HETATM    7  C7  UNL     1     -31.899   7.024   2.001  1.00 20.00     0.039 C 
BRANCH   7   8
HETATM    8  C8  UNL     1     -32.964   5.944   1.724  1.00 20.00     0.014 C 
BRANCH   8   9
HETATM    9  C9  UNL     1     -33.603   5.414   3.008  1.00 20.00     0.071 C 
BRANCH   9  10
HETATM   10  S10 UNL     1     -34.567   6.717   3.828  1.00 20.00    -0.182 SA
HETATM   11  H22 UNL     1     -34.779   6.041   4.964  1.00 20.00     0.101 HD
ENDBRANCH   9  10
ENDBRANCH   8   9
ENDBRANCH   7   8
ENDBRANCH   6   7
TORSDOF 4
ENDMDL
