MODEL 1
REMARK VINA RESULT:      -1.9      0.000      0.000
REMARK  2 active torsions:
REMARK  status: ('A' for Active; 'I' for Inactive)
REMARK    1  A    between atoms: C5_5  and  N8_8 
REMARK    2  A    between atoms: C6_6  and  S11_11 
ROOT
HETATM    1  C1  UNL     1     -33.113   5.456   2.130  1.00 20.00     0.037 A 
HETATM    2  C2  UNL     1     -33.759   7.201   3.670  1.00 20.00     0.037 A 
HETATM    3  C3  UNL     1     -32.383   6.382   1.386  1.00 20.00     0.021 A 
HETATM    4  C4  UNL     1     -33.029   8.128   2.926  1.00 20.00     0.021 A 
HETATM    5  C5  UNL     1     -33.801   5.865   3.272  1.00 20.00     0.102 A 
HETATM    6  C6  UNL     1     -32.341   7.718   1.784  1.00 20.00    -0.000 A 
ENDROOT
BRANCH   5   7
HETATM    7  N8  UNL     1     -34.543   4.921   4.031  1.00 20.00    -0.116 N 
HETATM    8  O9  UNL     1     -34.074   3.769   4.194  1.00 20.00    -0.532 OA
HETATM    9  O10 UNL     1     -35.647   5.265   4.516  1.00 20.00    -0.532 OA
ENDBRANCH   5   7
BRANCH   6  10
HETATM   10  S11 UNL     1     -31.410   8.902   0.832  1.00 20.00    -0.134 SA
HETATM   11  C7  UNL     1     -32.745  10.023   0.357  1.00 20.00     0.095 C 
ENDBRANCH   6  10
TORSDOF 2
ENDMDL
MODEL 2
REMARK VINA RESULT:      -1.9      0.013      1.457
REMARK  2 active torsions:
REMARK  status: ('A' for Active; 'I' for Inactive)
REMARK    1  A    between atoms: C5_5  and  N8_8 
REMARK    2  A    between atoms: C6_6  and  S11_11 
ROOT
HETATM    1  C1  UNL     1     -33.747   7.201   3.668  1.00 20.00     0.037 A 
HETATM    2  C2  UNL     1     -33.102   5.459   2.124  1.00 20.00     0.037 A 
HETATM    3  C3  UNL     1     -33.022   8.130   2.923  1.00 20.00     0.021 A 
HETATM    4  C4  UNL     1     -32.376   6.388   1.378  1.00 20.00     0.021 A 
HETATM    5  C5  UNL     1     -33.788   5.866   3.268  1.00 20.00     0.102 A 
HETATM    6  C6  UNL     1     -32.336   7.724   1.778  1.00 20.00    -0.000 A 
ENDROOT
BRANCH   5   7
HETATM    7  N8  UNL     1     -34.528   4.920   4.026  1.00 20.00    -0.116 N 
HETATM    8  O9  UNL     1     -34.054   3.770   4.194  1.00 20.00    -0.532 OA
HETATM    9  O10 UNL     1     -35.635   5.260   4.508  1.00 20.00    -0.532 OA
ENDBRANCH   5   7
BRANCH   6  10
HETATM   10  S11 UNL     1     -31.407   8.911   0.828  1.00 20.00    -0.134 SA
HETATM   11  C7  UNL     1     -32.747  10.022   0.342  1.00 20.00     0.095 C 
ENDBRANCH   6  10
TORSDOF 2
ENDMDL
MODEL 3
REMARK VINA RESULT:      -0.8      3.943      4.834
REMARK  2 active torsions:
REMARK  status: ('A' for Active; 'I' for Inactive)
REMARK    1  A    between atoms: C5_5  and  N8_8 
REMARK    2  A    between atoms: C6_6  and  S11_11 
ROOT
HETATM    1  C1  UNL     1     -32.646   6.500   1.469  1.00 20.00     0.037 A 
HETATM    2  C2  UNL     1     -33.350   8.246   2.983  1.00 20.00     0.037 A 
HETATM    3  C3  UNL     1     -33.281   5.551   2.268  1.00 20.00     0.021 A 
HETATM    4  C4  UNL     1     -33.986   7.296   3.782  1.00 20.00     0.021 A 
HETATM    5  C5  UNL     1     -32.681   7.848   1.826  1.00 20.00     0.102 A 
HETATM    6  C6  UNL     1     -33.951   5.948   3.425  1.00 20.00    -0.000 A 
ENDROOT
BRANCH   5   7
HETATM    7  N8  UNL     1     -32.035   8.815   1.011  1.00 20.00    -0.116 N 
HETATM    8  O9  UNL     1     -32.580   9.933   0.845  1.00 20.00    -0.532 OA
HETATM    9  O10 UNL     1     -30.936   8.526   0.479  1.00 20.00    -0.532 OA
ENDBRANCH   5   7
BRANCH   6  10
HETATM   10  S11 UNL     1     -34.761   4.734   4.447  1.00 20.00    -0.134 SA
HETATM   11  C7  UNL     1     -33.541   3.404   4.360  1.00 20.00     0.095 C 
ENDBRANCH   6  10
TORSDOF 2
ENDMDL
MODEL 4
REMARK VINA RESULT:      -0.8      3.945      5.050
REMARK  2 active torsions:
REMARK  status: ('A' for Active; 'I' for Inactive)
REMARK    1  A    between atoms: C5_5  and  N8_8 
REMARK    2  A    between atoms: C6_6  and  S11_11 
ROOT
HETATM    1  C1  UNL     1     -33.325   8.239   2.984  1.00 20.00     0.037 A 
HETATM    2  C2  UNL     1     -32.665   6.502   1.441  1.00 20.00     0.037 A 
HETATM    3  C3  UNL     1     -33.957   7.289   3.784  1.00 20.00     0.021 A 
HETATM    4  C4  UNL     1     -33.298   5.550   2.241  1.00 20.00     0.021 A 
HETATM    5  C5  UNL     1     -32.678   7.846   1.812  1.00 20.00     0.102 A 
HETATM    6  C6  UNL     1     -33.944   5.944   3.413  1.00 20.00    -0.000 A 
ENDROOT
BRANCH   5   7
HETATM    7  N8  UNL     1     -32.033   8.814   0.998  1.00 20.00    -0.116 N 
HETATM    8  O9  UNL     1     -32.576   9.934   0.838  1.00 20.00    -0.532 OA
HETATM    9  O10 UNL     1     -30.937   8.524   0.460  1.00 20.00    -0.532 OA
ENDBRANCH   5   7
BRANCH   6  10
HETATM   10  S11 UNL     1     -34.754   4.730   4.435  1.00 20.00    -0.134 SA
HETATM   11  C7  UNL     1     -33.529   3.405   4.357  1.00 20.00     0.095 C 
ENDBRANCH   6  10
TORSDOF 2
ENDMDL
