MODEL 1
REMARK VINA RESULT:      -3.1      0.000      0.000
REMARK  1 active torsions:
REMARK  status: ('A' for Active; 'I' for Inactive)
REMARK    1  A    between atoms: C6_6  and  C9_9 
ROOT
HETATM    1  C1  UNL     1     -34.054   7.431   3.918  1.00 20.00     0.007 A 
HETATM    2  C2  UNL     1     -33.637   5.543   2.470  1.00 20.00     0.007 A 
HETATM    3  C3  UNL     1     -33.186   8.211   3.153  1.00 20.00     0.007 A 
HETATM    4  C4  UNL     1     -32.768   6.322   1.705  1.00 20.00     0.007 A 
HETATM    5  C5  UNL     1     -34.279   6.098   3.576  1.00 20.00    -0.062 A 
HETATM    6  C6  UNL     1     -32.543   7.656   2.047  1.00 20.00    -0.059 A 
HETATM    7  C7  UNL     1     -35.208   5.264   4.394  1.00 20.00     0.048 C 
ENDROOT
BRANCH   6   8
HETATM    8  C9  UNL     1     -31.616   8.490   1.228  1.00 20.00     0.034 C 
HETATM    9  C8  UNL     1     -32.350   9.572   0.442  1.00 20.00     0.010 C 
ENDBRANCH   6   8
TORSDOF 1
ENDMDL
MODEL 2
REMARK VINA RESULT:      -3.1      0.036      1.611
REMARK  1 active torsions:
REMARK  status: ('A' for Active; 'I' for Inactive)
REMARK    1  A    between atoms: C6_6  and  C9_9 
ROOT
HETATM    1  C1  UNL     1     -33.685   5.541   2.480  1.00 20.00     0.007 A 
HETATM    2  C2  UNL     1     -34.061   7.435   3.932  1.00 20.00     0.007 A 
HETATM    3  C3  UNL     1     -32.807   6.305   1.710  1.00 20.00     0.007 A 
HETATM    4  C4  UNL     1     -33.184   8.200   3.162  1.00 20.00     0.007 A 
HETATM    5  C5  UNL     1     -34.311   6.107   3.591  1.00 20.00    -0.062 A 
HETATM    6  C6  UNL     1     -32.558   7.634   2.050  1.00 20.00    -0.059 A 
HETATM    7  C7  UNL     1     -35.249   5.290   4.415  1.00 20.00     0.048 C 
ENDROOT
BRANCH   6   8
HETATM    8  C9  UNL     1     -31.618   8.451   1.228  1.00 20.00     0.034 C 
HETATM    9  C8  UNL     1     -32.332   9.556   0.455  1.00 20.00     0.010 C 
ENDBRANCH   6   8
TORSDOF 1
ENDMDL
MODEL 3
REMARK VINA RESULT:      -2.7      0.891      4.310
REMARK  1 active torsions:
REMARK  status: ('A' for Active; 'I' for Inactive)
REMARK    1  A    between atoms: C6_6  and  C9_9 
ROOT
HETATM    1  C1  UNL     1     -32.490   6.420   1.495  1.00 20.00     0.007 A 
HETATM    2  C2  UNL     1     -33.277   8.105   3.037  1.00 20.00     0.007 A 
HETATM    3  C3  UNL     1     -33.150   5.436   2.233  1.00 20.00     0.007 A 
HETATM    4  C4  UNL     1     -33.937   7.122   3.775  1.00 20.00     0.007 A 
HETATM    5  C5  UNL     1     -32.554   7.754   1.898  1.00 20.00    -0.062 A 
HETATM    6  C6  UNL     1     -33.873   5.788   3.373  1.00 20.00    -0.059 A 
HETATM    7  C7  UNL     1     -31.849   8.805   1.109  1.00 20.00     0.048 C 
ENDROOT
BRANCH   6   8
HETATM    8  C9  UNL     1     -34.580   4.736   4.161  1.00 20.00     0.034 C 
HETATM    9  C8  UNL     1     -33.696   3.522   4.433  1.00 20.00     0.010 C 
ENDBRANCH   6   8
TORSDOF 1
ENDMDL
MODEL 4
REMARK VINA RESULT:      -2.7      0.858      3.997
REMARK  1 active torsions:
REMARK  status: ('A' for Active; 'I' for Inactive)
REMARK    1  A    between atoms: C6_6  and  C9_9 
ROOT
HETATM    1  C1  UNL     1     -33.223   8.139   3.063  1.00 20.00     0.007 A 
HETATM    2  C2  UNL     1     -32.520   6.453   1.482  1.00 20.00     0.007 A 
HETATM    3  C3  UNL     1     -33.899   7.166   3.800  1.00 20.00     0.007 A 
HETATM    4  C4  UNL     1     -33.197   5.480   2.219  1.00 20.00     0.007 A 
HETATM    5  C5  UNL     1     -32.534   7.781   1.904  1.00 20.00    -0.062 A 
HETATM    6  C6  UNL     1     -33.887   5.837   3.378  1.00 20.00    -0.059 A 
HETATM    7  C7  UNL     1     -31.810   8.821   1.116  1.00 20.00     0.048 C 
ENDROOT
BRANCH   6   8
HETATM    8  C9  UNL     1     -34.609   4.797   4.167  1.00 20.00     0.034 C 
HETATM    9  C8  UNL     1     -33.753   3.558   4.415  1.00 20.00     0.010 C 
ENDBRANCH   6   8
TORSDOF 1
ENDMDL
MODEL 5
REMARK VINA RESULT:      -1.1      0.904      1.837
REMARK  1 active torsions:
REMARK  status: ('A' for Active; 'I' for Inactive)
REMARK    1  A    between atoms: C6_6  and  C9_9 
ROOT
HETATM    1  C1  UNL     1     -32.915   5.307   2.091  1.00 20.00     0.007 A 
HETATM    2  C2  UNL     1     -34.035   6.586   3.808  1.00 20.00     0.007 A 
HETATM    3  C3  UNL     1     -32.549   6.490   1.448  1.00 20.00     0.007 A 
HETATM    4  C4  UNL     1     -33.669   7.769   3.165  1.00 20.00     0.007 A 
HETATM    5  C5  UNL     1     -33.657   5.356   3.271  1.00 20.00    -0.062 A 
HETATM    6  C6  UNL     1     -32.928   7.721   1.985  1.00 20.00    -0.059 A 
HETATM    7  C7  UNL     1     -34.047   4.091   3.960  1.00 20.00     0.048 C 
ENDROOT
BRANCH   6   8
HETATM    8  C9  UNL     1     -32.535   8.986   1.297  1.00 20.00     0.034 C 
HETATM    9  C8  UNL     1     -31.300   8.810   0.419  1.00 20.00     0.010 C 
ENDBRANCH   6   8
TORSDOF 1
ENDMDL
MODEL 6
REMARK VINA RESULT:      -0.4      1.270      2.933
REMARK  1 active torsions:
REMARK  status: ('A' for Active; 'I' for Inactive)
REMARK    1  A    between atoms: C6_6  and  C9_9 
ROOT
HETATM    1  C1  UNL     1     -34.166   6.325   3.679  1.00 20.00     0.007 A 
HETATM    2  C2  UNL     1     -32.579   7.962   2.882  1.00 20.00     0.007 A 
HETATM    3  C3  UNL     1     -33.876   5.510   2.584  1.00 20.00     0.007 A 
HETATM    4  C4  UNL     1     -32.288   7.148   1.787  1.00 20.00     0.007 A 
HETATM    5  C5  UNL     1     -33.517   7.551   3.827  1.00 20.00    -0.062 A 
HETATM    6  C6  UNL     1     -32.938   5.922   1.638  1.00 20.00    -0.059 A 
HETATM    7  C7  UNL     1     -33.827   8.422   4.998  1.00 20.00     0.048 C 
ENDROOT
BRANCH   6   8
HETATM    8  C9  UNL     1     -32.627   5.050   0.468  1.00 20.00     0.034 C 
HETATM    9  C8  UNL     1     -31.263   4.376   0.592  1.00 20.00     0.010 C 
ENDBRANCH   6   8
TORSDOF 1
ENDMDL
MODEL 7
REMARK VINA RESULT:      -0.4      1.268      2.832
REMARK  1 active torsions:
REMARK  status: ('A' for Active; 'I' for Inactive)
REMARK    1  A    between atoms: C6_6  and  C9_9 
ROOT
HETATM    1  C1  UNL     1     -32.594   7.966   2.883  1.00 20.00     0.007 A 
HETATM    2  C2  UNL     1     -34.175   6.324   3.685  1.00 20.00     0.007 A 
HETATM    3  C3  UNL     1     -32.302   7.150   1.789  1.00 20.00     0.007 A 
HETATM    4  C4  UNL     1     -33.882   5.508   2.592  1.00 20.00     0.007 A 
HETATM    5  C5  UNL     1     -33.531   7.553   3.830  1.00 20.00    -0.062 A 
HETATM    6  C6  UNL     1     -32.944   5.921   1.645  1.00 20.00    -0.059 A 
HETATM    7  C7  UNL     1     -33.845   8.425   4.999  1.00 20.00     0.048 C 
ENDROOT
BRANCH   6   8
HETATM    8  C9  UNL     1     -32.632   5.050   0.475  1.00 20.00     0.034 C 
HETATM    9  C8  UNL     1     -31.265   4.383   0.596  1.00 20.00     0.010 C 
ENDBRANCH   6   8
TORSDOF 1
ENDMDL
MODEL 8
REMARK VINA RESULT:      -0.3      1.359      3.308
REMARK  1 active torsions:
REMARK  status: ('A' for Active; 'I' for Inactive)
REMARK    1  A    between atoms: C6_6  and  C9_9 
ROOT
HETATM    1  C1  UNL     1     -32.025   6.906   1.500  1.00 20.00     0.007 A 
HETATM    2  C2  UNL     1     -33.413   5.094   2.294  1.00 20.00     0.007 A 
HETATM    3  C3  UNL     1     -32.576   7.751   2.464  1.00 20.00     0.007 A 
HETATM    4  C4  UNL     1     -33.963   5.939   3.258  1.00 20.00     0.007 A 
HETATM    5  C5  UNL     1     -32.444   5.578   1.415  1.00 20.00    -0.062 A 
HETATM    6  C6  UNL     1     -33.545   7.267   3.342  1.00 20.00    -0.059 A 
HETATM    7  C7  UNL     1     -31.855   4.674   0.384  1.00 20.00     0.048 C 
ENDROOT
BRANCH   6   8
HETATM    8  C9  UNL     1     -34.133   8.171   4.375  1.00 20.00     0.034 C 
HETATM    9  C8  UNL     1     -33.167   8.444   5.524  1.00 20.00     0.010 C 
ENDBRANCH   6   8
TORSDOF 1
ENDMDL
MODEL 9
REMARK VINA RESULT:      -0.3      1.368      3.433
REMARK  1 active torsions:
REMARK  status: ('A' for Active; 'I' for Inactive)
REMARK    1  A    between atoms: C6_6  and  C9_9 
ROOT
HETATM    1  C1  UNL     1     -33.371   5.069   2.264  1.00 20.00     0.007 A 
HETATM    2  C2  UNL     1     -32.008   6.899   1.471  1.00 20.00     0.007 A 
HETATM    3  C3  UNL     1     -33.940   5.907   3.223  1.00 20.00     0.007 A 
HETATM    4  C4  UNL     1     -32.576   7.738   2.431  1.00 20.00     0.007 A 
HETATM    5  C5  UNL     1     -32.406   5.566   1.388  1.00 20.00    -0.062 A 
HETATM    6  C6  UNL     1     -33.542   7.241   3.307  1.00 20.00    -0.059 A 
HETATM    7  C7  UNL     1     -31.798   4.669   0.362  1.00 20.00     0.048 C 
ENDROOT
BRANCH   6   8
HETATM    8  C9  UNL     1     -34.151   8.138   4.333  1.00 20.00     0.034 C 
HETATM    9  C8  UNL     1     -33.203   8.419   5.495  1.00 20.00     0.010 C 
ENDBRANCH   6   8
TORSDOF 1
ENDMDL
