MODEL 1
REMARK VINA RESULT:      -1.0      0.000      0.000
REMARK  0 active torsions:
REMARK  status: ('A' for Active; 'I' for Inactive)
ROOT
HETATM    1  C1  UNL     1     -33.562   5.412   2.490  1.00 20.00     0.008 A 
HETATM    2  C2  UNL     1     -34.165   7.247   3.939  1.00 20.00     0.008 A 
HETATM    3  C3  UNL     1     -32.829   6.285   1.688  1.00 20.00     0.019 A 
HETATM    4  C4  UNL     1     -33.431   8.121   3.138  1.00 20.00     0.019 A 
HETATM    5  C5  UNL     1     -34.231   5.892   3.616  1.00 20.00    -0.062 A 
HETATM    6  C6  UNL     1     -32.762   7.640   2.011  1.00 20.00     0.006 A 
HETATM    7  C7  UNL     1     -35.018   4.958   4.471  1.00 20.00     0.048 C 
HETATM    8  I8  UNL     1     -31.670   8.942   0.815  1.00 20.00    -0.045 I 
ENDROOT
TORSDOF 0
ENDMDL
MODEL 2
REMARK VINA RESULT:      -1.0      0.017      1.708
REMARK  0 active torsions:
REMARK  status: ('A' for Active; 'I' for Inactive)
ROOT
HETATM    1  C1  UNL     1     -34.179   7.244   3.942  1.00 20.00     0.008 A 
HETATM    2  C2  UNL     1     -33.574   5.402   2.501  1.00 20.00     0.008 A 
HETATM    3  C3  UNL     1     -33.443   8.114   3.140  1.00 20.00     0.019 A 
HETATM    4  C4  UNL     1     -32.837   6.272   1.699  1.00 20.00     0.019 A 
HETATM    5  C5  UNL     1     -34.246   5.887   3.623  1.00 20.00    -0.062 A 
HETATM    6  C6  UNL     1     -32.771   7.629   2.017  1.00 20.00     0.006 A 
HETATM    7  C7  UNL     1     -35.032   4.956   4.483  1.00 20.00     0.048 C 
HETATM    8  I8  UNL     1     -31.671   8.926   0.824  1.00 20.00    -0.045 I 
ENDROOT
TORSDOF 0
ENDMDL
MODEL 3
REMARK VINA RESULT:      -0.2      2.428      4.050
REMARK  0 active torsions:
REMARK  status: ('A' for Active; 'I' for Inactive)
ROOT
HETATM    1  C1  UNL     1     -32.728   8.397   2.790  1.00 20.00     0.008 A 
HETATM    2  C2  UNL     1     -32.343   6.592   1.232  1.00 20.00     0.008 A 
HETATM    3  C3  UNL     1     -33.487   7.545   3.591  1.00 20.00     0.019 A 
HETATM    4  C4  UNL     1     -33.102   5.739   2.033  1.00 20.00     0.019 A 
HETATM    5  C5  UNL     1     -32.155   7.921   1.610  1.00 20.00    -0.062 A 
HETATM    6  C6  UNL     1     -33.674   6.215   3.213  1.00 20.00     0.006 A 
HETATM    7  C7  UNL     1     -31.346   8.833   0.752  1.00 20.00     0.048 C 
HETATM    8  I8  UNL     1     -34.808   4.946   4.406  1.00 20.00    -0.045 I 
ENDROOT
TORSDOF 0
ENDMDL
MODEL 4
REMARK VINA RESULT:      -0.2      2.428      3.669
REMARK  0 active torsions:
REMARK  status: ('A' for Active; 'I' for Inactive)
ROOT
HETATM    1  C1  UNL     1     -32.353   6.539   1.260  1.00 20.00     0.008 A 
HETATM    2  C2  UNL     1     -32.736   8.384   2.770  1.00 20.00     0.008 A 
HETATM    3  C3  UNL     1     -33.129   5.713   2.071  1.00 20.00     0.019 A 
HETATM    4  C4  UNL     1     -33.513   7.559   3.582  1.00 20.00     0.019 A 
HETATM    5  C5  UNL     1     -32.155   7.875   1.609  1.00 20.00    -0.062 A 
HETATM    6  C6  UNL     1     -33.710   6.222   3.233  1.00 20.00     0.006 A 
HETATM    7  C7  UNL     1     -31.322   8.757   0.742  1.00 20.00     0.048 C 
HETATM    8  I8  UNL     1     -34.867   4.991   4.443  1.00 20.00    -0.045 I 
ENDROOT
TORSDOF 0
ENDMDL
MODEL 5
REMARK VINA RESULT:       1.3      1.767      2.670
REMARK  0 active torsions:
REMARK  status: ('A' for Active; 'I' for Inactive)
ROOT
HETATM    1  C1  UNL     1     -32.614   7.986   2.929  1.00 20.00     0.008 A 
HETATM    2  C2  UNL     1     -34.174   6.314   3.707  1.00 20.00     0.008 A 
HETATM    3  C3  UNL     1     -32.193   7.124   1.918  1.00 20.00     0.019 A 
HETATM    4  C4  UNL     1     -33.754   5.451   2.695  1.00 20.00     0.019 A 
HETATM    5  C5  UNL     1     -33.605   7.581   3.824  1.00 20.00    -0.062 A 
HETATM    6  C6  UNL     1     -32.763   5.855   1.800  1.00 20.00     0.006 A 
HETATM    7  C7  UNL     1     -34.053   8.503   4.907  1.00 20.00     0.048 C 
HETATM    8  I8  UNL     1     -32.133   4.569   0.294  1.00 20.00    -0.045 I 
ENDROOT
TORSDOF 0
ENDMDL
MODEL 6
REMARK VINA RESULT:       1.3      1.770      2.571
REMARK  0 active torsions:
REMARK  status: ('A' for Active; 'I' for Inactive)
ROOT
HETATM    1  C1  UNL     1     -34.163   6.282   3.691  1.00 20.00     0.008 A 
HETATM    2  C2  UNL     1     -32.624   7.970   2.907  1.00 20.00     0.008 A 
HETATM    3  C3  UNL     1     -33.734   5.421   2.683  1.00 20.00     0.019 A 
HETATM    4  C4  UNL     1     -32.194   7.109   1.898  1.00 20.00     0.019 A 
HETATM    5  C5  UNL     1     -33.608   7.557   3.804  1.00 20.00    -0.062 A 
HETATM    6  C6  UNL     1     -32.748   5.834   1.785  1.00 20.00     0.006 A 
HETATM    7  C7  UNL     1     -34.070   8.479   4.882  1.00 20.00     0.048 C 
HETATM    8  I8  UNL     1     -32.110   4.552   0.280  1.00 20.00    -0.045 I 
ENDROOT
TORSDOF 0
ENDMDL
