MODEL 1
REMARK VINA RESULT:      -3.5      0.000      0.000
REMARK  3 active torsions:
REMARK  status: ('A' for Active; 'I' for Inactive)
REMARK    1  A    between atoms: C2_2  and  C7_7 
REMARK    2  A    between atoms: C3_3  and  C8_8 
REMARK    3  A    between atoms: C7_7  and  C8_8 
ROOT
HETATM    1  C3  UNL     1     -33.464   6.388   2.404  1.00 20.00    -0.024 C 
HETATM    2  C4  UNL     1     -34.108   6.815   3.507  1.00 20.00    -0.091 C 
HETATM    3  C5  UNL     1     -35.404   6.175   3.928  1.00 20.00     0.042 C 
HETATM    4  C6  UNL     1     -33.637   7.915   4.416  1.00 20.00     0.042 C 
ENDROOT
BRANCH   1   5
HETATM    5  C8  UNL     1     -32.183   6.915   1.818  1.00 20.00     0.031 C 
BRANCH   5   6
HETATM    6  C7  UNL     1     -32.127   8.446   1.812  1.00 20.00     0.030 C 
BRANCH   6   7
HETATM    7  C2  UNL     1     -32.048   9.017   0.425  1.00 20.00    -0.037 C 
HETATM    8  C1  UNL     1     -32.596  10.182   0.063  1.00 20.00     0.007 C 
ENDBRANCH   6   7
ENDBRANCH   5   6
ENDBRANCH   1   5
TORSDOF 3
ENDMDL
MODEL 2
REMARK VINA RESULT:      -3.4      1.881      4.906
REMARK  3 active torsions:
REMARK  status: ('A' for Active; 'I' for Inactive)
REMARK    1  A    between atoms: C2_2  and  C7_7 
REMARK    2  A    between atoms: C3_3  and  C8_8 
REMARK    3  A    between atoms: C7_7  and  C8_8 
ROOT
HETATM    1  C3  UNL     1     -33.973   7.025   3.389  1.00 20.00    -0.024 C 
HETATM    2  C4  UNL     1     -33.038   6.955   2.422  1.00 20.00    -0.091 C 
HETATM    3  C5  UNL     1     -31.988   8.028   2.299  1.00 20.00     0.042 C 
HETATM    4  C6  UNL     1     -32.920   5.854   1.406  1.00 20.00     0.042 C 
ENDROOT
BRANCH   1   5
HETATM    5  C8  UNL     1     -35.106   6.070   3.652  1.00 20.00     0.031 C 
BRANCH   5   6
HETATM    6  C7  UNL     1     -34.734   4.984   4.666  1.00 20.00     0.030 C 
BRANCH   6   7
HETATM    7  C2  UNL     1     -33.929   3.873   4.056  1.00 20.00    -0.037 C 
HETATM    8  C1  UNL     1     -33.220   2.986   4.762  1.00 20.00     0.007 C 
ENDBRANCH   6   7
ENDBRANCH   5   6
ENDBRANCH   1   5
TORSDOF 3
ENDMDL
MODEL 3
REMARK VINA RESULT:      -3.0      1.165      4.545
REMARK  3 active torsions:
REMARK  status: ('A' for Active; 'I' for Inactive)
REMARK    1  A    between atoms: C2_2  and  C7_7 
REMARK    2  A    between atoms: C3_3  and  C8_8 
REMARK    3  A    between atoms: C7_7  and  C8_8 
ROOT
HETATM    1  C3  UNL     1     -33.055   8.096   3.002  1.00 20.00    -0.024 C 
HETATM    2  C4  UNL     1     -32.435   7.621   1.905  1.00 20.00    -0.091 C 
HETATM    3  C5  UNL     1     -31.907   8.566   0.859  1.00 20.00     0.042 C 
HETATM    4  C6  UNL     1     -32.192   6.168   1.607  1.00 20.00     0.042 C 
ENDROOT
BRANCH   1   5
HETATM    5  C8  UNL     1     -33.664   7.314   4.134  1.00 20.00     0.031 C 
BRANCH   5   6
HETATM    6  C7  UNL     1     -34.989   6.652   3.743  1.00 20.00     0.030 C 
BRANCH   6   7
HETATM    7  C2  UNL     1     -35.128   5.264   4.299  1.00 20.00    -0.037 C 
HETATM    8  C1  UNL     1     -34.196   4.312   4.178  1.00 20.00     0.007 C 
ENDBRANCH   6   7
ENDBRANCH   5   6
ENDBRANCH   1   5
TORSDOF 3
ENDMDL
MODEL 4
REMARK VINA RESULT:      -3.0      1.164      1.370
REMARK  3 active torsions:
REMARK  status: ('A' for Active; 'I' for Inactive)
REMARK    1  A    between atoms: C2_2  and  C7_7 
REMARK    2  A    between atoms: C3_3  and  C8_8 
REMARK    3  A    between atoms: C7_7  and  C8_8 
ROOT
HETATM    1  C3  UNL     1     -33.187   5.631   2.384  1.00 20.00    -0.024 C 
HETATM    2  C4  UNL     1     -34.029   5.449   3.418  1.00 20.00    -0.091 C 
HETATM    3  C5  UNL     1     -33.998   4.169   4.210  1.00 20.00     0.042 C 
HETATM    4  C6  UNL     1     -35.043   6.450   3.898  1.00 20.00     0.042 C 
ENDROOT
BRANCH   1   5
HETATM    5  C8  UNL     1     -33.086   6.822   1.469  1.00 20.00     0.031 C 
BRANCH   5   6
HETATM    6  C7  UNL     1     -32.058   7.849   1.953  1.00 20.00     0.030 C 
BRANCH   6   7
HETATM    7  C2  UNL     1     -31.667   8.825   0.882  1.00 20.00    -0.037 C 
HETATM    8  C1  UNL     1     -32.490   9.748   0.372  1.00 20.00     0.007 C 
ENDBRANCH   6   7
ENDBRANCH   5   6
ENDBRANCH   1   5
TORSDOF 3
ENDMDL
MODEL 5
REMARK VINA RESULT:      -3.0      0.878      1.432
REMARK  3 active torsions:
REMARK  status: ('A' for Active; 'I' for Inactive)
REMARK    1  A    between atoms: C2_2  and  C7_7 
REMARK    2  A    between atoms: C3_3  and  C8_8 
REMARK    3  A    between atoms: C7_7  and  C8_8 
ROOT
HETATM    1  C3  UNL     1     -33.394   7.751   3.326  1.00 20.00    -0.024 C 
HETATM    2  C4  UNL     1     -33.987   6.542   3.335  1.00 20.00    -0.091 C 
HETATM    3  C5  UNL     1     -35.325   6.356   4.002  1.00 20.00     0.042 C 
HETATM    4  C6  UNL     1     -33.430   5.296   2.707  1.00 20.00     0.042 C 
ENDROOT
BRANCH   1   5
HETATM    5  C8  UNL     1     -32.060   8.123   2.736  1.00 20.00     0.031 C 
BRANCH   5   6
HETATM    6  C7  UNL     1     -32.111   8.262   1.211  1.00 20.00     0.030 C 
BRANCH   6   7
HETATM    7  C2  UNL     1     -32.368   9.674   0.768  1.00 20.00    -0.037 C 
HETATM    8  C1  UNL     1     -32.699  10.018  -0.482  1.00 20.00     0.007 C 
ENDBRANCH   6   7
ENDBRANCH   5   6
ENDBRANCH   1   5
TORSDOF 3
ENDMDL
MODEL 6
REMARK VINA RESULT:      -3.0      0.990      1.364
REMARK  3 active torsions:
REMARK  status: ('A' for Active; 'I' for Inactive)
REMARK    1  A    between atoms: C2_2  and  C7_7 
REMARK    2  A    between atoms: C3_3  and  C8_8 
REMARK    3  A    between atoms: C7_7  and  C8_8 
ROOT
HETATM    1  C3  UNL     1     -33.601   6.815   2.606  1.00 20.00    -0.024 C 
HETATM    2  C4  UNL     1     -34.203   5.927   3.421  1.00 20.00    -0.091 C 
HETATM    3  C5  UNL     1     -35.439   6.315   4.188  1.00 20.00     0.042 C 
HETATM    4  C6  UNL     1     -33.753   4.511   3.646  1.00 20.00     0.042 C 
ENDROOT
BRANCH   1   5
HETATM    5  C8  UNL     1     -32.356   6.621   1.784  1.00 20.00     0.031 C 
BRANCH   5   6
HETATM    6  C7  UNL     1     -31.635   7.941   1.490  1.00 20.00     0.030 C 
BRANCH   6   7
HETATM    7  C2  UNL     1     -32.575   9.027   1.053  1.00 20.00    -0.037 C 
HETATM    8  C1  UNL     1     -32.341   9.853   0.027  1.00 20.00     0.007 C 
ENDBRANCH   6   7
ENDBRANCH   5   6
ENDBRANCH   1   5
TORSDOF 3
ENDMDL
MODEL 7
REMARK VINA RESULT:      -2.7      0.734      4.304
REMARK  3 active torsions:
REMARK  status: ('A' for Active; 'I' for Inactive)
REMARK    1  A    between atoms: C2_2  and  C7_7 
REMARK    2  A    between atoms: C3_3  and  C8_8 
REMARK    3  A    between atoms: C7_7  and  C8_8 
ROOT
HETATM    1  C3  UNL     1     -32.264   8.548   1.659  1.00 20.00    -0.024 C 
HETATM    2  C4  UNL     1     -32.433   9.433   0.658  1.00 20.00    -0.091 C 
HETATM    3  C5  UNL     1     -32.708  10.882   0.961  1.00 20.00     0.042 C 
HETATM    4  C6  UNL     1     -32.361   9.109  -0.808  1.00 20.00     0.042 C 
ENDROOT
BRANCH   1   5
HETATM    5  C8  UNL     1     -32.009   7.069   1.555  1.00 20.00     0.031 C 
BRANCH   5   6
HETATM    6  C7  UNL     1     -33.122   6.234   2.195  1.00 20.00     0.030 C 
BRANCH   6   7
HETATM    7  C2  UNL     1     -33.794   6.943   3.335  1.00 20.00    -0.037 C 
HETATM    8  C1  UNL     1     -34.958   6.562   3.873  1.00 20.00     0.007 C 
ENDBRANCH   6   7
ENDBRANCH   5   6
ENDBRANCH   1   5
TORSDOF 3
ENDMDL
MODEL 8
REMARK VINA RESULT:      -2.7      0.910      1.543
REMARK  3 active torsions:
REMARK  status: ('A' for Active; 'I' for Inactive)
REMARK    1  A    between atoms: C2_2  and  C7_7 
REMARK    2  A    between atoms: C3_3  and  C8_8 
REMARK    3  A    between atoms: C7_7  and  C8_8 
ROOT
HETATM    1  C3  UNL     1     -32.681   7.985   2.958  1.00 20.00    -0.024 C 
HETATM    2  C4  UNL     1     -33.612   7.514   3.810  1.00 20.00    -0.091 C 
HETATM    3  C5  UNL     1     -33.787   8.139   5.169  1.00 20.00     0.042 C 
HETATM    4  C6  UNL     1     -34.552   6.376   3.526  1.00 20.00     0.042 C 
ENDROOT
BRANCH   1   5
HETATM    5  C8  UNL     1     -32.346   7.479   1.582  1.00 20.00     0.031 C 
BRANCH   5   6
HETATM    6  C7  UNL     1     -31.543   8.496   0.763  1.00 20.00     0.030 C 
BRANCH   6   7
HETATM    7  C2  UNL     1     -32.421   9.453   0.010  1.00 20.00    -0.037 C 
HETATM    8  C1  UNL     1     -32.696  10.697   0.418  1.00 20.00     0.007 C 
ENDBRANCH   6   7
ENDBRANCH   5   6
ENDBRANCH   1   5
TORSDOF 3
ENDMDL
MODEL 9
REMARK VINA RESULT:      -2.5      0.829      4.401
REMARK  3 active torsions:
REMARK  status: ('A' for Active; 'I' for Inactive)
REMARK    1  A    between atoms: C2_2  and  C7_7 
REMARK    2  A    between atoms: C3_3  and  C8_8 
REMARK    3  A    between atoms: C7_7  and  C8_8 
ROOT
HETATM    1  C3  UNL     1     -32.096   8.407   0.904  1.00 20.00    -0.024 C 
HETATM    2  C4  UNL     1     -32.413   9.632   0.443  1.00 20.00    -0.091 C 
HETATM    3  C5  UNL     1     -32.332   9.934  -1.030  1.00 20.00     0.042 C 
HETATM    4  C6  UNL     1     -32.873  10.786   1.288  1.00 20.00     0.042 C 
ENDROOT
BRANCH   1   5
HETATM    5  C8  UNL     1     -32.092   7.927   2.331  1.00 20.00     0.031 C 
BRANCH   5   6
HETATM    6  C7  UNL     1     -33.119   6.817   2.579  1.00 20.00     0.030 C 
BRANCH   6   7
HETATM    7  C2  UNL     1     -34.113   7.177   3.646  1.00 20.00    -0.037 C 
HETATM    8  C1  UNL     1     -35.148   6.406   3.996  1.00 20.00     0.007 C 
ENDBRANCH   6   7
ENDBRANCH   5   6
ENDBRANCH   1   5
TORSDOF 3
ENDMDL
