MODEL 1
REMARK VINA RESULT:      -2.7      0.000      0.000
REMARK  4 active torsions:
REMARK  status: ('A' for Active; 'I' for Inactive)
REMARK    1  A    between atoms: C6_6  and  C8_8 
REMARK    2  A    between atoms: C8_8  and  C10_10 
REMARK    3  A    between atoms: C9_9  and  C11_11 
REMARK    4  A    between atoms: C10_10  and  C11_11 
ROOT
HETATM    1  C1  UNL     1     -35.174   5.171   4.555  1.00 20.00     0.000 A 
HETATM    2  C2  UNL     1     -34.221   4.299   4.027  1.00 20.00     0.001 A 
HETATM    3  C3  UNL     1     -35.215   6.499   4.132  1.00 20.00     0.001 A 
HETATM    4  C4  UNL     1     -33.309   4.756   3.076  1.00 20.00     0.007 A 
HETATM    5  C5  UNL     1     -34.303   6.956   3.180  1.00 20.00     0.007 A 
HETATM    6  C6  UNL     1     -33.350   6.085   2.653  1.00 20.00    -0.058 A 
ENDROOT
BRANCH   6   7
HETATM    7  C8  UNL     1     -32.370   6.577   1.631  1.00 20.00     0.038 C 
BRANCH   7   8
HETATM    8  C10 UNL     1     -32.029   8.062   1.779  1.00 20.00     0.005 C 
BRANCH   8   9
HETATM    9  C11 UNL     1     -31.462   8.684   0.499  1.00 20.00    -0.000 C 
BRANCH   9  10
HETATM   10  C9  UNL     1     -32.491   9.588  -0.179  1.00 20.00    -0.005 C 
HETATM   11  C7  UNL     1     -32.818  10.801   0.677  1.00 20.00     0.005 C 
ENDBRANCH   9  10
ENDBRANCH   8   9
ENDBRANCH   7   8
ENDBRANCH   6   7
TORSDOF 4
ENDMDL
MODEL 2
REMARK VINA RESULT:      -2.7      0.016      1.457
REMARK  4 active torsions:
REMARK  status: ('A' for Active; 'I' for Inactive)
REMARK    1  A    between atoms: C6_6  and  C8_8 
REMARK    2  A    between atoms: C8_8  and  C10_10 
REMARK    3  A    between atoms: C9_9  and  C11_11 
REMARK    4  A    between atoms: C10_10  and  C11_11 
ROOT
HETATM    1  C1  UNL     1     -35.181   5.161   4.550  1.00 20.00     0.000 A 
HETATM    2  C2  UNL     1     -35.229   6.489   4.124  1.00 20.00     0.001 A 
HETATM    3  C3  UNL     1     -34.223   4.295   4.024  1.00 20.00     0.001 A 
HETATM    4  C4  UNL     1     -34.320   6.950   3.172  1.00 20.00     0.007 A 
HETATM    5  C5  UNL     1     -33.313   4.756   3.073  1.00 20.00     0.007 A 
HETATM    6  C6  UNL     1     -33.362   6.083   2.646  1.00 20.00    -0.058 A 
ENDROOT
BRANCH   6   7
HETATM    7  C8  UNL     1     -32.385   6.577   1.623  1.00 20.00     0.038 C 
BRANCH   7   8
HETATM    8  C10 UNL     1     -32.046   8.063   1.772  1.00 20.00     0.005 C 
BRANCH   8   9
HETATM    9  C11 UNL     1     -31.465   8.682   0.496  1.00 20.00    -0.000 C 
BRANCH   9  10
HETATM   10  C9  UNL     1     -32.478   9.607  -0.179  1.00 20.00    -0.005 C 
HETATM   11  C7  UNL     1     -32.808  10.806   0.696  1.00 20.00     0.005 C 
ENDBRANCH   9  10
ENDBRANCH   8   9
ENDBRANCH   7   8
ENDBRANCH   6   7
TORSDOF 4
ENDMDL
MODEL 3
REMARK VINA RESULT:      -2.2      1.463      5.269
REMARK  4 active torsions:
REMARK  status: ('A' for Active; 'I' for Inactive)
REMARK    1  A    between atoms: C6_6  and  C8_8 
REMARK    2  A    between atoms: C8_8  and  C10_10 
REMARK    3  A    between atoms: C9_9  and  C11_11 
REMARK    4  A    between atoms: C10_10  and  C11_11 
ROOT
HETATM    1  C1  UNL     1     -31.468   7.379   1.127  1.00 20.00     0.000 A 
HETATM    2  C2  UNL     1     -31.620   8.400   2.064  1.00 20.00     0.001 A 
HETATM    3  C3  UNL     1     -32.310   6.268   1.162  1.00 20.00     0.001 A 
HETATM    4  C4  UNL     1     -32.615   8.312   3.038  1.00 20.00     0.007 A 
HETATM    5  C5  UNL     1     -33.306   6.179   2.136  1.00 20.00     0.007 A 
HETATM    6  C6  UNL     1     -33.458   7.200   3.074  1.00 20.00    -0.058 A 
ENDROOT
BRANCH   6   7
HETATM    7  C8  UNL     1     -34.527   7.103   4.119  1.00 20.00     0.038 C 
BRANCH   7   8
HETATM    8  C10 UNL     1     -35.408   5.859   3.977  1.00 20.00     0.005 C 
BRANCH   8   9
HETATM    9  C11 UNL     1     -34.924   4.675   4.821  1.00 20.00    -0.000 C 
BRANCH   9  10
HETATM   10  C9  UNL     1     -33.922   3.817   4.048  1.00 20.00    -0.005 C 
HETATM   11  C7  UNL     1     -33.129   2.913   4.978  1.00 20.00     0.005 C 
ENDBRANCH   9  10
ENDBRANCH   8   9
ENDBRANCH   7   8
ENDBRANCH   6   7
TORSDOF 4
ENDMDL
MODEL 4
REMARK VINA RESULT:      -2.2      1.464      5.122
REMARK  4 active torsions:
REMARK  status: ('A' for Active; 'I' for Inactive)
REMARK    1  A    between atoms: C6_6  and  C8_8 
REMARK    2  A    between atoms: C8_8  and  C10_10 
REMARK    3  A    between atoms: C9_9  and  C11_11 
REMARK    4  A    between atoms: C10_10  and  C11_11 
ROOT
HETATM    1  C1  UNL     1     -31.473   7.372   1.139  1.00 20.00     0.000 A 
HETATM    2  C2  UNL     1     -32.312   6.258   1.178  1.00 20.00     0.001 A 
HETATM    3  C3  UNL     1     -31.631   8.397   2.072  1.00 20.00     0.001 A 
HETATM    4  C4  UNL     1     -33.310   6.169   2.148  1.00 20.00     0.007 A 
HETATM    5  C5  UNL     1     -32.628   8.308   3.043  1.00 20.00     0.007 A 
HETATM    6  C6  UNL     1     -33.468   7.195   3.082  1.00 20.00    -0.058 A 
ENDROOT
BRANCH   6   7
HETATM    7  C8  UNL     1     -34.539   7.100   4.125  1.00 20.00     0.038 C 
BRANCH   7   8
HETATM    8  C10 UNL     1     -35.412   5.849   3.991  1.00 20.00     0.005 C 
BRANCH   8   9
HETATM    9  C11 UNL     1     -34.913   4.670   4.832  1.00 20.00    -0.000 C 
BRANCH   9  10
HETATM   10  C9  UNL     1     -33.909   3.821   4.052  1.00 20.00    -0.005 C 
HETATM   11  C7  UNL     1     -33.112   2.912   4.975  1.00 20.00     0.005 C 
ENDBRANCH   9  10
ENDBRANCH   8   9
ENDBRANCH   7   8
ENDBRANCH   6   7
TORSDOF 4
ENDMDL
MODEL 5
REMARK VINA RESULT:      -1.0      0.937      5.396
REMARK  4 active torsions:
REMARK  status: ('A' for Active; 'I' for Inactive)
REMARK    1  A    between atoms: C6_6  and  C8_8 
REMARK    2  A    between atoms: C8_8  and  C10_10 
REMARK    3  A    between atoms: C9_9  and  C11_11 
REMARK    4  A    between atoms: C10_10  and  C11_11 
ROOT
HETATM    1  C1  UNL     1     -32.013   9.735  -0.208  1.00 20.00     0.000 A 
HETATM    2  C2  UNL     1     -32.863  10.278   0.755  1.00 20.00     0.001 A 
HETATM    3  C3  UNL     1     -31.426   8.488   0.003  1.00 20.00     0.001 A 
HETATM    4  C4  UNL     1     -33.126   9.574   1.930  1.00 20.00     0.007 A 
HETATM    5  C5  UNL     1     -31.688   7.783   1.177  1.00 20.00     0.007 A 
HETATM    6  C6  UNL     1     -32.538   8.326   2.142  1.00 20.00    -0.058 A 
ENDROOT
BRANCH   6   7
HETATM    7  C8  UNL     1     -32.819   7.568   3.403  1.00 20.00     0.038 C 
BRANCH   7   8
HETATM    8  C10 UNL     1     -34.295   7.590   3.811  1.00 20.00     0.005 C 
BRANCH   8   9
HETATM    9  C11 UNL     1     -34.907   6.192   3.944  1.00 20.00    -0.000 C 
BRANCH   9  10
HETATM   10  C9  UNL     1     -33.954   5.119   3.417  1.00 20.00    -0.005 C 
HETATM   11  C7  UNL     1     -33.939   3.894   4.318  1.00 20.00     0.005 C 
ENDBRANCH   9  10
ENDBRANCH   8   9
ENDBRANCH   7   8
ENDBRANCH   6   7
TORSDOF 4
ENDMDL
MODEL 6
REMARK VINA RESULT:      -1.0      0.941      5.217
REMARK  4 active torsions:
REMARK  status: ('A' for Active; 'I' for Inactive)
REMARK    1  A    between atoms: C6_6  and  C8_8 
REMARK    2  A    between atoms: C8_8  and  C10_10 
REMARK    3  A    between atoms: C9_9  and  C11_11 
REMARK    4  A    between atoms: C10_10  and  C11_11 
ROOT
HETATM    1  C1  UNL     1     -31.967   9.690  -0.184  1.00 20.00     0.000 A 
HETATM    2  C2  UNL     1     -31.387   8.442   0.042  1.00 20.00     0.001 A 
HETATM    3  C3  UNL     1     -32.832  10.239   0.763  1.00 20.00     0.001 A 
HETATM    4  C4  UNL     1     -31.671   7.742   1.215  1.00 20.00     0.007 A 
HETATM    5  C5  UNL     1     -33.116   9.539   1.936  1.00 20.00     0.007 A 
HETATM    6  C6  UNL     1     -32.536   8.291   2.162  1.00 20.00    -0.058 A 
ENDROOT
BRANCH   6   7
HETATM    7  C8  UNL     1     -32.842   7.540   3.422  1.00 20.00     0.038 C 
BRANCH   7   8
HETATM    8  C10 UNL     1     -34.330   7.537   3.784  1.00 20.00     0.005 C 
BRANCH   8   9
HETATM    9  C11 UNL     1     -34.887   6.134   4.047  1.00 20.00    -0.000 C 
BRANCH   9  10
HETATM   10  C9  UNL     1     -33.986   5.060   3.438  1.00 20.00    -0.005 C 
HETATM   11  C7  UNL     1     -33.902   3.832   4.331  1.00 20.00     0.005 C 
ENDBRANCH   9  10
ENDBRANCH   8   9
ENDBRANCH   7   8
ENDBRANCH   6   7
TORSDOF 4
ENDMDL
MODEL 7
REMARK VINA RESULT:      -0.8      0.942      1.918
REMARK  4 active torsions:
REMARK  status: ('A' for Active; 'I' for Inactive)
REMARK    1  A    between atoms: C6_6  and  C8_8 
REMARK    2  A    between atoms: C8_8  and  C10_10 
REMARK    3  A    between atoms: C9_9  and  C11_11 
REMARK    4  A    between atoms: C10_10  and  C11_11 
ROOT
HETATM    1  C1  UNL     1     -34.650   5.927   3.870  1.00 20.00     0.000 A 
HETATM    2  C2  UNL     1     -34.384   7.222   4.315  1.00 20.00     0.001 A 
HETATM    3  C3  UNL     1     -33.937   5.399   2.794  1.00 20.00     0.001 A 
HETATM    4  C4  UNL     1     -33.405   7.989   3.685  1.00 20.00     0.007 A 
HETATM    5  C5  UNL     1     -32.957   6.166   2.163  1.00 20.00     0.007 A 
HETATM    6  C6  UNL     1     -32.691   7.461   2.608  1.00 20.00    -0.058 A 
ENDROOT
BRANCH   6   7
HETATM    7  C8  UNL     1     -31.639   8.284   1.930  1.00 20.00     0.038 C 
BRANCH   7   8
HETATM    8  C10 UNL     1     -31.576   8.066   0.416  1.00 20.00     0.005 C 
BRANCH   8   9
HETATM    9  C11 UNL     1     -32.342   9.127  -0.381  1.00 20.00    -0.000 C 
BRANCH   9  10
HETATM   10  C9  UNL     1     -32.243  10.498   0.287  1.00 20.00    -0.005 C 
HETATM   11  C7  UNL     1     -33.619  11.094   0.542  1.00 20.00     0.005 C 
ENDBRANCH   9  10
ENDBRANCH   8   9
ENDBRANCH   7   8
ENDBRANCH   6   7
TORSDOF 4
ENDMDL
MODEL 8
REMARK VINA RESULT:      -0.6      0.891      5.074
REMARK  4 active torsions:
REMARK  status: ('A' for Active; 'I' for Inactive)
REMARK    1  A    between atoms: C6_6  and  C8_8 
REMARK    2  A    between atoms: C8_8  and  C10_10 
REMARK    3  A    between atoms: C9_9  and  C11_11 
REMARK    4  A    between atoms: C10_10  and  C11_11 
ROOT
HETATM    1  C1  UNL     1     -32.766  10.778  -0.003  1.00 20.00     0.000 A 
HETATM    2  C2  UNL     1     -32.359   9.713  -0.807  1.00 20.00     0.001 A 
HETATM    3  C3  UNL     1     -32.830  10.622   1.381  1.00 20.00     0.001 A 
HETATM    4  C4  UNL     1     -32.016   8.492  -0.227  1.00 20.00     0.007 A 
HETATM    5  C5  UNL     1     -32.487   9.401   1.962  1.00 20.00     0.007 A 
HETATM    6  C6  UNL     1     -32.081   8.336   1.159  1.00 20.00    -0.058 A 
ENDROOT
BRANCH   6   7
HETATM    7  C8  UNL     1     -31.713   7.025   1.784  1.00 20.00     0.038 C 
BRANCH   7   8
HETATM    8  C10 UNL     1     -32.744   5.920   1.533  1.00 20.00     0.005 C 
BRANCH   8   9
HETATM    9  C11 UNL     1     -33.436   5.436   2.811  1.00 20.00    -0.000 C 
BRANCH   9  10
HETATM   10  C9  UNL     1     -34.186   6.578   3.499  1.00 20.00    -0.005 C 
HETATM   11  C7  UNL     1     -35.448   6.081   4.186  1.00 20.00     0.005 C 
ENDBRANCH   9  10
ENDBRANCH   8   9
ENDBRANCH   7   8
ENDBRANCH   6   7
TORSDOF 4
ENDMDL
MODEL 9
REMARK VINA RESULT:      -0.6      0.980      5.094
REMARK  4 active torsions:
REMARK  status: ('A' for Active; 'I' for Inactive)
REMARK    1  A    between atoms: C6_6  and  C8_8 
REMARK    2  A    between atoms: C8_8  and  C10_10 
REMARK    3  A    between atoms: C9_9  and  C11_11 
REMARK    4  A    between atoms: C10_10  and  C11_11 
ROOT
HETATM    1  C1  UNL     1     -32.465  10.693  -0.061  1.00 20.00     0.000 A 
HETATM    2  C2  UNL     1     -33.006  10.439   1.200  1.00 20.00     0.001 A 
HETATM    3  C3  UNL     1     -31.717   9.712  -0.710  1.00 20.00     0.001 A 
HETATM    4  C4  UNL     1     -32.798   9.203   1.812  1.00 20.00     0.007 A 
HETATM    5  C5  UNL     1     -31.509   8.475  -0.098  1.00 20.00     0.007 A 
HETATM    6  C6  UNL     1     -32.049   8.220   1.163  1.00 20.00    -0.058 A 
ENDROOT
BRANCH   6   7
HETATM    7  C8  UNL     1     -31.825   6.893   1.819  1.00 20.00     0.038 C 
BRANCH   7   8
HETATM    8  C10 UNL     1     -33.055   5.980   1.784  1.00 20.00     0.005 C 
BRANCH   8   9
HETATM    9  C11 UNL     1     -33.546   5.572   3.176  1.00 20.00    -0.000 C 
BRANCH   9  10
HETATM   10  C9  UNL     1     -34.683   6.478   3.649  1.00 20.00    -0.005 C 
HETATM   11  C7  UNL     1     -34.160   7.653   4.460  1.00 20.00     0.005 C 
ENDBRANCH   9  10
ENDBRANCH   8   9
ENDBRANCH   7   8
ENDBRANCH   6   7
TORSDOF 4
ENDMDL
