MODEL 1
REMARK VINA RESULT:      -2.3      0.000      0.000
REMARK  1 active torsions:
REMARK  status: ('A' for Active; 'I' for Inactive)
REMARK    1  A    between atoms: C6_6  and  O8_8 
ROOT
HETATM    1  C1  UNL     1     -34.364   6.093   3.634  1.00 20.00     0.000 A 
HETATM    2  C2  UNL     1     -34.111   7.427   3.957  1.00 20.00     0.003 A 
HETATM    3  C3  UNL     1     -33.717   5.503   2.548  1.00 20.00     0.003 A 
HETATM    4  C4  UNL     1     -33.211   8.170   3.193  1.00 20.00     0.037 A 
HETATM    5  C5  UNL     1     -32.818   6.248   1.784  1.00 20.00     0.037 A 
HETATM    6  C6  UNL     1     -32.565   7.582   2.106  1.00 20.00     0.068 A 
ENDROOT
BRANCH   6   7
HETATM    7  O8  UNL     1     -31.689   8.308   1.360  1.00 20.00    -0.356 OA
HETATM    8  C7  UNL     1     -32.228   9.373   0.579  1.00 20.00     0.210 C 
ENDBRANCH   6   7
TORSDOF 1
ENDMDL
MODEL 2
REMARK VINA RESULT:      -2.3      0.053      1.709
REMARK  1 active torsions:
REMARK  status: ('A' for Active; 'I' for Inactive)
REMARK    1  A    between atoms: C6_6  and  O8_8 
ROOT
HETATM    1  C1  UNL     1     -34.394   6.058   3.655  1.00 20.00     0.000 A 
HETATM    2  C2  UNL     1     -33.738   5.472   2.572  1.00 20.00     0.003 A 
HETATM    3  C3  UNL     1     -34.146   7.390   3.983  1.00 20.00     0.003 A 
HETATM    4  C4  UNL     1     -32.834   6.220   1.817  1.00 20.00     0.037 A 
HETATM    5  C5  UNL     1     -33.241   8.138   3.229  1.00 20.00     0.037 A 
HETATM    6  C6  UNL     1     -32.585   7.552   2.145  1.00 20.00     0.068 A 
ENDROOT
BRANCH   6   7
HETATM    7  O8  UNL     1     -31.702   8.281   1.410  1.00 20.00    -0.356 OA
HETATM    8  C7  UNL     1     -32.235   9.347   0.626  1.00 20.00     0.210 C 
ENDBRANCH   6   7
TORSDOF 1
ENDMDL
MODEL 3
REMARK VINA RESULT:      -2.0      1.972      3.845
REMARK  1 active torsions:
REMARK  status: ('A' for Active; 'I' for Inactive)
REMARK    1  A    between atoms: C6_6  and  O8_8 
ROOT
HETATM    1  C1  UNL     1     -32.016   7.847   1.772  1.00 20.00     0.000 A 
HETATM    2  C2  UNL     1     -32.217   6.539   1.331  1.00 20.00     0.003 A 
HETATM    3  C3  UNL     1     -32.671   8.307   2.914  1.00 20.00     0.003 A 
HETATM    4  C4  UNL     1     -33.073   5.691   2.033  1.00 20.00     0.037 A 
HETATM    5  C5  UNL     1     -33.528   7.458   3.615  1.00 20.00     0.037 A 
HETATM    6  C6  UNL     1     -33.729   6.150   3.174  1.00 20.00     0.068 A 
ENDROOT
BRANCH   6   7
HETATM    7  O8  UNL     1     -34.566   5.323   3.858  1.00 20.00    -0.356 OA
HETATM    8  C7  UNL     1     -34.054   4.044   4.230  1.00 20.00     0.210 C 
ENDBRANCH   6   7
TORSDOF 1
ENDMDL
MODEL 4
REMARK VINA RESULT:      -2.0      1.972      3.447
REMARK  1 active torsions:
REMARK  status: ('A' for Active; 'I' for Inactive)
REMARK    1  A    between atoms: C6_6  and  O8_8 
ROOT
HETATM    1  C1  UNL     1     -32.016   7.846   1.773  1.00 20.00     0.000 A 
HETATM    2  C2  UNL     1     -32.671   8.309   2.914  1.00 20.00     0.003 A 
HETATM    3  C3  UNL     1     -32.219   6.538   1.335  1.00 20.00     0.003 A 
HETATM    4  C4  UNL     1     -33.530   7.463   3.617  1.00 20.00     0.037 A 
HETATM    5  C5  UNL     1     -33.077   5.692   2.038  1.00 20.00     0.037 A 
HETATM    6  C6  UNL     1     -33.732   6.155   3.179  1.00 20.00     0.068 A 
ENDROOT
BRANCH   6   7
HETATM    7  O8  UNL     1     -34.568   5.329   3.866  1.00 20.00    -0.356 OA
HETATM    8  C7  UNL     1     -34.057   4.049   4.235  1.00 20.00     0.210 C 
ENDBRANCH   6   7
TORSDOF 1
ENDMDL
MODEL 5
REMARK VINA RESULT:      -2.0      1.870      3.715
REMARK  1 active torsions:
REMARK  status: ('A' for Active; 'I' for Inactive)
REMARK    1  A    between atoms: C6_6  and  O8_8 
ROOT
HETATM    1  C1  UNL     1     -31.832   7.010   1.380  1.00 20.00     0.000 A 
HETATM    2  C2  UNL     1     -32.542   5.813   1.471  1.00 20.00     0.003 A 
HETATM    3  C3  UNL     1     -32.161   8.082   2.210  1.00 20.00     0.003 A 
HETATM    4  C4  UNL     1     -33.581   5.688   2.393  1.00 20.00     0.037 A 
HETATM    5  C5  UNL     1     -33.200   7.956   3.131  1.00 20.00     0.037 A 
HETATM    6  C6  UNL     1     -33.911   6.759   3.223  1.00 20.00     0.068 A 
ENDROOT
BRANCH   6   7
HETATM    7  O8  UNL     1     -34.926   6.637   4.121  1.00 20.00    -0.356 OA
HETATM    8  C7  UNL     1     -35.342   5.314   4.456  1.00 20.00     0.210 C 
ENDBRANCH   6   7
TORSDOF 1
ENDMDL
MODEL 6
REMARK VINA RESULT:      -1.9      1.278      1.695
REMARK  1 active torsions:
REMARK  status: ('A' for Active; 'I' for Inactive)
REMARK    1  A    between atoms: C6_6  and  O8_8 
ROOT
HETATM    1  C1  UNL     1     -35.109   5.167   4.474  1.00 20.00     0.000 A 
HETATM    2  C2  UNL     1     -35.152   6.516   4.117  1.00 20.00     0.003 A 
HETATM    3  C3  UNL     1     -34.164   4.322   3.893  1.00 20.00     0.003 A 
HETATM    4  C4  UNL     1     -34.249   7.018   3.181  1.00 20.00     0.037 A 
HETATM    5  C5  UNL     1     -33.261   4.825   2.956  1.00 20.00     0.037 A 
HETATM    6  C6  UNL     1     -33.304   6.174   2.600  1.00 20.00     0.068 A 
ENDROOT
BRANCH   6   7
HETATM    7  O8  UNL     1     -32.424   6.663   1.684  1.00 20.00    -0.356 OA
HETATM    8  C7  UNL     1     -32.033   8.028   1.826  1.00 20.00     0.210 C 
ENDBRANCH   6   7
TORSDOF 1
ENDMDL
MODEL 7
REMARK VINA RESULT:      -1.9      1.278      2.311
REMARK  1 active torsions:
REMARK  status: ('A' for Active; 'I' for Inactive)
REMARK    1  A    between atoms: C6_6  and  O8_8 
ROOT
HETATM    1  C1  UNL     1     -35.115   5.177   4.484  1.00 20.00     0.000 A 
HETATM    2  C2  UNL     1     -34.170   4.328   3.906  1.00 20.00     0.003 A 
HETATM    3  C3  UNL     1     -35.154   6.524   4.125  1.00 20.00     0.003 A 
HETATM    4  C4  UNL     1     -33.265   4.828   2.969  1.00 20.00     0.037 A 
HETATM    5  C5  UNL     1     -34.249   7.023   3.189  1.00 20.00     0.037 A 
HETATM    6  C6  UNL     1     -33.304   6.175   2.611  1.00 20.00     0.068 A 
ENDROOT
BRANCH   6   7
HETATM    7  O8  UNL     1     -32.420   6.662   1.698  1.00 20.00    -0.356 OA
HETATM    8  C7  UNL     1     -32.040   8.031   1.829  1.00 20.00     0.210 C 
ENDBRANCH   6   7
TORSDOF 1
ENDMDL
MODEL 8
REMARK VINA RESULT:      -1.9      2.326      3.718
REMARK  1 active torsions:
REMARK  status: ('A' for Active; 'I' for Inactive)
REMARK    1  A    between atoms: C6_6  and  O8_8 
ROOT
HETATM    1  C1  UNL     1     -33.042   7.725   2.416  1.00 20.00     0.000 A 
HETATM    2  C2  UNL     1     -33.897   7.775   3.517  1.00 20.00     0.003 A 
HETATM    3  C3  UNL     1     -32.674   6.494   1.873  1.00 20.00     0.003 A 
HETATM    4  C4  UNL     1     -34.384   6.593   4.076  1.00 20.00     0.037 A 
HETATM    5  C5  UNL     1     -33.160   5.312   2.433  1.00 20.00     0.037 A 
HETATM    6  C6  UNL     1     -34.015   5.362   3.534  1.00 20.00     0.068 A 
ENDROOT
BRANCH   6   7
HETATM    7  O8  UNL     1     -34.489   4.209   4.080  1.00 20.00    -0.356 OA
HETATM    8  C7  UNL     1     -33.523   3.252   4.514  1.00 20.00     0.210 C 
ENDBRANCH   6   7
TORSDOF 1
ENDMDL
MODEL 9
REMARK VINA RESULT:      -1.9      2.325      4.057
REMARK  1 active torsions:
REMARK  status: ('A' for Active; 'I' for Inactive)
REMARK    1  A    between atoms: C6_6  and  O8_8 
ROOT
HETATM    1  C1  UNL     1     -33.038   7.718   2.400  1.00 20.00     0.000 A 
HETATM    2  C2  UNL     1     -32.673   6.483   1.863  1.00 20.00     0.003 A 
HETATM    3  C3  UNL     1     -33.891   7.775   3.502  1.00 20.00     0.003 A 
HETATM    4  C4  UNL     1     -33.161   5.306   2.429  1.00 20.00     0.037 A 
HETATM    5  C5  UNL     1     -34.379   6.597   4.067  1.00 20.00     0.037 A 
HETATM    6  C6  UNL     1     -34.014   5.362   3.531  1.00 20.00     0.068 A 
ENDROOT
BRANCH   6   7
HETATM    7  O8  UNL     1     -34.492   4.213   4.082  1.00 20.00    -0.356 OA
HETATM    8  C7  UNL     1     -33.531   3.252   4.514  1.00 20.00     0.210 C 
ENDBRANCH   6   7
TORSDOF 1
ENDMDL
