MODEL 1
REMARK VINA RESULT:      -2.2      0.000      0.000
REMARK  0 active torsions:
REMARK  status: ('A' for Active; 'I' for Inactive)
ROOT
HETATM    1  C1  UNL     1     -31.725   7.752   1.577  1.00 20.00     0.001 A 
HETATM    2  C2  UNL     1     -31.851   6.432   1.137  1.00 20.00     0.003 A 
HETATM    3  C3  UNL     1     -32.536   8.252   2.605  1.00 20.00     0.014 A 
HETATM    4  C4  UNL     1     -32.788   5.564   1.706  1.00 20.00     0.038 A 
HETATM    5  C5  UNL     1     -34.460   7.512   4.217  1.00 20.00     0.039 A 
HETATM    6  C6  UNL     1     -35.074   6.284   4.309  1.00 20.00     0.143 A 
HETATM    7  C7  UNL     1     -33.485   7.397   3.191  1.00 20.00    -0.001 A 
HETATM    8  C8  UNL     1     -33.579   6.089   2.726  1.00 20.00     0.085 A 
HETATM    9  O9  UNL     1     -34.547   5.414   3.408  1.00 20.00    -0.322 OA
ENDROOT
TORSDOF 0
ENDMDL
MODEL 2
REMARK VINA RESULT:      -2.0      0.908      1.952
REMARK  0 active torsions:
REMARK  status: ('A' for Active; 'I' for Inactive)
ROOT
HETATM    1  C1  UNL     1     -31.873   6.564   1.175  1.00 20.00     0.001 A 
HETATM    2  C2  UNL     1     -31.745   7.869   1.657  1.00 20.00     0.003 A 
HETATM    3  C3  UNL     1     -32.810   5.678   1.726  1.00 20.00     0.014 A 
HETATM    4  C4  UNL     1     -32.546   8.338   2.702  1.00 20.00     0.038 A 
HETATM    5  C5  UNL     1     -34.657   5.567   3.576  1.00 20.00     0.039 A 
HETATM    6  C6  UNL     1     -35.055   6.554   4.448  1.00 20.00     0.143 A 
HETATM    7  C7  UNL     1     -33.626   6.129   2.777  1.00 20.00    -0.001 A 
HETATM    8  C8  UNL     1     -33.469   7.436   3.228  1.00 20.00     0.085 A 
HETATM    9  O9  UNL     1     -34.340   7.692   4.245  1.00 20.00    -0.322 OA
ENDROOT
TORSDOF 0
ENDMDL
MODEL 3
REMARK VINA RESULT:      -1.9      1.366      3.635
REMARK  0 active torsions:
REMARK  status: ('A' for Active; 'I' for Inactive)
ROOT
HETATM    1  C1  UNL     1     -34.767   5.192   3.927  1.00 20.00     0.001 A 
HETATM    2  C2  UNL     1     -35.005   6.477   4.420  1.00 20.00     0.003 A 
HETATM    3  C3  UNL     1     -33.800   4.963   2.939  1.00 20.00     0.014 A 
HETATM    4  C4  UNL     1     -34.286   7.579   3.947  1.00 20.00     0.038 A 
HETATM    5  C5  UNL     1     -32.038   6.242   1.486  1.00 20.00     0.039 A 
HETATM    6  C6  UNL     1     -31.748   7.587   1.481  1.00 20.00     0.143 A 
HETATM    7  C7  UNL     1     -33.065   6.057   2.449  1.00 20.00    -0.001 A 
HETATM    8  C8  UNL     1     -33.331   7.321   2.965  1.00 20.00     0.085 A 
HETATM    9  O9  UNL     1     -32.527   8.250   2.374  1.00 20.00    -0.322 OA
ENDROOT
TORSDOF 0
ENDMDL
MODEL 4
REMARK VINA RESULT:      -1.8      1.223      3.094
REMARK  0 active torsions:
REMARK  status: ('A' for Active; 'I' for Inactive)
ROOT
HETATM    1  C1  UNL     1     -34.966   6.577   4.425  1.00 20.00     0.001 A 
HETATM    2  C2  UNL     1     -34.748   5.289   3.931  1.00 20.00     0.003 A 
HETATM    3  C3  UNL     1     -34.227   7.669   3.949  1.00 20.00     0.014 A 
HETATM    4  C4  UNL     1     -33.789   5.044   2.944  1.00 20.00     0.038 A 
HETATM    5  C5  UNL     1     -32.334   8.250   2.238  1.00 20.00     0.039 A 
HETATM    6  C6  UNL     1     -31.657   7.403   1.393  1.00 20.00     0.143 A 
HETATM    7  C7  UNL     1     -33.257   7.446   2.957  1.00 20.00    -0.001 A 
HETATM    8  C8  UNL     1     -33.071   6.149   2.490  1.00 20.00     0.085 A 
HETATM    9  O9  UNL     1     -32.096   6.126   1.538  1.00 20.00    -0.322 OA
ENDROOT
TORSDOF 0
ENDMDL
MODEL 5
REMARK VINA RESULT:       0.1      1.643      3.485
REMARK  0 active torsions:
REMARK  status: ('A' for Active; 'I' for Inactive)
ROOT
HETATM    1  C1  UNL     1     -33.234   4.986   2.548  1.00 20.00     0.001 A 
HETATM    2  C2  UNL     1     -33.943   5.782   3.452  1.00 20.00     0.003 A 
HETATM    3  C3  UNL     1     -32.429   5.562   1.555  1.00 20.00     0.014 A 
HETATM    4  C4  UNL     1     -33.874   7.177   3.400  1.00 20.00     0.038 A 
HETATM    5  C5  UNL     1     -31.667   7.900   0.660  1.00 20.00     0.039 A 
HETATM    6  C6  UNL     1     -32.014   9.148   1.124  1.00 20.00     0.143 A 
HETATM    7  C7  UNL     1     -32.344   6.963   1.484  1.00 20.00    -0.001 A 
HETATM    8  C8  UNL     1     -33.065   7.720   2.403  1.00 20.00     0.085 A 
HETATM    9  O9  UNL     1     -32.861   9.049   2.182  1.00 20.00    -0.322 OA
ENDROOT
TORSDOF 0
ENDMDL
MODEL 6
REMARK VINA RESULT:       0.4      1.653      2.790
REMARK  0 active torsions:
REMARK  status: ('A' for Active; 'I' for Inactive)
ROOT
HETATM    1  C1  UNL     1     -33.326   7.380   2.382  1.00 20.00     0.001 A 
HETATM    2  C2  UNL     1     -34.405   7.666   3.222  1.00 20.00     0.003 A 
HETATM    3  C3  UNL     1     -32.755   6.100   2.349  1.00 20.00     0.014 A 
HETATM    4  C4  UNL     1     -34.953   6.688   4.057  1.00 20.00     0.038 A 
HETATM    5  C5  UNL     1     -33.011   3.732   3.433  1.00 20.00     0.039 A 
HETATM    6  C6  UNL     1     -33.922   3.318   4.378  1.00 20.00     0.143 A 
HETATM    7  C7  UNL     1     -33.291   5.101   3.179  1.00 20.00    -0.001 A 
HETATM    8  C8  UNL     1     -34.366   5.425   4.001  1.00 20.00     0.085 A 
HETATM    9  O9  UNL     1     -34.748   4.338   4.729  1.00 20.00    -0.322 OA
ENDROOT
TORSDOF 0
ENDMDL
