MODEL 1
REMARK VINA RESULT:      -2.3      0.000      0.000
REMARK  0 active torsions:
REMARK  status: ('A' for Active; 'I' for Inactive)
ROOT
HETATM    1  C1  UNL     1     -33.772   5.614   2.595  1.00 20.00     0.000 A 
HETATM    2  C2  UNL     1     -32.770   6.016   1.712  1.00 20.00     0.000 A 
HETATM    3  C3  UNL     1     -34.202   6.479   3.602  1.00 20.00     0.000 A 
HETATM    4  C4  UNL     1     -32.198   7.283   1.835  1.00 20.00     0.000 A 
HETATM    5  C5  UNL     1     -33.630   7.745   3.726  1.00 20.00     0.000 A 
HETATM    6  C6  UNL     1     -32.629   8.147   2.842  1.00 20.00     0.000 A 
ENDROOT
TORSDOF 0
ENDMDL
MODEL 2
REMARK VINA RESULT:      -2.3      0.040      1.973
REMARK  0 active torsions:
REMARK  status: ('A' for Active; 'I' for Inactive)
ROOT
HETATM    1  C1  UNL     1     -34.211   6.435   3.567  1.00 20.00     0.000 A 
HETATM    2  C2  UNL     1     -33.654   7.706   3.719  1.00 20.00     0.000 A 
HETATM    3  C3  UNL     1     -33.760   5.592   2.552  1.00 20.00     0.000 A 
HETATM    4  C4  UNL     1     -32.645   8.132   2.855  1.00 20.00     0.000 A 
HETATM    5  C5  UNL     1     -32.751   6.019   1.688  1.00 20.00     0.000 A 
HETATM    6  C6  UNL     1     -32.194   7.288   1.840  1.00 20.00     0.000 A 
ENDROOT
TORSDOF 0
ENDMDL
MODEL 3
REMARK VINA RESULT:      -2.3      0.007      1.973
REMARK  0 active torsions:
REMARK  status: ('A' for Active; 'I' for Inactive)
ROOT
HETATM    1  C1  UNL     1     -33.774   5.615   2.592  1.00 20.00     0.000 A 
HETATM    2  C2  UNL     1     -34.208   6.479   3.598  1.00 20.00     0.000 A 
HETATM    3  C3  UNL     1     -32.771   6.019   1.710  1.00 20.00     0.000 A 
HETATM    4  C4  UNL     1     -33.638   7.746   3.722  1.00 20.00     0.000 A 
HETATM    5  C5  UNL     1     -32.202   7.286   1.834  1.00 20.00     0.000 A 
HETATM    6  C6  UNL     1     -32.635   8.149   2.840  1.00 20.00     0.000 A 
ENDROOT
TORSDOF 0
ENDMDL
MODEL 4
REMARK VINA RESULT:      -2.2      0.062      1.973
REMARK  0 active torsions:
REMARK  status: ('A' for Active; 'I' for Inactive)
ROOT
HETATM    1  C1  UNL     1     -33.687   7.705   3.691  1.00 20.00     0.000 A 
HETATM    2  C2  UNL     1     -32.689   8.146   2.822  1.00 20.00     0.000 A 
HETATM    3  C3  UNL     1     -34.208   6.417   3.559  1.00 20.00     0.000 A 
HETATM    4  C4  UNL     1     -32.211   7.300   1.821  1.00 20.00     0.000 A 
HETATM    5  C5  UNL     1     -33.729   5.571   2.558  1.00 20.00     0.000 A 
HETATM    6  C6  UNL     1     -32.731   6.013   1.690  1.00 20.00     0.000 A 
ENDROOT
TORSDOF 0
ENDMDL
MODEL 5
REMARK VINA RESULT:      -2.2      0.038      1.369
REMARK  0 active torsions:
REMARK  status: ('A' for Active; 'I' for Inactive)
ROOT
HETATM    1  C1  UNL     1     -34.213   6.438   3.570  1.00 20.00     0.000 A 
HETATM    2  C2  UNL     1     -33.762   5.593   2.555  1.00 20.00     0.000 A 
HETATM    3  C3  UNL     1     -33.655   7.707   3.721  1.00 20.00     0.000 A 
HETATM    4  C4  UNL     1     -32.753   6.018   1.691  1.00 20.00     0.000 A 
HETATM    5  C5  UNL     1     -32.646   8.132   2.857  1.00 20.00     0.000 A 
HETATM    6  C6  UNL     1     -32.195   7.288   1.842  1.00 20.00     0.000 A 
ENDROOT
TORSDOF 0
ENDMDL
MODEL 6
REMARK VINA RESULT:      -2.2      0.074      2.414
REMARK  0 active torsions:
REMARK  status: ('A' for Active; 'I' for Inactive)
ROOT
HETATM    1  C1  UNL     1     -32.172   7.247   1.769  1.00 20.00     0.000 A 
HETATM    2  C2  UNL     1     -32.602   8.120   2.770  1.00 20.00     0.000 A 
HETATM    3  C3  UNL     1     -32.740   5.977   1.660  1.00 20.00     0.000 A 
HETATM    4  C4  UNL     1     -33.599   7.722   3.661  1.00 20.00     0.000 A 
HETATM    5  C5  UNL     1     -33.736   5.580   2.551  1.00 20.00     0.000 A 
HETATM    6  C6  UNL     1     -34.166   6.452   3.551  1.00 20.00     0.000 A 
ENDROOT
TORSDOF 0
ENDMDL
MODEL 7
REMARK VINA RESULT:      -2.2      0.062      1.377
REMARK  0 active torsions:
REMARK  status: ('A' for Active; 'I' for Inactive)
ROOT
HETATM    1  C1  UNL     1     -32.771   6.017   1.659  1.00 20.00     0.000 A 
HETATM    2  C2  UNL     1     -32.190   7.282   1.762  1.00 20.00     0.000 A 
HETATM    3  C3  UNL     1     -33.752   5.624   2.570  1.00 20.00     0.000 A 
HETATM    4  C4  UNL     1     -32.591   8.153   2.775  1.00 20.00     0.000 A 
HETATM    5  C5  UNL     1     -34.153   6.495   3.583  1.00 20.00     0.000 A 
HETATM    6  C6  UNL     1     -33.573   7.760   3.685  1.00 20.00     0.000 A 
ENDROOT
TORSDOF 0
ENDMDL
MODEL 8
REMARK VINA RESULT:      -2.2      0.093      1.974
REMARK  0 active torsions:
REMARK  status: ('A' for Active; 'I' for Inactive)
ROOT
HETATM    1  C1  UNL     1     -32.648   8.145   2.805  1.00 20.00     0.000 A 
HETATM    2  C2  UNL     1     -32.172   7.311   1.792  1.00 20.00     0.000 A 
HETATM    3  C3  UNL     1     -33.641   7.690   3.673  1.00 20.00     0.000 A 
HETATM    4  C4  UNL     1     -32.688   6.023   1.648  1.00 20.00     0.000 A 
HETATM    5  C5  UNL     1     -34.156   6.402   3.530  1.00 20.00     0.000 A 
HETATM    6  C6  UNL     1     -33.680   5.569   2.518  1.00 20.00     0.000 A 
ENDROOT
TORSDOF 0
ENDMDL
MODEL 9
REMARK VINA RESULT:      -2.2      0.053      1.974
REMARK  0 active torsions:
REMARK  status: ('A' for Active; 'I' for Inactive)
ROOT
HETATM    1  C1  UNL     1     -32.757   6.024   1.654  1.00 20.00     0.000 A 
HETATM    2  C2  UNL     1     -33.742   5.591   2.542  1.00 20.00     0.000 A 
HETATM    3  C3  UNL     1     -32.204   7.297   1.792  1.00 20.00     0.000 A 
HETATM    4  C4  UNL     1     -34.174   6.431   3.569  1.00 20.00     0.000 A 
HETATM    5  C5  UNL     1     -32.636   8.137   2.819  1.00 20.00     0.000 A 
HETATM    6  C6  UNL     1     -33.620   7.704   3.707  1.00 20.00     0.000 A 
ENDROOT
TORSDOF 0
ENDMDL
