MODEL 1
REMARK VINA RESULT:      -2.2      0.000      0.000
REMARK  2 active torsions:
REMARK  status: ('A' for Active; 'I' for Inactive)
REMARK    1  A    between atoms: C6_6  and  C7_7 
REMARK    2  A    between atoms: C7_7  and  S8_8 
ROOT
HETATM    1  C1  UNL     1     -34.379   6.095   3.658  1.00 20.00     0.000 A 
HETATM    2  C2  UNL     1     -34.120   7.424   3.994  1.00 20.00     0.001 A 
HETATM    3  C3  UNL     1     -33.740   5.517   2.560  1.00 20.00     0.001 A 
HETATM    4  C4  UNL     1     -33.223   8.174   3.233  1.00 20.00     0.008 A 
HETATM    5  C5  UNL     1     -32.845   6.267   1.799  1.00 20.00     0.008 A 
HETATM    6  C6  UNL     1     -32.585   7.596   2.135  1.00 20.00    -0.049 A 
ENDROOT
BRANCH   6   7
HETATM    7  C7  UNL     1     -31.627   8.398   1.321  1.00 20.00     0.109 C 
BRANCH   7   8
HETATM    8  S8  UNL     1     -32.452   9.700   0.356  1.00 20.00    -0.178 SA
HETATM    9  H16 UNL     1     -32.934   8.885  -0.592  1.00 20.00     0.101 HD
ENDBRANCH   7   8
ENDBRANCH   6   7
TORSDOF 2
ENDMDL
MODEL 2
REMARK VINA RESULT:      -2.2      0.003      1.708
REMARK  2 active torsions:
REMARK  status: ('A' for Active; 'I' for Inactive)
REMARK    1  A    between atoms: C6_6  and  C7_7 
REMARK    2  A    between atoms: C7_7  and  S8_8 
ROOT
HETATM    1  C1  UNL     1     -34.378   6.093   3.657  1.00 20.00     0.000 A 
HETATM    2  C2  UNL     1     -33.740   5.514   2.559  1.00 20.00     0.001 A 
HETATM    3  C3  UNL     1     -34.120   7.422   3.991  1.00 20.00     0.001 A 
HETATM    4  C4  UNL     1     -32.844   6.264   1.798  1.00 20.00     0.008 A 
HETATM    5  C5  UNL     1     -33.224   8.172   3.231  1.00 20.00     0.008 A 
HETATM    6  C6  UNL     1     -32.586   7.593   2.134  1.00 20.00    -0.049 A 
ENDROOT
BRANCH   6   7
HETATM    7  C7  UNL     1     -31.627   8.396   1.320  1.00 20.00     0.109 C 
BRANCH   7   8
HETATM    8  S8  UNL     1     -32.452   9.698   0.355  1.00 20.00    -0.178 SA
HETATM    9  H16 UNL     1     -31.522   9.768  -0.607  1.00 20.00     0.101 HD
ENDBRANCH   7   8
ENDBRANCH   6   7
TORSDOF 2
ENDMDL
MODEL 3
REMARK VINA RESULT:      -1.7      2.704      3.660
REMARK  2 active torsions:
REMARK  status: ('A' for Active; 'I' for Inactive)
REMARK    1  A    between atoms: C6_6  and  C7_7 
REMARK    2  A    between atoms: C7_7  and  S8_8 
ROOT
HETATM    1  C1  UNL     1     -32.088   7.901   1.795  1.00 20.00     0.000 A 
HETATM    2  C2  UNL     1     -32.763   8.339   2.935  1.00 20.00     0.001 A 
HETATM    3  C3  UNL     1     -32.233   6.582   1.363  1.00 20.00     0.001 A 
HETATM    4  C4  UNL     1     -33.582   7.458   3.641  1.00 20.00     0.008 A 
HETATM    5  C5  UNL     1     -33.051   5.702   2.069  1.00 20.00     0.008 A 
HETATM    6  C6  UNL     1     -33.727   6.140   3.209  1.00 20.00    -0.049 A 
ENDROOT
BRANCH   6   7
HETATM    7  C7  UNL     1     -34.602   5.198   3.965  1.00 20.00     0.109 C 
BRANCH   7   8
HETATM    8  S8  UNL     1     -33.748   3.656   4.409  1.00 20.00    -0.178 SA
HETATM    9  H16 UNL     1     -34.425   3.445   5.546  1.00 20.00     0.101 HD
ENDBRANCH   7   8
ENDBRANCH   6   7
TORSDOF 2
ENDMDL
MODEL 4
REMARK VINA RESULT:      -1.7      2.704      4.036
REMARK  2 active torsions:
REMARK  status: ('A' for Active; 'I' for Inactive)
REMARK    1  A    between atoms: C6_6  and  C7_7 
REMARK    2  A    between atoms: C7_7  and  S8_8 
ROOT
HETATM    1  C1  UNL     1     -32.087   7.906   1.799  1.00 20.00     0.000 A 
HETATM    2  C2  UNL     1     -32.227   6.588   1.363  1.00 20.00     0.001 A 
HETATM    3  C3  UNL     1     -32.767   8.339   2.938  1.00 20.00     0.001 A 
HETATM    4  C4  UNL     1     -33.046   5.705   2.066  1.00 20.00     0.008 A 
HETATM    5  C5  UNL     1     -33.586   7.456   3.640  1.00 20.00     0.008 A 
HETATM    6  C6  UNL     1     -33.726   6.138   3.204  1.00 20.00    -0.049 A 
ENDROOT
BRANCH   6   7
HETATM    7  C7  UNL     1     -34.602   5.193   3.955  1.00 20.00     0.109 C 
BRANCH   7   8
HETATM    8  S8  UNL     1     -33.745   3.653   4.401  1.00 20.00    -0.178 SA
HETATM    9  H16 UNL     1     -34.127   2.963   3.318  1.00 20.00     0.101 HD
ENDBRANCH   7   8
ENDBRANCH   6   7
TORSDOF 2
ENDMDL
MODEL 5
REMARK VINA RESULT:      -1.5      1.436      1.896
REMARK  2 active torsions:
REMARK  status: ('A' for Active; 'I' for Inactive)
REMARK    1  A    between atoms: C6_6  and  C7_7 
REMARK    2  A    between atoms: C7_7  and  S8_8 
ROOT
HETATM    1  C1  UNL     1     -35.194   5.178   4.573  1.00 20.00     0.000 A 
HETATM    2  C2  UNL     1     -35.186   6.489   4.096  1.00 20.00     0.001 A 
HETATM    3  C3  UNL     1     -34.267   4.254   4.088  1.00 20.00     0.001 A 
HETATM    4  C4  UNL     1     -34.253   6.875   3.134  1.00 20.00     0.008 A 
HETATM    5  C5  UNL     1     -33.335   4.640   3.126  1.00 20.00     0.008 A 
HETATM    6  C6  UNL     1     -33.327   5.951   2.649  1.00 20.00    -0.049 A 
ENDROOT
BRANCH   6   7
HETATM    7  C7  UNL     1     -32.330   6.364   1.619  1.00 20.00     0.109 C 
BRANCH   7   8
HETATM    8  S8  UNL     1     -31.931   8.136   1.708  1.00 20.00    -0.178 SA
HETATM    9  H16 UNL     1     -31.228   8.064   2.846  1.00 20.00     0.101 HD
ENDBRANCH   7   8
ENDBRANCH   6   7
TORSDOF 2
ENDMDL
MODEL 6
REMARK VINA RESULT:      -1.5      1.429      2.425
REMARK  2 active torsions:
REMARK  status: ('A' for Active; 'I' for Inactive)
REMARK    1  A    between atoms: C6_6  and  C7_7 
REMARK    2  A    between atoms: C7_7  and  S8_8 
ROOT
HETATM    1  C1  UNL     1     -35.187   5.183   4.571  1.00 20.00     0.000 A 
HETATM    2  C2  UNL     1     -34.270   4.257   4.074  1.00 20.00     0.001 A 
HETATM    3  C3  UNL     1     -35.172   6.498   4.104  1.00 20.00     0.001 A 
HETATM    4  C4  UNL     1     -33.338   4.646   3.111  1.00 20.00     0.008 A 
HETATM    5  C5  UNL     1     -34.241   6.886   3.143  1.00 20.00     0.008 A 
HETATM    6  C6  UNL     1     -33.323   5.960   2.646  1.00 20.00    -0.049 A 
ENDROOT
BRANCH   6   7
HETATM    7  C7  UNL     1     -32.326   6.376   1.617  1.00 20.00     0.109 C 
BRANCH   7   8
HETATM    8  S8  UNL     1     -31.925   8.147   1.711  1.00 20.00    -0.178 SA
HETATM    9  H16 UNL     1     -32.923   8.471   2.545  1.00 20.00     0.101 HD
ENDBRANCH   7   8
ENDBRANCH   6   7
TORSDOF 2
ENDMDL
MODEL 7
REMARK VINA RESULT:      -0.3      1.996      2.849
REMARK  2 active torsions:
REMARK  status: ('A' for Active; 'I' for Inactive)
REMARK    1  A    between atoms: C6_6  and  C7_7 
REMARK    2  A    between atoms: C7_7  and  S8_8 
ROOT
HETATM    1  C1  UNL     1     -35.306   5.134   4.681  1.00 20.00     0.000 A 
HETATM    2  C2  UNL     1     -34.316   4.279   4.196  1.00 20.00     0.001 A 
HETATM    3  C3  UNL     1     -35.375   6.450   4.223  1.00 20.00     0.001 A 
HETATM    4  C4  UNL     1     -33.396   4.739   3.255  1.00 20.00     0.008 A 
HETATM    5  C5  UNL     1     -34.454   6.911   3.282  1.00 20.00     0.008 A 
HETATM    6  C6  UNL     1     -33.465   6.055   2.798  1.00 20.00    -0.049 A 
ENDROOT
BRANCH   6   7
HETATM    7  C7  UNL     1     -32.480   6.548   1.791  1.00 20.00     0.109 C 
BRANCH   7   8
HETATM    8  S8  UNL     1     -31.788   5.205   0.779  1.00 20.00    -0.178 SA
HETATM    9  H16 UNL     1     -32.907   4.965   0.083  1.00 20.00     0.101 HD
ENDBRANCH   7   8
ENDBRANCH   6   7
TORSDOF 2
ENDMDL
MODEL 8
REMARK VINA RESULT:      -0.3      1.995      2.412
REMARK  2 active torsions:
REMARK  status: ('A' for Active; 'I' for Inactive)
REMARK    1  A    between atoms: C6_6  and  C7_7 
REMARK    2  A    between atoms: C7_7  and  S8_8 
ROOT
HETATM    1  C1  UNL     1     -35.308   5.139   4.681  1.00 20.00     0.000 A 
HETATM    2  C2  UNL     1     -35.374   6.456   4.224  1.00 20.00     0.001 A 
HETATM    3  C3  UNL     1     -34.318   4.283   4.198  1.00 20.00     0.001 A 
HETATM    4  C4  UNL     1     -34.452   6.915   3.284  1.00 20.00     0.008 A 
HETATM    5  C5  UNL     1     -33.396   4.742   3.258  1.00 20.00     0.008 A 
HETATM    6  C6  UNL     1     -33.463   6.059   2.801  1.00 20.00    -0.049 A 
ENDROOT
BRANCH   6   7
HETATM    7  C7  UNL     1     -32.476   6.550   1.795  1.00 20.00     0.109 C 
BRANCH   7   8
HETATM    8  S8  UNL     1     -31.787   5.207   0.782  1.00 20.00    -0.178 SA
HETATM    9  H16 UNL     1     -32.731   4.306   1.085  1.00 20.00     0.101 HD
ENDBRANCH   7   8
ENDBRANCH   6   7
TORSDOF 2
ENDMDL
MODEL 9
REMARK VINA RESULT:      -0.1      3.317      4.243
REMARK  2 active torsions:
REMARK  status: ('A' for Active; 'I' for Inactive)
REMARK    1  A    between atoms: C6_6  and  C7_7 
REMARK    2  A    between atoms: C7_7  and  S8_8 
ROOT
HETATM    1  C1  UNL     1     -34.487   7.334   3.277  1.00 20.00     0.000 A 
HETATM    2  C2  UNL     1     -35.281   6.585   4.146  1.00 20.00     0.001 A 
HETATM    3  C3  UNL     1     -33.411   6.733   2.624  1.00 20.00     0.001 A 
HETATM    4  C4  UNL     1     -34.998   5.236   4.362  1.00 20.00     0.008 A 
HETATM    5  C5  UNL     1     -33.127   5.385   2.840  1.00 20.00     0.008 A 
HETATM    6  C6  UNL     1     -33.921   4.636   3.709  1.00 20.00    -0.049 A 
ENDROOT
BRANCH   6   7
HETATM    7  C7  UNL     1     -33.618   3.194   3.941  1.00 20.00     0.109 C 
BRANCH   7   8
HETATM    8  S8  UNL     1     -32.742   2.909   5.509  1.00 20.00    -0.178 SA
HETATM    9  H16 UNL     1     -32.352   1.659   5.225  1.00 20.00     0.101 HD
ENDBRANCH   7   8
ENDBRANCH   6   7
TORSDOF 2
ENDMDL
