MODEL 1
REMARK VINA RESULT:      -2.3      0.000      0.000
REMARK  3 active torsions:
REMARK  status: ('A' for Active; 'I' for Inactive)
REMARK    1  A    between atoms: C6_6  and  O9_9 
REMARK    2  A    between atoms: C7_7  and  C8_8 
REMARK    3  A    between atoms: C7_7  and  O9_9 
ROOT
HETATM    1  C1  UNL     1     -35.118   5.193   4.454  1.00 20.00     0.000 A 
HETATM    2  C2  UNL     1     -35.170   6.545   4.116  1.00 20.00     0.003 A 
HETATM    3  C3  UNL     1     -34.153   4.368   3.876  1.00 20.00     0.003 A 
HETATM    4  C4  UNL     1     -34.260   7.072   3.200  1.00 20.00     0.037 A 
HETATM    5  C5  UNL     1     -33.243   4.894   2.960  1.00 20.00     0.037 A 
HETATM    6  C6  UNL     1     -33.296   6.246   2.622  1.00 20.00     0.068 A 
ENDROOT
BRANCH   6   7
HETATM    7  O9  UNL     1     -32.409   6.758   1.727  1.00 20.00    -0.350 OA
BRANCH   7   8
HETATM    8  C7  UNL     1     -32.047   8.130   1.882  1.00 20.00     0.190 C 
BRANCH   8   9
HETATM    9  C8  UNL     1     -31.858   8.768   0.519  1.00 20.00     0.141 C 
HETATM   10 CL10 UNL     1     -32.629  10.374   0.458  1.00 20.00    -0.128 Cl
ENDBRANCH   8   9
ENDBRANCH   7   8
ENDBRANCH   6   7
TORSDOF 3
ENDMDL
MODEL 2
REMARK VINA RESULT:      -2.3      0.045      1.528
REMARK  3 active torsions:
REMARK  status: ('A' for Active; 'I' for Inactive)
REMARK    1  A    between atoms: C6_6  and  O9_9 
REMARK    2  A    between atoms: C7_7  and  C8_8 
REMARK    3  A    between atoms: C7_7  and  O9_9 
ROOT
HETATM    1  C1  UNL     1     -35.104   5.161   4.461  1.00 20.00     0.000 A 
HETATM    2  C2  UNL     1     -34.153   4.338   3.857  1.00 20.00     0.003 A 
HETATM    3  C3  UNL     1     -35.161   6.515   4.133  1.00 20.00     0.003 A 
HETATM    4  C4  UNL     1     -33.260   4.868   2.927  1.00 20.00     0.037 A 
HETATM    5  C5  UNL     1     -34.267   7.047   3.204  1.00 20.00     0.037 A 
HETATM    6  C6  UNL     1     -33.316   6.223   2.600  1.00 20.00     0.068 A 
ENDROOT
BRANCH   6   7
HETATM    7  O9  UNL     1     -32.444   6.742   1.695  1.00 20.00    -0.350 OA
BRANCH   7   8
HETATM    8  C7  UNL     1     -32.023   8.090   1.897  1.00 20.00     0.190 C 
BRANCH   8   9
HETATM    9  C8  UNL     1     -31.813   8.769   0.556  1.00 20.00     0.141 C 
HETATM   10 CL10 UNL     1     -32.653  10.340   0.502  1.00 20.00    -0.128 Cl
ENDBRANCH   8   9
ENDBRANCH   7   8
ENDBRANCH   6   7
TORSDOF 3
ENDMDL
MODEL 3
REMARK VINA RESULT:      -1.9      1.110      1.478
REMARK  3 active torsions:
REMARK  status: ('A' for Active; 'I' for Inactive)
REMARK    1  A    between atoms: C6_6  and  O9_9 
REMARK    2  A    between atoms: C7_7  and  C8_8 
REMARK    3  A    between atoms: C7_7  and  O9_9 
ROOT
HETATM    1  C1  UNL     1     -34.414   5.768   3.561  1.00 20.00     0.000 A 
HETATM    2  C2  UNL     1     -34.353   7.062   4.078  1.00 20.00     0.003 A 
HETATM    3  C3  UNL     1     -33.634   5.421   2.459  1.00 20.00     0.003 A 
HETATM    4  C4  UNL     1     -33.514   8.009   3.491  1.00 20.00     0.037 A 
HETATM    5  C5  UNL     1     -32.795   6.368   1.872  1.00 20.00     0.037 A 
HETATM    6  C6  UNL     1     -32.734   7.662   2.388  1.00 20.00     0.068 A 
ENDROOT
BRANCH   6   7
HETATM    7  O9  UNL     1     -31.917   8.586   1.814  1.00 20.00    -0.350 OA
BRANCH   7   8
HETATM    8  C7  UNL     1     -31.750   8.516   0.399  1.00 20.00     0.190 C 
BRANCH   8   9
HETATM    9  C8  UNL     1     -32.480   9.670  -0.262  1.00 20.00     0.141 C 
HETATM   10 CL10 UNL     1     -32.719  11.011   0.888  1.00 20.00    -0.128 Cl
ENDBRANCH   8   9
ENDBRANCH   7   8
ENDBRANCH   6   7
TORSDOF 3
ENDMDL
MODEL 4
REMARK VINA RESULT:      -1.8      1.091      1.976
REMARK  3 active torsions:
REMARK  status: ('A' for Active; 'I' for Inactive)
REMARK    1  A    between atoms: C6_6  and  O9_9 
REMARK    2  A    between atoms: C7_7  and  C8_8 
REMARK    3  A    between atoms: C7_7  and  O9_9 
ROOT
HETATM    1  C1  UNL     1     -34.421   5.653   3.550  1.00 20.00     0.000 A 
HETATM    2  C2  UNL     1     -33.617   5.345   2.453  1.00 20.00     0.003 A 
HETATM    3  C3  UNL     1     -34.409   6.942   4.083  1.00 20.00     0.003 A 
HETATM    4  C4  UNL     1     -32.800   6.325   1.889  1.00 20.00     0.037 A 
HETATM    5  C5  UNL     1     -33.592   7.922   3.519  1.00 20.00     0.037 A 
HETATM    6  C6  UNL     1     -32.788   7.614   2.422  1.00 20.00     0.068 A 
ENDROOT
BRANCH   6   7
HETATM    7  O9  UNL     1     -31.990   8.570   1.874  1.00 20.00    -0.350 OA
BRANCH   7   8
HETATM    8  C7  UNL     1     -31.763   8.499   0.467  1.00 20.00     0.190 C 
BRANCH   8   9
HETATM    9  C8  UNL     1     -32.457   9.658  -0.224  1.00 20.00     0.141 C 
HETATM   10 CL10 UNL     1     -32.736  11.000   0.915  1.00 20.00    -0.128 Cl
ENDBRANCH   8   9
ENDBRANCH   7   8
ENDBRANCH   6   7
TORSDOF 3
ENDMDL
MODEL 5
REMARK VINA RESULT:      -1.6      3.146      4.600
REMARK  3 active torsions:
REMARK  status: ('A' for Active; 'I' for Inactive)
REMARK    1  A    between atoms: C6_6  and  O9_9 
REMARK    2  A    between atoms: C7_7  and  C8_8 
REMARK    3  A    between atoms: C7_7  and  O9_9 
ROOT
HETATM    1  C1  UNL     1     -31.787   7.924   2.028  1.00 20.00     0.000 A 
HETATM    2  C2  UNL     1     -32.392   8.391   3.195  1.00 20.00     0.003 A 
HETATM    3  C3  UNL     1     -32.267   6.772   1.407  1.00 20.00     0.003 A 
HETATM    4  C4  UNL     1     -33.476   7.705   3.742  1.00 20.00     0.037 A 
HETATM    5  C5  UNL     1     -33.352   6.085   1.954  1.00 20.00     0.037 A 
HETATM    6  C6  UNL     1     -33.956   6.552   3.121  1.00 20.00     0.068 A 
ENDROOT
BRANCH   6   7
HETATM    7  O9  UNL     1     -35.013   5.881   3.655  1.00 20.00    -0.350 OA
BRANCH   7   8
HETATM    8  C7  UNL     1     -34.719   4.846   4.593  1.00 20.00     0.190 C 
BRANCH   8   9
HETATM    9  C8  UNL     1     -33.877   3.774   3.926  1.00 20.00     0.141 C 
HETATM   10 CL10 UNL     1     -32.917   2.880   5.133  1.00 20.00    -0.128 Cl
ENDBRANCH   8   9
ENDBRANCH   7   8
ENDBRANCH   6   7
TORSDOF 3
ENDMDL
MODEL 6
REMARK VINA RESULT:      -1.6      3.148      4.777
REMARK  3 active torsions:
REMARK  status: ('A' for Active; 'I' for Inactive)
REMARK    1  A    between atoms: C6_6  and  O9_9 
REMARK    2  A    between atoms: C7_7  and  C8_8 
REMARK    3  A    between atoms: C7_7  and  O9_9 
ROOT
HETATM    1  C1  UNL     1     -31.818   7.920   2.009  1.00 20.00     0.000 A 
HETATM    2  C2  UNL     1     -32.300   6.762   1.398  1.00 20.00     0.003 A 
HETATM    3  C3  UNL     1     -32.413   8.388   3.180  1.00 20.00     0.003 A 
HETATM    4  C4  UNL     1     -33.375   6.073   1.957  1.00 20.00     0.037 A 
HETATM    5  C5  UNL     1     -33.490   7.700   3.739  1.00 20.00     0.037 A 
HETATM    6  C6  UNL     1     -33.971   6.542   3.128  1.00 20.00     0.068 A 
ENDROOT
BRANCH   6   7
HETATM    7  O9  UNL     1     -35.022   5.873   3.673  1.00 20.00    -0.350 OA
BRANCH   7   8
HETATM    8  C7  UNL     1     -34.719   4.838   4.609  1.00 20.00     0.190 C 
BRANCH   8   9
HETATM    9  C8  UNL     1     -33.893   3.761   3.932  1.00 20.00     0.141 C 
HETATM   10 CL10 UNL     1     -32.915   2.869   5.125  1.00 20.00    -0.128 Cl
ENDBRANCH   8   9
ENDBRANCH   7   8
ENDBRANCH   6   7
TORSDOF 3
ENDMDL
MODEL 7
REMARK VINA RESULT:      -1.2      2.783      4.703
REMARK  3 active torsions:
REMARK  status: ('A' for Active; 'I' for Inactive)
REMARK    1  A    between atoms: C6_6  and  O9_9 
REMARK    2  A    between atoms: C7_7  and  C8_8 
REMARK    3  A    between atoms: C7_7  and  O9_9 
ROOT
HETATM    1  C1  UNL     1     -31.512   7.388   1.112  1.00 20.00     0.000 A 
HETATM    2  C2  UNL     1     -32.289   6.233   1.190  1.00 20.00     0.003 A 
HETATM    3  C3  UNL     1     -31.706   8.422   2.028  1.00 20.00     0.003 A 
HETATM    4  C4  UNL     1     -33.261   6.111   2.183  1.00 20.00     0.037 A 
HETATM    5  C5  UNL     1     -32.679   8.300   3.021  1.00 20.00     0.037 A 
HETATM    6  C6  UNL     1     -33.456   7.145   3.099  1.00 20.00     0.068 A 
ENDROOT
BRANCH   6   7
HETATM    7  O9  UNL     1     -34.405   7.028   4.067  1.00 20.00    -0.350 OA
BRANCH   7   8
HETATM    8  C7  UNL     1     -35.443   6.075   3.846  1.00 20.00     0.190 C 
BRANCH   8   9
HETATM    9  C8  UNL     1     -35.287   4.914   4.811  1.00 20.00     0.141 C 
HETATM   10 CL10 UNL     1     -33.973   3.829   4.289  1.00 20.00    -0.128 Cl
ENDBRANCH   8   9
ENDBRANCH   7   8
ENDBRANCH   6   7
TORSDOF 3
ENDMDL
MODEL 8
REMARK VINA RESULT:      -0.1      3.355      4.873
REMARK  3 active torsions:
REMARK  status: ('A' for Active; 'I' for Inactive)
REMARK    1  A    between atoms: C6_6  and  O9_9 
REMARK    2  A    between atoms: C7_7  and  C8_8 
REMARK    3  A    between atoms: C7_7  and  O9_9 
ROOT
HETATM    1  C1  UNL     1     -33.333   8.204   2.836  1.00 20.00     0.000 A 
HETATM    2  C2  UNL     1     -32.862   7.105   2.119  1.00 20.00     0.003 A 
HETATM    3  C3  UNL     1     -34.161   8.012   3.942  1.00 20.00     0.003 A 
HETATM    4  C4  UNL     1     -33.219   5.814   2.505  1.00 20.00     0.037 A 
HETATM    5  C5  UNL     1     -34.519   6.720   4.328  1.00 20.00     0.037 A 
HETATM    6  C6  UNL     1     -34.048   5.621   3.611  1.00 20.00     0.068 A 
ENDROOT
BRANCH   6   7
HETATM    7  O9  UNL     1     -34.399   4.362   3.987  1.00 20.00    -0.350 OA
BRANCH   7   8
HETATM    8  C7  UNL     1     -33.457   3.321   3.731  1.00 20.00     0.190 C 
BRANCH   8   9
HETATM    9  C8  UNL     1     -33.290   2.463   4.971  1.00 20.00     0.141 C 
HETATM   10 CL10 UNL     1     -32.458   3.369   6.261  1.00 20.00    -0.128 Cl
ENDBRANCH   8   9
ENDBRANCH   7   8
ENDBRANCH   6   7
TORSDOF 3
ENDMDL
MODEL 9
REMARK VINA RESULT:      -0.1      2.576      5.058
REMARK  3 active torsions:
REMARK  status: ('A' for Active; 'I' for Inactive)
REMARK    1  A    between atoms: C6_6  and  O9_9 
REMARK    2  A    between atoms: C7_7  and  C8_8 
REMARK    3  A    between atoms: C7_7  and  O9_9 
ROOT
HETATM    1  C1  UNL     1     -31.990   9.588  -0.320  1.00 20.00     0.000 A 
HETATM    2  C2  UNL     1     -31.405   8.362  -0.004  1.00 20.00     0.003 A 
HETATM    3  C3  UNL     1     -32.783  10.244   0.621  1.00 20.00     0.003 A 
HETATM    4  C4  UNL     1     -31.612   7.792   1.252  1.00 20.00     0.037 A 
HETATM    5  C5  UNL     1     -32.991   9.675   1.877  1.00 20.00     0.037 A 
HETATM    6  C6  UNL     1     -32.405   8.449   2.193  1.00 20.00     0.068 A 
ENDROOT
BRANCH   6   7
HETATM    7  O9  UNL     1     -32.610   7.893   3.417  1.00 20.00    -0.350 OA
BRANCH   7   8
HETATM    8  C7  UNL     1     -33.955   7.567   3.766  1.00 20.00     0.190 C 
BRANCH   8   9
HETATM    9  C8  UNL     1     -34.248   6.127   3.388  1.00 20.00     0.141 C 
HETATM   10 CL10 UNL     1     -35.487   5.429   4.462  1.00 20.00    -0.128 Cl
ENDBRANCH   8   9
ENDBRANCH   7   8
ENDBRANCH   6   7
TORSDOF 3
ENDMDL
