MODEL 1
REMARK VINA RESULT:      -1.5      0.000      0.000
REMARK  0 active torsions:
REMARK  status: ('A' for Active; 'I' for Inactive)
ROOT
HETATM    1  C1  UNL     1     -32.090   7.698   1.809  1.00 20.00     0.016 C 
HETATM    2  C2  UNL     1     -32.969   6.492   2.045  1.00 20.00     0.081 C 
HETATM    3 BR3  UNL     1     -34.206   6.851   3.501  1.00 20.00    -0.097 Br
ENDROOT
TORSDOF 0
ENDMDL
MODEL 2
REMARK VINA RESULT:      -1.4      2.130      2.376
REMARK  0 active torsions:
REMARK  status: ('A' for Active; 'I' for Inactive)
ROOT
HETATM    1  C1  UNL     1     -34.158   7.277   3.836  1.00 20.00     0.016 C 
HETATM    2  C2  UNL     1     -33.421   6.582   2.715  1.00 20.00     0.081 C 
HETATM    3 BR3  UNL     1     -32.135   7.801   1.915  1.00 20.00    -0.097 Br
ENDROOT
TORSDOF 0
ENDMDL
MODEL 3
REMARK VINA RESULT:      -1.4      2.341      2.752
REMARK  0 active torsions:
REMARK  status: ('A' for Active; 'I' for Inactive)
ROOT
HETATM    1  C1  UNL     1     -34.916   6.498   3.838  1.00 20.00     0.016 C 
HETATM    2  C2  UNL     1     -33.849   7.567   3.847  1.00 20.00     0.081 C 
HETATM    3 BR3  UNL     1     -32.685   7.353   2.304  1.00 20.00    -0.097 Br
ENDROOT
TORSDOF 0
ENDMDL
MODEL 4
REMARK VINA RESULT:      -1.4      2.601      2.785
REMARK  0 active torsions:
REMARK  status: ('A' for Active; 'I' for Inactive)
ROOT
HETATM    1  C1  UNL     1     -34.154   7.344   3.916  1.00 20.00     0.016 C 
HETATM    2  C2  UNL     1     -35.171   6.228   3.965  1.00 20.00     0.081 C 
HETATM    3 BR3  UNL     1     -34.266   4.514   4.113  1.00 20.00    -0.097 Br
ENDROOT
TORSDOF 0
ENDMDL
MODEL 5
REMARK VINA RESULT:      -1.3      2.883      3.164
REMARK  0 active torsions:
REMARK  status: ('A' for Active; 'I' for Inactive)
ROOT
HETATM    1  C1  UNL     1     -32.671  10.439   0.424  1.00 20.00     0.016 C 
HETATM    2  C2  UNL     1     -31.989   9.114   0.177  1.00 20.00     0.081 C 
HETATM    3 BR3  UNL     1     -32.057   8.025   1.786  1.00 20.00    -0.097 Br
ENDROOT
TORSDOF 0
ENDMDL
MODEL 6
REMARK VINA RESULT:      -1.3      2.383      2.396
REMARK  0 active torsions:
REMARK  status: ('A' for Active; 'I' for Inactive)
ROOT
HETATM    1  C1  UNL     1     -34.146   7.488   4.002  1.00 20.00     0.016 C 
HETATM    2  C2  UNL     1     -34.102   6.126   3.350  1.00 20.00     0.081 C 
HETATM    3 BR3  UNL     1     -32.861   6.149   1.854  1.00 20.00    -0.097 Br
ENDROOT
TORSDOF 0
ENDMDL
MODEL 7
REMARK VINA RESULT:      -1.3      0.746      1.213
REMARK  0 active torsions:
REMARK  status: ('A' for Active; 'I' for Inactive)
ROOT
HETATM    1  C1  UNL     1     -32.734   5.938   1.570  1.00 20.00     0.016 C 
HETATM    2  C2  UNL     1     -32.801   7.266   2.286  1.00 20.00     0.081 C 
HETATM    3 BR3  UNL     1     -34.126   7.185   3.707  1.00 20.00    -0.097 Br
ENDROOT
TORSDOF 0
ENDMDL
MODEL 8
REMARK VINA RESULT:      -1.3      2.602      2.840
REMARK  0 active torsions:
REMARK  status: ('A' for Active; 'I' for Inactive)
ROOT
HETATM    1  C1  UNL     1     -32.385   6.765   1.486  1.00 20.00     0.016 C 
HETATM    2  C2  UNL     1     -31.974   8.157   1.903  1.00 20.00     0.081 C 
HETATM    3 BR3  UNL     1     -32.323   9.411   0.459  1.00 20.00    -0.097 Br
ENDROOT
TORSDOF 0
ENDMDL
MODEL 9
REMARK VINA RESULT:      -1.3      3.075      3.198
REMARK  0 active torsions:
REMARK  status: ('A' for Active; 'I' for Inactive)
ROOT
HETATM    1  C1  UNL     1     -34.511   4.708   4.178  1.00 20.00     0.016 C 
HETATM    2  C2  UNL     1     -35.268   6.012   4.082  1.00 20.00     0.081 C 
HETATM    3 BR3  UNL     1     -34.019   7.489   3.887  1.00 20.00    -0.097 Br
ENDROOT
TORSDOF 0
ENDMDL
