MODEL 1
REMARK VINA RESULT:      -3.0      0.000      0.000
REMARK  5 active torsions:
REMARK  status: ('A' for Active; 'I' for Inactive)
REMARK    1  A    between atoms: C1_1  and  C5_5 
REMARK    2  A    between atoms: C2_2  and  C6_6 
REMARK    3  A    between atoms: C3_3  and  O9_9 
REMARK    4  A    between atoms: C6_6  and  C7_7 
REMARK    5  A    between atoms: C7_7  and  O9_9 
ROOT
HETATM    1  C6  UNL     1     -32.778   7.009   2.221  1.00 20.00     0.053 C 
ENDROOT
BRANCH   1   2
HETATM    2  C2  UNL     1     -33.161   7.681   3.509  1.00 20.00    -0.029 C 
HETATM    3  C1  UNL     1     -34.268   7.384   4.205  1.00 20.00    -0.031 C 
BRANCH   3   4
HETATM    4  C5  UNL     1     -35.265   6.344   3.783  1.00 20.00     0.022 C 
HETATM    5  C4  UNL     1     -34.970   5.000   4.431  1.00 20.00     0.009 C 
ENDBRANCH   3   4
ENDBRANCH   1   2
BRANCH   1   6
HETATM    6  C7  UNL     1     -31.916   7.914   1.348  1.00 20.00     0.181 C 
BRANCH   6   7
HETATM    7  O9  UNL     1     -32.444   9.235   1.361  1.00 20.00    -0.328 OA
BRANCH   7   8
HETATM    8  C3  UNL     1     -32.314   9.933   0.198  1.00 20.00     0.398 C 
HETATM    9  O8  UNL     1     -33.005   9.837  -0.804  1.00 20.00    -0.276 OA
ENDBRANCH   7   8
ENDBRANCH   6   7
ENDBRANCH   1   6
TORSDOF 5
ENDMDL
MODEL 2
REMARK VINA RESULT:      -2.9      3.431      5.345
REMARK  5 active torsions:
REMARK  status: ('A' for Active; 'I' for Inactive)
REMARK    1  A    between atoms: C1_1  and  C5_5 
REMARK    2  A    between atoms: C2_2  and  C6_6 
REMARK    3  A    between atoms: C3_3  and  O9_9 
REMARK    4  A    between atoms: C6_6  and  C7_7 
REMARK    5  A    between atoms: C7_7  and  O9_9 
ROOT
HETATM    1  C6  UNL     1     -34.133   6.339   3.300  1.00 20.00     0.053 C 
ENDROOT
BRANCH   1   2
HETATM    2  C2  UNL     1     -33.511   7.621   3.779  1.00 20.00    -0.029 C 
HETATM    3  C1  UNL     1     -32.585   8.303   3.092  1.00 20.00    -0.031 C 
BRANCH   3   4
HETATM    4  C5  UNL     1     -32.053   7.874   1.756  1.00 20.00     0.022 C 
HETATM    5  C4  UNL     1     -32.101   9.011   0.748  1.00 20.00     0.009 C 
ENDBRANCH   3   4
ENDBRANCH   1   2
BRANCH   1   6
HETATM    6  C7  UNL     1     -35.293   5.908   4.190  1.00 20.00     0.181 C 
BRANCH   6   7
HETATM    7  O9  UNL     1     -35.133   4.543   4.557  1.00 20.00    -0.328 OA
BRANCH   7   8
HETATM    8  C3  UNL     1     -33.954   3.968   4.189  1.00 20.00     0.398 C 
HETATM    9  O8  UNL     1     -33.341   3.094   4.779  1.00 20.00    -0.276 OA
ENDBRANCH   7   8
ENDBRANCH   6   7
ENDBRANCH   1   6
TORSDOF 5
ENDMDL
MODEL 3
REMARK VINA RESULT:      -2.8      3.227      5.387
REMARK  5 active torsions:
REMARK  status: ('A' for Active; 'I' for Inactive)
REMARK    1  A    between atoms: C1_1  and  C5_5 
REMARK    2  A    between atoms: C2_2  and  C6_6 
REMARK    3  A    between atoms: C3_3  and  O9_9 
REMARK    4  A    between atoms: C6_6  and  C7_7 
REMARK    5  A    between atoms: C7_7  and  O9_9 
ROOT
HETATM    1  C6  UNL     1     -35.249   6.299   3.771  1.00 20.00     0.053 C 
ENDROOT
BRANCH   1   2
HETATM    2  C2  UNL     1     -34.323   7.390   4.228  1.00 20.00    -0.029 C 
HETATM    3  C1  UNL     1     -33.230   7.773   3.554  1.00 20.00    -0.031 C 
BRANCH   3   4
HETATM    4  C5  UNL     1     -32.793   7.160   2.255  1.00 20.00     0.022 C 
HETATM    5  C4  UNL     1     -31.915   8.112   1.460  1.00 20.00     0.009 C 
ENDBRANCH   3   4
ENDBRANCH   1   2
BRANCH   1   6
HETATM    6  C7  UNL     1     -34.979   4.988   4.498  1.00 20.00     0.181 C 
BRANCH   6   7
HETATM    7  O9  UNL     1     -33.938   4.279   3.836  1.00 20.00    -0.328 OA
BRANCH   7   8
HETATM    8  C3  UNL     1     -33.555   3.110   4.422  1.00 20.00     0.398 C 
HETATM    9  O8  UNL     1     -32.748   2.966   5.327  1.00 20.00    -0.276 OA
ENDBRANCH   7   8
ENDBRANCH   6   7
ENDBRANCH   1   6
TORSDOF 5
ENDMDL
MODEL 4
REMARK VINA RESULT:      -2.5      1.198      1.563
REMARK  5 active torsions:
REMARK  status: ('A' for Active; 'I' for Inactive)
REMARK    1  A    between atoms: C1_1  and  C5_5 
REMARK    2  A    between atoms: C2_2  and  C6_6 
REMARK    3  A    between atoms: C3_3  and  O9_9 
REMARK    4  A    between atoms: C6_6  and  C7_7 
REMARK    5  A    between atoms: C7_7  and  O9_9 
ROOT
HETATM    1  C6  UNL     1     -33.206   6.674   2.319  1.00 20.00     0.053 C 
ENDROOT
BRANCH   1   2
HETATM    2  C2  UNL     1     -34.149   6.562   3.483  1.00 20.00    -0.029 C 
HETATM    3  C1  UNL     1     -34.474   5.401   4.070  1.00 20.00    -0.031 C 
BRANCH   3   4
HETATM    4  C5  UNL     1     -33.934   4.068   3.640  1.00 20.00     0.022 C 
HETATM    5  C4  UNL     1     -33.409   3.274   4.825  1.00 20.00     0.009 C 
ENDBRANCH   3   4
ENDBRANCH   1   2
BRANCH   1   6
HETATM    6  C7  UNL     1     -32.428   7.984   2.348  1.00 20.00     0.181 C 
BRANCH   6   7
HETATM    7  O9  UNL     1     -31.977   8.303   1.037  1.00 20.00    -0.328 OA
BRANCH   7   8
HETATM    8  C3  UNL     1     -32.304   9.546   0.587  1.00 20.00     0.398 C 
HETATM    9  O8  UNL     1     -32.768   9.839  -0.503  1.00 20.00    -0.276 OA
ENDBRANCH   7   8
ENDBRANCH   6   7
ENDBRANCH   1   6
TORSDOF 5
ENDMDL
MODEL 5
REMARK VINA RESULT:      -2.5      2.864      5.338
REMARK  5 active torsions:
REMARK  status: ('A' for Active; 'I' for Inactive)
REMARK    1  A    between atoms: C1_1  and  C5_5 
REMARK    2  A    between atoms: C2_2  and  C6_6 
REMARK    3  A    between atoms: C3_3  and  O9_9 
REMARK    4  A    between atoms: C6_6  and  C7_7 
REMARK    5  A    between atoms: C7_7  and  O9_9 
ROOT
HETATM    1  C6  UNL     1     -33.474   7.590   3.310  1.00 20.00     0.053 C 
ENDROOT
BRANCH   1   2
HETATM    2  C2  UNL     1     -32.521   7.146   2.237  1.00 20.00    -0.029 C 
HETATM    3  C1  UNL     1     -32.006   7.966   1.310  1.00 20.00    -0.031 C 
BRANCH   3   4
HETATM    4  C5  UNL     1     -32.317   9.432   1.228  1.00 20.00     0.022 C 
HETATM    5  C4  UNL     1     -32.547   9.870  -0.210  1.00 20.00     0.009 C 
ENDBRANCH   3   4
ENDBRANCH   1   2
BRANCH   1   6
HETATM    6  C7  UNL     1     -34.417   6.468   3.726  1.00 20.00     0.181 C 
BRANCH   6   7
HETATM    7  O9  UNL     1     -33.820   5.209   3.436  1.00 20.00    -0.328 OA
BRANCH   7   8
HETATM    8  C3  UNL     1     -34.168   4.186   4.267  1.00 20.00     0.398 C 
HETATM    9  O8  UNL     1     -33.487   3.222   4.578  1.00 20.00    -0.276 OA
ENDBRANCH   7   8
ENDBRANCH   6   7
ENDBRANCH   1   6
TORSDOF 5
ENDMDL
MODEL 6
REMARK VINA RESULT:      -2.5      1.412      2.493
REMARK  5 active torsions:
REMARK  status: ('A' for Active; 'I' for Inactive)
REMARK    1  A    between atoms: C1_1  and  C5_5 
REMARK    2  A    between atoms: C2_2  and  C6_6 
REMARK    3  A    between atoms: C3_3  and  O9_9 
REMARK    4  A    between atoms: C6_6  and  C7_7 
REMARK    5  A    between atoms: C7_7  and  O9_9 
ROOT
HETATM    1  C6  UNL     1     -34.168   6.722   3.102  1.00 20.00     0.053 C 
ENDROOT
BRANCH   1   2
HETATM    2  C2  UNL     1     -35.018   6.019   4.123  1.00 20.00    -0.029 C 
HETATM    3  C1  UNL     1     -34.847   4.739   4.482  1.00 20.00    -0.031 C 
BRANCH   3   4
HETATM    4  C5  UNL     1     -33.785   3.846   3.909  1.00 20.00     0.022 C 
HETATM    5  C4  UNL     1     -33.164   2.965   4.982  1.00 20.00     0.009 C 
ENDBRANCH   3   4
ENDBRANCH   1   2
BRANCH   1   6
HETATM    6  C7  UNL     1     -33.384   7.874   3.717  1.00 20.00     0.181 C 
BRANCH   6   7
HETATM    7  O9  UNL     1     -32.115   7.982   3.083  1.00 20.00    -0.328 OA
BRANCH   7   8
HETATM    8  C3  UNL     1     -32.136   7.992   1.721  1.00 20.00     0.398 C 
HETATM    9  O8  UNL     1     -32.326   8.952   0.992  1.00 20.00    -0.276 OA
ENDBRANCH   7   8
ENDBRANCH   6   7
ENDBRANCH   1   6
TORSDOF 5
ENDMDL
MODEL 7
REMARK VINA RESULT:      -2.5      2.507      4.976
REMARK  5 active torsions:
REMARK  status: ('A' for Active; 'I' for Inactive)
REMARK    1  A    between atoms: C1_1  and  C5_5 
REMARK    2  A    between atoms: C2_2  and  C6_6 
REMARK    3  A    between atoms: C3_3  and  O9_9 
REMARK    4  A    between atoms: C6_6  and  C7_7 
REMARK    5  A    between atoms: C7_7  and  O9_9 
ROOT
HETATM    1  C6  UNL     1     -32.651   6.400   1.483  1.00 20.00     0.053 C 
ENDROOT
BRANCH   1   2
HETATM    2  C2  UNL     1     -31.966   7.591   2.093  1.00 20.00    -0.029 C 
HETATM    3  C1  UNL     1     -31.820   8.768   1.469  1.00 20.00    -0.031 C 
BRANCH   3   4
HETATM    4  C5  UNL     1     -32.323   9.046   0.082  1.00 20.00     0.022 C 
HETATM    5  C4  UNL     1     -32.739  10.500  -0.075  1.00 20.00     0.009 C 
ENDBRANCH   3   4
ENDBRANCH   1   2
BRANCH   1   6
HETATM    6  C7  UNL     1     -33.504   5.657   2.503  1.00 20.00     0.181 C 
BRANCH   6   7
HETATM    7  O9  UNL     1     -34.116   6.591   3.385  1.00 20.00    -0.328 OA
BRANCH   7   8
HETATM    8  C3  UNL     1     -35.177   6.120   4.099  1.00 20.00     0.398 C 
HETATM    9  O8  UNL     1     -35.366   4.974   4.474  1.00 20.00    -0.276 OA
ENDBRANCH   7   8
ENDBRANCH   6   7
ENDBRANCH   1   6
TORSDOF 5
ENDMDL
MODEL 8
REMARK VINA RESULT:      -2.4      0.861      1.388
REMARK  5 active torsions:
REMARK  status: ('A' for Active; 'I' for Inactive)
REMARK    1  A    between atoms: C1_1  and  C5_5 
REMARK    2  A    between atoms: C2_2  and  C6_6 
REMARK    3  A    between atoms: C3_3  and  O9_9 
REMARK    4  A    between atoms: C6_6  and  C7_7 
REMARK    5  A    between atoms: C7_7  and  O9_9 
ROOT
HETATM    1  C6  UNL     1     -31.684   7.432   1.954  1.00 20.00     0.053 C 
ENDROOT
BRANCH   1   2
HETATM    2  C2  UNL     1     -32.546   6.231   1.682  1.00 20.00    -0.029 C 
HETATM    3  C1  UNL     1     -33.642   5.924   2.391  1.00 20.00    -0.031 C 
BRANCH   3   4
HETATM    4  C5  UNL     1     -34.146   6.740   3.545  1.00 20.00     0.022 C 
HETATM    5  C4  UNL     1     -35.387   6.118   4.165  1.00 20.00     0.009 C 
ENDBRANCH   3   4
ENDBRANCH   1   2
BRANCH   1   6
HETATM    6  C7  UNL     1     -31.680   8.400   0.778  1.00 20.00     0.181 C 
BRANCH   6   7
HETATM    7  O9  UNL     1     -32.396   9.579   1.126  1.00 20.00    -0.328 OA
BRANCH   7   8
HETATM    8  C3  UNL     1     -32.718  10.401   0.088  1.00 20.00     0.398 C 
HETATM    9  O8  UNL     1     -33.061  10.074  -1.037  1.00 20.00    -0.276 OA
ENDBRANCH   7   8
ENDBRANCH   6   7
ENDBRANCH   1   6
TORSDOF 5
ENDMDL
MODEL 9
REMARK VINA RESULT:      -2.4      0.890      1.518
REMARK  5 active torsions:
REMARK  status: ('A' for Active; 'I' for Inactive)
REMARK    1  A    between atoms: C1_1  and  C5_5 
REMARK    2  A    between atoms: C2_2  and  C6_6 
REMARK    3  A    between atoms: C3_3  and  O9_9 
REMARK    4  A    between atoms: C6_6  and  C7_7 
REMARK    5  A    between atoms: C7_7  and  O9_9 
ROOT
HETATM    1  C6  UNL     1     -32.959   6.668   1.269  1.00 20.00     0.053 C 
ENDROOT
BRANCH   1   2
HETATM    2  C2  UNL     1     -32.987   5.549   2.272  1.00 20.00    -0.029 C 
HETATM    3  C1  UNL     1     -33.776   5.539   3.356  1.00 20.00    -0.031 C 
BRANCH   3   4
HETATM    4  C5  UNL     1     -34.732   6.644   3.703  1.00 20.00     0.022 C 
HETATM    5  C4  UNL     1     -34.038   7.754   4.477  1.00 20.00     0.009 C 
ENDBRANCH   3   4
ENDBRANCH   1   2
BRANCH   1   6
HETATM    6  C7  UNL     1     -31.880   7.692   1.597  1.00 20.00     0.181 C 
BRANCH   6   7
HETATM    7  O9  UNL     1     -32.386   9.005   1.384  1.00 20.00    -0.328 OA
BRANCH   7   8
HETATM    8  C3  UNL     1     -32.146   9.536   0.153  1.00 20.00     0.398 C 
HETATM    9  O8  UNL     1     -32.972   9.893  -0.672  1.00 20.00    -0.276 OA
ENDBRANCH   7   8
ENDBRANCH   6   7
ENDBRANCH   1   6
TORSDOF 5
ENDMDL
