MODEL 1
REMARK VINA RESULT:      -2.2      0.000      0.000
REMARK  0 active torsions:
REMARK  status: ('A' for Active; 'I' for Inactive)
ROOT
HETATM    1  C1  UNL     1     -32.379   6.682   1.553  1.00 20.00    -0.030 C 
HETATM    2  C2  UNL     1     -33.175   5.716   2.031  1.00 20.00    -0.030 C 
HETATM    3  C3  UNL     1     -32.221   8.018   2.217  1.00 20.00     0.026 C 
HETATM    4  C4  UNL     1     -34.017   5.882   3.261  1.00 20.00     0.026 C 
HETATM    5  C5  UNL     1     -32.788   8.054   3.637  1.00 20.00     0.004 C 
HETATM    6  C6  UNL     1     -34.134   7.339   3.717  1.00 20.00     0.004 C 
ENDROOT
TORSDOF 0
ENDMDL
MODEL 2
REMARK VINA RESULT:      -2.2      0.060      2.082
REMARK  0 active torsions:
REMARK  status: ('A' for Active; 'I' for Inactive)
ROOT
HETATM    1  C1  UNL     1     -33.168   5.703   2.011  1.00 20.00    -0.030 C 
HETATM    2  C2  UNL     1     -32.369   6.653   1.506  1.00 20.00    -0.030 C 
HETATM    3  C3  UNL     1     -33.997   5.899   3.245  1.00 20.00     0.026 C 
HETATM    4  C4  UNL     1     -32.196   8.001   2.142  1.00 20.00     0.026 C 
HETATM    5  C5  UNL     1     -34.095   7.364   3.677  1.00 20.00     0.004 C 
HETATM    6  C6  UNL     1     -32.745   8.066   3.569  1.00 20.00     0.004 C 
ENDROOT
TORSDOF 0
ENDMDL
MODEL 3
REMARK VINA RESULT:      -2.1      0.660      2.092
REMARK  0 active torsions:
REMARK  status: ('A' for Active; 'I' for Inactive)
ROOT
HETATM    1  C1  UNL     1     -32.815   8.092   2.987  1.00 20.00    -0.030 C 
HETATM    2  C2  UNL     1     -33.838   7.683   3.751  1.00 20.00    -0.030 C 
HETATM    3  C3  UNL     1     -32.177   7.228   1.940  1.00 20.00     0.026 C 
HETATM    4  C4  UNL     1     -34.428   6.307   3.661  1.00 20.00     0.026 C 
HETATM    5  C5  UNL     1     -32.998   5.980   1.608  1.00 20.00     0.004 C 
HETATM    6  C6  UNL     1     -33.556   5.329   2.870  1.00 20.00     0.004 C 
ENDROOT
TORSDOF 0
ENDMDL
MODEL 4
REMARK VINA RESULT:      -2.1      0.659      2.821
REMARK  0 active torsions:
REMARK  status: ('A' for Active; 'I' for Inactive)
ROOT
HETATM    1  C1  UNL     1     -33.847   7.670   3.731  1.00 20.00    -0.030 C 
HETATM    2  C2  UNL     1     -32.824   8.089   2.974  1.00 20.00    -0.030 C 
HETATM    3  C3  UNL     1     -34.420   6.287   3.642  1.00 20.00     0.026 C 
HETATM    4  C4  UNL     1     -32.168   7.230   1.934  1.00 20.00     0.026 C 
HETATM    5  C5  UNL     1     -33.534   5.318   2.856  1.00 20.00     0.004 C 
HETATM    6  C6  UNL     1     -32.975   5.974   1.596  1.00 20.00     0.004 C 
ENDROOT
TORSDOF 0
ENDMDL
MODEL 5
REMARK VINA RESULT:      -2.0      0.528      2.090
REMARK  0 active torsions:
REMARK  status: ('A' for Active; 'I' for Inactive)
ROOT
HETATM    1  C1  UNL     1     -33.598   7.517   3.728  1.00 20.00    -0.030 C 
HETATM    2  C2  UNL     1     -34.029   6.333   3.269  1.00 20.00    -0.030 C 
HETATM    3  C3  UNL     1     -32.495   8.297   3.078  1.00 20.00     0.026 C 
HETATM    4  C4  UNL     1     -33.429   5.651   2.076  1.00 20.00     0.026 C 
HETATM    5  C5  UNL     1     -32.139   7.783   1.681  1.00 20.00     0.004 C 
HETATM    6  C6  UNL     1     -32.092   6.258   1.645  1.00 20.00     0.004 C 
ENDROOT
TORSDOF 0
ENDMDL
MODEL 6
REMARK VINA RESULT:      -2.0      0.559      2.706
REMARK  0 active torsions:
REMARK  status: ('A' for Active; 'I' for Inactive)
ROOT
HETATM    1  C1  UNL     1     -34.056   6.387   3.309  1.00 20.00    -0.030 C 
HETATM    2  C2  UNL     1     -33.589   7.568   3.738  1.00 20.00    -0.030 C 
HETATM    3  C3  UNL     1     -33.482   5.657   2.132  1.00 20.00     0.026 C 
HETATM    4  C4  UNL     1     -32.463   8.297   3.066  1.00 20.00     0.026 C 
HETATM    5  C5  UNL     1     -32.131   6.215   1.679  1.00 20.00     0.004 C 
HETATM    6  C6  UNL     1     -32.131   7.741   1.679  1.00 20.00     0.004 C 
ENDROOT
TORSDOF 0
ENDMDL
MODEL 7
REMARK VINA RESULT:      -1.8      0.672      2.165
REMARK  0 active torsions:
REMARK  status: ('A' for Active; 'I' for Inactive)
ROOT
HETATM    1  C1  UNL     1     -33.835   5.618   2.629  1.00 20.00    -0.030 C 
HETATM    2  C2  UNL     1     -34.098   6.520   3.585  1.00 20.00    -0.030 C 
HETATM    3  C3  UNL     1     -32.819   5.841   1.549  1.00 20.00     0.026 C 
HETATM    4  C4  UNL     1     -33.427   7.860   3.654  1.00 20.00     0.026 C 
HETATM    5  C5  UNL     1     -31.897   7.029   1.827  1.00 20.00     0.004 C 
HETATM    6  C6  UNL     1     -32.677   8.223   2.370  1.00 20.00     0.004 C 
ENDROOT
TORSDOF 0
ENDMDL
MODEL 8
REMARK VINA RESULT:      -1.8      0.531      2.413
REMARK  0 active torsions:
REMARK  status: ('A' for Active; 'I' for Inactive)
ROOT
HETATM    1  C1  UNL     1     -32.701   8.202   2.834  1.00 20.00    -0.030 C 
HETATM    2  C2  UNL     1     -31.896   7.701   1.887  1.00 20.00    -0.030 C 
HETATM    3  C3  UNL     1     -33.800   7.411   3.479  1.00 20.00     0.026 C 
HETATM    4  C4  UNL     1     -32.031   6.306   1.352  1.00 20.00     0.026 C 
HETATM    5  C5  UNL     1     -33.705   5.910   3.198  1.00 20.00     0.004 C 
HETATM    6  C6  UNL     1     -33.353   5.640   1.738  1.00 20.00     0.004 C 
ENDROOT
TORSDOF 0
ENDMDL
MODEL 9
REMARK VINA RESULT:      -1.7      0.642      2.115
REMARK  0 active torsions:
REMARK  status: ('A' for Active; 'I' for Inactive)
ROOT
HETATM    1  C1  UNL     1     -32.286   6.493   1.372  1.00 20.00    -0.030 C 
HETATM    2  C2  UNL     1     -31.922   7.750   1.663  1.00 20.00    -0.030 C 
HETATM    3  C3  UNL     1     -33.313   5.734   2.158  1.00 20.00     0.026 C 
HETATM    4  C4  UNL     1     -32.481   8.516   2.825  1.00 20.00     0.026 C 
HETATM    5  C5  UNL     1     -34.127   6.623   3.100  1.00 20.00     0.004 C 
HETATM    6  C6  UNL     1     -33.237   7.632   3.820  1.00 20.00     0.004 C 
ENDROOT
TORSDOF 0
ENDMDL
