MODEL 1
REMARK VINA RESULT:      -0.6      0.000      0.000
REMARK  3 active torsions:
REMARK  status: ('A' for Active; 'I' for Inactive)
REMARK    1  A    between atoms: C5_5  and  S7_7 
REMARK    2  A    between atoms: C6_6  and  S8_8 
REMARK    3  A    between atoms: S7_7  and  S8_8 
ROOT
HETATM    1  S7  UNL     1     -33.036   6.400   1.966  1.00 20.00    -0.093 SA
ENDROOT
BRANCH   1   2
HETATM    2  C5  UNL     1     -34.324   6.594   3.243  1.00 20.00     0.050 C 
HETATM    3  C1  UNL     1     -34.517   5.276   3.984  1.00 20.00     0.022 C 
HETATM    4  C2  UNL     1     -33.938   7.718   4.197  1.00 20.00     0.022 C 
ENDBRANCH   1   2
BRANCH   1   5
HETATM    5  S8  UNL     1     -32.011   8.169   2.154  1.00 20.00    -0.093 SA
BRANCH   5   6
HETATM    6  C6  UNL     1     -32.361   8.970   0.571  1.00 20.00     0.050 C 
HETATM    7  C3  UNL     1     -32.762  10.421   0.807  1.00 20.00     0.022 C 
HETATM    8  C4  UNL     1     -31.142   8.869  -0.338  1.00 20.00     0.022 C 
ENDBRANCH   5   6
ENDBRANCH   1   5
TORSDOF 3
ENDMDL
MODEL 2
REMARK VINA RESULT:      -0.5      0.552      1.296
REMARK  3 active torsions:
REMARK  status: ('A' for Active; 'I' for Inactive)
REMARK    1  A    between atoms: C5_5  and  S7_7 
REMARK    2  A    between atoms: C6_6  and  S8_8 
REMARK    3  A    between atoms: S7_7  and  S8_8 
ROOT
HETATM    1  S7  UNL     1     -33.254   6.591   2.052  1.00 20.00    -0.093 SA
ENDROOT
BRANCH   1   2
HETATM    2  C5  UNL     1     -33.917   6.648   3.751  1.00 20.00     0.050 C 
HETATM    3  C1  UNL     1     -33.736   8.047   4.327  1.00 20.00     0.022 C 
HETATM    4  C2  UNL     1     -35.384   6.234   3.745  1.00 20.00     0.022 C 
ENDBRANCH   1   2
BRANCH   1   5
HETATM    5  S8  UNL     1     -31.955   8.181   2.072  1.00 20.00    -0.093 SA
BRANCH   5   6
HETATM    6  C6  UNL     1     -32.349   8.999   0.507  1.00 20.00     0.050 C 
HETATM    7  C3  UNL     1     -32.746  10.447   0.770  1.00 20.00     0.022 C 
HETATM    8  C4  UNL     1     -31.153   8.913  -0.434  1.00 20.00     0.022 C 
ENDBRANCH   5   6
ENDBRANCH   1   5
TORSDOF 3
ENDMDL
MODEL 3
REMARK VINA RESULT:      -0.5      0.182      4.746
REMARK  3 active torsions:
REMARK  status: ('A' for Active; 'I' for Inactive)
REMARK    1  A    between atoms: C5_5  and  S7_7 
REMARK    2  A    between atoms: C6_6  and  S8_8 
REMARK    3  A    between atoms: S7_7  and  S8_8 
ROOT
HETATM    1  S7  UNL     1     -31.978   8.215   2.200  1.00 20.00    -0.093 SA
ENDROOT
BRANCH   1   2
HETATM    2  C5  UNL     1     -32.358   8.977   0.586  1.00 20.00     0.050 C 
HETATM    3  C1  UNL     1     -32.753  10.435   0.785  1.00 20.00     0.022 C 
HETATM    4  C2  UNL     1     -31.155   8.848  -0.340  1.00 20.00     0.022 C 
ENDBRANCH   1   2
BRANCH   1   5
HETATM    5  S8  UNL     1     -33.095   6.496   2.108  1.00 20.00    -0.093 SA
BRANCH   5   6
HETATM    6  C6  UNL     1     -34.365   6.813   3.356  1.00 20.00     0.050 C 
HETATM    7  C3  UNL     1     -34.763   5.504   4.028  1.00 20.00     0.022 C 
HETATM    8  C4  UNL     1     -33.849   7.826   4.371  1.00 20.00     0.022 C 
ENDBRANCH   5   6
ENDBRANCH   1   5
TORSDOF 3
ENDMDL
MODEL 4
REMARK VINA RESULT:      -0.5      0.550      4.689
REMARK  3 active torsions:
REMARK  status: ('A' for Active; 'I' for Inactive)
REMARK    1  A    between atoms: C5_5  and  S7_7 
REMARK    2  A    between atoms: C6_6  and  S8_8 
REMARK    3  A    between atoms: S7_7  and  S8_8 
ROOT
HETATM    1  S7  UNL     1     -31.981   8.221   2.102  1.00 20.00    -0.093 SA
ENDROOT
BRANCH   1   2
HETATM    2  C5  UNL     1     -32.368   9.029   0.513  1.00 20.00     0.050 C 
HETATM    3  C1  UNL     1     -32.752  10.484   0.755  1.00 20.00     0.022 C 
HETATM    4  C2  UNL     1     -31.173   8.918  -0.426  1.00 20.00     0.022 C 
ENDBRANCH   1   2
BRANCH   1   5
HETATM    5  S8  UNL     1     -33.268   6.622   2.066  1.00 20.00    -0.093 SA
BRANCH   5   6
HETATM    6  C6  UNL     1     -33.919   6.633   3.754  1.00 20.00     0.050 C 
HETATM    7  C3  UNL     1     -33.738   8.017   4.366  1.00 20.00     0.022 C 
HETATM    8  C4  UNL     1     -35.385   6.216   3.743  1.00 20.00     0.022 C 
ENDBRANCH   5   6
ENDBRANCH   1   5
TORSDOF 3
ENDMDL
MODEL 5
REMARK VINA RESULT:       0.0      1.220      4.493
REMARK  3 active torsions:
REMARK  status: ('A' for Active; 'I' for Inactive)
REMARK    1  A    between atoms: C5_5  and  S7_7 
REMARK    2  A    between atoms: C6_6  and  S8_8 
REMARK    3  A    between atoms: S7_7  and  S8_8 
ROOT
HETATM    1  S7  UNL     1     -31.818   8.204   1.719  1.00 20.00    -0.093 SA
ENDROOT
BRANCH   1   2
HETATM    2  C5  UNL     1     -32.760   9.342   0.647  1.00 20.00     0.050 C 
HETATM    3  C1  UNL     1     -32.605  10.771   1.152  1.00 20.00     0.022 C 
HETATM    4  C2  UNL     1     -32.282   9.205  -0.794  1.00 20.00     0.022 C 
ENDBRANCH   1   2
BRANCH   1   5
HETATM    5  S8  UNL     1     -33.035   8.104   3.369  1.00 20.00    -0.093 SA
BRANCH   5   6
HETATM    6  C6  UNL     1     -33.601   6.387   3.307  1.00 20.00     0.050 C 
HETATM    7  C3  UNL     1     -35.067   6.315   3.718  1.00 20.00     0.022 C 
HETATM    8  C4  UNL     1     -33.387   5.825   1.906  1.00 20.00     0.022 C 
ENDBRANCH   5   6
ENDBRANCH   1   5
TORSDOF 3
ENDMDL
MODEL 6
REMARK VINA RESULT:       0.0      1.172      1.490
REMARK  3 active torsions:
REMARK  status: ('A' for Active; 'I' for Inactive)
REMARK    1  A    between atoms: C5_5  and  S7_7 
REMARK    2  A    between atoms: C6_6  and  S8_8 
REMARK    3  A    between atoms: S7_7  and  S8_8 
ROOT
HETATM    1  S7  UNL     1     -33.112   8.151   3.347  1.00 20.00    -0.093 SA
ENDROOT
BRANCH   1   2
HETATM    2  C5  UNL     1     -33.632   6.402   3.376  1.00 20.00     0.050 C 
HETATM    3  C1  UNL     1     -35.098   6.308   3.783  1.00 20.00     0.022 C 
HETATM    4  C2  UNL     1     -33.393   5.772   2.009  1.00 20.00     0.022 C 
ENDBRANCH   1   2
BRANCH   1   5
HETATM    5  S8  UNL     1     -31.858   8.172   1.721  1.00 20.00    -0.093 SA
BRANCH   5   6
HETATM    6  C6  UNL     1     -32.717   9.308   0.606  1.00 20.00     0.050 C 
HETATM    7  C3  UNL     1     -32.655  10.724   1.167  1.00 20.00     0.022 C 
HETATM    8  C4  UNL     1     -32.097   9.232  -0.784  1.00 20.00     0.022 C 
ENDBRANCH   5   6
ENDBRANCH   1   5
TORSDOF 3
ENDMDL
MODEL 7
REMARK VINA RESULT:       0.1      1.183      4.352
REMARK  3 active torsions:
REMARK  status: ('A' for Active; 'I' for Inactive)
REMARK    1  A    between atoms: C5_5  and  S7_7 
REMARK    2  A    between atoms: C6_6  and  S8_8 
REMARK    3  A    between atoms: S7_7  and  S8_8 
ROOT
HETATM    1  S7  UNL     1     -32.677   6.574   1.133  1.00 20.00    -0.093 SA
ENDROOT
BRANCH   1   2
HETATM    2  C5  UNL     1     -32.361   8.309   1.599  1.00 20.00     0.050 C 
HETATM    3  C1  UNL     1     -31.109   8.390   2.463  1.00 20.00     0.022 C 
HETATM    4  C2  UNL     1     -32.229   9.163   0.344  1.00 20.00     0.022 C 
ENDBRANCH   1   2
BRANCH   1   5
HETATM    5  S8  UNL     1     -33.091   5.733   2.960  1.00 20.00    -0.093 SA
BRANCH   5   6
HETATM    6  C6  UNL     1     -34.427   6.794   3.561  1.00 20.00     0.050 C 
HETATM    7  C3  UNL     1     -35.539   5.935   4.152  1.00 20.00     0.022 C 
HETATM    8  C4  UNL     1     -33.880   7.779   4.587  1.00 20.00     0.022 C 
ENDBRANCH   5   6
ENDBRANCH   1   5
TORSDOF 3
ENDMDL
MODEL 8
REMARK VINA RESULT:       0.1      1.385      2.077
REMARK  3 active torsions:
REMARK  status: ('A' for Active; 'I' for Inactive)
REMARK    1  A    between atoms: C5_5  and  S7_7 
REMARK    2  A    between atoms: C6_6  and  S8_8 
REMARK    3  A    between atoms: S7_7  and  S8_8 
ROOT
HETATM    1  S7  UNL     1     -33.579   5.452   1.731  1.00 20.00    -0.093 SA
ENDROOT
BRANCH   1   2
HETATM    2  C5  UNL     1     -33.825   5.555   3.536  1.00 20.00     0.050 C 
HETATM    3  C1  UNL     1     -35.015   6.457   3.842  1.00 20.00     0.022 C 
HETATM    4  C2  UNL     1     -34.025   4.157   4.109  1.00 20.00     0.022 C 
ENDBRANCH   1   2
BRANCH   1   5
HETATM    5  S8  UNL     1     -31.843   6.524   1.499  1.00 20.00    -0.093 SA
BRANCH   5   6
HETATM    6  C6  UNL     1     -32.387   8.201   1.901  1.00 20.00     0.050 C 
HETATM    7  C3  UNL     1     -31.720   8.662   3.192  1.00 20.00     0.022 C 
HETATM    8  C4  UNL     1     -32.066   9.138   0.743  1.00 20.00     0.022 C 
ENDBRANCH   5   6
ENDBRANCH   1   5
TORSDOF 3
ENDMDL
MODEL 9
REMARK VINA RESULT:       0.1      1.387      4.474
REMARK  3 active torsions:
REMARK  status: ('A' for Active; 'I' for Inactive)
REMARK    1  A    between atoms: C5_5  and  S7_7 
REMARK    2  A    between atoms: C6_6  and  S8_8 
REMARK    3  A    between atoms: S7_7  and  S8_8 
ROOT
HETATM    1  S7  UNL     1     -31.859   6.518   1.487  1.00 20.00    -0.093 SA
ENDROOT
BRANCH   1   2
HETATM    2  C5  UNL     1     -32.407   8.207   1.904  1.00 20.00     0.050 C 
HETATM    3  C1  UNL     1     -31.727   8.666   3.188  1.00 20.00     0.022 C 
HETATM    4  C2  UNL     1     -32.100   9.149   0.745  1.00 20.00     0.022 C 
ENDBRANCH   1   2
BRANCH   1   5
HETATM    5  S8  UNL     1     -33.597   5.455   1.740  1.00 20.00    -0.093 SA
BRANCH   5   6
HETATM    6  C6  UNL     1     -33.829   5.547   3.531  1.00 20.00     0.050 C 
HETATM    7  C3  UNL     1     -35.028   6.432   3.850  1.00 20.00     0.022 C 
HETATM    8  C4  UNL     1     -34.006   4.144   4.100  1.00 20.00     0.022 C 
ENDBRANCH   5   6
ENDBRANCH   1   5
TORSDOF 3
ENDMDL
