MODEL 1
REMARK VINA RESULT:      -2.8      0.000      0.000
REMARK  1 active torsions:
REMARK  status: ('A' for Active; 'I' for Inactive)
REMARK    1  A    between atoms: C6_6  and  C8_8 
ROOT
HETATM    1  C1  UNL     1     -34.385   6.063   3.668  1.00 20.00     0.000 A 
HETATM    2  C2  UNL     1     -33.737   5.485   2.577  1.00 20.00     0.001 A 
HETATM    3  C3  UNL     1     -34.145   7.397   3.996  1.00 20.00     0.001 A 
HETATM    4  C4  UNL     1     -32.848   6.242   1.813  1.00 20.00     0.007 A 
HETATM    5  C5  UNL     1     -33.256   8.153   3.232  1.00 20.00     0.007 A 
HETATM    6  C6  UNL     1     -32.608   7.576   2.141  1.00 20.00    -0.059 A 
ENDROOT
BRANCH   6   7
HETATM    7  C8  UNL     1     -31.657   8.385   1.325  1.00 20.00     0.034 C 
HETATM    8  C7  UNL     1     -32.360   9.487   0.536  1.00 20.00     0.010 C 
ENDBRANCH   6   7
TORSDOF 1
ENDMDL
MODEL 2
REMARK VINA RESULT:      -2.8      0.011      1.708
REMARK  1 active torsions:
REMARK  status: ('A' for Active; 'I' for Inactive)
REMARK    1  A    between atoms: C6_6  and  C8_8 
ROOT
HETATM    1  C1  UNL     1     -34.374   6.062   3.664  1.00 20.00     0.000 A 
HETATM    2  C2  UNL     1     -34.133   7.395   3.995  1.00 20.00     0.001 A 
HETATM    3  C3  UNL     1     -33.729   5.489   2.568  1.00 20.00     0.001 A 
HETATM    4  C4  UNL     1     -33.248   8.156   3.230  1.00 20.00     0.007 A 
HETATM    5  C5  UNL     1     -32.844   6.249   1.803  1.00 20.00     0.007 A 
HETATM    6  C6  UNL     1     -32.604   7.582   2.135  1.00 20.00    -0.059 A 
ENDROOT
BRANCH   6   7
HETATM    7  C8  UNL     1     -31.658   8.394   1.316  1.00 20.00     0.034 C 
HETATM    8  C7  UNL     1     -32.366   9.498   0.535  1.00 20.00     0.010 C 
ENDBRANCH   6   7
TORSDOF 1
ENDMDL
MODEL 3
REMARK VINA RESULT:      -2.7      1.077      3.477
REMARK  1 active torsions:
REMARK  status: ('A' for Active; 'I' for Inactive)
REMARK    1  A    between atoms: C6_6  and  C8_8 
ROOT
HETATM    1  C1  UNL     1     -31.847   7.636   1.769  1.00 20.00     0.000 A 
HETATM    2  C2  UNL     1     -32.404   6.391   1.476  1.00 20.00     0.001 A 
HETATM    3  C3  UNL     1     -32.358   8.399   2.819  1.00 20.00     0.001 A 
HETATM    4  C4  UNL     1     -33.472   5.910   2.233  1.00 20.00     0.007 A 
HETATM    5  C5  UNL     1     -33.426   7.917   3.575  1.00 20.00     0.007 A 
HETATM    6  C6  UNL     1     -33.983   6.673   3.282  1.00 20.00    -0.059 A 
ENDROOT
BRANCH   6   7
HETATM    7  C8  UNL     1     -35.126   6.159   4.092  1.00 20.00     0.034 C 
HETATM    8  C7  UNL     1     -34.942   4.699   4.495  1.00 20.00     0.010 C 
ENDBRANCH   6   7
TORSDOF 1
ENDMDL
MODEL 4
REMARK VINA RESULT:      -2.7      1.076      3.866
REMARK  1 active torsions:
REMARK  status: ('A' for Active; 'I' for Inactive)
REMARK    1  A    between atoms: C6_6  and  C8_8 
ROOT
HETATM    1  C1  UNL     1     -31.851   7.628   1.753  1.00 20.00     0.000 A 
HETATM    2  C2  UNL     1     -32.377   8.402   2.787  1.00 20.00     0.001 A 
HETATM    3  C3  UNL     1     -32.397   6.375   1.472  1.00 20.00     0.001 A 
HETATM    4  C4  UNL     1     -33.448   7.922   3.542  1.00 20.00     0.007 A 
HETATM    5  C5  UNL     1     -33.468   5.896   2.227  1.00 20.00     0.007 A 
HETATM    6  C6  UNL     1     -33.993   6.670   3.261  1.00 20.00    -0.059 A 
ENDROOT
BRANCH   6   7
HETATM    7  C8  UNL     1     -35.138   6.156   4.068  1.00 20.00     0.034 C 
HETATM    8  C7  UNL     1     -34.936   4.709   4.507  1.00 20.00     0.010 C 
ENDBRANCH   6   7
TORSDOF 1
ENDMDL
MODEL 5
REMARK VINA RESULT:      -2.3      1.138      2.342
REMARK  1 active torsions:
REMARK  status: ('A' for Active; 'I' for Inactive)
REMARK    1  A    between atoms: C6_6  and  C8_8 
ROOT
HETATM    1  C1  UNL     1     -35.155   5.172   4.535  1.00 20.00     0.000 A 
HETATM    2  C2  UNL     1     -35.193   6.501   4.113  1.00 20.00     0.001 A 
HETATM    3  C3  UNL     1     -34.203   4.300   4.007  1.00 20.00     0.001 A 
HETATM    4  C4  UNL     1     -34.279   6.958   3.164  1.00 20.00     0.007 A 
HETATM    5  C5  UNL     1     -33.289   4.757   3.058  1.00 20.00     0.007 A 
HETATM    6  C6  UNL     1     -33.327   6.086   2.636  1.00 20.00    -0.059 A 
ENDROOT
BRANCH   6   7
HETATM    7  C8  UNL     1     -32.349   6.573   1.620  1.00 20.00     0.034 C 
HETATM    8  C7  UNL     1     -31.998   8.046   1.813  1.00 20.00     0.010 C 
ENDBRANCH   6   7
TORSDOF 1
ENDMDL
MODEL 6
REMARK VINA RESULT:      -2.3      1.135      1.758
REMARK  1 active torsions:
REMARK  status: ('A' for Active; 'I' for Inactive)
REMARK    1  A    between atoms: C6_6  and  C8_8 
ROOT
HETATM    1  C1  UNL     1     -35.140   5.168   4.532  1.00 20.00     0.000 A 
HETATM    2  C2  UNL     1     -34.199   4.290   3.994  1.00 20.00     0.001 A 
HETATM    3  C3  UNL     1     -35.167   6.499   4.119  1.00 20.00     0.001 A 
HETATM    4  C4  UNL     1     -33.283   4.745   3.045  1.00 20.00     0.007 A 
HETATM    5  C5  UNL     1     -34.251   6.954   3.170  1.00 20.00     0.007 A 
HETATM    6  C6  UNL     1     -33.310   6.076   2.633  1.00 20.00    -0.059 A 
ENDROOT
BRANCH   6   7
HETATM    7  C8  UNL     1     -32.331   6.564   1.618  1.00 20.00     0.034 C 
HETATM    8  C7  UNL     1     -31.982   8.038   1.809  1.00 20.00     0.010 C 
ENDBRANCH   6   7
TORSDOF 1
ENDMDL
MODEL 7
REMARK VINA RESULT:      -2.1      1.223      4.003
REMARK  1 active torsions:
REMARK  status: ('A' for Active; 'I' for Inactive)
REMARK    1  A    between atoms: C6_6  and  C8_8 
ROOT
HETATM    1  C1  UNL     1     -32.612   7.898   2.056  1.00 20.00     0.000 A 
HETATM    2  C2  UNL     1     -33.386   8.076   3.203  1.00 20.00     0.001 A 
HETATM    3  C3  UNL     1     -32.455   6.624   1.511  1.00 20.00     0.001 A 
HETATM    4  C4  UNL     1     -34.002   6.979   3.804  1.00 20.00     0.007 A 
HETATM    5  C5  UNL     1     -33.072   5.527   2.113  1.00 20.00     0.007 A 
HETATM    6  C6  UNL     1     -33.846   5.705   3.259  1.00 20.00    -0.059 A 
ENDROOT
BRANCH   6   7
HETATM    7  C8  UNL     1     -34.505   4.531   3.902  1.00 20.00     0.034 C 
HETATM    8  C7  UNL     1     -33.506   3.624   4.615  1.00 20.00     0.010 C 
ENDBRANCH   6   7
TORSDOF 1
ENDMDL
MODEL 8
REMARK VINA RESULT:      -1.5      1.086      3.060
REMARK  1 active torsions:
REMARK  status: ('A' for Active; 'I' for Inactive)
REMARK    1  A    between atoms: C6_6  and  C8_8 
ROOT
HETATM    1  C1  UNL     1     -31.801   6.407   0.941  1.00 20.00     0.000 A 
HETATM    2  C2  UNL     1     -32.690   5.456   1.440  1.00 20.00     0.001 A 
HETATM    3  C3  UNL     1     -31.758   7.684   1.500  1.00 20.00     0.001 A 
HETATM    4  C4  UNL     1     -33.538   5.783   2.498  1.00 20.00     0.007 A 
HETATM    5  C5  UNL     1     -32.606   8.010   2.559  1.00 20.00     0.007 A 
HETATM    6  C6  UNL     1     -33.495   7.059   3.058  1.00 20.00    -0.059 A 
ENDROOT
BRANCH   6   7
HETATM    7  C8  UNL     1     -34.402   7.409   4.190  1.00 20.00     0.034 C 
HETATM    8  C7  UNL     1     -33.701   8.244   5.258  1.00 20.00     0.010 C 
ENDBRANCH   6   7
TORSDOF 1
ENDMDL
MODEL 9
REMARK VINA RESULT:      -1.4      1.171      2.577
REMARK  1 active torsions:
REMARK  status: ('A' for Active; 'I' for Inactive)
REMARK    1  A    between atoms: C6_6  and  C8_8 
ROOT
HETATM    1  C1  UNL     1     -33.726   7.969   4.154  1.00 20.00     0.000 A 
HETATM    2  C2  UNL     1     -34.432   6.778   3.982  1.00 20.00     0.001 A 
HETATM    3  C3  UNL     1     -32.716   8.317   3.258  1.00 20.00     0.001 A 
HETATM    4  C4  UNL     1     -34.126   5.935   2.914  1.00 20.00     0.007 A 
HETATM    5  C5  UNL     1     -32.410   7.473   2.190  1.00 20.00     0.007 A 
HETATM    6  C6  UNL     1     -33.116   6.282   2.018  1.00 20.00    -0.059 A 
ENDROOT
BRANCH   6   7
HETATM    7  C8  UNL     1     -32.788   5.380   0.876  1.00 20.00     0.034 C 
HETATM    8  C7  UNL     1     -31.406   4.746   1.016  1.00 20.00     0.010 C 
ENDBRANCH   6   7
TORSDOF 1
ENDMDL
