MODEL 1
REMARK VINA RESULT:      -2.7      0.000      0.000
REMARK  0 active torsions:
REMARK  status: ('A' for Active; 'I' for Inactive)
ROOT
HETATM    1  C1  UNL     1     -32.159   7.260   1.870  1.00 20.00     0.000 A 
HETATM    2  C2  UNL     1     -32.734   6.004   1.673  1.00 20.00     0.003 A 
HETATM    3  C3  UNL     1     -32.638   8.095   2.879  1.00 20.00     0.003 A 
HETATM    4  C4  UNL     1     -33.787   5.583   2.486  1.00 20.00     0.042 A 
HETATM    5  C5  UNL     1     -33.690   7.675   3.692  1.00 20.00     0.042 A 
HETATM    6  C6  UNL     1     -34.266   6.419   3.495  1.00 20.00     0.116 A 
HETATM    7  F7  UNL     1     -35.277   6.016   4.275  1.00 20.00    -0.206 F 
ENDROOT
TORSDOF 0
ENDMDL
MODEL 2
REMARK VINA RESULT:      -2.7      0.012      1.826
REMARK  0 active torsions:
REMARK  status: ('A' for Active; 'I' for Inactive)
ROOT
HETATM    1  C1  UNL     1     -32.153   7.271   1.875  1.00 20.00     0.000 A 
HETATM    2  C2  UNL     1     -32.641   8.106   2.880  1.00 20.00     0.003 A 
HETATM    3  C3  UNL     1     -32.720   6.013   1.678  1.00 20.00     0.003 A 
HETATM    4  C4  UNL     1     -33.697   7.683   3.687  1.00 20.00     0.042 A 
HETATM    5  C5  UNL     1     -33.776   5.589   2.485  1.00 20.00     0.042 A 
HETATM    6  C6  UNL     1     -34.264   6.424   3.490  1.00 20.00     0.116 A 
HETATM    7  F7  UNL     1     -35.277   6.017   4.266  1.00 20.00    -0.206 F 
ENDROOT
TORSDOF 0
ENDMDL
MODEL 3
REMARK VINA RESULT:      -2.6      0.950      2.042
REMARK  0 active torsions:
REMARK  status: ('A' for Active; 'I' for Inactive)
ROOT
HETATM    1  C1  UNL     1     -32.398   6.249   1.406  1.00 20.00     0.000 A 
HETATM    2  C2  UNL     1     -32.043   7.545   1.780  1.00 20.00     0.003 A 
HETATM    3  C3  UNL     1     -33.356   5.550   2.139  1.00 20.00     0.003 A 
HETATM    4  C4  UNL     1     -32.647   8.143   2.886  1.00 20.00     0.042 A 
HETATM    5  C5  UNL     1     -33.961   6.147   3.245  1.00 20.00     0.042 A 
HETATM    6  C6  UNL     1     -33.606   7.443   3.620  1.00 20.00     0.116 A 
HETATM    7  F7  UNL     1     -34.185   8.016   4.682  1.00 20.00    -0.206 F 
ENDROOT
TORSDOF 0
ENDMDL
MODEL 4
REMARK VINA RESULT:      -2.6      0.950      1.398
REMARK  0 active torsions:
REMARK  status: ('A' for Active; 'I' for Inactive)
ROOT
HETATM    1  C1  UNL     1     -32.393   6.253   1.407  1.00 20.00     0.000 A 
HETATM    2  C2  UNL     1     -33.351   5.551   2.138  1.00 20.00     0.003 A 
HETATM    3  C3  UNL     1     -32.040   7.549   1.782  1.00 20.00     0.003 A 
HETATM    4  C4  UNL     1     -33.956   6.145   3.246  1.00 20.00     0.042 A 
HETATM    5  C5  UNL     1     -32.645   8.144   2.889  1.00 20.00     0.042 A 
HETATM    6  C6  UNL     1     -33.604   7.442   3.621  1.00 20.00     0.116 A 
HETATM    7  F7  UNL     1     -34.185   8.013   4.684  1.00 20.00    -0.206 F 
ENDROOT
TORSDOF 0
ENDMDL
MODEL 5
REMARK VINA RESULT:      -2.6      2.016      2.717
REMARK  0 active torsions:
REMARK  status: ('A' for Active; 'I' for Inactive)
ROOT
HETATM    1  C1  UNL     1     -34.321   6.347   3.658  1.00 20.00     0.000 A 
HETATM    2  C2  UNL     1     -33.791   5.596   2.609  1.00 20.00     0.003 A 
HETATM    3  C3  UNL     1     -33.862   7.643   3.889  1.00 20.00     0.003 A 
HETATM    4  C4  UNL     1     -32.802   6.142   1.790  1.00 20.00     0.042 A 
HETATM    5  C5  UNL     1     -32.873   8.189   3.071  1.00 20.00     0.042 A 
HETATM    6  C6  UNL     1     -32.342   7.439   2.022  1.00 20.00     0.116 A 
HETATM    7  F7  UNL     1     -31.392   7.962   1.237  1.00 20.00    -0.206 F 
ENDROOT
TORSDOF 0
ENDMDL
MODEL 6
REMARK VINA RESULT:      -2.6      2.009      3.268
REMARK  0 active torsions:
REMARK  status: ('A' for Active; 'I' for Inactive)
ROOT
HETATM    1  C1  UNL     1     -34.351   6.350   3.669  1.00 20.00     0.000 A 
HETATM    2  C2  UNL     1     -33.897   7.650   3.891  1.00 20.00     0.003 A 
HETATM    3  C3  UNL     1     -33.808   5.590   2.634  1.00 20.00     0.003 A 
HETATM    4  C4  UNL     1     -32.900   8.190   3.078  1.00 20.00     0.042 A 
HETATM    5  C5  UNL     1     -32.812   6.129   1.820  1.00 20.00     0.042 A 
HETATM    6  C6  UNL     1     -32.358   7.429   2.042  1.00 20.00     0.116 A 
HETATM    7  F7  UNL     1     -31.402   7.948   1.260  1.00 20.00    -0.206 F 
ENDROOT
TORSDOF 0
ENDMDL
MODEL 7
REMARK VINA RESULT:      -2.6      1.735      2.802
REMARK  0 active torsions:
REMARK  status: ('A' for Active; 'I' for Inactive)
ROOT
HETATM    1  C1  UNL     1     -33.691   7.783   3.728  1.00 20.00     0.000 A 
HETATM    2  C2  UNL     1     -32.679   8.159   2.845  1.00 20.00     0.003 A 
HETATM    3  C3  UNL     1     -34.250   6.508   3.646  1.00 20.00     0.003 A 
HETATM    4  C4  UNL     1     -32.224   7.259   1.881  1.00 20.00     0.042 A 
HETATM    5  C5  UNL     1     -33.796   5.608   2.682  1.00 20.00     0.042 A 
HETATM    6  C6  UNL     1     -32.784   5.984   1.798  1.00 20.00     0.116 A 
HETATM    7  F7  UNL     1     -32.348   5.120   0.872  1.00 20.00    -0.206 F 
ENDROOT
TORSDOF 0
ENDMDL
MODEL 8
REMARK VINA RESULT:      -2.6      1.736      2.519
REMARK  0 active torsions:
REMARK  status: ('A' for Active; 'I' for Inactive)
ROOT
HETATM    1  C1  UNL     1     -33.692   7.778   3.729  1.00 20.00     0.000 A 
HETATM    2  C2  UNL     1     -34.250   6.502   3.646  1.00 20.00     0.003 A 
HETATM    3  C3  UNL     1     -32.680   8.155   2.846  1.00 20.00     0.003 A 
HETATM    4  C4  UNL     1     -33.797   5.604   2.680  1.00 20.00     0.042 A 
HETATM    5  C5  UNL     1     -32.227   7.257   1.880  1.00 20.00     0.042 A 
HETATM    6  C6  UNL     1     -32.784   5.981   1.797  1.00 20.00     0.116 A 
HETATM    7  F7  UNL     1     -32.348   5.118   0.870  1.00 20.00    -0.206 F 
ENDROOT
TORSDOF 0
ENDMDL
MODEL 9
REMARK VINA RESULT:      -1.9      1.709      2.496
REMARK  0 active torsions:
REMARK  status: ('A' for Active; 'I' for Inactive)
ROOT
HETATM    1  C1  UNL     1     -34.380   7.165   3.295  1.00 20.00     0.000 A 
HETATM    2  C2  UNL     1     -33.336   6.461   2.696  1.00 20.00     0.003 A 
HETATM    3  C3  UNL     1     -35.258   6.510   4.159  1.00 20.00     0.003 A 
HETATM    4  C4  UNL     1     -33.167   5.102   2.962  1.00 20.00     0.042 A 
HETATM    5  C5  UNL     1     -35.090   5.151   4.425  1.00 20.00     0.042 A 
HETATM    6  C6  UNL     1     -34.046   4.447   3.826  1.00 20.00     0.116 A 
HETATM    7  F7  UNL     1     -33.885   3.142   4.081  1.00 20.00    -0.206 F 
ENDROOT
TORSDOF 0
ENDMDL
