MODEL 1
REMARK VINA RESULT:      -2.6      0.000      0.000
REMARK  0 active torsions:
REMARK  status: ('A' for Active; 'I' for Inactive)
ROOT
HETATM    1  C1  UNL     1     -31.881   6.405   1.079  1.00 20.00     0.001 A 
HETATM    2  C2  UNL     1     -31.706   7.726   1.526  1.00 20.00     0.001 A 
HETATM    3  C3  UNL     1     -32.831   5.568   1.674  1.00 20.00     0.012 A 
HETATM    4  C4  UNL     1     -32.476   8.234   2.576  1.00 20.00     0.008 A 
HETATM    5  C5  UNL     1     -33.589   6.080   2.712  1.00 20.00    -0.030 A 
HETATM    6  C6  UNL     1     -33.412   7.398   3.157  1.00 20.00    -0.044 A 
HETATM    7  C7  UNL     1     -34.631   5.449   3.504  1.00 20.00     0.008 A 
HETATM    8  C8  UNL     1     -35.070   6.351   4.396  1.00 20.00    -0.021 A 
HETATM    9  C9  UNL     1     -34.359   7.678   4.283  1.00 20.00     0.066 A 
ENDROOT
TORSDOF 0
ENDMDL
MODEL 2
REMARK VINA RESULT:      -2.5      0.213      1.982
REMARK  0 active torsions:
REMARK  status: ('A' for Active; 'I' for Inactive)
ROOT
HETATM    1  C1  UNL     1     -31.806   7.929   1.612  1.00 20.00     0.001 A 
HETATM    2  C2  UNL     1     -31.778   6.603   1.148  1.00 20.00     0.001 A 
HETATM    3  C3  UNL     1     -32.683   8.313   2.632  1.00 20.00     0.012 A 
HETATM    4  C4  UNL     1     -32.626   5.636   1.693  1.00 20.00     0.008 A 
HETATM    5  C5  UNL     1     -33.519   7.348   3.166  1.00 20.00    -0.030 A 
HETATM    6  C6  UNL     1     -33.490   6.026   2.701  1.00 20.00    -0.044 A 
HETATM    7  C7  UNL     1     -34.517   7.458   4.217  1.00 20.00     0.008 A 
HETATM    8  C8  UNL     1     -35.072   6.247   4.382  1.00 20.00    -0.021 A 
HETATM    9  C9  UNL     1     -34.493   5.208   3.453  1.00 20.00     0.066 A 
ENDROOT
TORSDOF 0
ENDMDL
MODEL 3
REMARK VINA RESULT:      -2.4      0.551      3.708
REMARK  0 active torsions:
REMARK  status: ('A' for Active; 'I' for Inactive)
ROOT
HETATM    1  C1  UNL     1     -34.977   6.619   4.444  1.00 20.00     0.001 A 
HETATM    2  C2  UNL     1     -34.831   5.289   4.014  1.00 20.00     0.001 A 
HETATM    3  C3  UNL     1     -34.197   7.640   3.892  1.00 20.00     0.012 A 
HETATM    4  C4  UNL     1     -33.902   4.954   3.025  1.00 20.00     0.008 A 
HETATM    5  C5  UNL     1     -33.280   7.299   2.912  1.00 20.00    -0.030 A 
HETATM    6  C6  UNL     1     -33.136   5.972   2.485  1.00 20.00    -0.044 A 
HETATM    7  C7  UNL     1     -32.350   8.137   2.175  1.00 20.00     0.008 A 
HETATM    8  C8  UNL     1     -31.668   7.347   1.331  1.00 20.00    -0.021 A 
HETATM    9  C9  UNL     1     -32.080   5.898   1.427  1.00 20.00     0.066 A 
ENDROOT
TORSDOF 0
ENDMDL
MODEL 4
REMARK VINA RESULT:      -2.2      0.569      3.153
REMARK  0 active torsions:
REMARK  status: ('A' for Active; 'I' for Inactive)
ROOT
HETATM    1  C1  UNL     1     -34.807   5.272   4.014  1.00 20.00     0.001 A 
HETATM    2  C2  UNL     1     -34.970   6.599   4.448  1.00 20.00     0.001 A 
HETATM    3  C3  UNL     1     -33.875   4.952   3.022  1.00 20.00     0.012 A 
HETATM    4  C4  UNL     1     -34.205   7.631   3.896  1.00 20.00     0.008 A 
HETATM    5  C5  UNL     1     -33.122   5.980   2.482  1.00 20.00    -0.030 A 
HETATM    6  C6  UNL     1     -33.287   7.304   2.915  1.00 20.00    -0.044 A 
HETATM    7  C7  UNL     1     -32.098   5.944   1.452  1.00 20.00     0.008 A 
HETATM    8  C8  UNL     1     -31.657   7.198   1.269  1.00 20.00    -0.021 A 
HETATM    9  C9  UNL     1     -32.350   8.197   2.164  1.00 20.00     0.066 A 
ENDROOT
TORSDOF 0
ENDMDL
MODEL 5
REMARK VINA RESULT:      -0.8      0.763      3.035
REMARK  0 active torsions:
REMARK  status: ('A' for Active; 'I' for Inactive)
ROOT
HETATM    1  C1  UNL     1     -34.650   7.315   4.569  1.00 20.00     0.001 A 
HETATM    2  C2  UNL     1     -33.684   8.330   4.473  1.00 20.00     0.001 A 
HETATM    3  C3  UNL     1     -34.638   6.229   3.688  1.00 20.00     0.012 A 
HETATM    4  C4  UNL     1     -32.688   8.280   3.494  1.00 20.00     0.008 A 
HETATM    5  C5  UNL     1     -33.648   6.187   2.722  1.00 20.00    -0.030 A 
HETATM    6  C6  UNL     1     -32.685   7.202   2.627  1.00 20.00    -0.044 A 
HETATM    7  C7  UNL     1     -33.395   5.198   1.688  1.00 20.00     0.008 A 
HETATM    8  C8  UNL     1     -32.319   5.598   0.993  1.00 20.00    -0.021 A 
HETATM    9  C9  UNL     1     -31.747   6.900   1.500  1.00 20.00     0.066 A 
ENDROOT
TORSDOF 0
ENDMDL
MODEL 6
REMARK VINA RESULT:      -0.0      1.119      1.946
REMARK  0 active torsions:
REMARK  status: ('A' for Active; 'I' for Inactive)
ROOT
HETATM    1  C1  UNL     1     -32.671   7.875   1.923  1.00 20.00     0.001 A 
HETATM    2  C2  UNL     1     -33.538   8.452   2.867  1.00 20.00     0.001 A 
HETATM    3  C3  UNL     1     -32.517   6.487   1.847  1.00 20.00     0.012 A 
HETATM    4  C4  UNL     1     -34.266   7.653   3.752  1.00 20.00     0.008 A 
HETATM    5  C5  UNL     1     -33.243   5.703   2.727  1.00 20.00    -0.030 A 
HETATM    6  C6  UNL     1     -34.107   6.281   3.668  1.00 20.00    -0.044 A 
HETATM    7  C7  UNL     1     -33.280   4.258   2.875  1.00 20.00     0.008 A 
HETATM    8  C8  UNL     1     -34.136   3.971   3.868  1.00 20.00    -0.021 A 
HETATM    9  C9  UNL     1     -34.755   5.204   4.481  1.00 20.00     0.066 A 
ENDROOT
TORSDOF 0
ENDMDL
MODEL 7
REMARK VINA RESULT:       0.0      1.109      2.420
REMARK  0 active torsions:
REMARK  status: ('A' for Active; 'I' for Inactive)
ROOT
HETATM    1  C1  UNL     1     -33.522   8.436   2.959  1.00 20.00     0.001 A 
HETATM    2  C2  UNL     1     -32.608   7.893   2.041  1.00 20.00     0.001 A 
HETATM    3  C3  UNL     1     -34.270   7.607   3.801  1.00 20.00     0.012 A 
HETATM    4  C4  UNL     1     -32.425   6.511   1.945  1.00 20.00     0.008 A 
HETATM    5  C5  UNL     1     -34.082   6.240   3.700  1.00 20.00    -0.030 A 
HETATM    6  C6  UNL     1     -33.170   5.699   2.783  1.00 20.00    -0.044 A 
HETATM    7  C7  UNL     1     -34.712   5.156   4.435  1.00 20.00     0.008 A 
HETATM    8  C8  UNL     1     -34.201   4.001   3.979  1.00 20.00    -0.021 A 
HETATM    9  C9  UNL     1     -33.174   4.206   2.891  1.00 20.00     0.066 A 
ENDROOT
TORSDOF 0
ENDMDL
