MODEL 1
REMARK VINA RESULT:      -2.0      0.000      0.000
REMARK  0 active torsions:
REMARK  status: ('A' for Active; 'I' for Inactive)
ROOT
HETATM    1  C1  UNL     1     -31.722   7.831   1.596  1.00 20.00     0.001 A 
HETATM    2  C2  UNL     1     -31.804   6.520   1.133  1.00 20.00     0.002 A 
HETATM    3  C3  UNL     1     -32.558   8.281   2.626  1.00 20.00     0.014 A 
HETATM    4  C4  UNL     1     -32.719   5.617   1.683  1.00 20.00     0.030 A 
HETATM    5  C5  UNL     1     -34.463   7.499   4.225  1.00 20.00     0.030 A 
HETATM    6  C6  UNL     1     -35.084   6.277   4.344  1.00 20.00     0.089 A 
HETATM    7  C7  UNL     1     -33.488   7.389   3.195  1.00 20.00    -0.008 A 
HETATM    8  C8  UNL     1     -33.547   6.081   2.711  1.00 20.00     0.042 A 
HETATM    9  N9  UNL     1     -34.524   5.428   3.427  1.00 20.00    -0.365 N 
HETATM   10  H16 UNL     1     -34.790   4.462   3.295  1.00 20.00     0.165 HD
ENDROOT
TORSDOF 0
ENDMDL
MODEL 2
REMARK VINA RESULT:      -1.9      0.872      1.935
REMARK  0 active torsions:
REMARK  status: ('A' for Active; 'I' for Inactive)
ROOT
HETATM    1  C1  UNL     1     -31.802   6.602   1.131  1.00 20.00     0.001 A 
HETATM    2  C2  UNL     1     -31.716   7.902   1.627  1.00 20.00     0.002 A 
HETATM    3  C3  UNL     1     -32.723   5.692   1.665  1.00 20.00     0.014 A 
HETATM    4  C4  UNL     1     -32.545   8.333   2.667  1.00 20.00     0.030 A 
HETATM    5  C5  UNL     1     -34.590   5.467   3.472  1.00 20.00     0.030 A 
HETATM    6  C6  UNL     1     -35.073   6.385   4.377  1.00 20.00     0.089 A 
HETATM    7  C7  UNL     1     -33.568   6.105   2.713  1.00 20.00    -0.008 A 
HETATM    8  C8  UNL     1     -33.460   7.412   3.189  1.00 20.00     0.042 A 
HETATM    9  N9  UNL     1     -34.385   7.555   4.198  1.00 20.00    -0.365 N 
HETATM   10  H16 UNL     1     -34.535   8.401   4.730  1.00 20.00     0.165 HD
ENDROOT
TORSDOF 0
ENDMDL
MODEL 3
REMARK VINA RESULT:      -1.8      1.369      3.663
REMARK  0 active torsions:
REMARK  status: ('A' for Active; 'I' for Inactive)
ROOT
HETATM    1  C1  UNL     1     -34.731   5.143   3.950  1.00 20.00     0.001 A 
HETATM    2  C2  UNL     1     -35.003   6.420   4.435  1.00 20.00     0.002 A 
HETATM    3  C3  UNL     1     -33.757   4.943   2.963  1.00 20.00     0.014 A 
HETATM    4  C4  UNL     1     -34.313   7.537   3.952  1.00 20.00     0.030 A 
HETATM    5  C5  UNL     1     -32.025   6.218   1.488  1.00 20.00     0.030 A 
HETATM    6  C6  UNL     1     -31.723   7.558   1.422  1.00 20.00     0.089 A 
HETATM    7  C7  UNL     1     -33.050   6.053   2.462  1.00 20.00    -0.008 A 
HETATM    8  C8  UNL     1     -33.343   7.321   2.967  1.00 20.00     0.042 A 
HETATM    9  N9  UNL     1     -32.523   8.216   2.318  1.00 20.00    -0.365 N 
HETATM   10  H16 UNL     1     -32.512   9.213   2.479  1.00 20.00     0.165 HD
ENDROOT
TORSDOF 0
ENDMDL
MODEL 4
REMARK VINA RESULT:      -1.7      1.235      3.130
REMARK  0 active torsions:
REMARK  status: ('A' for Active; 'I' for Inactive)
ROOT
HETATM    1  C1  UNL     1     -34.976   6.575   4.420  1.00 20.00     0.001 A 
HETATM    2  C2  UNL     1     -34.776   5.283   3.936  1.00 20.00     0.002 A 
HETATM    3  C3  UNL     1     -34.225   7.649   3.927  1.00 20.00     0.014 A 
HETATM    4  C4  UNL     1     -33.822   5.024   2.947  1.00 20.00     0.030 A 
HETATM    5  C5  UNL     1     -32.343   8.238   2.220  1.00 20.00     0.030 A 
HETATM    6  C6  UNL     1     -31.639   7.434   1.353  1.00 20.00     0.089 A 
HETATM    7  C7  UNL     1     -33.259   7.411   2.930  1.00 20.00    -0.008 A 
HETATM    8  C8  UNL     1     -33.080   6.108   2.464  1.00 20.00     0.042 A 
HETATM    9  N9  UNL     1     -32.092   6.151   1.507  1.00 20.00    -0.365 N 
HETATM   10  H16 UNL     1     -31.749   5.351   0.993  1.00 20.00     0.165 HD
ENDROOT
TORSDOF 0
ENDMDL
MODEL 5
REMARK VINA RESULT:      -0.5      1.073      3.026
REMARK  0 active torsions:
REMARK  status: ('A' for Active; 'I' for Inactive)
ROOT
HETATM    1  C1  UNL     1     -33.796   8.295   4.371  1.00 20.00     0.001 A 
HETATM    2  C2  UNL     1     -34.619   7.175   4.469  1.00 20.00     0.002 A 
HETATM    3  C3  UNL     1     -32.800   8.368   3.389  1.00 20.00     0.014 A 
HETATM    4  C4  UNL     1     -34.475   6.096   3.592  1.00 20.00     0.030 A 
HETATM    5  C5  UNL     1     -31.755   7.032   1.407  1.00 20.00     0.030 A 
HETATM    6  C6  UNL     1     -32.072   5.793   0.900  1.00 20.00     0.089 A 
HETATM    7  C7  UNL     1     -32.636   7.292   2.495  1.00 20.00    -0.008 A 
HETATM    8  C8  UNL     1     -33.475   6.184   2.617  1.00 20.00     0.042 A 
HETATM    9  N9  UNL     1     -33.111   5.289   1.636  1.00 20.00    -0.365 N 
HETATM   10  H16 UNL     1     -33.547   4.391   1.482  1.00 20.00     0.165 HD
ENDROOT
TORSDOF 0
ENDMDL
MODEL 6
REMARK VINA RESULT:      -0.0      1.611      3.074
REMARK  0 active torsions:
REMARK  status: ('A' for Active; 'I' for Inactive)
ROOT
HETATM    1  C1  UNL     1     -34.497   5.855   3.666  1.00 20.00     0.001 A 
HETATM    2  C2  UNL     1     -33.883   4.954   2.798  1.00 20.00     0.002 A 
HETATM    3  C3  UNL     1     -34.129   7.206   3.672  1.00 20.00     0.014 A 
HETATM    4  C4  UNL     1     -32.886   5.372   1.911  1.00 20.00     0.030 A 
HETATM    5  C5  UNL     1     -32.521   8.912   2.529  1.00 20.00     0.030 A 
HETATM    6  C6  UNL     1     -31.585   8.730   1.537  1.00 20.00     0.089 A 
HETATM    7  C7  UNL     1     -33.127   7.650   2.788  1.00 20.00    -0.008 A 
HETATM    8  C8  UNL     1     -32.530   6.725   1.930  1.00 20.00     0.042 A 
HETATM    9  N9  UNL     1     -31.598   7.408   1.182  1.00 20.00    -0.365 N 
HETATM   10  H16 UNL     1     -31.009   6.993   0.473  1.00 20.00     0.165 HD
ENDROOT
TORSDOF 0
ENDMDL
