MODEL 1
REMARK VINA RESULT:      -1.3      0.000      0.000
REMARK  0 active torsions:
REMARK  status: ('A' for Active; 'I' for Inactive)
ROOT
HETATM    1  C1  UNL     1     -35.081   4.964   4.379  1.00 20.00     0.000 A 
HETATM    2  C2  UNL     1     -34.020   4.398   3.674  1.00 20.00     0.001 A 
HETATM    3  C3  UNL     1     -35.293   6.342   4.335  1.00 20.00     0.001 A 
HETATM    4  C4  UNL     1     -33.169   5.210   2.923  1.00 20.00     0.018 A 
HETATM    5  C5  UNL     1     -34.443   7.154   3.584  1.00 20.00     0.018 A 
HETATM    6  C6  UNL     1     -33.381   6.588   2.878  1.00 20.00     0.006 A 
HETATM    7  I7  UNL     1     -32.115   7.797   1.760  1.00 20.00    -0.045 I 
ENDROOT
TORSDOF 0
ENDMDL
MODEL 2
REMARK VINA RESULT:      -1.3      0.001      1.827
REMARK  0 active torsions:
REMARK  status: ('A' for Active; 'I' for Inactive)
ROOT
HETATM    1  C1  UNL     1     -35.081   4.964   4.380  1.00 20.00     0.000 A 
HETATM    2  C2  UNL     1     -35.293   6.341   4.334  1.00 20.00     0.001 A 
HETATM    3  C3  UNL     1     -34.020   4.397   3.674  1.00 20.00     0.001 A 
HETATM    4  C4  UNL     1     -34.443   7.154   3.584  1.00 20.00     0.018 A 
HETATM    5  C5  UNL     1     -33.169   5.209   2.922  1.00 20.00     0.018 A 
HETATM    6  C6  UNL     1     -33.381   6.587   2.878  1.00 20.00     0.006 A 
HETATM    7  I7  UNL     1     -32.115   7.797   1.760  1.00 20.00    -0.045 I 
ENDROOT
TORSDOF 0
ENDMDL
MODEL 3
REMARK VINA RESULT:      -0.9      2.331      3.806
REMARK  0 active torsions:
REMARK  status: ('A' for Active; 'I' for Inactive)
ROOT
HETATM    1  C1  UNL     1     -31.631   7.534   1.351  1.00 20.00     0.000 A 
HETATM    2  C2  UNL     1     -32.188   8.326   2.354  1.00 20.00     0.001 A 
HETATM    3  C3  UNL     1     -32.081   6.228   1.162  1.00 20.00     0.001 A 
HETATM    4  C4  UNL     1     -33.197   7.812   3.170  1.00 20.00     0.018 A 
HETATM    5  C5  UNL     1     -33.089   5.713   1.978  1.00 20.00     0.018 A 
HETATM    6  C6  UNL     1     -33.648   6.505   2.981  1.00 20.00     0.006 A 
HETATM    7  I7  UNL     1     -35.150   5.740   4.195  1.00 20.00    -0.045 I 
ENDROOT
TORSDOF 0
ENDMDL
MODEL 4
REMARK VINA RESULT:      -0.9      2.328      3.396
REMARK  0 active torsions:
REMARK  status: ('A' for Active; 'I' for Inactive)
ROOT
HETATM    1  C1  UNL     1     -31.667   7.598   1.429  1.00 20.00     0.000 A 
HETATM    2  C2  UNL     1     -32.103   6.295   1.190  1.00 20.00     0.001 A 
HETATM    3  C3  UNL     1     -32.229   8.344   2.464  1.00 20.00     0.001 A 
HETATM    4  C4  UNL     1     -33.102   5.737   1.988  1.00 20.00     0.018 A 
HETATM    5  C5  UNL     1     -33.228   7.786   3.263  1.00 20.00     0.018 A 
HETATM    6  C6  UNL     1     -33.664   6.482   3.025  1.00 20.00     0.006 A 
HETATM    7  I7  UNL     1     -35.152   5.651   4.213  1.00 20.00    -0.045 I 
ENDROOT
TORSDOF 0
ENDMDL
MODEL 5
REMARK VINA RESULT:      -0.9      1.122      1.345
REMARK  0 active torsions:
REMARK  status: ('A' for Active; 'I' for Inactive)
ROOT
HETATM    1  C1  UNL     1     -34.369   5.832   3.771  1.00 20.00     0.000 A 
HETATM    2  C2  UNL     1     -33.675   5.323   2.674  1.00 20.00     0.001 A 
HETATM    3  C3  UNL     1     -34.306   7.194   4.066  1.00 20.00     0.001 A 
HETATM    4  C4  UNL     1     -32.916   6.176   1.871  1.00 20.00     0.018 A 
HETATM    5  C5  UNL     1     -33.547   8.047   3.264  1.00 20.00     0.018 A 
HETATM    6  C6  UNL     1     -32.853   7.538   2.166  1.00 20.00     0.006 A 
HETATM    7  I7  UNL     1     -31.724   8.808   0.971  1.00 20.00    -0.045 I 
ENDROOT
TORSDOF 0
ENDMDL
MODEL 6
REMARK VINA RESULT:      -0.5      1.261      2.409
REMARK  0 active torsions:
REMARK  status: ('A' for Active; 'I' for Inactive)
ROOT
HETATM    1  C1  UNL     1     -33.864   5.437   3.280  1.00 20.00     0.000 A 
HETATM    2  C2  UNL     1     -34.088   6.751   3.690  1.00 20.00     0.001 A 
HETATM    3  C3  UNL     1     -33.072   5.180   2.161  1.00 20.00     0.001 A 
HETATM    4  C4  UNL     1     -33.519   7.809   2.980  1.00 20.00     0.018 A 
HETATM    5  C5  UNL     1     -32.503   6.238   1.451  1.00 20.00     0.018 A 
HETATM    6  C6  UNL     1     -32.727   7.552   1.861  1.00 20.00     0.006 A 
HETATM    7  I7  UNL     1     -31.880   9.128   0.805  1.00 20.00    -0.045 I 
ENDROOT
TORSDOF 0
ENDMDL
MODEL 7
REMARK VINA RESULT:      -0.3      1.507      2.425
REMARK  0 active torsions:
REMARK  status: ('A' for Active; 'I' for Inactive)
ROOT
HETATM    1  C1  UNL     1     -34.302   7.713   4.282  1.00 20.00     0.000 A 
HETATM    2  C2  UNL     1     -33.224   8.232   3.566  1.00 20.00     0.001 A 
HETATM    3  C3  UNL     1     -34.769   6.428   4.008  1.00 20.00     0.001 A 
HETATM    4  C4  UNL     1     -32.610   7.465   2.576  1.00 20.00     0.018 A 
HETATM    5  C5  UNL     1     -34.156   5.660   3.017  1.00 20.00     0.018 A 
HETATM    6  C6  UNL     1     -33.077   6.179   2.301  1.00 20.00     0.006 A 
HETATM    7  I7  UNL     1     -32.163   5.037   0.826  1.00 20.00    -0.045 I 
ENDROOT
TORSDOF 0
ENDMDL
MODEL 8
REMARK VINA RESULT:      -0.3      1.506      2.272
REMARK  0 active torsions:
REMARK  status: ('A' for Active; 'I' for Inactive)
ROOT
HETATM    1  C1  UNL     1     -34.307   7.716   4.285  1.00 20.00     0.000 A 
HETATM    2  C2  UNL     1     -34.772   6.430   4.012  1.00 20.00     0.001 A 
HETATM    3  C3  UNL     1     -33.228   8.235   3.570  1.00 20.00     0.001 A 
HETATM    4  C4  UNL     1     -34.158   5.663   3.021  1.00 20.00     0.018 A 
HETATM    5  C5  UNL     1     -32.614   7.468   2.580  1.00 20.00     0.018 A 
HETATM    6  C6  UNL     1     -33.079   6.182   2.305  1.00 20.00     0.006 A 
HETATM    7  I7  UNL     1     -32.166   5.039   0.830  1.00 20.00    -0.045 I 
ENDROOT
TORSDOF 0
ENDMDL
MODEL 9
REMARK VINA RESULT:       0.1      2.238      2.871
REMARK  0 active torsions:
REMARK  status: ('A' for Active; 'I' for Inactive)
ROOT
HETATM    1  C1  UNL     1     -34.658   7.135   3.138  1.00 20.00     0.000 A 
HETATM    2  C2  UNL     1     -33.472   6.615   2.622  1.00 20.00     0.001 A 
HETATM    3  C3  UNL     1     -35.415   6.387   4.040  1.00 20.00     0.001 A 
HETATM    4  C4  UNL     1     -33.041   5.345   3.007  1.00 20.00     0.018 A 
HETATM    5  C5  UNL     1     -34.985   5.117   4.425  1.00 20.00     0.018 A 
HETATM    6  C6  UNL     1     -33.798   4.596   3.910  1.00 20.00     0.006 A 
HETATM    7  I7  UNL     1     -33.157   2.706   4.484  1.00 20.00    -0.045 I 
ENDROOT
TORSDOF 0
ENDMDL
