MODEL 1
REMARK VINA RESULT:      -1.1      0.000      0.000
REMARK  0 active torsions:
REMARK  status: ('A' for Active; 'I' for Inactive)
ROOT
HETATM    1  C1  UNL     1     -31.977   7.765   1.709  1.00 20.00     0.016 C 
HETATM    2  C2  UNL     1     -32.898   6.576   1.925  1.00 20.00     0.075 C 
HETATM    3  I3  UNL     1     -34.212   6.923   3.567  1.00 20.00    -0.090 I 
ENDROOT
TORSDOF 0
ENDMDL
MODEL 2
REMARK VINA RESULT:      -1.1      2.478      2.845
REMARK  0 active torsions:
REMARK  status: ('A' for Active; 'I' for Inactive)
ROOT
HETATM    1  C1  UNL     1     -34.705   6.541   3.748  1.00 20.00     0.016 C 
HETATM    2  C2  UNL     1     -33.686   7.668   3.784  1.00 20.00     0.075 C 
HETATM    3  I3  UNL     1     -32.402   7.584   2.085  1.00 20.00    -0.090 I 
ENDROOT
TORSDOF 0
ENDMDL
MODEL 3
REMARK VINA RESULT:      -1.0      2.307      2.575
REMARK  0 active torsions:
REMARK  status: ('A' for Active; 'I' for Inactive)
ROOT
HETATM    1  C1  UNL     1     -34.263   7.336   4.009  1.00 20.00     0.016 C 
HETATM    2  C2  UNL     1     -33.593   6.545   2.898  1.00 20.00     0.075 C 
HETATM    3  I3  UNL     1     -32.158   7.741   1.873  1.00 20.00    -0.090 I 
ENDROOT
TORSDOF 0
ENDMDL
MODEL 4
REMARK VINA RESULT:      -0.9      0.740      1.253
REMARK  0 active torsions:
REMARK  status: ('A' for Active; 'I' for Inactive)
ROOT
HETATM    1  C1  UNL     1     -32.613   5.809   1.438  1.00 20.00     0.016 C 
HETATM    2  C2  UNL     1     -32.781   7.138   2.155  1.00 20.00     0.075 C 
HETATM    3  I3  UNL     1     -34.268   6.997   3.675  1.00 20.00    -0.090 I 
ENDROOT
TORSDOF 0
ENDMDL
MODEL 5
REMARK VINA RESULT:      -0.9      2.692      2.924
REMARK  0 active torsions:
REMARK  status: ('A' for Active; 'I' for Inactive)
ROOT
HETATM    1  C1  UNL     1     -32.383   6.779   1.472  1.00 20.00     0.016 C 
HETATM    2  C2  UNL     1     -31.986   8.187   1.882  1.00 20.00     0.075 C 
HETATM    3  I3  UNL     1     -32.369   9.572   0.308  1.00 20.00    -0.090 I 
ENDROOT
TORSDOF 0
ENDMDL
MODEL 6
REMARK VINA RESULT:      -0.9      2.783      3.080
REMARK  0 active torsions:
REMARK  status: ('A' for Active; 'I' for Inactive)
ROOT
HETATM    1  C1  UNL     1     -32.693  10.490   0.407  1.00 20.00     0.016 C 
HETATM    2  C2  UNL     1     -32.025   9.153   0.133  1.00 20.00     0.075 C 
HETATM    3  I3  UNL     1     -32.133   7.886   1.843  1.00 20.00    -0.090 I 
ENDROOT
TORSDOF 0
ENDMDL
MODEL 7
REMARK VINA RESULT:      -0.7      3.497      3.523
REMARK  0 active torsions:
REMARK  status: ('A' for Active; 'I' for Inactive)
ROOT
HETATM    1  C1  UNL     1     -33.880   3.949   4.196  1.00 20.00     0.016 C 
HETATM    2  C2  UNL     1     -34.983   4.981   4.360  1.00 20.00     0.075 C 
HETATM    3  I3  UNL     1     -34.323   6.905   3.724  1.00 20.00    -0.090 I 
ENDROOT
TORSDOF 0
ENDMDL
MODEL 8
REMARK VINA RESULT:      -0.7      1.922      2.106
REMARK  0 active torsions:
REMARK  status: ('A' for Active; 'I' for Inactive)
ROOT
HETATM    1  C1  UNL     1     -32.259   8.985   0.817  1.00 20.00     0.016 C 
HETATM    2  C2  UNL     1     -31.924   8.031   1.951  1.00 20.00     0.075 C 
HETATM    3  I3  UNL     1     -32.547   6.047   1.482  1.00 20.00    -0.090 I 
ENDROOT
TORSDOF 0
ENDMDL
MODEL 9
REMARK VINA RESULT:      -0.6      2.763      2.924
REMARK  0 active torsions:
REMARK  status: ('A' for Active; 'I' for Inactive)
ROOT
HETATM    1  C1  UNL     1     -34.170   7.430   3.936  1.00 20.00     0.016 C 
HETATM    2  C2  UNL     1     -35.126   6.250   3.943  1.00 20.00     0.075 C 
HETATM    3  I3  UNL     1     -34.062   4.411   4.106  1.00 20.00    -0.090 I 
ENDROOT
TORSDOF 0
ENDMDL
