MODEL 1
REMARK VINA RESULT:      -1.9      0.000      0.000
REMARK  2 active torsions:
REMARK  status: ('A' for Active; 'I' for Inactive)
REMARK    1  A    between atoms: C6_6  and  C9_9 
REMARK    2  A    between atoms: C9_9  and  C10_10 
ROOT
HETATM    1  C1  UNL     1     -34.493   5.918   3.745  1.00 20.00     0.000 A 
HETATM    2  C2  UNL     1     -34.313   7.243   4.143  1.00 20.00     0.001 A 
HETATM    3  C3  UNL     1     -33.792   5.420   2.646  1.00 20.00     0.001 A 
HETATM    4  C4  UNL     1     -33.435   8.069   3.441  1.00 20.00     0.007 A 
HETATM    5  C5  UNL     1     -32.914   6.245   1.945  1.00 20.00     0.007 A 
HETATM    6  C6  UNL     1     -32.735   7.570   2.342  1.00 20.00    -0.058 A 
ENDROOT
BRANCH   6   7
HETATM    7  C9  UNL     1     -31.784   8.463   1.583  1.00 20.00     0.042 C 
BRANCH   7   8
HETATM    8  C10 UNL     1     -32.449   9.249   0.436  1.00 20.00    -0.019 C 
HETATM    9  C7  UNL     1     -32.769  10.690   0.838  1.00 20.00     0.010 C 
HETATM   10  C8  UNL     1     -31.535   9.246  -0.791  1.00 20.00     0.010 C 
ENDBRANCH   7   8
ENDBRANCH   6   7
TORSDOF 2
ENDMDL
MODEL 2
REMARK VINA RESULT:      -1.9      0.014      1.528
REMARK  2 active torsions:
REMARK  status: ('A' for Active; 'I' for Inactive)
REMARK    1  A    between atoms: C6_6  and  C9_9 
REMARK    2  A    between atoms: C9_9  and  C10_10 
ROOT
HETATM    1  C1  UNL     1     -34.508   5.921   3.744  1.00 20.00     0.000 A 
HETATM    2  C2  UNL     1     -33.811   5.421   2.643  1.00 20.00     0.001 A 
HETATM    3  C3  UNL     1     -34.319   7.244   4.145  1.00 20.00     0.001 A 
HETATM    4  C4  UNL     1     -32.926   6.243   1.945  1.00 20.00     0.007 A 
HETATM    5  C5  UNL     1     -33.435   8.066   3.447  1.00 20.00     0.007 A 
HETATM    6  C6  UNL     1     -32.737   7.566   2.348  1.00 20.00    -0.058 A 
ENDROOT
BRANCH   6   7
HETATM    7  C9  UNL     1     -31.780   8.455   1.593  1.00 20.00     0.042 C 
BRANCH   7   8
HETATM    8  C10 UNL     1     -32.439   9.244   0.444  1.00 20.00    -0.019 C 
HETATM    9  C7  UNL     1     -32.766  10.683   0.849  1.00 20.00     0.010 C 
HETATM   10  C8  UNL     1     -31.514   9.249  -0.776  1.00 20.00     0.010 C 
ENDBRANCH   7   8
ENDBRANCH   6   7
TORSDOF 2
ENDMDL
MODEL 3
REMARK VINA RESULT:      -1.6      1.135      1.889
REMARK  2 active torsions:
REMARK  status: ('A' for Active; 'I' for Inactive)
REMARK    1  A    between atoms: C6_6  and  C9_9 
REMARK    2  A    between atoms: C9_9  and  C10_10 
ROOT
HETATM    1  C1  UNL     1     -35.091   4.919   4.578  1.00 20.00     0.000 A 
HETATM    2  C2  UNL     1     -35.267   6.258   4.227  1.00 20.00     0.001 A 
HETATM    3  C3  UNL     1     -34.077   4.170   3.981  1.00 20.00     0.001 A 
HETATM    4  C4  UNL     1     -34.429   6.847   3.279  1.00 20.00     0.007 A 
HETATM    5  C5  UNL     1     -33.240   4.758   3.034  1.00 20.00     0.007 A 
HETATM    6  C6  UNL     1     -33.416   6.096   2.682  1.00 20.00    -0.058 A 
ENDROOT
BRANCH   6   7
HETATM    7  C9  UNL     1     -32.509   6.732   1.657  1.00 20.00     0.042 C 
BRANCH   7   8
HETATM    8  C10 UNL     1     -32.319   8.249   1.851  1.00 20.00    -0.019 C 
HETATM    9  C7  UNL     1     -31.189   8.565   2.832  1.00 20.00     0.010 C 
HETATM   10  C8  UNL     1     -32.029   8.911   0.501  1.00 20.00     0.010 C 
ENDBRANCH   7   8
ENDBRANCH   6   7
TORSDOF 2
ENDMDL
MODEL 4
REMARK VINA RESULT:      -1.6      1.126      2.330
REMARK  2 active torsions:
REMARK  status: ('A' for Active; 'I' for Inactive)
REMARK    1  A    between atoms: C6_6  and  C9_9 
REMARK    2  A    between atoms: C9_9  and  C10_10 
ROOT
HETATM    1  C1  UNL     1     -35.069   4.927   4.541  1.00 20.00     0.000 A 
HETATM    2  C2  UNL     1     -34.073   4.177   3.914  1.00 20.00     0.001 A 
HETATM    3  C3  UNL     1     -35.235   6.274   4.215  1.00 20.00     0.001 A 
HETATM    4  C4  UNL     1     -33.245   4.774   2.962  1.00 20.00     0.007 A 
HETATM    5  C5  UNL     1     -34.409   6.870   3.264  1.00 20.00     0.007 A 
HETATM    6  C6  UNL     1     -33.412   6.120   2.638  1.00 20.00    -0.058 A 
ENDROOT
BRANCH   6   7
HETATM    7  C9  UNL     1     -32.517   6.766   1.609  1.00 20.00     0.042 C 
BRANCH   7   8
HETATM    8  C10 UNL     1     -32.296   8.275   1.835  1.00 20.00    -0.019 C 
HETATM    9  C7  UNL     1     -31.158   8.546   2.821  1.00 20.00     0.010 C 
HETATM   10  C8  UNL     1     -31.996   8.959   0.500  1.00 20.00     0.010 C 
ENDBRANCH   7   8
ENDBRANCH   6   7
TORSDOF 2
ENDMDL
MODEL 5
REMARK VINA RESULT:      -0.5      2.203      5.471
REMARK  2 active torsions:
REMARK  status: ('A' for Active; 'I' for Inactive)
REMARK    1  A    between atoms: C6_6  and  C9_9 
REMARK    2  A    between atoms: C9_9  and  C10_10 
ROOT
HETATM    1  C1  UNL     1     -33.043   7.774   2.399  1.00 20.00     0.000 A 
HETATM    2  C2  UNL     1     -32.580   6.582   1.840  1.00 20.00     0.001 A 
HETATM    3  C3  UNL     1     -33.883   7.740   3.513  1.00 20.00     0.001 A 
HETATM    4  C4  UNL     1     -32.956   5.359   2.394  1.00 20.00     0.007 A 
HETATM    5  C5  UNL     1     -34.259   6.517   4.067  1.00 20.00     0.007 A 
HETATM    6  C6  UNL     1     -33.796   5.326   3.508  1.00 20.00    -0.058 A 
ENDROOT
BRANCH   6   7
HETATM    7  C9  UNL     1     -34.203   4.002   4.108  1.00 20.00     0.042 C 
BRANCH   7   8
HETATM    8  C10 UNL     1     -33.015   3.136   4.569  1.00 20.00    -0.019 C 
HETATM    9  C7  UNL     1     -32.601   3.450   6.008  1.00 20.00     0.010 C 
HETATM   10  C8  UNL     1     -33.376   1.654   4.448  1.00 20.00     0.010 C 
ENDBRANCH   7   8
ENDBRANCH   6   7
TORSDOF 2
ENDMDL
MODEL 6
REMARK VINA RESULT:      -0.5      2.192      5.268
REMARK  2 active torsions:
REMARK  status: ('A' for Active; 'I' for Inactive)
REMARK    1  A    between atoms: C6_6  and  C9_9 
REMARK    2  A    between atoms: C9_9  and  C10_10 
ROOT
HETATM    1  C1  UNL     1     -33.046   7.773   2.365  1.00 20.00     0.000 A 
HETATM    2  C2  UNL     1     -33.877   7.749   3.485  1.00 20.00     0.001 A 
HETATM    3  C3  UNL     1     -32.594   6.576   1.807  1.00 20.00     0.001 A 
HETATM    4  C4  UNL     1     -34.255   6.529   4.048  1.00 20.00     0.007 A 
HETATM    5  C5  UNL     1     -32.973   5.357   2.368  1.00 20.00     0.007 A 
HETATM    6  C6  UNL     1     -33.802   5.333   3.489  1.00 20.00    -0.058 A 
ENDROOT
BRANCH   6   7
HETATM    7  C9  UNL     1     -34.212   4.014   4.097  1.00 20.00     0.042 C 
BRANCH   7   8
HETATM    8  C10 UNL     1     -33.025   3.157   4.580  1.00 20.00    -0.019 C 
HETATM    9  C7  UNL     1     -32.626   3.489   6.019  1.00 20.00     0.010 C 
HETATM   10  C8  UNL     1     -33.382   1.672   4.473  1.00 20.00     0.010 C 
ENDBRANCH   7   8
ENDBRANCH   6   7
TORSDOF 2
ENDMDL
MODEL 7
REMARK VINA RESULT:      -0.4      1.014      4.632
REMARK  2 active torsions:
REMARK  status: ('A' for Active; 'I' for Inactive)
REMARK    1  A    between atoms: C6_6  and  C9_9 
REMARK    2  A    between atoms: C9_9  and  C10_10 
ROOT
HETATM    1  C1  UNL     1     -31.970  10.051  -0.295  1.00 20.00     0.000 A 
HETATM    2  C2  UNL     1     -31.346   8.803  -0.288  1.00 20.00     0.001 A 
HETATM    3  C3  UNL     1     -32.846  10.398   0.733  1.00 20.00     0.001 A 
HETATM    4  C4  UNL     1     -31.600   7.902   0.747  1.00 20.00     0.007 A 
HETATM    5  C5  UNL     1     -33.099   9.499   1.768  1.00 20.00     0.007 A 
HETATM    6  C6  UNL     1     -32.478   8.250   1.775  1.00 20.00    -0.058 A 
ENDROOT
BRANCH   6   7
HETATM    7  C9  UNL     1     -32.752   7.277   2.895  1.00 20.00     0.042 C 
BRANCH   7   8
HETATM    8  C10 UNL     1     -34.001   7.623   3.729  1.00 20.00    -0.019 C 
HETATM    9  C7  UNL     1     -34.942   6.426   3.879  1.00 20.00     0.010 C 
HETATM   10  C8  UNL     1     -33.578   8.124   5.112  1.00 20.00     0.010 C 
ENDBRANCH   7   8
ENDBRANCH   6   7
TORSDOF 2
ENDMDL
MODEL 8
REMARK VINA RESULT:      -0.4      1.007      4.402
REMARK  2 active torsions:
REMARK  status: ('A' for Active; 'I' for Inactive)
REMARK    1  A    between atoms: C6_6  and  C9_9 
REMARK    2  A    between atoms: C9_9  and  C10_10 
ROOT
HETATM    1  C1  UNL     1     -31.963  10.043  -0.301  1.00 20.00     0.000 A 
HETATM    2  C2  UNL     1     -32.860  10.381   0.713  1.00 20.00     0.001 A 
HETATM    3  C3  UNL     1     -31.321   8.804  -0.279  1.00 20.00     0.001 A 
HETATM    4  C4  UNL     1     -33.113   9.482   1.749  1.00 20.00     0.007 A 
HETATM    5  C5  UNL     1     -31.575   7.905   0.756  1.00 20.00     0.007 A 
HETATM    6  C6  UNL     1     -32.470   8.244   1.771  1.00 20.00    -0.058 A 
ENDROOT
BRANCH   6   7
HETATM    7  C9  UNL     1     -32.744   7.271   2.891  1.00 20.00     0.042 C 
BRANCH   7   8
HETATM    8  C10 UNL     1     -34.005   7.605   3.712  1.00 20.00    -0.019 C 
HETATM    9  C7  UNL     1     -34.936   6.399   3.853  1.00 20.00     0.010 C 
HETATM   10  C8  UNL     1     -33.600   8.109   5.100  1.00 20.00     0.010 C 
ENDBRANCH   7   8
ENDBRANCH   6   7
TORSDOF 2
ENDMDL
MODEL 9
REMARK VINA RESULT:      -0.4      1.508      4.727
REMARK  2 active torsions:
REMARK  status: ('A' for Active; 'I' for Inactive)
REMARK    1  A    between atoms: C6_6  and  C9_9 
REMARK    2  A    between atoms: C9_9  and  C10_10 
ROOT
HETATM    1  C1  UNL     1     -31.909   8.543   1.813  1.00 20.00     0.000 A 
HETATM    2  C2  UNL     1     -32.811   8.450   2.873  1.00 20.00     0.001 A 
HETATM    3  C3  UNL     1     -31.603   7.412   1.057  1.00 20.00     0.001 A 
HETATM    4  C4  UNL     1     -33.406   7.225   3.177  1.00 20.00     0.007 A 
HETATM    5  C5  UNL     1     -32.198   6.188   1.360  1.00 20.00     0.007 A 
HETATM    6  C6  UNL     1     -33.099   6.094   2.421  1.00 20.00    -0.058 A 
ENDROOT
BRANCH   6   7
HETATM    7  C9  UNL     1     -33.742   4.768   2.749  1.00 20.00     0.042 C 
BRANCH   7   8
HETATM    8  C10 UNL     1     -33.905   4.513   4.260  1.00 20.00    -0.019 C 
HETATM    9  C7  UNL     1     -35.327   4.806   4.742  1.00 20.00     0.010 C 
HETATM   10  C8  UNL     1     -33.539   3.062   4.582  1.00 20.00     0.010 C 
ENDBRANCH   7   8
ENDBRANCH   6   7
TORSDOF 2
ENDMDL
