MODEL 1
REMARK VINA RESULT:      -2.6      0.000      0.000
REMARK  0 active torsions:
REMARK  status: ('A' for Active; 'I' for Inactive)
ROOT
HETATM    1  C1  UNL     1     -32.547   8.158   2.741  1.00 20.00     0.001 A 
HETATM    2  C2  UNL     1     -32.022   7.266   1.806  1.00 20.00     0.007 A 
HETATM    3  C3  UNL     1     -33.625   7.776   3.540  1.00 20.00     0.007 A 
HETATM    4  C4  UNL     1     -33.652   5.611   2.469  1.00 20.00     0.013 A 
HETATM    5  C5  UNL     1     -32.575   5.992   1.670  1.00 20.00    -0.061 A 
HETATM    6  C6  UNL     1     -34.177   6.502   3.404  1.00 20.00    -0.061 A 
HETATM    7  C7  UNL     1     -32.012   5.038   0.671  1.00 20.00     0.048 C 
HETATM    8  C8  UNL     1     -35.330   6.094   4.258  1.00 20.00     0.048 C 
ENDROOT
TORSDOF 0
ENDMDL
MODEL 2
REMARK VINA RESULT:      -2.6      0.013      3.028
REMARK  0 active torsions:
REMARK  status: ('A' for Active; 'I' for Inactive)
ROOT
HETATM    1  C1  UNL     1     -32.527   8.155   2.744  1.00 20.00     0.001 A 
HETATM    2  C2  UNL     1     -33.608   7.778   3.541  1.00 20.00     0.007 A 
HETATM    3  C3  UNL     1     -32.008   7.262   1.806  1.00 20.00     0.007 A 
HETATM    4  C4  UNL     1     -33.650   5.617   2.463  1.00 20.00     0.013 A 
HETATM    5  C5  UNL     1     -34.169   6.509   3.401  1.00 20.00    -0.061 A 
HETATM    6  C6  UNL     1     -32.570   5.993   1.665  1.00 20.00    -0.061 A 
HETATM    7  C7  UNL     1     -35.325   6.107   4.253  1.00 20.00     0.048 C 
HETATM    8  C8  UNL     1     -32.015   5.039   0.663  1.00 20.00     0.048 C 
ENDROOT
TORSDOF 0
ENDMDL
MODEL 3
REMARK VINA RESULT:      -2.2      1.497      3.212
REMARK  0 active torsions:
REMARK  status: ('A' for Active; 'I' for Inactive)
ROOT
HETATM    1  C1  UNL     1     -35.355   6.311   4.082  1.00 20.00     0.001 A 
HETATM    2  C2  UNL     1     -35.016   5.012   4.459  1.00 20.00     0.007 A 
HETATM    3  C3  UNL     1     -34.519   7.030   3.226  1.00 20.00     0.007 A 
HETATM    4  C4  UNL     1     -33.007   5.150   3.123  1.00 20.00     0.013 A 
HETATM    5  C5  UNL     1     -33.841   4.431   3.979  1.00 20.00    -0.061 A 
HETATM    6  C6  UNL     1     -33.346   6.448   2.746  1.00 20.00    -0.061 A 
HETATM    7  C7  UNL     1     -33.480   3.041   4.382  1.00 20.00     0.048 C 
HETATM    8  C8  UNL     1     -32.453   7.216   1.832  1.00 20.00     0.048 C 
ENDROOT
TORSDOF 0
ENDMDL
MODEL 4
REMARK VINA RESULT:      -2.2      1.496      2.707
REMARK  0 active torsions:
REMARK  status: ('A' for Active; 'I' for Inactive)
ROOT
HETATM    1  C1  UNL     1     -35.355   6.313   4.082  1.00 20.00     0.001 A 
HETATM    2  C2  UNL     1     -34.520   7.032   3.226  1.00 20.00     0.007 A 
HETATM    3  C3  UNL     1     -35.016   5.012   4.457  1.00 20.00     0.007 A 
HETATM    4  C4  UNL     1     -33.008   5.151   3.121  1.00 20.00     0.013 A 
HETATM    5  C5  UNL     1     -33.347   6.450   2.746  1.00 20.00    -0.061 A 
HETATM    6  C6  UNL     1     -33.842   4.432   3.977  1.00 20.00    -0.061 A 
HETATM    7  C7  UNL     1     -32.454   7.220   1.831  1.00 20.00     0.048 C 
HETATM    8  C8  UNL     1     -33.480   3.042   4.378  1.00 20.00     0.048 C 
ENDROOT
TORSDOF 0
ENDMDL
MODEL 5
REMARK VINA RESULT:      -2.0      0.879      2.270
REMARK  0 active torsions:
REMARK  status: ('A' for Active; 'I' for Inactive)
ROOT
HETATM    1  C1  UNL     1     -32.511   5.300   1.662  1.00 20.00     0.001 A 
HETATM    2  C2  UNL     1     -31.976   6.511   1.222  1.00 20.00     0.007 A 
HETATM    3  C3  UNL     1     -33.509   5.292   2.637  1.00 20.00     0.007 A 
HETATM    4  C4  UNL     1     -33.437   7.705   2.730  1.00 20.00     0.013 A 
HETATM    5  C5  UNL     1     -32.439   7.713   1.756  1.00 20.00    -0.061 A 
HETATM    6  C6  UNL     1     -33.973   6.495   3.171  1.00 20.00    -0.061 A 
HETATM    7  C7  UNL     1     -31.868   9.007   1.283  1.00 20.00     0.048 C 
HETATM    8  C8  UNL     1     -35.039   6.487   4.213  1.00 20.00     0.048 C 
ENDROOT
TORSDOF 0
ENDMDL
MODEL 6
REMARK VINA RESULT:      -2.0      0.879      3.448
REMARK  0 active torsions:
REMARK  status: ('A' for Active; 'I' for Inactive)
ROOT
HETATM    1  C1  UNL     1     -32.511   5.302   1.661  1.00 20.00     0.001 A 
HETATM    2  C2  UNL     1     -33.510   5.294   2.635  1.00 20.00     0.007 A 
HETATM    3  C3  UNL     1     -31.976   6.513   1.221  1.00 20.00     0.007 A 
HETATM    4  C4  UNL     1     -33.437   7.707   2.728  1.00 20.00     0.013 A 
HETATM    5  C5  UNL     1     -33.973   6.497   3.169  1.00 20.00    -0.061 A 
HETATM    6  C6  UNL     1     -32.439   7.715   1.755  1.00 20.00    -0.061 A 
HETATM    7  C7  UNL     1     -35.040   6.488   4.211  1.00 20.00     0.048 C 
HETATM    8  C8  UNL     1     -31.867   9.009   1.284  1.00 20.00     0.048 C 
ENDROOT
TORSDOF 0
ENDMDL
MODEL 7
REMARK VINA RESULT:      -0.6      0.821      2.570
REMARK  0 active torsions:
REMARK  status: ('A' for Active; 'I' for Inactive)
ROOT
HETATM    1  C1  UNL     1     -33.826   6.621   3.392  1.00 20.00     0.001 A 
HETATM    2  C2  UNL     1     -33.400   5.512   2.660  1.00 20.00     0.007 A 
HETATM    3  C3  UNL     1     -33.399   7.900   3.032  1.00 20.00     0.007 A 
HETATM    4  C4  UNL     1     -32.121   6.961   1.210  1.00 20.00     0.013 A 
HETATM    5  C5  UNL     1     -32.547   5.683   1.569  1.00 20.00    -0.061 A 
HETATM    6  C6  UNL     1     -32.547   8.070   1.941  1.00 20.00    -0.061 A 
HETATM    7  C7  UNL     1     -32.093   4.497   0.786  1.00 20.00     0.048 C 
HETATM    8  C8  UNL     1     -32.091   9.437   1.557  1.00 20.00     0.048 C 
ENDROOT
TORSDOF 0
ENDMDL
MODEL 8
REMARK VINA RESULT:      -0.6      0.813      3.092
REMARK  0 active torsions:
REMARK  status: ('A' for Active; 'I' for Inactive)
ROOT
HETATM    1  C1  UNL     1     -33.826   6.591   3.401  1.00 20.00     0.001 A 
HETATM    2  C2  UNL     1     -33.409   7.875   3.048  1.00 20.00     0.007 A 
HETATM    3  C3  UNL     1     -33.390   5.489   2.665  1.00 20.00     0.007 A 
HETATM    4  C4  UNL     1     -32.121   6.954   1.224  1.00 20.00     0.013 A 
HETATM    5  C5  UNL     1     -32.556   8.056   1.959  1.00 20.00    -0.061 A 
HETATM    6  C6  UNL     1     -32.537   5.670   1.576  1.00 20.00    -0.061 A 
HETATM    7  C7  UNL     1     -32.110   9.428   1.583  1.00 20.00     0.048 C 
HETATM    8  C8  UNL     1     -32.072   4.492   0.790  1.00 20.00     0.048 C 
ENDROOT
TORSDOF 0
ENDMDL
MODEL 9
REMARK VINA RESULT:      -0.1      1.312      2.426
REMARK  0 active torsions:
REMARK  status: ('A' for Active; 'I' for Inactive)
ROOT
HETATM    1  C1  UNL     1     -32.662   6.112   1.622  1.00 20.00     0.001 A 
HETATM    2  C2  UNL     1     -32.877   4.870   2.219  1.00 20.00     0.007 A 
HETATM    3  C3  UNL     1     -33.114   7.275   2.247  1.00 20.00     0.007 A 
HETATM    4  C4  UNL     1     -33.996   5.954   4.067  1.00 20.00     0.013 A 
HETATM    5  C5  UNL     1     -33.545   4.792   3.442  1.00 20.00    -0.061 A 
HETATM    6  C6  UNL     1     -33.780   7.196   3.470  1.00 20.00    -0.061 A 
HETATM    7  C7  UNL     1     -33.773   3.463   4.081  1.00 20.00     0.048 C 
HETATM    8  C8  UNL     1     -34.263   8.438   4.137  1.00 20.00     0.048 C 
ENDROOT
TORSDOF 0
ENDMDL
