MODEL 1
REMARK VINA RESULT:      -2.8      0.000      0.000
REMARK  1 active torsions:
REMARK  status: ('A' for Active; 'I' for Inactive)
REMARK    1  A    between atoms: C2_2  and  C8_8 
ROOT
HETATM    1  C1  UNL     1     -33.089   6.170   2.249  1.00 20.00    -0.081 C 
HETATM    2  C2  UNL     1     -32.773   7.435   2.566  1.00 20.00    -0.078 C 
HETATM    3  C3  UNL     1     -34.122   5.613   3.184  1.00 20.00     0.034 C 
HETATM    4  C4  UNL     1     -33.548   7.910   3.758  1.00 20.00     0.034 C 
HETATM    5  C5  UNL     1     -34.639   6.854   3.904  1.00 20.00     0.009 C 
HETATM    6  C6  UNL     1     -32.542   5.305   1.168  1.00 20.00     0.043 C 
ENDROOT
BRANCH   2   7
HETATM    7  C8  UNL     1     -31.782   8.346   1.929  1.00 20.00     0.030 C 
HETATM    8  C7  UNL     1     -32.424   9.127   0.799  1.00 20.00     0.010 C 
ENDBRANCH   2   7
TORSDOF 1
ENDMDL
MODEL 2
REMARK VINA RESULT:      -2.2      1.113      3.874
REMARK  1 active torsions:
REMARK  status: ('A' for Active; 'I' for Inactive)
REMARK    1  A    between atoms: C2_2  and  C8_8 
ROOT
HETATM    1  C1  UNL     1     -33.335   7.360   3.515  1.00 20.00    -0.081 C 
HETATM    2  C2  UNL     1     -33.675   6.114   3.152  1.00 20.00    -0.078 C 
HETATM    3  C3  UNL     1     -32.348   7.959   2.557  1.00 20.00     0.034 C 
HETATM    4  C4  UNL     1     -32.965   5.696   1.899  1.00 20.00     0.034 C 
HETATM    5  C5  UNL     1     -32.406   7.011   1.364  1.00 20.00     0.009 C 
HETATM    6  C6  UNL     1     -33.774   8.148   4.699  1.00 20.00     0.043 C 
ENDROOT
BRANCH   2   7
HETATM    7  C8  UNL     1     -34.590   5.153   3.827  1.00 20.00     0.030 C 
HETATM    8  C7  UNL     1     -33.849   3.886   4.207  1.00 20.00     0.010 C 
ENDBRANCH   2   7
TORSDOF 1
ENDMDL
MODEL 3
REMARK VINA RESULT:      -2.1      1.288      3.422
REMARK  1 active torsions:
REMARK  status: ('A' for Active; 'I' for Inactive)
REMARK    1  A    between atoms: C2_2  and  C8_8 
ROOT
HETATM    1  C1  UNL     1     -33.201   6.039   2.549  1.00 20.00    -0.081 C 
HETATM    2  C2  UNL     1     -33.959   5.354   3.419  1.00 20.00    -0.078 C 
HETATM    3  C3  UNL     1     -33.416   7.517   2.681  1.00 20.00     0.034 C 
HETATM    4  C4  UNL     1     -34.793   6.274   4.260  1.00 20.00     0.034 C 
HETATM    5  C5  UNL     1     -34.165   7.640   4.004  1.00 20.00     0.009 C 
HETATM    6  C6  UNL     1     -32.258   5.528   1.516  1.00 20.00     0.043 C 
ENDROOT
BRANCH   2   7
HETATM    7  C8  UNL     1     -34.081   3.882   3.607  1.00 20.00     0.030 C 
HETATM    8  C7  UNL     1     -33.252   3.424   4.792  1.00 20.00     0.010 C 
ENDBRANCH   2   7
TORSDOF 1
ENDMDL
MODEL 4
REMARK VINA RESULT:      -2.1      0.943      3.160
REMARK  1 active torsions:
REMARK  status: ('A' for Active; 'I' for Inactive)
REMARK    1  A    between atoms: C2_2  and  C8_8 
ROOT
HETATM    1  C1  UNL     1     -33.058   6.385   2.241  1.00 20.00    -0.081 C 
HETATM    2  C2  UNL     1     -33.868   6.363   3.310  1.00 20.00    -0.078 C 
HETATM    3  C3  UNL     1     -32.369   7.711   2.104  1.00 20.00     0.034 C 
HETATM    4  C4  UNL     1     -33.840   7.671   4.044  1.00 20.00     0.034 C 
HETATM    5  C5  UNL     1     -32.622   8.373   3.454  1.00 20.00     0.009 C 
HETATM    6  C6  UNL     1     -32.808   5.325   1.227  1.00 20.00     0.043 C 
ENDROOT
BRANCH   2   7
HETATM    7  C8  UNL     1     -34.756   5.271   3.797  1.00 20.00     0.030 C 
HETATM    8  C7  UNL     1     -33.937   4.074   4.238  1.00 20.00     0.010 C 
ENDBRANCH   2   7
TORSDOF 1
ENDMDL
MODEL 5
REMARK VINA RESULT:      -2.0      0.619      2.222
REMARK  1 active torsions:
REMARK  status: ('A' for Active; 'I' for Inactive)
REMARK    1  A    between atoms: C2_2  and  C8_8 
ROOT
HETATM    1  C1  UNL     1     -33.517   7.269   3.497  1.00 20.00    -0.081 C 
HETATM    2  C2  UNL     1     -32.722   7.231   2.417  1.00 20.00    -0.078 C 
HETATM    3  C3  UNL     1     -34.371   6.040   3.591  1.00 20.00     0.034 C 
HETATM    4  C4  UNL     1     -32.929   5.972   1.630  1.00 20.00     0.034 C 
HETATM    5  C5  UNL     1     -33.722   5.091   2.589  1.00 20.00     0.009 C 
HETATM    6  C6  UNL     1     -33.659   8.336   4.525  1.00 20.00     0.043 C 
ENDROOT
BRANCH   2   7
HETATM    7  C8  UNL     1     -31.749   8.247   1.928  1.00 20.00     0.030 C 
HETATM    8  C7  UNL     1     -32.363   9.088   0.826  1.00 20.00     0.010 C 
ENDBRANCH   2   7
TORSDOF 1
ENDMDL
MODEL 6
REMARK VINA RESULT:      -1.9      1.375      2.248
REMARK  1 active torsions:
REMARK  status: ('A' for Active; 'I' for Inactive)
REMARK    1  A    between atoms: C2_2  and  C8_8 
ROOT
HETATM    1  C1  UNL     1     -33.980   4.677   3.758  1.00 20.00    -0.081 C 
HETATM    2  C2  UNL     1     -33.581   5.668   2.947  1.00 20.00    -0.078 C 
HETATM    3  C3  UNL     1     -35.100   5.119   4.654  1.00 20.00     0.034 C 
HETATM    4  C4  UNL     1     -34.375   6.919   3.181  1.00 20.00     0.034 C 
HETATM    5  C5  UNL     1     -35.553   6.429   4.018  1.00 20.00     0.009 C 
HETATM    6  C6  UNL     1     -33.450   3.291   3.883  1.00 20.00     0.043 C 
ENDROOT
BRANCH   2   7
HETATM    7  C8  UNL     1     -32.491   5.675   1.934  1.00 20.00     0.030 C 
HETATM    8  C7  UNL     1     -32.069   7.095   1.612  1.00 20.00     0.010 C 
ENDBRANCH   2   7
TORSDOF 1
ENDMDL
MODEL 7
REMARK VINA RESULT:      -1.8      0.829      3.305
REMARK  1 active torsions:
REMARK  status: ('A' for Active; 'I' for Inactive)
REMARK    1  A    between atoms: C2_2  and  C8_8 
ROOT
HETATM    1  C1  UNL     1     -32.478   7.359   1.911  1.00 20.00    -0.081 C 
HETATM    2  C2  UNL     1     -33.343   6.743   2.730  1.00 20.00    -0.078 C 
HETATM    3  C3  UNL     1     -31.758   6.376   1.036  1.00 20.00     0.034 C 
HETATM    4  C4  UNL     1     -33.329   5.258   2.525  1.00 20.00     0.034 C 
HETATM    5  C5  UNL     1     -32.573   5.099   1.210  1.00 20.00     0.009 C 
HETATM    6  C6  UNL     1     -32.151   8.807   1.802  1.00 20.00     0.043 C 
ENDROOT
BRANCH   2   7
HETATM    7  C8  UNL     1     -34.232   7.327   3.773  1.00 20.00     0.030 C 
HETATM    8  C7  UNL     1     -35.324   6.347   4.154  1.00 20.00     0.010 C 
ENDBRANCH   2   7
TORSDOF 1
ENDMDL
MODEL 8
REMARK VINA RESULT:      -1.5      1.061      2.841
REMARK  1 active torsions:
REMARK  status: ('A' for Active; 'I' for Inactive)
REMARK    1  A    between atoms: C2_2  and  C8_8 
ROOT
HETATM    1  C1  UNL     1     -33.447   5.662   2.844  1.00 20.00    -0.081 C 
HETATM    2  C2  UNL     1     -33.513   6.972   3.125  1.00 20.00    -0.078 C 
HETATM    3  C3  UNL     1     -32.653   5.409   1.596  1.00 20.00     0.034 C 
HETATM    4  C4  UNL     1     -32.775   7.788   2.107  1.00 20.00     0.034 C 
HETATM    5  C5  UNL     1     -31.955   6.744   1.356  1.00 20.00     0.009 C 
HETATM    6  C6  UNL     1     -34.057   4.511   3.565  1.00 20.00     0.043 C 
ENDROOT
BRANCH   2   7
HETATM    7  C8  UNL     1     -34.218   7.661   4.241  1.00 20.00     0.030 C 
HETATM    8  C7  UNL     1     -33.222   8.305   5.186  1.00 20.00     0.010 C 
ENDBRANCH   2   7
TORSDOF 1
ENDMDL
MODEL 9
REMARK VINA RESULT:      -1.5      1.051      2.916
REMARK  1 active torsions:
REMARK  status: ('A' for Active; 'I' for Inactive)
REMARK    1  A    between atoms: C2_2  and  C8_8 
ROOT
HETATM    1  C1  UNL     1     -33.883   6.767   3.317  1.00 20.00    -0.081 C 
HETATM    2  C2  UNL     1     -33.148   6.507   2.225  1.00 20.00    -0.078 C 
HETATM    3  C3  UNL     1     -33.395   7.997   4.024  1.00 20.00     0.034 C 
HETATM    4  C4  UNL     1     -32.061   7.523   2.041  1.00 20.00     0.034 C 
HETATM    5  C5  UNL     1     -32.467   8.640   2.998  1.00 20.00     0.009 C 
HETATM    6  C6  UNL     1     -35.030   6.007   3.884  1.00 20.00     0.043 C 
ENDROOT
BRANCH   2   7
HETATM    7  C8  UNL     1     -33.264   5.379   1.259  1.00 20.00     0.030 C 
HETATM    8  C7  UNL     1     -31.890   4.882   0.852  1.00 20.00     0.010 C 
ENDBRANCH   2   7
TORSDOF 1
ENDMDL
