MODEL 1
REMARK VINA RESULT:      -1.9      0.000      0.000
REMARK  0 active torsions:
REMARK  status: ('A' for Active; 'I' for Inactive)
ROOT
HETATM    1  C1  UNL     1     -33.871   6.087   3.104  1.00 20.00     0.000 C 
HETATM    2  C2  UNL     1     -33.866   7.554   3.521  1.00 20.00     0.000 C 
HETATM    3  C3  UNL     1     -33.289   5.890   1.709  1.00 20.00     0.000 C 
HETATM    4  C4  UNL     1     -32.473   8.170   3.400  1.00 20.00     0.004 C 
HETATM    5  C5  UNL     1     -31.896   6.505   1.587  1.00 20.00     0.004 C 
HETATM    6  C6  UNL     1     -31.850   7.981   2.010  1.00 20.00    -0.018 C 
HETATM    7  C7  UNL     1     -32.510   8.889   0.967  1.00 20.00     0.010 C 
ENDROOT
TORSDOF 0
ENDMDL
MODEL 2
REMARK VINA RESULT:      -1.5      0.996      3.133
REMARK  0 active torsions:
REMARK  status: ('A' for Active; 'I' for Inactive)
ROOT
HETATM    1  C1  UNL     1     -32.205   7.013   1.792  1.00 20.00     0.000 C 
HETATM    2  C2  UNL     1     -33.070   5.760   1.705  1.00 20.00     0.000 C 
HETATM    3  C3  UNL     1     -32.906   8.138   2.545  1.00 20.00     0.000 C 
HETATM    4  C4  UNL     1     -33.542   5.304   3.085  1.00 20.00     0.004 C 
HETATM    5  C5  UNL     1     -33.377   7.684   3.926  1.00 20.00     0.004 C 
HETATM    6  C6  UNL     1     -34.243   6.416   3.879  1.00 20.00    -0.018 C 
HETATM    7  C7  UNL     1     -35.642   6.707   3.327  1.00 20.00     0.010 C 
ENDROOT
TORSDOF 0
ENDMDL
MODEL 3
REMARK VINA RESULT:      -1.3      0.989      2.600
REMARK  0 active torsions:
REMARK  status: ('A' for Active; 'I' for Inactive)
ROOT
HETATM    1  C1  UNL     1     -32.972   5.753   1.841  1.00 20.00     0.000 C 
HETATM    2  C2  UNL     1     -32.247   7.090   1.947  1.00 20.00     0.000 C 
HETATM    3  C3  UNL     1     -33.677   5.384   3.142  1.00 20.00     0.000 C 
HETATM    4  C4  UNL     1     -33.183   8.203   2.415  1.00 20.00     0.004 C 
HETATM    5  C5  UNL     1     -34.614   6.496   3.611  1.00 20.00     0.004 C 
HETATM    6  C6  UNL     1     -33.920   7.862   3.718  1.00 20.00    -0.018 C 
HETATM    7  C7  UNL     1     -32.985   7.927   4.930  1.00 20.00     0.010 C 
ENDROOT
TORSDOF 0
ENDMDL
MODEL 4
REMARK VINA RESULT:      -1.2      0.908      2.834
REMARK  0 active torsions:
REMARK  status: ('A' for Active; 'I' for Inactive)
ROOT
HETATM    1  C1  UNL     1     -32.406   7.983   2.544  1.00 20.00     0.000 C 
HETATM    2  C2  UNL     1     -33.213   7.798   3.825  1.00 20.00     0.000 C 
HETATM    3  C3  UNL     1     -32.060   6.648   1.892  1.00 20.00     0.000 C 
HETATM    4  C4  UNL     1     -34.461   6.949   3.587  1.00 20.00     0.004 C 
HETATM    5  C5  UNL     1     -33.307   5.798   1.653  1.00 20.00     0.004 C 
HETATM    6  C6  UNL     1     -34.153   5.600   2.920  1.00 20.00    -0.018 C 
HETATM    7  C7  UNL     1     -33.488   4.626   3.896  1.00 20.00     0.010 C 
ENDROOT
TORSDOF 0
ENDMDL
MODEL 5
REMARK VINA RESULT:      -1.1      0.936      2.347
REMARK  0 active torsions:
REMARK  status: ('A' for Active; 'I' for Inactive)
ROOT
HETATM    1  C1  UNL     1     -33.502   7.759   3.647  1.00 20.00     0.000 C 
HETATM    2  C2  UNL     1     -32.761   8.121   2.363  1.00 20.00     0.000 C 
HETATM    3  C3  UNL     1     -34.322   6.483   3.490  1.00 20.00     0.000 C 
HETATM    4  C4  UNL     1     -31.905   6.960   1.860  1.00 20.00     0.004 C 
HETATM    5  C5  UNL     1     -33.467   5.321   2.988  1.00 20.00     0.004 C 
HETATM    6  C6  UNL     1     -32.696   5.654   1.701  1.00 20.00    -0.018 C 
HETATM    7  C7  UNL     1     -33.623   5.699   0.483  1.00 20.00     0.010 C 
ENDROOT
TORSDOF 0
ENDMDL
MODEL 6
REMARK VINA RESULT:      -1.0      1.755      3.136
REMARK  0 active torsions:
REMARK  status: ('A' for Active; 'I' for Inactive)
ROOT
HETATM    1  C1  UNL     1     -34.060   4.312   3.529  1.00 20.00     0.000 C 
HETATM    2  C2  UNL     1     -32.902   5.191   3.068  1.00 20.00     0.000 C 
HETATM    3  C3  UNL     1     -34.956   5.032   4.531  1.00 20.00     0.000 C 
HETATM    4  C4  UNL     1     -33.394   6.531   2.523  1.00 20.00     0.004 C 
HETATM    5  C5  UNL     1     -35.449   6.371   3.987  1.00 20.00     0.004 C 
HETATM    6  C6  UNL     1     -34.310   7.280   3.502  1.00 20.00    -0.018 C 
HETATM    7  C7  UNL     1     -33.521   7.871   4.674  1.00 20.00     0.010 C 
ENDROOT
TORSDOF 0
ENDMDL
MODEL 7
REMARK VINA RESULT:      -0.7      0.772      2.431
REMARK  0 active torsions:
REMARK  status: ('A' for Active; 'I' for Inactive)
ROOT
HETATM    1  C1  UNL     1     -33.721   7.759   3.920  1.00 20.00     0.000 C 
HETATM    2  C2  UNL     1     -34.143   6.331   3.591  1.00 20.00     0.000 C 
HETATM    3  C3  UNL     1     -32.376   8.114   3.296  1.00 20.00     0.000 C 
HETATM    4  C4  UNL     1     -34.136   6.075   2.084  1.00 20.00     0.004 C 
HETATM    5  C5  UNL     1     -32.369   7.859   1.789  1.00 20.00     0.004 C 
HETATM    6  C6  UNL     1     -32.800   6.432   1.418  1.00 20.00    -0.018 C 
HETATM    7  C7  UNL     1     -31.711   5.408   1.753  1.00 20.00     0.010 C 
ENDROOT
TORSDOF 0
ENDMDL
MODEL 8
REMARK VINA RESULT:      -0.4      1.057      2.302
REMARK  0 active torsions:
REMARK  status: ('A' for Active; 'I' for Inactive)
ROOT
HETATM    1  C1  UNL     1     -34.428   5.981   3.797  1.00 20.00     0.000 C 
HETATM    2  C2  UNL     1     -33.337   5.395   2.907  1.00 20.00     0.000 C 
HETATM    3  C3  UNL     1     -34.149   7.437   4.156  1.00 20.00     0.000 C 
HETATM    4  C4  UNL     1     -33.107   6.248   1.661  1.00 20.00     0.004 C 
HETATM    5  C5  UNL     1     -33.920   8.291   2.910  1.00 20.00     0.004 C 
HETATM    6  C6  UNL     1     -32.834   7.724   1.983  1.00 20.00    -0.018 C 
HETATM    7  C7  UNL     1     -31.432   7.925   2.566  1.00 20.00     0.010 C 
ENDROOT
TORSDOF 0
ENDMDL
MODEL 9
REMARK VINA RESULT:      -0.4      1.785      2.471
REMARK  0 active torsions:
REMARK  status: ('A' for Active; 'I' for Inactive)
ROOT
HETATM    1  C1  UNL     1     -35.215   5.222   4.576  1.00 20.00     0.000 C 
HETATM    2  C2  UNL     1     -35.350   6.519   3.786  1.00 20.00     0.000 C 
HETATM    3  C3  UNL     1     -34.289   4.227   3.882  1.00 20.00     0.000 C 
HETATM    4  C4  UNL     1     -33.986   7.138   3.481  1.00 20.00     0.004 C 
HETATM    5  C5  UNL     1     -32.925   4.845   3.577  1.00 20.00     0.004 C 
HETATM    6  C6  UNL     1     -33.023   6.161   2.792  1.00 20.00    -0.018 C 
HETATM    7  C7  UNL     1     -33.412   5.920   1.330  1.00 20.00     0.010 C 
ENDROOT
TORSDOF 0
ENDMDL
