MODEL 1
REMARK VINA RESULT:      -2.9      0.000      0.000
REMARK  3 active torsions:
REMARK  status: ('A' for Active; 'I' for Inactive)
REMARK    1  A    between atoms: C6_6  and  C8_8 
REMARK    2  A    between atoms: C8_8  and  C10_10 
REMARK    3  A    between atoms: C9_9  and  C10_10 
ROOT
HETATM    1  C1  UNL     1     -35.108   5.422   4.396  1.00 20.00     0.000 A 
HETATM    2  C2  UNL     1     -34.247   4.512   3.784  1.00 20.00     0.001 A 
HETATM    3  C3  UNL     1     -35.017   6.781   4.094  1.00 20.00     0.001 A 
HETATM    4  C4  UNL     1     -33.294   4.960   2.868  1.00 20.00     0.007 A 
HETATM    5  C5  UNL     1     -34.064   7.229   3.179  1.00 20.00     0.007 A 
HETATM    6  C6  UNL     1     -33.204   6.319   2.566  1.00 20.00    -0.058 A 
ENDROOT
BRANCH   6   7
HETATM    7  C8  UNL     1     -32.174   6.804   1.577  1.00 20.00     0.038 C 
BRANCH   7   8
HETATM    8  C10 UNL     1     -31.975   8.319   1.670  1.00 20.00     0.004 C 
BRANCH   8   9
HETATM    9  C9  UNL     1     -31.932   8.959   0.282  1.00 20.00    -0.004 C 
HETATM   10  C7  UNL     1     -32.629  10.310   0.269  1.00 20.00     0.005 C 
ENDBRANCH   8   9
ENDBRANCH   7   8
ENDBRANCH   6   7
TORSDOF 3
ENDMDL
MODEL 2
REMARK VINA RESULT:      -2.9      0.033      1.528
REMARK  3 active torsions:
REMARK  status: ('A' for Active; 'I' for Inactive)
REMARK    1  A    between atoms: C6_6  and  C8_8 
REMARK    2  A    between atoms: C8_8  and  C10_10 
REMARK    3  A    between atoms: C9_9  and  C10_10 
ROOT
HETATM    1  C1  UNL     1     -35.101   5.435   4.395  1.00 20.00     0.000 A 
HETATM    2  C2  UNL     1     -35.009   6.796   4.103  1.00 20.00     0.001 A 
HETATM    3  C3  UNL     1     -34.240   4.530   3.775  1.00 20.00     0.001 A 
HETATM    4  C4  UNL     1     -34.055   7.252   3.192  1.00 20.00     0.007 A 
HETATM    5  C5  UNL     1     -33.287   4.985   2.864  1.00 20.00     0.007 A 
HETATM    6  C6  UNL     1     -33.194   6.346   2.573  1.00 20.00    -0.058 A 
ENDROOT
BRANCH   6   7
HETATM    7  C8  UNL     1     -32.164   6.837   1.588  1.00 20.00     0.038 C 
BRANCH   7   8
HETATM    8  C10 UNL     1     -31.973   8.353   1.684  1.00 20.00     0.004 C 
BRANCH   8   9
HETATM    9  C9  UNL     1     -31.939   8.997   0.297  1.00 20.00    -0.004 C 
HETATM   10  C7  UNL     1     -32.616  10.357   0.298  1.00 20.00     0.005 C 
ENDBRANCH   8   9
ENDBRANCH   7   8
ENDBRANCH   6   7
TORSDOF 3
ENDMDL
MODEL 3
REMARK VINA RESULT:      -2.7      1.389      4.622
REMARK  3 active torsions:
REMARK  status: ('A' for Active; 'I' for Inactive)
REMARK    1  A    between atoms: C6_6  and  C8_8 
REMARK    2  A    between atoms: C8_8  and  C10_10 
REMARK    3  A    between atoms: C9_9  and  C10_10 
ROOT
HETATM    1  C1  UNL     1     -31.814   7.679   1.870  1.00 20.00     0.000 A 
HETATM    2  C2  UNL     1     -32.399   6.501   1.404  1.00 20.00     0.001 A 
HETATM    3  C3  UNL     1     -32.338   8.321   2.992  1.00 20.00     0.001 A 
HETATM    4  C4  UNL     1     -33.507   5.965   2.060  1.00 20.00     0.007 A 
HETATM    5  C5  UNL     1     -33.446   7.784   3.648  1.00 20.00     0.007 A 
HETATM    6  C6  UNL     1     -34.030   6.607   3.182  1.00 20.00    -0.058 A 
ENDROOT
BRANCH   6   7
HETATM    7  C8  UNL     1     -35.229   6.028   3.891  1.00 20.00     0.038 C 
BRANCH   7   8
HETATM    8  C10 UNL     1     -34.856   4.782   4.699  1.00 20.00     0.004 C 
BRANCH   8   9
HETATM    9  C9  UNL     1     -33.869   3.900   3.934  1.00 20.00    -0.004 C 
HETATM   10  C7  UNL     1     -33.153   2.932   4.861  1.00 20.00     0.005 C 
ENDBRANCH   8   9
ENDBRANCH   7   8
ENDBRANCH   6   7
TORSDOF 3
ENDMDL
MODEL 4
REMARK VINA RESULT:      -2.6      1.383      4.822
REMARK  3 active torsions:
REMARK  status: ('A' for Active; 'I' for Inactive)
REMARK    1  A    between atoms: C6_6  and  C8_8 
REMARK    2  A    between atoms: C8_8  and  C10_10 
REMARK    3  A    between atoms: C9_9  and  C10_10 
ROOT
HETATM    1  C1  UNL     1     -31.849   7.689   1.856  1.00 20.00     0.000 A 
HETATM    2  C2  UNL     1     -32.386   8.335   2.970  1.00 20.00     0.001 A 
HETATM    3  C3  UNL     1     -32.412   6.496   1.403  1.00 20.00     0.001 A 
HETATM    4  C4  UNL     1     -33.486   7.788   3.632  1.00 20.00     0.007 A 
HETATM    5  C5  UNL     1     -33.513   5.950   2.064  1.00 20.00     0.007 A 
HETATM    6  C6  UNL     1     -34.049   6.595   3.178  1.00 20.00    -0.058 A 
ENDROOT
BRANCH   6   7
HETATM    7  C8  UNL     1     -35.238   6.003   3.892  1.00 20.00     0.038 C 
BRANCH   7   8
HETATM    8  C10 UNL     1     -34.844   4.777   4.719  1.00 20.00     0.004 C 
BRANCH   8   9
HETATM    9  C9  UNL     1     -33.871   3.880   3.953  1.00 20.00    -0.004 C 
HETATM   10  C7  UNL     1     -33.134   2.934   4.885  1.00 20.00     0.005 C 
ENDBRANCH   8   9
ENDBRANCH   7   8
ENDBRANCH   6   7
TORSDOF 3
ENDMDL
MODEL 5
REMARK VINA RESULT:      -2.5      0.859      1.909
REMARK  3 active torsions:
REMARK  status: ('A' for Active; 'I' for Inactive)
REMARK    1  A    between atoms: C6_6  and  C8_8 
REMARK    2  A    between atoms: C8_8  and  C10_10 
REMARK    3  A    between atoms: C9_9  and  C10_10 
ROOT
HETATM    1  C1  UNL     1     -34.549   5.883   3.667  1.00 20.00     0.000 A 
HETATM    2  C2  UNL     1     -34.393   7.184   4.146  1.00 20.00     0.001 A 
HETATM    3  C3  UNL     1     -33.791   5.444   2.583  1.00 20.00     0.001 A 
HETATM    4  C4  UNL     1     -33.478   8.046   3.541  1.00 20.00     0.007 A 
HETATM    5  C5  UNL     1     -32.876   6.305   1.977  1.00 20.00     0.007 A 
HETATM    6  C6  UNL     1     -32.719   7.605   2.456  1.00 20.00    -0.058 A 
ENDROOT
BRANCH   6   7
HETATM    7  C8  UNL     1     -31.730   8.536   1.800  1.00 20.00     0.038 C 
BRANCH   7   8
HETATM    8  C10 UNL     1     -31.812   8.458   0.273  1.00 20.00     0.004 C 
BRANCH   8   9
HETATM    9  C9  UNL     1     -32.571   9.654  -0.303  1.00 20.00    -0.004 C 
HETATM   10  C7  UNL     1     -32.682  10.783   0.709  1.00 20.00     0.005 C 
ENDBRANCH   8   9
ENDBRANCH   7   8
ENDBRANCH   6   7
TORSDOF 3
ENDMDL
MODEL 6
REMARK VINA RESULT:      -1.7      1.164      4.557
REMARK  3 active torsions:
REMARK  status: ('A' for Active; 'I' for Inactive)
REMARK    1  A    between atoms: C6_6  and  C8_8 
REMARK    2  A    between atoms: C8_8  and  C10_10 
REMARK    3  A    between atoms: C9_9  and  C10_10 
ROOT
HETATM    1  C1  UNL     1     -31.491   7.392   0.869  1.00 20.00     0.000 A 
HETATM    2  C2  UNL     1     -32.210   6.218   1.091  1.00 20.00     0.001 A 
HETATM    3  C3  UNL     1     -31.680   8.495   1.702  1.00 20.00     0.001 A 
HETATM    4  C4  UNL     1     -33.118   6.145   2.148  1.00 20.00     0.007 A 
HETATM    5  C5  UNL     1     -32.588   8.422   2.758  1.00 20.00     0.007 A 
HETATM    6  C6  UNL     1     -33.306   7.248   2.981  1.00 20.00    -0.058 A 
ENDROOT
BRANCH   6   7
HETATM    7  C8  UNL     1     -34.288   7.171   4.123  1.00 20.00     0.038 C 
BRANCH   7   8
HETATM    8  C10 UNL     1     -35.388   6.141   3.851  1.00 20.00     0.004 C 
BRANCH   8   9
HETATM    9  C9  UNL     1     -35.236   4.916   4.754  1.00 20.00    -0.004 C 
HETATM   10  C7  UNL     1     -34.099   4.021   4.291  1.00 20.00     0.005 C 
ENDBRANCH   8   9
ENDBRANCH   7   8
ENDBRANCH   6   7
TORSDOF 3
ENDMDL
MODEL 7
REMARK VINA RESULT:      -1.7      1.245      4.767
REMARK  3 active torsions:
REMARK  status: ('A' for Active; 'I' for Inactive)
REMARK    1  A    between atoms: C6_6  and  C8_8 
REMARK    2  A    between atoms: C8_8  and  C10_10 
REMARK    3  A    between atoms: C9_9  and  C10_10 
ROOT
HETATM    1  C1  UNL     1     -31.489   7.345   1.036  1.00 20.00     0.000 A 
HETATM    2  C2  UNL     1     -31.646   8.400   1.935  1.00 20.00     0.001 A 
HETATM    3  C3  UNL     1     -32.299   6.215   1.139  1.00 20.00     0.001 A 
HETATM    4  C4  UNL     1     -32.615   8.325   2.937  1.00 20.00     0.007 A 
HETATM    5  C5  UNL     1     -33.268   6.140   2.141  1.00 20.00     0.007 A 
HETATM    6  C6  UNL     1     -33.425   7.195   3.039  1.00 20.00    -0.058 A 
ENDROOT
BRANCH   6   7
HETATM    7  C8  UNL     1     -34.472   7.113   4.122  1.00 20.00     0.038 C 
BRANCH   7   8
HETATM    8  C10 UNL     1     -35.401   5.914   3.915  1.00 20.00     0.004 C 
BRANCH   8   9
HETATM    9  C9  UNL     1     -35.034   4.760   4.848  1.00 20.00    -0.004 C 
HETATM   10  C7  UNL     1     -33.981   3.856   4.228  1.00 20.00     0.005 C 
ENDBRANCH   8   9
ENDBRANCH   7   8
ENDBRANCH   6   7
TORSDOF 3
ENDMDL
MODEL 8
REMARK VINA RESULT:      -0.7      0.914      4.770
REMARK  3 active torsions:
REMARK  status: ('A' for Active; 'I' for Inactive)
REMARK    1  A    between atoms: C6_6  and  C8_8 
REMARK    2  A    between atoms: C8_8  and  C10_10 
REMARK    3  A    between atoms: C9_9  and  C10_10 
ROOT
HETATM    1  C1  UNL     1     -31.992   9.859  -0.127  1.00 20.00     0.000 A 
HETATM    2  C2  UNL     1     -31.366   8.617  -0.027  1.00 20.00     0.001 A 
HETATM    3  C3  UNL     1     -32.898  10.265   0.853  1.00 20.00     0.001 A 
HETATM    4  C4  UNL     1     -31.645   7.780   1.054  1.00 20.00     0.007 A 
HETATM    5  C5  UNL     1     -33.176   9.428   1.934  1.00 20.00     0.007 A 
HETATM    6  C6  UNL     1     -32.550   8.187   2.034  1.00 20.00    -0.058 A 
ENDROOT
BRANCH   6   7
HETATM    7  C8  UNL     1     -32.852   7.282   3.203  1.00 20.00     0.038 C 
BRANCH   7   8
HETATM    8  C10 UNL     1     -34.203   7.620   3.841  1.00 20.00     0.004 C 
BRANCH   8   9
HETATM    9  C9  UNL     1     -35.077   6.374   3.980  1.00 20.00    -0.004 C 
HETATM   10  C7  UNL     1     -34.283   5.104   3.724  1.00 20.00     0.005 C 
ENDBRANCH   8   9
ENDBRANCH   7   8
ENDBRANCH   6   7
TORSDOF 3
ENDMDL
MODEL 9
REMARK VINA RESULT:      -0.7      0.922      4.987
REMARK  3 active torsions:
REMARK  status: ('A' for Active; 'I' for Inactive)
REMARK    1  A    between atoms: C6_6  and  C8_8 
REMARK    2  A    between atoms: C8_8  and  C10_10 
REMARK    3  A    between atoms: C9_9  and  C10_10 
ROOT
HETATM    1  C1  UNL     1     -31.961   9.861  -0.142  1.00 20.00     0.000 A 
HETATM    2  C2  UNL     1     -32.853  10.279   0.846  1.00 20.00     0.001 A 
HETATM    3  C3  UNL     1     -31.353   8.610  -0.047  1.00 20.00     0.001 A 
HETATM    4  C4  UNL     1     -33.136   9.446   1.929  1.00 20.00     0.007 A 
HETATM    5  C5  UNL     1     -31.637   7.776   1.035  1.00 20.00     0.007 A 
HETATM    6  C6  UNL     1     -32.528   8.194   2.022  1.00 20.00    -0.058 A 
ENDROOT
BRANCH   6   7
HETATM    7  C8  UNL     1     -32.833   7.293   3.193  1.00 20.00     0.038 C 
BRANCH   7   8
HETATM    8  C10 UNL     1     -34.164   7.662   3.854  1.00 20.00     0.004 C 
BRANCH   8   9
HETATM    9  C9  UNL     1     -35.054   6.432   4.032  1.00 20.00    -0.004 C 
HETATM   10  C7  UNL     1     -34.309   5.151   3.695  1.00 20.00     0.005 C 
ENDBRANCH   8   9
ENDBRANCH   7   8
ENDBRANCH   6   7
TORSDOF 3
ENDMDL
