MODEL 1
REMARK VINA RESULT:      -1.8      0.000      0.000
REMARK  5 active torsions:
REMARK  status: ('A' for Active; 'I' for Inactive)
REMARK    1  A    between atoms: C6_6  and  C8_8 
REMARK    2  A    between atoms: C8_8  and  C10_10 
REMARK    3  A    between atoms: C9_9  and  C11_11 
REMARK    4  A    between atoms: C10_10  and  C12_12 
REMARK    5  A    between atoms: C11_11  and  C12_12 
ROOT
HETATM    1  C1  UNL     1     -35.219   5.072   4.741  1.00 20.00     0.000 A 
HETATM    2  C2  UNL     1     -34.273   4.156   4.281  1.00 20.00     0.001 A 
HETATM    3  C3  UNL     1     -35.327   6.326   4.136  1.00 20.00     0.001 A 
HETATM    4  C4  UNL     1     -33.436   4.493   3.218  1.00 20.00     0.007 A 
HETATM    5  C5  UNL     1     -34.490   6.662   3.073  1.00 20.00     0.007 A 
HETATM    6  C6  UNL     1     -33.544   5.746   2.613  1.00 20.00    -0.058 A 
ENDROOT
BRANCH   6   7
HETATM    7  C8  UNL     1     -32.645   6.107   1.472  1.00 20.00     0.038 C 
BRANCH   7   8
HETATM    8  C10 UNL     1     -31.562   7.101   1.896  1.00 20.00     0.005 C 
BRANCH   8   9
HETATM    9  C12 UNL     1     -31.952   8.535   1.532  1.00 20.00     0.000 C 
BRANCH   9  10
HETATM   10  C11 UNL     1     -31.820   8.784   0.030  1.00 20.00    -0.000 C 
BRANCH  10  11
HETATM   11  C9  UNL     1     -32.650   9.990  -0.409  1.00 20.00    -0.005 C 
HETATM   12  C7  UNL     1     -32.880  10.957   0.742  1.00 20.00     0.005 C 
ENDBRANCH  10  11
ENDBRANCH   9  10
ENDBRANCH   8   9
ENDBRANCH   7   8
ENDBRANCH   6   7
TORSDOF 5
ENDMDL
MODEL 2
REMARK VINA RESULT:      -1.8      0.068      1.396
REMARK  5 active torsions:
REMARK  status: ('A' for Active; 'I' for Inactive)
REMARK    1  A    between atoms: C6_6  and  C8_8 
REMARK    2  A    between atoms: C8_8  and  C10_10 
REMARK    3  A    between atoms: C9_9  and  C11_11 
REMARK    4  A    between atoms: C10_10  and  C12_12 
REMARK    5  A    between atoms: C11_11  and  C12_12 
ROOT
HETATM    1  C1  UNL     1     -35.249   5.173   4.712  1.00 20.00     0.000 A 
HETATM    2  C2  UNL     1     -35.312   6.419   4.089  1.00 20.00     0.001 A 
HETATM    3  C3  UNL     1     -34.312   4.229   4.288  1.00 20.00     0.001 A 
HETATM    4  C4  UNL     1     -34.440   6.723   3.045  1.00 20.00     0.007 A 
HETATM    5  C5  UNL     1     -33.441   4.532   3.243  1.00 20.00     0.007 A 
HETATM    6  C6  UNL     1     -33.503   5.779   2.621  1.00 20.00    -0.058 A 
ENDROOT
BRANCH   6   7
HETATM    7  C8  UNL     1     -32.568   6.104   1.499  1.00 20.00     0.038 C 
BRANCH   7   8
HETATM    8  C10 UNL     1     -31.519   7.137   1.915  1.00 20.00     0.005 C 
BRANCH   8   9
HETATM    9  C12 UNL     1     -31.949   8.552   1.526  1.00 20.00     0.000 C 
BRANCH   9  10
HETATM   10  C11 UNL     1     -31.830   8.776   0.018  1.00 20.00    -0.000 C 
BRANCH  10  11
HETATM   11  C9  UNL     1     -32.656   9.980  -0.433  1.00 20.00    -0.005 C 
HETATM   12  C7  UNL     1     -32.869  10.967   0.705  1.00 20.00     0.005 C 
ENDBRANCH  10  11
ENDBRANCH   9  10
ENDBRANCH   8   9
ENDBRANCH   7   8
ENDBRANCH   6   7
TORSDOF 5
ENDMDL
MODEL 3
REMARK VINA RESULT:      -1.5      1.522      5.493
REMARK  5 active torsions:
REMARK  status: ('A' for Active; 'I' for Inactive)
REMARK    1  A    between atoms: C6_6  and  C8_8 
REMARK    2  A    between atoms: C8_8  and  C10_10 
REMARK    3  A    between atoms: C9_9  and  C11_11 
REMARK    4  A    between atoms: C10_10  and  C12_12 
REMARK    5  A    between atoms: C11_11  and  C12_12 
ROOT
HETATM    1  C1  UNL     1     -31.563   7.453   1.138  1.00 20.00     0.000 A 
HETATM    2  C2  UNL     1     -32.405   6.341   1.162  1.00 20.00     0.001 A 
HETATM    3  C3  UNL     1     -31.687   8.443   2.113  1.00 20.00     0.001 A 
HETATM    4  C4  UNL     1     -33.370   6.219   2.160  1.00 20.00     0.007 A 
HETATM    5  C5  UNL     1     -32.653   8.321   3.111  1.00 20.00     0.007 A 
HETATM    6  C6  UNL     1     -33.495   7.209   3.136  1.00 20.00    -0.058 A 
ENDROOT
BRANCH   6   7
HETATM    7  C8  UNL     1     -34.532   7.078   4.207  1.00 20.00     0.038 C 
BRANCH   7   8
HETATM    8  C10 UNL     1     -35.377   5.815   4.029  1.00 20.00     0.005 C 
BRANCH   8   9
HETATM    9  C12 UNL     1     -34.777   4.634   4.795  1.00 20.00     0.000 C 
BRANCH   9  10
HETATM   10  C11 UNL     1     -33.941   3.741   3.877  1.00 20.00    -0.000 C 
BRANCH  10  11
HETATM   11  C9  UNL     1     -33.168   2.692   4.676  1.00 20.00    -0.005 C 
HETATM   12  C7  UNL     1     -32.661   3.257   5.994  1.00 20.00     0.005 C 
ENDBRANCH  10  11
ENDBRANCH   9  10
ENDBRANCH   8   9
ENDBRANCH   7   8
ENDBRANCH   6   7
TORSDOF 5
ENDMDL
MODEL 4
REMARK VINA RESULT:      -1.5      1.548      5.595
REMARK  5 active torsions:
REMARK  status: ('A' for Active; 'I' for Inactive)
REMARK    1  A    between atoms: C6_6  and  C8_8 
REMARK    2  A    between atoms: C8_8  and  C10_10 
REMARK    3  A    between atoms: C9_9  and  C11_11 
REMARK    4  A    between atoms: C10_10  and  C12_12 
REMARK    5  A    between atoms: C11_11  and  C12_12 
ROOT
HETATM    1  C1  UNL     1     -31.517   7.353   1.160  1.00 20.00     0.000 A 
HETATM    2  C2  UNL     1     -31.648   8.367   2.109  1.00 20.00     0.001 A 
HETATM    3  C3  UNL     1     -32.377   6.254   1.191  1.00 20.00     0.001 A 
HETATM    4  C4  UNL     1     -32.638   8.284   3.087  1.00 20.00     0.007 A 
HETATM    5  C5  UNL     1     -33.367   6.171   2.170  1.00 20.00     0.007 A 
HETATM    6  C6  UNL     1     -33.498   7.185   3.118  1.00 20.00    -0.058 A 
ENDROOT
BRANCH   6   7
HETATM    7  C8  UNL     1     -34.560   7.095   4.169  1.00 20.00     0.038 C 
BRANCH   7   8
HETATM    8  C10 UNL     1     -35.389   5.817   4.031  1.00 20.00     0.005 C 
BRANCH   8   9
HETATM    9  C12 UNL     1     -34.762   4.661   4.812  1.00 20.00     0.000 C 
BRANCH   9  10
HETATM   10  C11 UNL     1     -33.953   3.743   3.894  1.00 20.00    -0.000 C 
BRANCH  10  11
HETATM   11  C9  UNL     1     -33.176   2.700   4.697  1.00 20.00    -0.005 C 
HETATM   12  C7  UNL     1     -32.657   3.276   6.005  1.00 20.00     0.005 C 
ENDBRANCH  10  11
ENDBRANCH   9  10
ENDBRANCH   8   9
ENDBRANCH   7   8
ENDBRANCH   6   7
TORSDOF 5
ENDMDL
MODEL 5
REMARK VINA RESULT:      -1.4      1.029      5.895
REMARK  5 active torsions:
REMARK  status: ('A' for Active; 'I' for Inactive)
REMARK    1  A    between atoms: C6_6  and  C8_8 
REMARK    2  A    between atoms: C8_8  and  C10_10 
REMARK    3  A    between atoms: C9_9  and  C11_11 
REMARK    4  A    between atoms: C10_10  and  C12_12 
REMARK    5  A    between atoms: C11_11  and  C12_12 
ROOT
HETATM    1  C1  UNL     1     -31.789   9.720  -0.289  1.00 20.00     0.000 A 
HETATM    2  C2  UNL     1     -32.723  10.347   0.536  1.00 20.00     0.001 A 
HETATM    3  C3  UNL     1     -31.276   8.471   0.064  1.00 20.00     0.001 A 
HETATM    4  C4  UNL     1     -33.143   9.727   1.712  1.00 20.00     0.007 A 
HETATM    5  C5  UNL     1     -31.695   7.852   1.241  1.00 20.00     0.007 A 
HETATM    6  C6  UNL     1     -32.629   8.479   2.065  1.00 20.00    -0.058 A 
ENDROOT
BRANCH   6   7
HETATM    7  C8  UNL     1     -33.079   7.814   3.328  1.00 20.00     0.038 C 
BRANCH   7   8
HETATM    8  C10 UNL     1     -33.846   6.520   3.047  1.00 20.00     0.005 C 
BRANCH   8   9
HETATM    9  C12 UNL     1     -34.936   6.283   4.094  1.00 20.00     0.000 C 
BRANCH   9  10
HETATM   10  C11 UNL     1     -34.984   4.817   4.526  1.00 20.00    -0.000 C 
BRANCH  10  11
HETATM   11  C9  UNL     1     -33.875   4.004   3.858  1.00 20.00    -0.005 C 
HETATM   12  C7  UNL     1     -33.229   3.035   4.835  1.00 20.00     0.005 C 
ENDBRANCH  10  11
ENDBRANCH   9  10
ENDBRANCH   8   9
ENDBRANCH   7   8
ENDBRANCH   6   7
TORSDOF 5
ENDMDL
MODEL 6
REMARK VINA RESULT:      -1.3      1.032      5.741
REMARK  5 active torsions:
REMARK  status: ('A' for Active; 'I' for Inactive)
REMARK    1  A    between atoms: C6_6  and  C8_8 
REMARK    2  A    between atoms: C8_8  and  C10_10 
REMARK    3  A    between atoms: C9_9  and  C11_11 
REMARK    4  A    between atoms: C10_10  and  C12_12 
REMARK    5  A    between atoms: C11_11  and  C12_12 
ROOT
HETATM    1  C1  UNL     1     -31.785   9.743  -0.308  1.00 20.00     0.000 A 
HETATM    2  C2  UNL     1     -31.236   8.502   0.015  1.00 20.00     0.001 A 
HETATM    3  C3  UNL     1     -32.728  10.329   0.537  1.00 20.00     0.001 A 
HETATM    4  C4  UNL     1     -31.628   7.849   1.182  1.00 20.00     0.007 A 
HETATM    5  C5  UNL     1     -33.121   9.675   1.704  1.00 20.00     0.007 A 
HETATM    6  C6  UNL     1     -32.571   8.435   2.027  1.00 20.00    -0.058 A 
ENDROOT
BRANCH   6   7
HETATM    7  C8  UNL     1     -32.992   7.732   3.280  1.00 20.00     0.038 C 
BRANCH   7   8
HETATM    8  C10 UNL     1     -33.866   6.512   2.980  1.00 20.00     0.005 C 
BRANCH   8   9
HETATM    9  C12 UNL     1     -34.924   6.308   4.066  1.00 20.00     0.000 C 
BRANCH   9  10
HETATM   10  C11 UNL     1     -35.001   4.844   4.500  1.00 20.00    -0.000 C 
BRANCH  10  11
HETATM   11  C9  UNL     1     -33.869   4.021   3.884  1.00 20.00    -0.005 C 
HETATM   12  C7  UNL     1     -33.284   3.040   4.887  1.00 20.00     0.005 C 
ENDBRANCH  10  11
ENDBRANCH   9  10
ENDBRANCH   8   9
ENDBRANCH   7   8
ENDBRANCH   6   7
TORSDOF 5
ENDMDL
MODEL 7
REMARK VINA RESULT:      -1.2      0.827      1.668
REMARK  5 active torsions:
REMARK  status: ('A' for Active; 'I' for Inactive)
REMARK    1  A    between atoms: C6_6  and  C8_8 
REMARK    2  A    between atoms: C8_8  and  C10_10 
REMARK    3  A    between atoms: C9_9  and  C11_11 
REMARK    4  A    between atoms: C10_10  and  C12_12 
REMARK    5  A    between atoms: C11_11  and  C12_12 
ROOT
HETATM    1  C1  UNL     1     -34.999   4.825   4.258  1.00 20.00     0.000 A 
HETATM    2  C2  UNL     1     -35.382   6.145   4.493  1.00 20.00     0.001 A 
HETATM    3  C3  UNL     1     -33.863   4.554   3.495  1.00 20.00     0.001 A 
HETATM    4  C4  UNL     1     -34.630   7.194   3.965  1.00 20.00     0.007 A 
HETATM    5  C5  UNL     1     -33.111   5.603   2.966  1.00 20.00     0.007 A 
HETATM    6  C6  UNL     1     -33.494   6.923   3.201  1.00 20.00    -0.058 A 
ENDROOT
BRANCH   6   7
HETATM    7  C8  UNL     1     -32.687   8.048   2.634  1.00 20.00     0.038 C 
BRANCH   7   8
HETATM    8  C10 UNL     1     -31.816   7.589   1.463  1.00 20.00     0.005 C 
BRANCH   8   9
HETATM    9  C12 UNL     1     -31.394   8.771   0.588  1.00 20.00     0.000 C 
BRANCH   9  10
HETATM   10  C11 UNL     1     -32.411   9.031  -0.523  1.00 20.00    -0.000 C 
BRANCH  10  11
HETATM   11  C9  UNL     1     -33.007  10.435  -0.413  1.00 20.00    -0.005 C 
HETATM   12  C7  UNL     1     -32.550  11.136   0.856  1.00 20.00     0.005 C 
ENDBRANCH  10  11
ENDBRANCH   9  10
ENDBRANCH   8   9
ENDBRANCH   7   8
ENDBRANCH   6   7
TORSDOF 5
ENDMDL
MODEL 8
REMARK VINA RESULT:      -0.6      0.953      5.173
REMARK  5 active torsions:
REMARK  status: ('A' for Active; 'I' for Inactive)
REMARK    1  A    between atoms: C6_6  and  C8_8 
REMARK    2  A    between atoms: C8_8  and  C10_10 
REMARK    3  A    between atoms: C9_9  and  C11_11 
REMARK    4  A    between atoms: C10_10  and  C12_12 
REMARK    5  A    between atoms: C11_11  and  C12_12 
ROOT
HETATM    1  C1  UNL     1     -32.709  10.628  -0.244  1.00 20.00     0.000 A 
HETATM    2  C2  UNL     1     -32.988  10.543   1.120  1.00 20.00     0.001 A 
HETATM    3  C3  UNL     1     -32.030   9.589  -0.883  1.00 20.00     0.001 A 
HETATM    4  C4  UNL     1     -32.590   9.421   1.845  1.00 20.00     0.007 A 
HETATM    5  C5  UNL     1     -31.632   8.467  -0.157  1.00 20.00     0.007 A 
HETATM    6  C6  UNL     1     -31.912   8.381   1.206  1.00 20.00    -0.058 A 
ENDROOT
BRANCH   6   7
HETATM    7  C8  UNL     1     -31.483   7.177   1.985  1.00 20.00     0.038 C 
BRANCH   7   8
HETATM    8  C10 UNL     1     -32.045   5.885   1.387  1.00 20.00     0.005 C 
BRANCH   8   9
HETATM    9  C12 UNL     1     -33.526   5.714   1.730  1.00 20.00     0.000 C 
BRANCH   9  10
HETATM   10  C11 UNL     1     -33.734   5.554   3.236  1.00 20.00    -0.000 C 
BRANCH  10  11
HETATM   11  C9  UNL     1     -34.773   6.543   3.762  1.00 20.00    -0.005 C 
HETATM   12  C7  UNL     1     -34.118   7.701   4.498  1.00 20.00     0.005 C 
ENDBRANCH  10  11
ENDBRANCH   9  10
ENDBRANCH   8   9
ENDBRANCH   7   8
ENDBRANCH   6   7
TORSDOF 5
ENDMDL
MODEL 9
REMARK VINA RESULT:      -0.5      0.971      5.068
REMARK  5 active torsions:
REMARK  status: ('A' for Active; 'I' for Inactive)
REMARK    1  A    between atoms: C6_6  and  C8_8 
REMARK    2  A    between atoms: C8_8  and  C10_10 
REMARK    3  A    between atoms: C9_9  and  C11_11 
REMARK    4  A    between atoms: C10_10  and  C12_12 
REMARK    5  A    between atoms: C11_11  and  C12_12 
ROOT
HETATM    1  C1  UNL     1     -32.692  10.630  -0.207  1.00 20.00     0.000 A 
HETATM    2  C2  UNL     1     -31.978   9.620  -0.853  1.00 20.00     0.001 A 
HETATM    3  C3  UNL     1     -33.005  10.506   1.147  1.00 20.00     0.001 A 
HETATM    4  C4  UNL     1     -31.577   8.488  -0.145  1.00 20.00     0.007 A 
HETATM    5  C5  UNL     1     -32.604   9.373   1.854  1.00 20.00     0.007 A 
HETATM    6  C6  UNL     1     -31.889   8.365   1.209  1.00 20.00    -0.058 A 
ENDROOT
BRANCH   6   7
HETATM    7  C8  UNL     1     -31.459   7.149   1.969  1.00 20.00     0.038 C 
BRANCH   7   8
HETATM    8  C10 UNL     1     -32.031   5.867   1.359  1.00 20.00     0.005 C 
BRANCH   8   9
HETATM    9  C12 UNL     1     -33.509   5.696   1.712  1.00 20.00     0.000 C 
BRANCH   9  10
HETATM   10  C11 UNL     1     -33.710   5.572   3.223  1.00 20.00    -0.000 C 
BRANCH  10  11
HETATM   11  C9  UNL     1     -34.742   6.579   3.731  1.00 20.00    -0.005 C 
HETATM   12  C7  UNL     1     -34.081   7.719   4.491  1.00 20.00     0.005 C 
ENDBRANCH  10  11
ENDBRANCH   9  10
ENDBRANCH   8   9
ENDBRANCH   7   8
ENDBRANCH   6   7
TORSDOF 5
ENDMDL
