MODEL 1
REMARK VINA RESULT:      -2.2      0.000      0.000
REMARK  1 active torsions:
REMARK  status: ('A' for Active; 'I' for Inactive)
REMARK    1  A    between atoms: C6_6  and  N8_8 
ROOT
HETATM    1  C1  UNL     1     -34.359   6.012   3.658  1.00 20.00     0.000 A 
HETATM    2  C2  UNL     1     -33.687   5.463   2.565  1.00 20.00     0.002 A 
HETATM    3  C3  UNL     1     -34.175   7.355   3.987  1.00 20.00     0.002 A 
HETATM    4  C4  UNL     1     -32.831   6.258   1.803  1.00 20.00     0.029 A 
HETATM    5  C5  UNL     1     -33.319   8.149   3.224  1.00 20.00     0.029 A 
HETATM    6  C6  UNL     1     -32.647   7.601   2.132  1.00 20.00     0.027 A 
ENDROOT
BRANCH   6   7
HETATM    7  N8  UNL     1     -31.781   8.404   1.361  1.00 20.00    -0.394 N 
HETATM    8  C7  UNL     1     -32.248   9.457   0.514  1.00 20.00     0.146 C 
HETATM    9  H17 UNL     1     -30.800   8.208   1.427  1.00 20.00     0.159 HD
ENDBRANCH   6   7
TORSDOF 1
ENDMDL
MODEL 2
REMARK VINA RESULT:      -2.2      0.005      1.708
REMARK  1 active torsions:
REMARK  status: ('A' for Active; 'I' for Inactive)
REMARK    1  A    between atoms: C6_6  and  N8_8 
ROOT
HETATM    1  C1  UNL     1     -34.359   6.010   3.657  1.00 20.00     0.000 A 
HETATM    2  C2  UNL     1     -34.171   7.352   3.990  1.00 20.00     0.002 A 
HETATM    3  C3  UNL     1     -33.690   5.462   2.563  1.00 20.00     0.002 A 
HETATM    4  C4  UNL     1     -33.314   8.145   3.228  1.00 20.00     0.029 A 
HETATM    5  C5  UNL     1     -32.832   6.257   1.801  1.00 20.00     0.029 A 
HETATM    6  C6  UNL     1     -32.645   7.598   2.134  1.00 20.00     0.027 A 
ENDROOT
BRANCH   6   7
HETATM    7  N8  UNL     1     -31.778   8.401   1.363  1.00 20.00    -0.394 N 
HETATM    8  C7  UNL     1     -32.243   9.456   0.518  1.00 20.00     0.146 C 
HETATM    9  H17 UNL     1     -30.798   8.201   1.427  1.00 20.00     0.159 HD
ENDBRANCH   6   7
TORSDOF 1
ENDMDL
MODEL 3
REMARK VINA RESULT:      -1.8      2.012      3.913
REMARK  1 active torsions:
REMARK  status: ('A' for Active; 'I' for Inactive)
REMARK    1  A    between atoms: C6_6  and  N8_8 
ROOT
HETATM    1  C1  UNL     1     -32.070   7.936   1.805  1.00 20.00     0.000 A 
HETATM    2  C2  UNL     1     -32.751   8.301   2.967  1.00 20.00     0.002 A 
HETATM    3  C3  UNL     1     -32.185   6.637   1.308  1.00 20.00     0.002 A 
HETATM    4  C4  UNL     1     -33.546   7.367   3.631  1.00 20.00     0.029 A 
HETATM    5  C5  UNL     1     -32.980   5.704   1.973  1.00 20.00     0.029 A 
HETATM    6  C6  UNL     1     -33.661   6.069   3.135  1.00 20.00     0.027 A 
ENDROOT
BRANCH   6   7
HETATM    7  N8  UNL     1     -34.465   5.125   3.807  1.00 20.00    -0.394 N 
HETATM    8  C7  UNL     1     -33.957   3.883   4.299  1.00 20.00     0.146 C 
HETATM    9  H17 UNL     1     -35.431   5.358   3.931  1.00 20.00     0.159 HD
ENDBRANCH   6   7
TORSDOF 1
ENDMDL
MODEL 4
REMARK VINA RESULT:      -1.8      1.927      3.423
REMARK  1 active torsions:
REMARK  status: ('A' for Active; 'I' for Inactive)
REMARK    1  A    between atoms: C6_6  and  N8_8 
ROOT
HETATM    1  C1  UNL     1     -31.800   7.148   1.425  1.00 20.00     0.000 A 
HETATM    2  C2  UNL     1     -32.457   5.917   1.405  1.00 20.00     0.002 A 
HETATM    3  C3  UNL     1     -32.204   8.140   2.318  1.00 20.00     0.002 A 
HETATM    4  C4  UNL     1     -33.517   5.679   2.278  1.00 20.00     0.029 A 
HETATM    5  C5  UNL     1     -33.265   7.901   3.192  1.00 20.00     0.029 A 
HETATM    6  C6  UNL     1     -33.922   6.670   3.172  1.00 20.00     0.027 A 
ENDROOT
BRANCH   6   7
HETATM    7  N8  UNL     1     -34.995   6.429   4.055  1.00 20.00    -0.394 N 
HETATM    8  C7  UNL     1     -35.335   5.123   4.526  1.00 20.00     0.146 C 
HETATM    9  H17 UNL     1     -35.528   7.225   4.350  1.00 20.00     0.159 HD
ENDBRANCH   6   7
TORSDOF 1
ENDMDL
MODEL 5
REMARK VINA RESULT:      -1.8      1.926      3.794
REMARK  1 active torsions:
REMARK  status: ('A' for Active; 'I' for Inactive)
REMARK    1  A    between atoms: C6_6  and  N8_8 
ROOT
HETATM    1  C1  UNL     1     -31.790   7.157   1.432  1.00 20.00     0.000 A 
HETATM    2  C2  UNL     1     -32.197   8.148   2.326  1.00 20.00     0.002 A 
HETATM    3  C3  UNL     1     -32.446   5.926   1.410  1.00 20.00     0.002 A 
HETATM    4  C4  UNL     1     -33.258   7.908   3.198  1.00 20.00     0.029 A 
HETATM    5  C5  UNL     1     -33.508   5.686   2.283  1.00 20.00     0.029 A 
HETATM    6  C6  UNL     1     -33.913   6.677   3.177  1.00 20.00     0.027 A 
ENDROOT
BRANCH   6   7
HETATM    7  N8  UNL     1     -34.987   6.433   4.059  1.00 20.00    -0.394 N 
HETATM    8  C7  UNL     1     -35.329   5.126   4.524  1.00 20.00     0.146 C 
HETATM    9  H17 UNL     1     -35.518   7.229   4.359  1.00 20.00     0.159 HD
ENDBRANCH   6   7
TORSDOF 1
ENDMDL
MODEL 6
REMARK VINA RESULT:      -1.8      2.011      3.523
REMARK  1 active torsions:
REMARK  status: ('A' for Active; 'I' for Inactive)
REMARK    1  A    between atoms: C6_6  and  N8_8 
ROOT
HETATM    1  C1  UNL     1     -32.061   7.941   1.812  1.00 20.00     0.000 A 
HETATM    2  C2  UNL     1     -32.187   6.647   1.305  1.00 20.00     0.002 A 
HETATM    3  C3  UNL     1     -32.733   8.301   2.981  1.00 20.00     0.002 A 
HETATM    4  C4  UNL     1     -32.985   5.715   1.966  1.00 20.00     0.029 A 
HETATM    5  C5  UNL     1     -33.531   7.366   3.641  1.00 20.00     0.029 A 
HETATM    6  C6  UNL     1     -33.658   6.074   3.134  1.00 20.00     0.027 A 
ENDROOT
BRANCH   6   7
HETATM    7  N8  UNL     1     -34.466   5.130   3.802  1.00 20.00    -0.394 N 
HETATM    8  C7  UNL     1     -33.961   3.887   4.294  1.00 20.00     0.146 C 
HETATM    9  H17 UNL     1     -35.432   5.365   3.923  1.00 20.00     0.159 HD
ENDBRANCH   6   7
TORSDOF 1
ENDMDL
MODEL 7
REMARK VINA RESULT:      -1.8      1.305      2.319
REMARK  1 active torsions:
REMARK  status: ('A' for Active; 'I' for Inactive)
REMARK    1  A    between atoms: C6_6  and  N8_8 
ROOT
HETATM    1  C1  UNL     1     -35.150   5.133   4.514  1.00 20.00     0.000 A 
HETATM    2  C2  UNL     1     -35.213   6.480   4.158  1.00 20.00     0.002 A 
HETATM    3  C3  UNL     1     -34.182   4.305   3.945  1.00 20.00     0.002 A 
HETATM    4  C4  UNL     1     -34.308   6.999   3.232  1.00 20.00     0.029 A 
HETATM    5  C5  UNL     1     -33.277   4.825   3.019  1.00 20.00     0.029 A 
HETATM    6  C6  UNL     1     -33.341   6.172   2.663  1.00 20.00     0.027 A 
ENDROOT
BRANCH   6   7
HETATM    7  N8  UNL     1     -32.426   6.696   1.726  1.00 20.00    -0.394 N 
HETATM    8  C7  UNL     1     -31.986   8.056   1.748  1.00 20.00     0.146 C 
HETATM    9  H17 UNL     1     -32.084   6.068   1.024  1.00 20.00     0.159 HD
ENDBRANCH   6   7
TORSDOF 1
ENDMDL
MODEL 8
REMARK VINA RESULT:      -1.8      1.306      1.709
REMARK  1 active torsions:
REMARK  status: ('A' for Active; 'I' for Inactive)
REMARK    1  A    between atoms: C6_6  and  N8_8 
ROOT
HETATM    1  C1  UNL     1     -35.145   5.123   4.508  1.00 20.00     0.000 A 
HETATM    2  C2  UNL     1     -34.170   4.301   3.943  1.00 20.00     0.002 A 
HETATM    3  C3  UNL     1     -35.216   6.469   4.148  1.00 20.00     0.002 A 
HETATM    4  C4  UNL     1     -33.267   4.824   3.018  1.00 20.00     0.029 A 
HETATM    5  C5  UNL     1     -34.312   6.992   3.223  1.00 20.00     0.029 A 
HETATM    6  C6  UNL     1     -33.337   6.170   2.659  1.00 20.00     0.027 A 
ENDROOT
BRANCH   6   7
HETATM    7  N8  UNL     1     -32.423   6.699   1.724  1.00 20.00    -0.394 N 
HETATM    8  C7  UNL     1     -31.984   8.059   1.752  1.00 20.00     0.146 C 
HETATM    9  H17 UNL     1     -32.081   6.074   1.019  1.00 20.00     0.159 HD
ENDBRANCH   6   7
TORSDOF 1
ENDMDL
MODEL 9
REMARK VINA RESULT:      -0.7      1.535      2.672
REMARK  1 active torsions:
REMARK  status: ('A' for Active; 'I' for Inactive)
REMARK    1  A    between atoms: C6_6  and  N8_8 
ROOT
HETATM    1  C1  UNL     1     -33.816   7.941   4.153  1.00 20.00     0.000 A 
HETATM    2  C2  UNL     1     -32.803   8.325   3.273  1.00 20.00     0.002 A 
HETATM    3  C3  UNL     1     -34.466   6.720   3.979  1.00 20.00     0.002 A 
HETATM    4  C4  UNL     1     -32.442   7.487   2.219  1.00 20.00     0.029 A 
HETATM    5  C5  UNL     1     -34.104   5.882   2.923  1.00 20.00     0.029 A 
HETATM    6  C6  UNL     1     -33.093   6.265   2.044  1.00 20.00     0.027 A 
ENDROOT
BRANCH   6   7
HETATM    7  N8  UNL     1     -32.728   5.418   0.977  1.00 20.00    -0.394 N 
HETATM    8  C7  UNL     1     -31.485   4.712   0.936  1.00 20.00     0.146 C 
HETATM    9  H17 UNL     1     -33.385   5.324   0.226  1.00 20.00     0.159 HD
ENDBRANCH   6   7
TORSDOF 1
ENDMDL
