MODEL 1
REMARK VINA RESULT:      -2.9      0.000      0.000
REMARK  2 active torsions:
REMARK  status: ('A' for Active; 'I' for Inactive)
REMARK    1  A    between atoms: C6_6  and  C8_8 
REMARK    2  A    between atoms: C8_8  and  C9_9 
ROOT
HETATM    1  C1  UNL     1     -34.440   5.974   3.712  1.00 20.00     0.000 A 
HETATM    2  C2  UNL     1     -34.236   7.318   4.024  1.00 20.00     0.001 A 
HETATM    3  C3  UNL     1     -33.766   5.397   2.635  1.00 20.00     0.001 A 
HETATM    4  C4  UNL     1     -33.358   8.086   3.259  1.00 20.00     0.007 A 
HETATM    5  C5  UNL     1     -32.888   6.165   1.871  1.00 20.00     0.007 A 
HETATM    6  C6  UNL     1     -32.684   7.509   2.183  1.00 20.00    -0.058 A 
ENDROOT
BRANCH   6   7
HETATM    7  C8  UNL     1     -31.746   8.330   1.365  1.00 20.00     0.038 C 
BRANCH   7   8
HETATM    8  C9  UNL     1     -32.342   9.698   0.999  1.00 20.00     0.000 C 
HETATM    9  C7  UNL     1     -32.644   9.809  -0.487  1.00 20.00     0.005 C 
ENDBRANCH   7   8
ENDBRANCH   6   7
TORSDOF 2
ENDMDL
MODEL 2
REMARK VINA RESULT:      -2.9      0.008      1.611
REMARK  2 active torsions:
REMARK  status: ('A' for Active; 'I' for Inactive)
REMARK    1  A    between atoms: C6_6  and  C8_8 
REMARK    2  A    between atoms: C8_8  and  C9_9 
ROOT
HETATM    1  C1  UNL     1     -34.441   5.970   3.713  1.00 20.00     0.000 A 
HETATM    2  C2  UNL     1     -33.770   5.398   2.632  1.00 20.00     0.001 A 
HETATM    3  C3  UNL     1     -34.238   7.313   4.029  1.00 20.00     0.001 A 
HETATM    4  C4  UNL     1     -32.894   6.169   1.868  1.00 20.00     0.007 A 
HETATM    5  C5  UNL     1     -33.362   8.084   3.265  1.00 20.00     0.007 A 
HETATM    6  C6  UNL     1     -32.690   7.512   2.185  1.00 20.00    -0.058 A 
ENDROOT
BRANCH   6   7
HETATM    7  C8  UNL     1     -31.754   8.337   1.368  1.00 20.00     0.038 C 
BRANCH   7   8
HETATM    8  C9  UNL     1     -32.356   9.702   1.002  1.00 20.00     0.000 C 
HETATM    9  C7  UNL     1     -32.647   9.816  -0.486  1.00 20.00     0.005 C 
ENDBRANCH   7   8
ENDBRANCH   6   7
TORSDOF 2
ENDMDL
MODEL 3
REMARK VINA RESULT:      -2.5      1.033      1.622
REMARK  2 active torsions:
REMARK  status: ('A' for Active; 'I' for Inactive)
REMARK    1  A    between atoms: C6_6  and  C8_8 
REMARK    2  A    between atoms: C8_8  and  C9_9 
ROOT
HETATM    1  C1  UNL     1     -35.118   5.106   4.518  1.00 20.00     0.000 A 
HETATM    2  C2  UNL     1     -35.187   6.450   4.152  1.00 20.00     0.001 A 
HETATM    3  C3  UNL     1     -34.157   4.274   3.943  1.00 20.00     0.001 A 
HETATM    4  C4  UNL     1     -34.294   6.963   3.211  1.00 20.00     0.007 A 
HETATM    5  C5  UNL     1     -33.264   4.788   3.002  1.00 20.00     0.007 A 
HETATM    6  C6  UNL     1     -33.333   6.132   2.637  1.00 20.00    -0.058 A 
ENDROOT
BRANCH   6   7
HETATM    7  C8  UNL     1     -32.378   6.680   1.631  1.00 20.00     0.038 C 
BRANCH   7   8
HETATM    8  C9  UNL     1     -31.969   8.126   1.950  1.00 20.00     0.000 C 
HETATM    9  C7  UNL     1     -32.241   9.066   0.786  1.00 20.00     0.005 C 
ENDBRANCH   7   8
ENDBRANCH   6   7
TORSDOF 2
ENDMDL
MODEL 4
REMARK VINA RESULT:      -2.5      1.034      2.198
REMARK  2 active torsions:
REMARK  status: ('A' for Active; 'I' for Inactive)
REMARK    1  A    between atoms: C6_6  and  C8_8 
REMARK    2  A    between atoms: C8_8  and  C9_9 
ROOT
HETATM    1  C1  UNL     1     -35.117   5.105   4.518  1.00 20.00     0.000 A 
HETATM    2  C2  UNL     1     -34.156   4.274   3.943  1.00 20.00     0.001 A 
HETATM    3  C3  UNL     1     -35.187   6.449   4.151  1.00 20.00     0.001 A 
HETATM    4  C4  UNL     1     -33.263   4.786   3.002  1.00 20.00     0.007 A 
HETATM    5  C5  UNL     1     -34.294   6.962   3.210  1.00 20.00     0.007 A 
HETATM    6  C6  UNL     1     -33.333   6.130   2.635  1.00 20.00    -0.058 A 
ENDROOT
BRANCH   6   7
HETATM    7  C8  UNL     1     -32.378   6.679   1.629  1.00 20.00     0.038 C 
BRANCH   7   8
HETATM    8  C9  UNL     1     -31.970   8.125   1.949  1.00 20.00     0.000 C 
HETATM    9  C7  UNL     1     -32.242   9.064   0.784  1.00 20.00     0.005 C 
ENDBRANCH   7   8
ENDBRANCH   6   7
TORSDOF 2
ENDMDL
MODEL 5
REMARK VINA RESULT:      -2.5      1.522      4.709
REMARK  2 active torsions:
REMARK  status: ('A' for Active; 'I' for Inactive)
REMARK    1  A    between atoms: C6_6  and  C8_8 
REMARK    2  A    between atoms: C8_8  and  C9_9 
ROOT
HETATM    1  C1  UNL     1     -32.280   7.938   1.875  1.00 20.00     0.000 A 
HETATM    2  C2  UNL     1     -32.283   6.622   1.414  1.00 20.00     0.001 A 
HETATM    3  C3  UNL     1     -32.984   8.275   3.030  1.00 20.00     0.001 A 
HETATM    4  C4  UNL     1     -32.991   5.641   2.109  1.00 20.00     0.007 A 
HETATM    5  C5  UNL     1     -33.692   7.295   3.725  1.00 20.00     0.007 A 
HETATM    6  C6  UNL     1     -33.695   5.978   3.265  1.00 20.00    -0.058 A 
ENDROOT
BRANCH   6   7
HETATM    7  C8  UNL     1     -34.453   4.931   4.008  1.00 20.00     0.038 C 
BRANCH   7   8
HETATM    8  C9  UNL     1     -33.805   3.544   3.875  1.00 20.00     0.000 C 
HETATM    9  C7  UNL     1     -33.036   3.151   5.126  1.00 20.00     0.005 C 
ENDBRANCH   7   8
ENDBRANCH   6   7
TORSDOF 2
ENDMDL
MODEL 6
REMARK VINA RESULT:      -2.5      1.523      4.426
REMARK  2 active torsions:
REMARK  status: ('A' for Active; 'I' for Inactive)
REMARK    1  A    between atoms: C6_6  and  C8_8 
REMARK    2  A    between atoms: C8_8  and  C9_9 
ROOT
HETATM    1  C1  UNL     1     -32.260   7.949   1.878  1.00 20.00     0.000 A 
HETATM    2  C2  UNL     1     -32.966   8.285   3.033  1.00 20.00     0.001 A 
HETATM    3  C3  UNL     1     -32.267   6.635   1.412  1.00 20.00     0.001 A 
HETATM    4  C4  UNL     1     -33.680   7.305   3.723  1.00 20.00     0.007 A 
HETATM    5  C5  UNL     1     -32.981   5.655   2.103  1.00 20.00     0.007 A 
HETATM    6  C6  UNL     1     -33.687   5.990   3.257  1.00 20.00    -0.058 A 
ENDROOT
BRANCH   6   7
HETATM    7  C8  UNL     1     -34.450   4.942   3.995  1.00 20.00     0.038 C 
BRANCH   7   8
HETATM    8  C9  UNL     1     -33.787   3.560   3.884  1.00 20.00     0.000 C 
HETATM    9  C7  UNL     1     -33.047   3.180   5.157  1.00 20.00     0.005 C 
ENDBRANCH   7   8
ENDBRANCH   6   7
TORSDOF 2
ENDMDL
MODEL 7
REMARK VINA RESULT:      -2.0      1.506      4.429
REMARK  2 active torsions:
REMARK  status: ('A' for Active; 'I' for Inactive)
REMARK    1  A    between atoms: C6_6  and  C8_8 
REMARK    2  A    between atoms: C8_8  and  C9_9 
ROOT
HETATM    1  C1  UNL     1     -31.843   7.658   1.855  1.00 20.00     0.000 A 
HETATM    2  C2  UNL     1     -32.399   6.463   1.398  1.00 20.00     0.001 A 
HETATM    3  C3  UNL     1     -32.395   8.307   2.959  1.00 20.00     0.001 A 
HETATM    4  C4  UNL     1     -33.507   5.918   2.045  1.00 20.00     0.007 A 
HETATM    5  C5  UNL     1     -33.504   7.761   3.606  1.00 20.00     0.007 A 
HETATM    6  C6  UNL     1     -34.059   6.566   3.149  1.00 20.00    -0.058 A 
ENDROOT
BRANCH   6   7
HETATM    7  C8  UNL     1     -35.245   5.984   3.841  1.00 20.00     0.038 C 
BRANCH   7   8
HETATM    8  C9  UNL     1     -34.858   4.822   4.770  1.00 20.00     0.000 C 
HETATM    9  C7  UNL     1     -33.882   3.864   4.107  1.00 20.00     0.005 C 
ENDBRANCH   7   8
ENDBRANCH   6   7
TORSDOF 2
ENDMDL
MODEL 8
REMARK VINA RESULT:      -1.6      0.733      1.794
REMARK  2 active torsions:
REMARK  status: ('A' for Active; 'I' for Inactive)
REMARK    1  A    between atoms: C6_6  and  C8_8 
REMARK    2  A    between atoms: C8_8  and  C9_9 
ROOT
HETATM    1  C1  UNL     1     -33.555   5.250   2.671  1.00 20.00     0.000 A 
HETATM    2  C2  UNL     1     -32.655   5.466   1.628  1.00 20.00     0.001 A 
HETATM    3  C3  UNL     1     -34.038   6.329   3.411  1.00 20.00     0.001 A 
HETATM    4  C4  UNL     1     -32.237   6.762   1.324  1.00 20.00     0.007 A 
HETATM    5  C5  UNL     1     -33.620   7.625   3.107  1.00 20.00     0.007 A 
HETATM    6  C6  UNL     1     -32.720   7.841   2.064  1.00 20.00    -0.058 A 
ENDROOT
BRANCH   6   7
HETATM    7  C8  UNL     1     -32.273   9.227   1.740  1.00 20.00     0.038 C 
BRANCH   7   8
HETATM    8  C9  UNL     1     -31.693   9.330   0.322  1.00 20.00     0.000 C 
HETATM    9  C7  UNL     1     -32.679   9.953  -0.654  1.00 20.00     0.005 C 
ENDBRANCH   7   8
ENDBRANCH   6   7
TORSDOF 2
ENDMDL
MODEL 9
REMARK VINA RESULT:      -0.6      1.029      4.070
REMARK  2 active torsions:
REMARK  status: ('A' for Active; 'I' for Inactive)
REMARK    1  A    between atoms: C6_6  and  C8_8 
REMARK    2  A    between atoms: C8_8  and  C9_9 
ROOT
HETATM    1  C1  UNL     1     -31.821   9.523  -0.127  1.00 20.00     0.000 A 
HETATM    2  C2  UNL     1     -32.745  10.209   0.661  1.00 20.00     0.001 A 
HETATM    3  C3  UNL     1     -31.355   8.271   0.273  1.00 20.00     0.001 A 
HETATM    4  C4  UNL     1     -33.203   9.642   1.850  1.00 20.00     0.007 A 
HETATM    5  C5  UNL     1     -31.814   7.704   1.462  1.00 20.00     0.007 A 
HETATM    6  C6  UNL     1     -32.738   8.390   2.250  1.00 20.00    -0.058 A 
ENDROOT
BRANCH   6   7
HETATM    7  C8  UNL     1     -33.227   7.784   3.522  1.00 20.00     0.038 C 
BRANCH   7   8
HETATM    8  C9  UNL     1     -33.908   6.426   3.290  1.00 20.00     0.000 C 
HETATM    9  C7  UNL     1     -35.256   6.338   3.989  1.00 20.00     0.005 C 
ENDBRANCH   7   8
ENDBRANCH   6   7
TORSDOF 2
ENDMDL
