MODEL 1
REMARK VINA RESULT:      -1.6      0.000      0.000
REMARK  0 active torsions:
REMARK  status: ('A' for Active; 'I' for Inactive)
ROOT
HETATM    1  C1  UNL     1     -31.908   8.111   1.617  1.00 20.00     0.001 A 
HETATM    2  C2  UNL     1     -31.618   6.833   1.149  1.00 20.00     0.001 A 
HETATM    3  C3  UNL     1     -35.232   6.250   4.642  1.00 20.00     0.001 A 
HETATM    4  C4  UNL     1     -34.942   4.971   4.175  1.00 20.00     0.001 A 
HETATM    5  C5  UNL     1     -32.878   8.291   2.603  1.00 20.00     0.012 A 
HETATM    6  C6  UNL     1     -32.298   5.728   1.665  1.00 20.00     0.012 A 
HETATM    7  C7  UNL     1     -34.552   7.353   4.126  1.00 20.00     0.012 A 
HETATM    8  C8  UNL     1     -33.972   4.792   3.188  1.00 20.00     0.012 A 
HETATM    9  C9  UNL     1     -33.572   7.191   3.134  1.00 20.00    -0.026 A 
HETATM   10  C10 UNL     1     -33.277   5.892   2.657  1.00 20.00    -0.026 A 
ENDROOT
TORSDOF 0
ENDMDL
MODEL 2
REMARK VINA RESULT:      -1.6      0.096      4.020
REMARK  0 active torsions:
REMARK  status: ('A' for Active; 'I' for Inactive)
ROOT
HETATM    1  C1  UNL     1     -34.979   4.971   4.207  1.00 20.00     0.001 A 
HETATM    2  C2  UNL     1     -35.248   6.268   4.635  1.00 20.00     0.001 A 
HETATM    3  C3  UNL     1     -31.622   6.683   1.130  1.00 20.00     0.001 A 
HETATM    4  C4  UNL     1     -31.891   7.980   1.557  1.00 20.00     0.001 A 
HETATM    5  C5  UNL     1     -34.010   4.745   3.230  1.00 20.00     0.012 A 
HETATM    6  C6  UNL     1     -34.551   7.344   4.085  1.00 20.00     0.012 A 
HETATM    7  C7  UNL     1     -32.320   5.607   1.680  1.00 20.00     0.012 A 
HETATM    8  C8  UNL     1     -32.860   8.205   2.535  1.00 20.00     0.012 A 
HETATM    9  C9  UNL     1     -33.298   5.816   2.666  1.00 20.00    -0.026 A 
HETATM   10  C10 UNL     1     -33.573   7.134   3.100  1.00 20.00    -0.026 A 
ENDROOT
TORSDOF 0
ENDMDL
MODEL 3
REMARK VINA RESULT:      -1.6      0.046      2.071
REMARK  0 active torsions:
REMARK  status: ('A' for Active; 'I' for Inactive)
ROOT
HETATM    1  C1  UNL     1     -31.597   6.875   1.128  1.00 20.00     0.001 A 
HETATM    2  C2  UNL     1     -31.883   8.150   1.609  1.00 20.00     0.001 A 
HETATM    3  C3  UNL     1     -34.931   4.994   4.132  1.00 20.00     0.001 A 
HETATM    4  C4  UNL     1     -35.217   6.269   4.613  1.00 20.00     0.001 A 
HETATM    5  C5  UNL     1     -32.282   5.769   1.632  1.00 20.00     0.012 A 
HETATM    6  C6  UNL     1     -32.854   8.323   2.597  1.00 20.00     0.012 A 
HETATM    7  C7  UNL     1     -33.960   4.822   3.145  1.00 20.00     0.012 A 
HETATM    8  C8  UNL     1     -34.532   7.375   4.109  1.00 20.00     0.012 A 
HETATM    9  C9  UNL     1     -33.262   5.924   2.626  1.00 20.00    -0.026 A 
HETATM   10  C10 UNL     1     -33.552   7.220   3.115  1.00 20.00    -0.026 A 
ENDROOT
TORSDOF 0
ENDMDL
MODEL 4
REMARK VINA RESULT:      -1.6      0.061      3.446
REMARK  0 active torsions:
REMARK  status: ('A' for Active; 'I' for Inactive)
ROOT
HETATM    1  C1  UNL     1     -35.262   6.214   4.637  1.00 20.00     0.001 A 
HETATM    2  C2  UNL     1     -34.946   4.930   4.202  1.00 20.00     0.001 A 
HETATM    3  C3  UNL     1     -31.943   8.059   1.594  1.00 20.00     0.001 A 
HETATM    4  C4  UNL     1     -31.628   6.775   1.159  1.00 20.00     0.001 A 
HETATM    5  C5  UNL     1     -34.597   7.316   4.099  1.00 20.00     0.012 A 
HETATM    6  C6  UNL     1     -33.964   4.743   3.229  1.00 20.00     0.012 A 
HETATM    7  C7  UNL     1     -32.925   8.245   2.567  1.00 20.00     0.012 A 
HETATM    8  C8  UNL     1     -32.293   5.672   1.697  1.00 20.00     0.012 A 
HETATM    9  C9  UNL     1     -33.606   7.147   3.118  1.00 20.00    -0.026 A 
HETATM   10  C10 UNL     1     -33.285   5.841   2.677  1.00 20.00    -0.026 A 
ENDROOT
TORSDOF 0
ENDMDL
MODEL 5
REMARK VINA RESULT:      -0.3      0.688      2.179
REMARK  0 active torsions:
REMARK  status: ('A' for Active; 'I' for Inactive)
ROOT
HETATM    1  C1  UNL     1     -32.074   7.988   1.500  1.00 20.00     0.001 A 
HETATM    2  C2  UNL     1     -32.968   8.840   2.141  1.00 20.00     0.001 A 
HETATM    3  C3  UNL     1     -34.091   4.178   3.756  1.00 20.00     0.001 A 
HETATM    4  C4  UNL     1     -34.986   5.031   4.397  1.00 20.00     0.001 A 
HETATM    5  C5  UNL     1     -32.127   6.614   1.738  1.00 20.00     0.012 A 
HETATM    6  C6  UNL     1     -33.918   8.323   3.023  1.00 20.00     0.012 A 
HETATM    7  C7  UNL     1     -33.142   4.696   2.875  1.00 20.00     0.012 A 
HETATM    8  C8  UNL     1     -34.933   6.404   4.159  1.00 20.00     0.012 A 
HETATM    9  C9  UNL     1     -33.076   6.076   2.622  1.00 20.00    -0.026 A 
HETATM   10  C10 UNL     1     -33.984   6.943   3.274  1.00 20.00    -0.026 A 
ENDROOT
TORSDOF 0
ENDMDL
MODEL 6
REMARK VINA RESULT:       1.2      1.095      2.667
REMARK  0 active torsions:
REMARK  status: ('A' for Active; 'I' for Inactive)
ROOT
HETATM    1  C1  UNL     1     -31.439   8.772   0.123  1.00 20.00     0.001 A 
HETATM    2  C2  UNL     1     -32.081   9.757   0.869  1.00 20.00     0.001 A 
HETATM    3  C3  UNL     1     -33.431   5.342   2.940  1.00 20.00     0.001 A 
HETATM    4  C4  UNL     1     -34.073   6.327   3.686  1.00 20.00     0.001 A 
HETATM    5  C5  UNL     1     -31.612   7.427   0.448  1.00 20.00     0.012 A 
HETATM    6  C6  UNL     1     -32.897   9.400   1.943  1.00 20.00     0.012 A 
HETATM    7  C7  UNL     1     -32.615   5.699   1.867  1.00 20.00     0.012 A 
HETATM    8  C8  UNL     1     -33.900   7.672   3.361  1.00 20.00     0.012 A 
HETATM    9  C9  UNL     1     -32.431   7.049   1.525  1.00 20.00    -0.026 A 
HETATM   10  C10 UNL     1     -33.082   8.051   2.284  1.00 20.00    -0.026 A 
ENDROOT
TORSDOF 0
ENDMDL
