MODEL 1
REMARK VINA RESULT:      -2.6      0.000      0.000
REMARK  0 active torsions:
REMARK  status: ('A' for Active; 'I' for Inactive)
ROOT
HETATM    1  C1  UNL     1     -34.676   5.979   3.937  1.00 20.00     0.001 A 
HETATM    2  C2  UNL     1     -34.446   7.328   4.208  1.00 20.00     0.001 A 
HETATM    3  C3  UNL     1     -33.963   5.341   2.921  1.00 20.00     0.007 A 
HETATM    4  C4  UNL     1     -33.506   8.040   3.463  1.00 20.00     0.007 A 
HETATM    5  C5  UNL     1     -33.023   6.053   2.176  1.00 20.00    -0.056 A 
HETATM    6  C6  UNL     1     -32.795   7.402   2.447  1.00 20.00    -0.056 A 
HETATM    7  C7  UNL     1     -32.272   5.349   1.094  1.00 20.00     0.049 C 
HETATM    8  C8  UNL     1     -31.794   8.185   1.662  1.00 20.00     0.049 C 
ENDROOT
TORSDOF 0
ENDMDL
MODEL 2
REMARK VINA RESULT:      -2.6      0.024      2.251
REMARK  0 active torsions:
REMARK  status: ('A' for Active; 'I' for Inactive)
ROOT
HETATM    1  C1  UNL     1     -34.465   7.343   4.208  1.00 20.00     0.001 A 
HETATM    2  C2  UNL     1     -34.689   5.991   3.951  1.00 20.00     0.001 A 
HETATM    3  C3  UNL     1     -33.527   8.050   3.454  1.00 20.00     0.007 A 
HETATM    4  C4  UNL     1     -33.975   5.344   2.943  1.00 20.00     0.007 A 
HETATM    5  C5  UNL     1     -32.813   7.403   2.445  1.00 20.00    -0.056 A 
HETATM    6  C6  UNL     1     -33.037   6.050   2.190  1.00 20.00    -0.056 A 
HETATM    7  C7  UNL     1     -31.815   8.179   1.651  1.00 20.00     0.049 C 
HETATM    8  C8  UNL     1     -32.284   5.336   1.115  1.00 20.00     0.049 C 
ENDROOT
TORSDOF 0
ENDMDL
MODEL 3
REMARK VINA RESULT:      -2.5      0.865      3.542
REMARK  0 active torsions:
REMARK  status: ('A' for Active; 'I' for Inactive)
ROOT
HETATM    1  C1  UNL     1     -32.006   7.264   1.659  1.00 20.00     0.001 A 
HETATM    2  C2  UNL     1     -32.613   6.042   1.370  1.00 20.00     0.001 A 
HETATM    3  C3  UNL     1     -32.409   7.997   2.775  1.00 20.00     0.007 A 
HETATM    4  C4  UNL     1     -33.626   5.554   2.196  1.00 20.00     0.007 A 
HETATM    5  C5  UNL     1     -33.421   7.508   3.602  1.00 20.00    -0.056 A 
HETATM    6  C6  UNL     1     -34.029   6.287   3.312  1.00 20.00    -0.056 A 
HETATM    7  C7  UNL     1     -33.835   8.309   4.792  1.00 20.00     0.049 C 
HETATM    8  C8  UNL     1     -35.115   5.744   4.182  1.00 20.00     0.049 C 
ENDROOT
TORSDOF 0
ENDMDL
MODEL 4
REMARK VINA RESULT:      -2.5      0.862      2.775
REMARK  0 active torsions:
REMARK  status: ('A' for Active; 'I' for Inactive)
ROOT
HETATM    1  C1  UNL     1     -32.571   6.081   1.377  1.00 20.00     0.001 A 
HETATM    2  C2  UNL     1     -31.973   7.302   1.685  1.00 20.00     0.001 A 
HETATM    3  C3  UNL     1     -33.594   5.581   2.185  1.00 20.00     0.007 A 
HETATM    4  C4  UNL     1     -32.395   8.024   2.802  1.00 20.00     0.007 A 
HETATM    5  C5  UNL     1     -34.016   6.303   3.301  1.00 20.00    -0.056 A 
HETATM    6  C6  UNL     1     -33.416   7.524   3.610  1.00 20.00    -0.056 A 
HETATM    7  C7  UNL     1     -35.112   5.749   4.151  1.00 20.00     0.049 C 
HETATM    8  C8  UNL     1     -33.851   8.315   4.800  1.00 20.00     0.049 C 
ENDROOT
TORSDOF 0
ENDMDL
MODEL 5
REMARK VINA RESULT:      -1.3      0.725      2.401
REMARK  0 active torsions:
REMARK  status: ('A' for Active; 'I' for Inactive)
ROOT
HETATM    1  C1  UNL     1     -33.542   8.239   3.674  1.00 20.00     0.001 A 
HETATM    2  C2  UNL     1     -32.691   8.439   2.587  1.00 20.00     0.001 A 
HETATM    3  C3  UNL     1     -34.017   6.959   3.962  1.00 20.00     0.007 A 
HETATM    4  C4  UNL     1     -32.316   7.360   1.786  1.00 20.00     0.007 A 
HETATM    5  C5  UNL     1     -33.642   5.880   3.161  1.00 20.00    -0.056 A 
HETATM    6  C6  UNL     1     -32.791   6.081   2.073  1.00 20.00    -0.056 A 
HETATM    7  C7  UNL     1     -34.161   4.519   3.488  1.00 20.00     0.049 C 
HETATM    8  C8  UNL     1     -32.377   4.941   1.202  1.00 20.00     0.049 C 
ENDROOT
TORSDOF 0
ENDMDL
MODEL 6
REMARK VINA RESULT:      -1.3      0.704      2.485
REMARK  0 active torsions:
REMARK  status: ('A' for Active; 'I' for Inactive)
ROOT
HETATM    1  C1  UNL     1     -32.728   8.458   2.662  1.00 20.00     0.001 A 
HETATM    2  C2  UNL     1     -33.586   8.225   3.737  1.00 20.00     0.001 A 
HETATM    3  C3  UNL     1     -32.332   7.399   1.844  1.00 20.00     0.007 A 
HETATM    4  C4  UNL     1     -34.046   6.934   3.996  1.00 20.00     0.007 A 
HETATM    5  C5  UNL     1     -32.792   6.108   2.103  1.00 20.00    -0.056 A 
HETATM    6  C6  UNL     1     -33.649   5.876   3.179  1.00 20.00    -0.056 A 
HETATM    7  C7  UNL     1     -32.355   4.991   1.214  1.00 20.00     0.049 C 
HETATM    8  C8  UNL     1     -34.154   4.502   3.475  1.00 20.00     0.049 C 
ENDROOT
TORSDOF 0
ENDMDL
MODEL 7
REMARK VINA RESULT:      -1.1      0.967      3.416
REMARK  0 active torsions:
REMARK  status: ('A' for Active; 'I' for Inactive)
ROOT
HETATM    1  C1  UNL     1     -32.521   8.064   1.816  1.00 20.00     0.001 A 
HETATM    2  C2  UNL     1     -31.919   6.888   1.370  1.00 20.00     0.001 A 
HETATM    3  C3  UNL     1     -33.532   8.010   2.775  1.00 20.00     0.007 A 
HETATM    4  C4  UNL     1     -32.330   5.657   1.881  1.00 20.00     0.007 A 
HETATM    5  C5  UNL     1     -33.943   6.780   3.286  1.00 20.00    -0.056 A 
HETATM    6  C6  UNL     1     -33.342   5.603   2.840  1.00 20.00    -0.056 A 
HETATM    7  C7  UNL     1     -35.027   6.746   4.313  1.00 20.00     0.049 C 
HETATM    8  C8  UNL     1     -33.765   4.273   3.372  1.00 20.00     0.049 C 
ENDROOT
TORSDOF 0
ENDMDL
MODEL 8
REMARK VINA RESULT:      -0.7      0.778      2.550
REMARK  0 active torsions:
REMARK  status: ('A' for Active; 'I' for Inactive)
ROOT
HETATM    1  C1  UNL     1     -33.041   4.957   1.804  1.00 20.00     0.001 A 
HETATM    2  C2  UNL     1     -33.877   4.838   2.914  1.00 20.00     0.001 A 
HETATM    3  C3  UNL     1     -32.466   6.190   1.494  1.00 20.00     0.007 A 
HETATM    4  C4  UNL     1     -34.141   5.951   3.712  1.00 20.00     0.007 A 
HETATM    5  C5  UNL     1     -32.730   7.303   2.292  1.00 20.00    -0.056 A 
HETATM    6  C6  UNL     1     -33.567   7.183   3.401  1.00 20.00    -0.056 A 
HETATM    7  C7  UNL     1     -32.103   8.612   1.941  1.00 20.00     0.049 C 
HETATM    8  C8  UNL     1     -33.864   8.361   4.270  1.00 20.00     0.049 C 
ENDROOT
TORSDOF 0
ENDMDL
MODEL 9
REMARK VINA RESULT:      -0.7      0.798      2.526
REMARK  0 active torsions:
REMARK  status: ('A' for Active; 'I' for Inactive)
ROOT
HETATM    1  C1  UNL     1     -33.893   4.888   2.832  1.00 20.00     0.001 A 
HETATM    2  C2  UNL     1     -33.054   5.040   1.729  1.00 20.00     0.001 A 
HETATM    3  C3  UNL     1     -34.136   5.970   3.679  1.00 20.00     0.007 A 
HETATM    4  C4  UNL     1     -32.455   6.274   1.473  1.00 20.00     0.007 A 
HETATM    5  C5  UNL     1     -33.538   7.203   3.423  1.00 20.00    -0.056 A 
HETATM    6  C6  UNL     1     -32.697   7.356   2.320  1.00 20.00    -0.056 A 
HETATM    7  C7  UNL     1     -33.813   8.348   4.342  1.00 20.00     0.049 C 
HETATM    8  C8  UNL     1     -32.045   8.667   2.026  1.00 20.00     0.049 C 
ENDROOT
TORSDOF 0
ENDMDL
