MODEL 1
REMARK VINA RESULT:      -3.1      0.000      0.000
REMARK  1 active torsions:
REMARK  status: ('A' for Active; 'I' for Inactive)
REMARK    1  A    between atoms: C6_6  and  N9_9 
ROOT
HETATM    1  N8  UNL     1     -32.575   9.957  -0.111  1.00 20.00     0.068 N 
HETATM    2  N9  UNL     1     -31.537   8.353   1.330  1.00 20.00    -0.073 NA
HETATM    3  N10 UNL     1     -32.082   9.190   0.578  1.00 20.00    -0.162 NA
ENDROOT
BRANCH   2   4
HETATM    4  C6  UNL     1     -32.459   7.617   2.082  1.00 20.00     0.093 A 
HETATM    5  C3  UNL     1     -33.099   8.208   3.172  1.00 20.00     0.035 A 
HETATM    6  C1  UNL     1     -34.020   7.475   3.920  1.00 20.00     0.009 A 
HETATM    7  C5  UNL     1     -34.301   6.152   3.579  1.00 20.00    -0.062 A 
HETATM    8  C2  UNL     1     -33.662   5.562   2.488  1.00 20.00     0.009 A 
HETATM    9  C7  UNL     1     -35.285   5.368   4.380  1.00 20.00     0.048 C 
HETATM   10  C4  UNL     1     -32.741   6.295   1.740  1.00 20.00     0.035 A 
ENDBRANCH   2   4
TORSDOF 1
ENDMDL
MODEL 2
REMARK VINA RESULT:      -3.1      0.021      1.529
REMARK  1 active torsions:
REMARK  status: ('A' for Active; 'I' for Inactive)
REMARK    1  A    between atoms: C6_6  and  N9_9 
ROOT
HETATM    1  N8  UNL     1     -32.573   9.948  -0.095  1.00 20.00     0.068 N 
HETATM    2  N9  UNL     1     -31.539   8.349   1.353  1.00 20.00    -0.073 NA
HETATM    3  N10 UNL     1     -32.082   9.184   0.597  1.00 20.00    -0.162 NA
ENDROOT
BRANCH   2   4
HETATM    4  C6  UNL     1     -32.464   7.612   2.101  1.00 20.00     0.093 A 
HETATM    5  C3  UNL     1     -32.750   6.293   1.750  1.00 20.00     0.035 A 
HETATM    6  C1  UNL     1     -33.670   5.557   2.497  1.00 20.00     0.009 A 
HETATM    7  C5  UNL     1     -34.304   6.141   3.595  1.00 20.00    -0.062 A 
HETATM    8  C2  UNL     1     -34.016   7.460   3.945  1.00 20.00     0.009 A 
HETATM    9  C7  UNL     1     -35.288   5.355   4.393  1.00 20.00     0.048 C 
HETATM   10  C4  UNL     1     -33.096   8.196   3.198  1.00 20.00     0.035 A 
ENDBRANCH   2   4
TORSDOF 1
ENDMDL
MODEL 3
REMARK VINA RESULT:      -3.0      3.559      4.599
REMARK  1 active torsions:
REMARK  status: ('A' for Active; 'I' for Inactive)
REMARK    1  A    between atoms: C6_6  and  N9_9 
ROOT
HETATM    1  N8  UNL     1     -33.222   2.830   4.805  1.00 20.00     0.068 N 
HETATM    2  N9  UNL     1     -34.674   4.596   4.100  1.00 20.00    -0.073 NA
HETATM    3  N10 UNL     1     -33.913   3.674   4.467  1.00 20.00    -0.162 NA
ENDROOT
BRANCH   2   4
HETATM    4  C6  UNL     1     -34.004   5.610   3.408  1.00 20.00     0.093 A 
HETATM    5  C3  UNL     1     -34.090   6.930   3.852  1.00 20.00     0.035 A 
HETATM    6  C1  UNL     1     -33.420   7.941   3.164  1.00 20.00     0.009 A 
HETATM    7  C5  UNL     1     -32.665   7.633   2.032  1.00 20.00    -0.062 A 
HETATM    8  C2  UNL     1     -32.579   6.313   1.589  1.00 20.00     0.009 A 
HETATM    9  C7  UNL     1     -31.949   8.715   1.295  1.00 20.00     0.048 C 
HETATM   10  C4  UNL     1     -33.249   5.301   2.277  1.00 20.00     0.035 A 
ENDBRANCH   2   4
TORSDOF 1
ENDMDL
MODEL 4
REMARK VINA RESULT:      -2.9      3.560      4.840
REMARK  1 active torsions:
REMARK  status: ('A' for Active; 'I' for Inactive)
REMARK    1  A    between atoms: C6_6  and  N9_9 
ROOT
HETATM    1  N8  UNL     1     -33.220   2.825   4.806  1.00 20.00     0.068 N 
HETATM    2  N9  UNL     1     -34.671   4.591   4.100  1.00 20.00    -0.073 NA
HETATM    3  N10 UNL     1     -33.910   3.669   4.467  1.00 20.00    -0.162 NA
ENDROOT
BRANCH   2   4
HETATM    4  C6  UNL     1     -34.000   5.607   3.411  1.00 20.00     0.093 A 
HETATM    5  C3  UNL     1     -33.248   5.301   2.277  1.00 20.00     0.035 A 
HETATM    6  C1  UNL     1     -32.580   6.314   1.588  1.00 20.00     0.009 A 
HETATM    7  C5  UNL     1     -32.665   7.633   2.035  1.00 20.00    -0.062 A 
HETATM    8  C2  UNL     1     -33.417   7.939   3.169  1.00 20.00     0.009 A 
HETATM    9  C7  UNL     1     -31.950   8.716   1.300  1.00 20.00     0.048 C 
HETATM   10  C4  UNL     1     -34.085   6.926   3.857  1.00 20.00     0.035 A 
ENDBRANCH   2   4
TORSDOF 1
ENDMDL
MODEL 5
REMARK VINA RESULT:      -0.5      3.353      4.608
REMARK  1 active torsions:
REMARK  status: ('A' for Active; 'I' for Inactive)
REMARK    1  A    between atoms: C6_6  and  N9_9 
ROOT
HETATM    1  N8  UNL     1     -35.749   4.939   4.899  1.00 20.00     0.068 N 
HETATM    2  N9  UNL     1     -33.800   4.522   3.576  1.00 20.00    -0.073 NA
HETATM    3  N10 UNL     1     -34.818   4.743   4.267  1.00 20.00    -0.162 NA
ENDROOT
BRANCH   2   4
HETATM    4  C6  UNL     1     -33.326   5.667   2.926  1.00 20.00     0.093 A 
HETATM    5  C3  UNL     1     -32.593   5.545   1.746  1.00 20.00     0.035 A 
HETATM    6  C1  UNL     1     -32.122   6.686   1.097  1.00 20.00     0.009 A 
HETATM    7  C5  UNL     1     -32.386   7.949   1.628  1.00 20.00    -0.062 A 
HETATM    8  C2  UNL     1     -33.120   8.071   2.808  1.00 20.00     0.009 A 
HETATM    9  C7  UNL     1     -31.881   9.170   0.934  1.00 20.00     0.048 C 
HETATM   10  C4  UNL     1     -33.590   6.929   3.457  1.00 20.00     0.035 A 
ENDBRANCH   2   4
TORSDOF 1
ENDMDL
MODEL 6
REMARK VINA RESULT:      -0.5      3.350      4.362
REMARK  1 active torsions:
REMARK  status: ('A' for Active; 'I' for Inactive)
REMARK    1  A    between atoms: C6_6  and  N9_9 
ROOT
HETATM    1  N8  UNL     1     -35.755   4.944   4.892  1.00 20.00     0.068 N 
HETATM    2  N9  UNL     1     -33.794   4.533   3.585  1.00 20.00    -0.073 NA
HETATM    3  N10 UNL     1     -34.819   4.751   4.267  1.00 20.00    -0.162 NA
ENDROOT
BRANCH   2   4
HETATM    4  C6  UNL     1     -33.324   5.677   2.931  1.00 20.00     0.093 A 
HETATM    5  C3  UNL     1     -33.581   6.940   3.464  1.00 20.00     0.035 A 
HETATM    6  C1  UNL     1     -33.111   8.080   2.814  1.00 20.00     0.009 A 
HETATM    7  C5  UNL     1     -32.384   7.957   1.629  1.00 20.00    -0.062 A 
HETATM    8  C2  UNL     1     -32.126   6.694   1.096  1.00 20.00     0.009 A 
HETATM    9  C7  UNL     1     -31.882   9.177   0.932  1.00 20.00     0.048 C 
HETATM   10  C4  UNL     1     -32.597   5.554   1.747  1.00 20.00     0.035 A 
ENDBRANCH   2   4
TORSDOF 1
ENDMDL
