MODEL 1
REMARK VINA RESULT:      -2.6      0.000      0.000
REMARK  0 active torsions:
REMARK  status: ('A' for Active; 'I' for Inactive)
ROOT
HETATM    1  C1  UNL     1     -33.197   8.186   3.206  1.00 20.00     0.007 A 
HETATM    2  C2  UNL     1     -34.097   7.437   3.964  1.00 20.00     0.007 A 
HETATM    3  C3  UNL     1     -32.804   6.274   1.782  1.00 20.00     0.007 A 
HETATM    4  C4  UNL     1     -33.703   5.525   2.540  1.00 20.00     0.007 A 
HETATM    5  C5  UNL     1     -32.551   7.605   2.115  1.00 20.00    -0.062 A 
HETATM    6  C6  UNL     1     -34.350   6.105   3.631  1.00 20.00    -0.062 A 
HETATM    7  C7  UNL     1     -31.590   8.406   1.304  1.00 20.00     0.048 C 
HETATM    8  C8  UNL     1     -35.311   5.304   4.444  1.00 20.00     0.048 C 
ENDROOT
TORSDOF 0
ENDMDL
MODEL 2
REMARK VINA RESULT:      -2.6      0.027      3.764
REMARK  0 active torsions:
REMARK  status: ('A' for Active; 'I' for Inactive)
ROOT
HETATM    1  C1  UNL     1     -33.713   5.509   2.547  1.00 20.00     0.007 A 
HETATM    2  C2  UNL     1     -32.806   6.245   1.783  1.00 20.00     0.007 A 
HETATM    3  C3  UNL     1     -34.094   7.437   3.953  1.00 20.00     0.007 A 
HETATM    4  C4  UNL     1     -33.187   8.172   3.190  1.00 20.00     0.007 A 
HETATM    5  C5  UNL     1     -34.357   6.105   3.631  1.00 20.00    -0.062 A 
HETATM    6  C6  UNL     1     -32.544   7.577   2.105  1.00 20.00    -0.062 A 
HETATM    7  C7  UNL     1     -35.326   5.319   4.446  1.00 20.00     0.048 C 
HETATM    8  C8  UNL     1     -31.572   8.362   1.290  1.00 20.00     0.048 C 
ENDROOT
TORSDOF 0
ENDMDL
MODEL 3
REMARK VINA RESULT:      -2.6      0.032      3.354
REMARK  0 active torsions:
REMARK  status: ('A' for Active; 'I' for Inactive)
ROOT
HETATM    1  C1  UNL     1     -34.069   7.429   3.959  1.00 20.00     0.007 A 
HETATM    2  C2  UNL     1     -33.163   8.166   3.196  1.00 20.00     0.007 A 
HETATM    3  C3  UNL     1     -33.715   5.512   2.532  1.00 20.00     0.007 A 
HETATM    4  C4  UNL     1     -32.810   6.249   1.768  1.00 20.00     0.007 A 
HETATM    5  C5  UNL     1     -34.344   6.103   3.628  1.00 20.00    -0.062 A 
HETATM    6  C6  UNL     1     -32.534   7.575   2.099  1.00 20.00    -0.062 A 
HETATM    7  C7  UNL     1     -35.311   5.315   4.445  1.00 20.00     0.048 C 
HETATM    8  C8  UNL     1     -31.568   8.365   1.281  1.00 20.00     0.048 C 
ENDROOT
TORSDOF 0
ENDMDL
MODEL 4
REMARK VINA RESULT:      -2.6      0.034      1.709
REMARK  0 active torsions:
REMARK  status: ('A' for Active; 'I' for Inactive)
ROOT
HETATM    1  C1  UNL     1     -32.804   6.241   1.775  1.00 20.00     0.007 A 
HETATM    2  C2  UNL     1     -33.710   5.507   2.540  1.00 20.00     0.007 A 
HETATM    3  C3  UNL     1     -33.176   8.170   3.181  1.00 20.00     0.007 A 
HETATM    4  C4  UNL     1     -34.083   7.436   3.946  1.00 20.00     0.007 A 
HETATM    5  C5  UNL     1     -32.537   7.572   2.095  1.00 20.00    -0.062 A 
HETATM    6  C6  UNL     1     -34.350   6.105   3.626  1.00 20.00    -0.062 A 
HETATM    7  C7  UNL     1     -31.567   8.356   1.278  1.00 20.00     0.048 C 
HETATM    8  C8  UNL     1     -35.322   5.320   4.442  1.00 20.00     0.048 C 
ENDROOT
TORSDOF 0
ENDMDL
MODEL 5
REMARK VINA RESULT:      -1.4      0.953      3.031
REMARK  0 active torsions:
REMARK  status: ('A' for Active; 'I' for Inactive)
ROOT
HETATM    1  C1  UNL     1     -34.091   6.231   3.565  1.00 20.00     0.007 A 
HETATM    2  C2  UNL     1     -33.691   5.398   2.520  1.00 20.00     0.007 A 
HETATM    3  C3  UNL     1     -32.554   7.931   2.800  1.00 20.00     0.007 A 
HETATM    4  C4  UNL     1     -32.154   7.098   1.755  1.00 20.00     0.007 A 
HETATM    5  C5  UNL     1     -33.523   7.497   3.705  1.00 20.00    -0.062 A 
HETATM    6  C6  UNL     1     -32.723   5.832   1.615  1.00 20.00    -0.062 A 
HETATM    7  C7  UNL     1     -33.951   8.387   4.822  1.00 20.00     0.048 C 
HETATM    8  C8  UNL     1     -32.293   4.940   0.498  1.00 20.00     0.048 C 
ENDROOT
TORSDOF 0
ENDMDL
MODEL 6
REMARK VINA RESULT:      -1.4      0.953      2.901
REMARK  0 active torsions:
REMARK  status: ('A' for Active; 'I' for Inactive)
ROOT
HETATM    1  C1  UNL     1     -32.557   7.929   2.800  1.00 20.00     0.007 A 
HETATM    2  C2  UNL     1     -32.155   7.096   1.755  1.00 20.00     0.007 A 
HETATM    3  C3  UNL     1     -34.092   6.228   3.566  1.00 20.00     0.007 A 
HETATM    4  C4  UNL     1     -33.691   5.396   2.521  1.00 20.00     0.007 A 
HETATM    5  C5  UNL     1     -33.524   7.495   3.705  1.00 20.00    -0.062 A 
HETATM    6  C6  UNL     1     -32.723   5.829   1.616  1.00 20.00    -0.062 A 
HETATM    7  C7  UNL     1     -33.953   8.384   4.822  1.00 20.00     0.048 C 
HETATM    8  C8  UNL     1     -32.295   4.940   0.496  1.00 20.00     0.048 C 
ENDROOT
TORSDOF 0
ENDMDL
MODEL 7
REMARK VINA RESULT:      -1.4      0.953      2.314
REMARK  0 active torsions:
REMARK  status: ('A' for Active; 'I' for Inactive)
ROOT
HETATM    1  C1  UNL     1     -32.157   7.096   1.755  1.00 20.00     0.007 A 
HETATM    2  C2  UNL     1     -32.557   7.929   2.801  1.00 20.00     0.007 A 
HETATM    3  C3  UNL     1     -33.693   5.396   2.521  1.00 20.00     0.007 A 
HETATM    4  C4  UNL     1     -34.093   6.228   3.567  1.00 20.00     0.007 A 
HETATM    5  C5  UNL     1     -32.725   5.830   1.615  1.00 20.00    -0.062 A 
HETATM    6  C6  UNL     1     -33.526   7.495   3.706  1.00 20.00    -0.062 A 
HETATM    7  C7  UNL     1     -32.298   4.940   0.498  1.00 20.00     0.048 C 
HETATM    8  C8  UNL     1     -33.951   8.385   4.826  1.00 20.00     0.048 C 
ENDROOT
TORSDOF 0
ENDMDL
MODEL 8
REMARK VINA RESULT:      -1.4      0.954      2.476
REMARK  0 active torsions:
REMARK  status: ('A' for Active; 'I' for Inactive)
ROOT
HETATM    1  C1  UNL     1     -33.688   5.397   2.519  1.00 20.00     0.007 A 
HETATM    2  C2  UNL     1     -34.090   6.228   3.565  1.00 20.00     0.007 A 
HETATM    3  C3  UNL     1     -32.153   7.098   1.754  1.00 20.00     0.007 A 
HETATM    4  C4  UNL     1     -32.554   7.929   2.799  1.00 20.00     0.007 A 
HETATM    5  C5  UNL     1     -32.720   5.831   1.614  1.00 20.00    -0.062 A 
HETATM    6  C6  UNL     1     -33.522   7.495   3.705  1.00 20.00    -0.062 A 
HETATM    7  C7  UNL     1     -32.291   4.942   0.497  1.00 20.00     0.048 C 
HETATM    8  C8  UNL     1     -33.953   8.385   4.822  1.00 20.00     0.048 C 
ENDROOT
TORSDOF 0
ENDMDL
MODEL 9
REMARK VINA RESULT:      -0.1      1.623      3.709
REMARK  0 active torsions:
REMARK  status: ('A' for Active; 'I' for Inactive)
ROOT
HETATM    1  C1  UNL     1     -33.001   4.835   3.233  1.00 20.00     0.007 A 
HETATM    2  C2  UNL     1     -33.343   6.159   2.961  1.00 20.00     0.007 A 
HETATM    3  C3  UNL     1     -34.929   4.632   4.674  1.00 20.00     0.007 A 
HETATM    4  C4  UNL     1     -35.271   5.957   4.402  1.00 20.00     0.007 A 
HETATM    5  C5  UNL     1     -33.793   4.071   4.090  1.00 20.00    -0.062 A 
HETATM    6  C6  UNL     1     -34.479   6.720   3.545  1.00 20.00    -0.062 A 
HETATM    7  C7  UNL     1     -33.428   2.655   4.381  1.00 20.00     0.048 C 
HETATM    8  C8  UNL     1     -34.843   8.138   3.256  1.00 20.00     0.048 C 
ENDROOT
TORSDOF 0
ENDMDL
