MODEL 1
REMARK VINA RESULT:      -2.4      0.000      0.000
REMARK  0 active torsions:
REMARK  status: ('A' for Active; 'I' for Inactive)
ROOT
HETATM    1  C1  UNL     1     -31.862   8.178   1.444  1.00 20.00     0.018 C 
HETATM    2  C2  UNL     1     -32.567   7.456   2.095  1.00 20.00    -0.078 C 
HETATM    3  C3  UNL     1     -35.046   4.923   4.383  1.00 20.00     0.000 A 
HETATM    4  C4  UNL     1     -33.955   4.394   3.694  1.00 20.00     0.001 A 
HETATM    5  C5  UNL     1     -35.318   6.289   4.316  1.00 20.00     0.001 A 
HETATM    6  C6  UNL     1     -33.135   5.232   2.937  1.00 20.00     0.020 A 
HETATM    7  C7  UNL     1     -34.499   7.126   3.559  1.00 20.00     0.020 A 
HETATM    8  C8  UNL     1     -33.407   6.598   2.870  1.00 20.00     0.016 A 
ENDROOT
TORSDOF 0
ENDMDL
MODEL 2
REMARK VINA RESULT:      -2.4      0.003      1.708
REMARK  0 active torsions:
REMARK  status: ('A' for Active; 'I' for Inactive)
ROOT
HETATM    1  C1  UNL     1     -31.862   8.181   1.445  1.00 20.00     0.018 C 
HETATM    2  C2  UNL     1     -32.567   7.459   2.096  1.00 20.00    -0.078 C 
HETATM    3  C3  UNL     1     -35.047   4.925   4.382  1.00 20.00     0.000 A 
HETATM    4  C4  UNL     1     -35.320   6.290   4.314  1.00 20.00     0.001 A 
HETATM    5  C5  UNL     1     -33.954   4.397   3.695  1.00 20.00     0.001 A 
HETATM    6  C6  UNL     1     -34.500   7.129   3.558  1.00 20.00     0.020 A 
HETATM    7  C7  UNL     1     -33.135   5.234   2.940  1.00 20.00     0.020 A 
HETATM    8  C8  UNL     1     -33.408   6.600   2.870  1.00 20.00     0.016 A 
ENDROOT
TORSDOF 0
ENDMDL
MODEL 3
REMARK VINA RESULT:      -2.4      1.007      3.898
REMARK  0 active torsions:
REMARK  status: ('A' for Active; 'I' for Inactive)
ROOT
HETATM    1  C1  UNL     1     -35.517   5.371   4.525  1.00 20.00     0.018 C 
HETATM    2  C2  UNL     1     -34.669   5.881   3.844  1.00 20.00    -0.078 C 
HETATM    3  C3  UNL     1     -31.692   7.675   1.454  1.00 20.00     0.000 A 
HETATM    4  C4  UNL     1     -32.263   8.387   2.507  1.00 20.00     0.001 A 
HETATM    5  C5  UNL     1     -32.105   6.369   1.190  1.00 20.00     0.001 A 
HETATM    6  C6  UNL     1     -33.248   7.795   3.298  1.00 20.00     0.020 A 
HETATM    7  C7  UNL     1     -33.089   5.776   1.980  1.00 20.00     0.020 A 
HETATM    8  C8  UNL     1     -33.660   6.489   3.035  1.00 20.00     0.016 A 
ENDROOT
TORSDOF 0
ENDMDL
MODEL 4
REMARK VINA RESULT:      -2.3      1.006      3.572
REMARK  0 active torsions:
REMARK  status: ('A' for Active; 'I' for Inactive)
ROOT
HETATM    1  C1  UNL     1     -35.518   5.371   4.526  1.00 20.00     0.018 C 
HETATM    2  C2  UNL     1     -34.670   5.881   3.845  1.00 20.00    -0.078 C 
HETATM    3  C3  UNL     1     -31.693   7.674   1.454  1.00 20.00     0.000 A 
HETATM    4  C4  UNL     1     -32.105   6.368   1.191  1.00 20.00     0.001 A 
HETATM    5  C5  UNL     1     -32.264   8.387   2.507  1.00 20.00     0.001 A 
HETATM    6  C6  UNL     1     -33.090   5.775   1.981  1.00 20.00     0.020 A 
HETATM    7  C7  UNL     1     -33.248   7.795   3.298  1.00 20.00     0.020 A 
HETATM    8  C8  UNL     1     -33.661   6.489   3.035  1.00 20.00     0.016 A 
ENDROOT
TORSDOF 0
ENDMDL
MODEL 5
REMARK VINA RESULT:      -1.6      1.058      3.677
REMARK  0 active torsions:
REMARK  status: ('A' for Active; 'I' for Inactive)
ROOT
HETATM    1  C1  UNL     1     -33.210   2.139   4.624  1.00 20.00     0.018 C 
HETATM    2  C2  UNL     1     -33.526   3.254   4.307  1.00 20.00    -0.078 C 
HETATM    3  C3  UNL     1     -34.638   7.168   3.195  1.00 20.00     0.000 A 
HETATM    4  C4  UNL     1     -35.436   6.441   4.077  1.00 20.00     0.001 A 
HETATM    5  C5  UNL     1     -33.472   6.601   2.680  1.00 20.00     0.001 A 
HETATM    6  C6  UNL     1     -35.069   5.146   4.446  1.00 20.00     0.020 A 
HETATM    7  C7  UNL     1     -33.105   5.308   3.048  1.00 20.00     0.020 A 
HETATM    8  C8  UNL     1     -33.903   4.580   3.931  1.00 20.00     0.016 A 
ENDROOT
TORSDOF 0
ENDMDL
MODEL 6
REMARK VINA RESULT:      -1.6      1.501      2.569
REMARK  0 active torsions:
REMARK  status: ('A' for Active; 'I' for Inactive)
ROOT
HETATM    1  C1  UNL     1     -31.779   4.619   0.410  1.00 20.00     0.018 C 
HETATM    2  C2  UNL     1     -32.321   5.303   1.235  1.00 20.00    -0.078 C 
HETATM    3  C3  UNL     1     -34.224   7.708   4.132  1.00 20.00     0.000 A 
HETATM    4  C4  UNL     1     -33.160   8.220   3.391  1.00 20.00     0.001 A 
HETATM    5  C5  UNL     1     -34.660   6.402   3.915  1.00 20.00     0.001 A 
HETATM    6  C6  UNL     1     -32.530   7.425   2.433  1.00 20.00     0.020 A 
HETATM    7  C7  UNL     1     -34.031   5.607   2.958  1.00 20.00     0.020 A 
HETATM    8  C8  UNL     1     -32.966   6.118   2.216  1.00 20.00     0.016 A 
ENDROOT
TORSDOF 0
ENDMDL
MODEL 7
REMARK VINA RESULT:      -0.1      1.674      3.188
REMARK  0 active torsions:
REMARK  status: ('A' for Active; 'I' for Inactive)
ROOT
HETATM    1  C1  UNL     1     -33.414   4.456  -0.087  1.00 20.00     0.018 C 
HETATM    2  C2  UNL     1     -33.207   5.313   0.729  1.00 20.00    -0.078 C 
HETATM    3  C3  UNL     1     -32.479   8.323   3.593  1.00 20.00     0.000 A 
HETATM    4  C4  UNL     1     -31.681   8.238   2.453  1.00 20.00     0.001 A 
HETATM    5  C5  UNL     1     -33.518   7.413   3.786  1.00 20.00     0.001 A 
HETATM    6  C6  UNL     1     -31.921   7.242   1.505  1.00 20.00     0.020 A 
HETATM    7  C7  UNL     1     -33.758   6.418   2.840  1.00 20.00     0.020 A 
HETATM    8  C8  UNL     1     -32.961   6.333   1.699  1.00 20.00     0.016 A 
ENDROOT
TORSDOF 0
ENDMDL
MODEL 8
REMARK VINA RESULT:      -0.1      1.426      2.856
REMARK  0 active torsions:
REMARK  status: ('A' for Active; 'I' for Inactive)
ROOT
HETATM    1  C1  UNL     1     -31.896  10.573   0.668  1.00 20.00     0.018 C 
HETATM    2  C2  UNL     1     -32.242   9.508   1.102  1.00 20.00    -0.078 C 
HETATM    3  C3  UNL     1     -33.459   5.767   2.626  1.00 20.00     0.000 A 
HETATM    4  C4  UNL     1     -33.856   6.942   3.263  1.00 20.00     0.001 A 
HETATM    5  C5  UNL     1     -32.659   5.829   1.486  1.00 20.00     0.001 A 
HETATM    6  C6  UNL     1     -33.454   8.180   2.760  1.00 20.00     0.020 A 
HETATM    7  C7  UNL     1     -32.257   7.065   0.982  1.00 20.00     0.020 A 
HETATM    8  C8  UNL     1     -32.655   8.241   1.618  1.00 20.00     0.016 A 
ENDROOT
TORSDOF 0
ENDMDL
MODEL 9
REMARK VINA RESULT:       0.3      1.725      4.442
REMARK  0 active torsions:
REMARK  status: ('A' for Active; 'I' for Inactive)
ROOT
HETATM    1  C1  UNL     1     -34.222   7.103   4.145  1.00 20.00     0.018 C 
HETATM    2  C2  UNL     1     -33.635   7.616   3.231  1.00 20.00    -0.078 C 
HETATM    3  C3  UNL     1     -31.571   9.415   0.021  1.00 20.00     0.000 A 
HETATM    4  C4  UNL     1     -31.224   8.132   0.441  1.00 20.00     0.001 A 
HETATM    5  C5  UNL     1     -32.600  10.104   0.662  1.00 20.00     0.001 A 
HETATM    6  C6  UNL     1     -31.906   7.536   1.502  1.00 20.00     0.020 A 
HETATM    7  C7  UNL     1     -33.282   9.510   1.723  1.00 20.00     0.020 A 
HETATM    8  C8  UNL     1     -32.936   8.225   2.143  1.00 20.00     0.016 A 
ENDROOT
TORSDOF 0
ENDMDL
