MODEL 1
REMARK VINA RESULT:      -2.8      0.000      0.000
REMARK  1 active torsions:
REMARK  status: ('A' for Active; 'I' for Inactive)
REMARK    1  A    between atoms: C6_6  and  N8_8 
ROOT
HETATM    1  N7  UNL     1     -32.560   9.989   0.105  1.00 20.00     0.068 N 
HETATM    2  N8  UNL     1     -31.593   8.236   1.414  1.00 20.00    -0.073 NA
HETATM    3  N9  UNL     1     -32.101   9.152   0.731  1.00 20.00    -0.162 NA
ENDROOT
BRANCH   2   4
HETATM    4  C6  UNL     1     -32.537   7.530   2.165  1.00 20.00     0.093 A 
HETATM    5  C4  UNL     1     -33.168   8.144   3.248  1.00 20.00     0.034 A 
HETATM    6  C2  UNL     1     -34.109   7.439   3.997  1.00 20.00     0.002 A 
HETATM    7  C1  UNL     1     -34.421   6.121   3.665  1.00 20.00     0.000 A 
HETATM    8  C3  UNL     1     -33.791   5.507   2.583  1.00 20.00     0.002 A 
HETATM    9  C5  UNL     1     -32.848   6.212   1.833  1.00 20.00     0.034 A 
ENDBRANCH   2   4
TORSDOF 1
ENDMDL
MODEL 2
REMARK VINA RESULT:      -2.8      0.004      1.611
REMARK  1 active torsions:
REMARK  status: ('A' for Active; 'I' for Inactive)
REMARK    1  A    between atoms: C6_6  and  N8_8 
ROOT
HETATM    1  N7  UNL     1     -32.561   9.988   0.100  1.00 20.00     0.068 N 
HETATM    2  N8  UNL     1     -31.593   8.239   1.414  1.00 20.00    -0.073 NA
HETATM    3  N9  UNL     1     -32.102   9.153   0.728  1.00 20.00    -0.162 NA
ENDROOT
BRANCH   2   4
HETATM    4  C6  UNL     1     -32.536   7.532   2.164  1.00 20.00     0.093 A 
HETATM    5  C4  UNL     1     -32.846   6.213   1.830  1.00 20.00     0.034 A 
HETATM    6  C2  UNL     1     -33.788   5.507   2.579  1.00 20.00     0.002 A 
HETATM    7  C1  UNL     1     -34.418   6.119   3.662  1.00 20.00     0.000 A 
HETATM    8  C3  UNL     1     -34.108   7.437   3.997  1.00 20.00     0.002 A 
HETATM    9  C5  UNL     1     -33.167   8.143   3.247  1.00 20.00     0.034 A 
ENDBRANCH   2   4
TORSDOF 1
ENDMDL
MODEL 3
REMARK VINA RESULT:      -2.7      3.637      4.652
REMARK  1 active torsions:
REMARK  status: ('A' for Active; 'I' for Inactive)
REMARK    1  A    between atoms: C6_6  and  N8_8 
ROOT
HETATM    1  N7  UNL     1     -33.182   2.876   4.784  1.00 20.00     0.068 N 
HETATM    2  N8  UNL     1     -34.684   4.581   4.038  1.00 20.00    -0.073 NA
HETATM    3  N9  UNL     1     -33.896   3.692   4.427  1.00 20.00    -0.162 NA
ENDROOT
BRANCH   2   4
HETATM    4  C6  UNL     1     -34.030   5.666   3.446  1.00 20.00     0.093 A 
HETATM    5  C4  UNL     1     -33.242   5.470   2.311  1.00 20.00     0.034 A 
HETATM    6  C2  UNL     1     -32.589   6.553   1.722  1.00 20.00     0.002 A 
HETATM    7  C1  UNL     1     -32.725   7.830   2.264  1.00 20.00     0.000 A 
HETATM    8  C3  UNL     1     -33.513   8.026   3.398  1.00 20.00     0.002 A 
HETATM    9  C5  UNL     1     -34.165   6.943   3.989  1.00 20.00     0.034 A 
ENDBRANCH   2   4
TORSDOF 1
ENDMDL
MODEL 4
REMARK VINA RESULT:      -2.7      3.637      4.381
REMARK  1 active torsions:
REMARK  status: ('A' for Active; 'I' for Inactive)
REMARK    1  A    between atoms: C6_6  and  N8_8 
ROOT
HETATM    1  N7  UNL     1     -33.182   2.875   4.783  1.00 20.00     0.068 N 
HETATM    2  N8  UNL     1     -34.684   4.580   4.037  1.00 20.00    -0.073 NA
HETATM    3  N9  UNL     1     -33.897   3.691   4.426  1.00 20.00    -0.162 NA
ENDROOT
BRANCH   2   4
HETATM    4  C6  UNL     1     -34.030   5.664   3.444  1.00 20.00     0.093 A 
HETATM    5  C4  UNL     1     -34.166   6.942   3.987  1.00 20.00     0.034 A 
HETATM    6  C2  UNL     1     -33.513   8.024   3.395  1.00 20.00     0.002 A 
HETATM    7  C1  UNL     1     -32.724   7.828   2.262  1.00 20.00     0.000 A 
HETATM    8  C3  UNL     1     -32.588   6.551   1.720  1.00 20.00     0.002 A 
HETATM    9  C5  UNL     1     -33.241   5.469   2.311  1.00 20.00     0.034 A 
ENDBRANCH   2   4
TORSDOF 1
ENDMDL
MODEL 5
REMARK VINA RESULT:      -1.7      0.874      1.126
REMARK  1 active torsions:
REMARK  status: ('A' for Active; 'I' for Inactive)
REMARK    1  A    between atoms: C6_6  and  N8_8 
ROOT
HETATM    1  N7  UNL     1     -32.270   9.290   0.957  1.00 20.00     0.068 N 
HETATM    2  N8  UNL     1     -32.036   7.034   1.716  1.00 20.00    -0.073 NA
HETATM    3  N9  UNL     1     -32.161   8.214   1.321  1.00 20.00    -0.162 NA
ENDROOT
BRANCH   2   4
HETATM    4  C6  UNL     1     -33.055   6.642   2.588  1.00 20.00     0.093 A 
HETATM    5  C4  UNL     1     -33.779   7.605   3.293  1.00 20.00     0.034 A 
HETATM    6  C2  UNL     1     -34.796   7.213   4.164  1.00 20.00     0.002 A 
HETATM    7  C1  UNL     1     -35.091   5.860   4.329  1.00 20.00     0.000 A 
HETATM    8  C3  UNL     1     -34.368   4.898   3.625  1.00 20.00     0.002 A 
HETATM    9  C5  UNL     1     -33.350   5.289   2.755  1.00 20.00     0.034 A 
ENDBRANCH   2   4
TORSDOF 1
ENDMDL
MODEL 6
REMARK VINA RESULT:      -0.5      2.047      3.064
REMARK  1 active torsions:
REMARK  status: ('A' for Active; 'I' for Inactive)
REMARK    1  A    between atoms: C6_6  and  N8_8 
ROOT
HETATM    1  N7  UNL     1     -31.642   4.705   0.465  1.00 20.00     0.068 N 
HETATM    2  N8  UNL     1     -32.491   6.478   1.827  1.00 20.00    -0.073 NA
HETATM    3  N9  UNL     1     -32.049   5.549   1.116  1.00 20.00    -0.162 NA
ENDROOT
BRANCH   2   4
HETATM    4  C6  UNL     1     -33.428   6.043   2.769  1.00 20.00     0.093 A 
HETATM    5  C4  UNL     1     -33.382   4.732   3.244  1.00 20.00     0.034 A 
HETATM    6  C2  UNL     1     -34.318   4.299   4.184  1.00 20.00     0.002 A 
HETATM    7  C1  UNL     1     -35.297   5.176   4.650  1.00 20.00     0.000 A 
HETATM    8  C3  UNL     1     -35.342   6.487   4.176  1.00 20.00     0.002 A 
HETATM    9  C5  UNL     1     -34.407   6.920   3.234  1.00 20.00     0.034 A 
ENDBRANCH   2   4
TORSDOF 1
ENDMDL
MODEL 7
REMARK VINA RESULT:      -0.2      2.294      2.925
REMARK  1 active torsions:
REMARK  status: ('A' for Active; 'I' for Inactive)
REMARK    1  A    between atoms: C6_6  and  N8_8 
ROOT
HETATM    1  N7  UNL     1     -33.693   4.237  -0.345  1.00 20.00     0.068 N 
HETATM    2  N8  UNL     1     -32.178   5.381   1.110  1.00 20.00    -0.073 NA
HETATM    3  N9  UNL     1     -32.972   4.784   0.351  1.00 20.00    -0.162 NA
ENDROOT
BRANCH   2   4
HETATM    4  C6  UNL     1     -32.826   6.145   2.083  1.00 20.00     0.093 A 
HETATM    5  C4  UNL     1     -32.442   7.469   2.300  1.00 20.00     0.034 A 
HETATM    6  C2  UNL     1     -33.090   8.233   3.272  1.00 20.00     0.002 A 
HETATM    7  C1  UNL     1     -34.122   7.674   4.026  1.00 20.00     0.000 A 
HETATM    8  C3  UNL     1     -34.506   6.351   3.809  1.00 20.00     0.002 A 
HETATM    9  C5  UNL     1     -33.858   5.587   2.838  1.00 20.00     0.034 A 
ENDBRANCH   2   4
TORSDOF 1
ENDMDL
MODEL 8
REMARK VINA RESULT:      -0.2      2.287      3.099
REMARK  1 active torsions:
REMARK  status: ('A' for Active; 'I' for Inactive)
REMARK    1  A    between atoms: C6_6  and  N8_8 
ROOT
HETATM    1  N7  UNL     1     -33.665   4.244  -0.346  1.00 20.00     0.068 N 
HETATM    2  N8  UNL     1     -32.166   5.382   1.129  1.00 20.00    -0.073 NA
HETATM    3  N9  UNL     1     -32.952   4.789   0.359  1.00 20.00    -0.162 NA
ENDROOT
BRANCH   2   4
HETATM    4  C6  UNL     1     -32.825   6.148   2.095  1.00 20.00     0.093 A 
HETATM    5  C4  UNL     1     -33.859   5.585   2.845  1.00 20.00     0.034 A 
HETATM    6  C2  UNL     1     -34.516   6.350   3.809  1.00 20.00     0.002 A 
HETATM    7  C1  UNL     1     -34.141   7.676   4.024  1.00 20.00     0.000 A 
HETATM    8  C3  UNL     1     -33.108   8.238   3.274  1.00 20.00     0.002 A 
HETATM    9  C5  UNL     1     -32.450   7.474   2.310  1.00 20.00     0.034 A 
ENDBRANCH   2   4
TORSDOF 1
ENDMDL
MODEL 9
REMARK VINA RESULT:      -0.1      2.685      3.667
REMARK  1 active torsions:
REMARK  status: ('A' for Active; 'I' for Inactive)
REMARK    1  A    between atoms: C6_6  and  N8_8 
ROOT
HETATM    1  N7  UNL     1     -33.111   8.493   5.869  1.00 20.00     0.068 N 
HETATM    2  N8  UNL     1     -34.317   7.478   4.070  1.00 20.00    -0.073 NA
HETATM    3  N9  UNL     1     -33.684   8.008   5.009  1.00 20.00    -0.162 NA
ENDROOT
BRANCH   2   4
HETATM    4  C6  UNL     1     -33.490   7.067   3.020  1.00 20.00     0.093 A 
HETATM    5  C4  UNL     1     -33.557   5.754   2.553  1.00 20.00     0.034 A 
HETATM    6  C2  UNL     1     -32.731   5.345   1.505  1.00 20.00     0.002 A 
HETATM    7  C1  UNL     1     -31.842   6.248   0.924  1.00 20.00     0.000 A 
HETATM    8  C3  UNL     1     -31.776   7.560   1.390  1.00 20.00     0.002 A 
HETATM    9  C5  UNL     1     -32.600   7.970   2.439  1.00 20.00     0.034 A 
ENDBRANCH   2   4
TORSDOF 1
ENDMDL
