MODEL 1
REMARK VINA RESULT:      -2.2      0.000      0.000
REMARK  2 active torsions:
REMARK  status: ('A' for Active; 'I' for Inactive)
REMARK    1  A    between atoms: C6_6  and  C10_10 
REMARK    2  A    between atoms: C9_9  and  C10_10 
ROOT
HETATM    1  C1  UNL     1     -31.861   7.889   1.420  1.00 20.00     0.000 A 
HETATM    2  C2  UNL     1     -32.366   8.444   2.597  1.00 20.00     0.001 A 
HETATM    3  C3  UNL     1     -32.114   6.551   1.116  1.00 20.00     0.001 A 
HETATM    4  C4  UNL     1     -33.123   7.661   3.468  1.00 20.00     0.007 A 
HETATM    5  C5  UNL     1     -32.872   5.769   1.987  1.00 20.00     0.007 A 
HETATM    6  C6  UNL     1     -33.377   6.324   3.164  1.00 20.00    -0.054 A 
ENDROOT
BRANCH   6   7
HETATM    7  C10 UNL     1     -34.202   5.470   4.112  1.00 20.00     0.014 C 
HETATM    8  C8  UNL     1     -35.666   5.922   4.106  1.00 20.00     0.015 C 
BRANCH   7   9
HETATM    9  C9  UNL     1     -34.105   3.961   3.809  1.00 20.00     0.004 C 
HETATM   10  C7  UNL     1     -33.243   3.204   4.812  1.00 20.00     0.006 C 
ENDBRANCH   7   9
ENDBRANCH   6   7
TORSDOF 2
ENDMDL
MODEL 2
REMARK VINA RESULT:      -2.2      0.012      1.528
REMARK  2 active torsions:
REMARK  status: ('A' for Active; 'I' for Inactive)
REMARK    1  A    between atoms: C6_6  and  C10_10 
REMARK    2  A    between atoms: C9_9  and  C10_10 
ROOT
HETATM    1  C1  UNL     1     -31.859   7.889   1.418  1.00 20.00     0.000 A 
HETATM    2  C2  UNL     1     -32.110   6.550   1.116  1.00 20.00     0.001 A 
HETATM    3  C3  UNL     1     -32.370   8.447   2.590  1.00 20.00     0.001 A 
HETATM    4  C4  UNL     1     -32.871   5.770   1.987  1.00 20.00     0.007 A 
HETATM    5  C5  UNL     1     -33.130   7.667   3.460  1.00 20.00     0.007 A 
HETATM    6  C6  UNL     1     -33.381   6.328   3.159  1.00 20.00    -0.054 A 
ENDROOT
BRANCH   6   7
HETATM    7  C10 UNL     1     -34.210   5.480   4.108  1.00 20.00     0.014 C 
HETATM    8  C8  UNL     1     -35.675   5.933   4.094  1.00 20.00     0.015 C 
BRANCH   7   9
HETATM    9  C9  UNL     1     -34.114   3.969   3.812  1.00 20.00     0.004 C 
HETATM   10  C7  UNL     1     -33.255   3.216   4.821  1.00 20.00     0.006 C 
ENDBRANCH   7   9
ENDBRANCH   6   7
TORSDOF 2
ENDMDL
MODEL 3
REMARK VINA RESULT:      -1.7      1.445      4.615
REMARK  2 active torsions:
REMARK  status: ('A' for Active; 'I' for Inactive)
REMARK    1  A    between atoms: C6_6  and  C10_10 
REMARK    2  A    between atoms: C9_9  and  C10_10 
ROOT
HETATM    1  C1  UNL     1     -34.386   5.796   3.607  1.00 20.00     0.000 A 
HETATM    2  C2  UNL     1     -34.340   7.121   4.044  1.00 20.00     0.001 A 
HETATM    3  C3  UNL     1     -33.636   5.400   2.500  1.00 20.00     0.001 A 
HETATM    4  C4  UNL     1     -33.543   8.048   3.372  1.00 20.00     0.007 A 
HETATM    5  C5  UNL     1     -32.839   6.328   1.829  1.00 20.00     0.007 A 
HETATM    6  C6  UNL     1     -32.792   7.652   2.266  1.00 20.00    -0.054 A 
ENDROOT
BRANCH   6   7
HETATM    7  C10 UNL     1     -31.924   8.662   1.534  1.00 20.00     0.014 C 
HETATM    8  C8  UNL     1     -31.222   8.003   0.341  1.00 20.00     0.015 C 
BRANCH   7   9
HETATM    9  C9  UNL     1     -32.702   9.911   1.075  1.00 20.00     0.004 C 
HETATM   10  C7  UNL     1     -32.686  10.105  -0.436  1.00 20.00     0.006 C 
ENDBRANCH   7   9
ENDBRANCH   6   7
TORSDOF 2
ENDMDL
MODEL 4
REMARK VINA RESULT:      -1.7      1.445      4.856
REMARK  2 active torsions:
REMARK  status: ('A' for Active; 'I' for Inactive)
REMARK    1  A    between atoms: C6_6  and  C10_10 
REMARK    2  A    between atoms: C9_9  and  C10_10 
ROOT
HETATM    1  C1  UNL     1     -34.388   5.797   3.610  1.00 20.00     0.000 A 
HETATM    2  C2  UNL     1     -33.637   5.398   2.503  1.00 20.00     0.001 A 
HETATM    3  C3  UNL     1     -34.340   7.122   4.043  1.00 20.00     0.001 A 
HETATM    4  C4  UNL     1     -32.840   6.324   1.831  1.00 20.00     0.007 A 
HETATM    5  C5  UNL     1     -33.543   8.048   3.371  1.00 20.00     0.007 A 
HETATM    6  C6  UNL     1     -32.792   7.649   2.264  1.00 20.00    -0.054 A 
ENDROOT
BRANCH   6   7
HETATM    7  C10 UNL     1     -31.924   8.659   1.533  1.00 20.00     0.014 C 
HETATM    8  C8  UNL     1     -31.222   8.000   0.340  1.00 20.00     0.015 C 
BRANCH   7   9
HETATM    9  C9  UNL     1     -32.703   9.908   1.073  1.00 20.00     0.004 C 
HETATM   10  C7  UNL     1     -32.682  10.103  -0.438  1.00 20.00     0.006 C 
ENDBRANCH   7   9
ENDBRANCH   6   7
TORSDOF 2
ENDMDL
MODEL 5
REMARK VINA RESULT:      -1.4      0.983      4.216
REMARK  2 active torsions:
REMARK  status: ('A' for Active; 'I' for Inactive)
REMARK    1  A    between atoms: C6_6  and  C10_10 
REMARK    2  A    between atoms: C9_9  and  C10_10 
ROOT
HETATM    1  C1  UNL     1     -35.343   5.119   4.584  1.00 20.00     0.000 A 
HETATM    2  C2  UNL     1     -35.347   6.467   4.222  1.00 20.00     0.001 A 
HETATM    3  C3  UNL     1     -34.316   4.283   4.146  1.00 20.00     0.001 A 
HETATM    4  C4  UNL     1     -34.323   6.977   3.424  1.00 20.00     0.007 A 
HETATM    5  C5  UNL     1     -33.292   4.793   3.348  1.00 20.00     0.007 A 
HETATM    6  C6  UNL     1     -33.296   6.142   2.987  1.00 20.00    -0.054 A 
ENDROOT
BRANCH   6   7
HETATM    7  C10 UNL     1     -32.181   6.696   2.117  1.00 20.00     0.014 C 
HETATM    8  C8  UNL     1     -32.145   5.976   0.765  1.00 20.00     0.015 C 
BRANCH   7   9
HETATM    9  C9  UNL     1     -32.276   8.222   1.909  1.00 20.00     0.004 C 
HETATM   10  C7  UNL     1     -31.915   8.656   0.494  1.00 20.00     0.006 C 
ENDBRANCH   7   9
ENDBRANCH   6   7
TORSDOF 2
ENDMDL
MODEL 6
REMARK VINA RESULT:      -1.4      0.987      4.439
REMARK  2 active torsions:
REMARK  status: ('A' for Active; 'I' for Inactive)
REMARK    1  A    between atoms: C6_6  and  C10_10 
REMARK    2  A    between atoms: C9_9  and  C10_10 
ROOT
HETATM    1  C1  UNL     1     -35.346   5.136   4.557  1.00 20.00     0.000 A 
HETATM    2  C2  UNL     1     -34.307   4.325   4.098  1.00 20.00     0.001 A 
HETATM    3  C3  UNL     1     -35.372   6.491   4.226  1.00 20.00     0.001 A 
HETATM    4  C4  UNL     1     -33.295   4.871   3.308  1.00 20.00     0.007 A 
HETATM    5  C5  UNL     1     -34.360   7.036   3.436  1.00 20.00     0.007 A 
HETATM    6  C6  UNL     1     -33.321   6.225   2.977  1.00 20.00    -0.054 A 
ENDROOT
BRANCH   6   7
HETATM    7  C10 UNL     1     -32.219   6.820   2.117  1.00 20.00     0.014 C 
HETATM    8  C8  UNL     1     -32.169   6.126   0.751  1.00 20.00     0.015 C 
BRANCH   7   9
HETATM    9  C9  UNL     1     -32.347   8.346   1.938  1.00 20.00     0.004 C 
HETATM   10  C7  UNL     1     -31.989   8.816   0.533  1.00 20.00     0.006 C 
ENDBRANCH   7   9
ENDBRANCH   6   7
TORSDOF 2
ENDMDL
MODEL 7
REMARK VINA RESULT:      -0.9      1.144      3.768
REMARK  2 active torsions:
REMARK  status: ('A' for Active; 'I' for Inactive)
REMARK    1  A    between atoms: C6_6  and  C10_10 
REMARK    2  A    between atoms: C9_9  and  C10_10 
ROOT
HETATM    1  C1  UNL     1     -35.289   5.218   4.714  1.00 20.00     0.000 A 
HETATM    2  C2  UNL     1     -35.356   6.510   4.190  1.00 20.00     0.001 A 
HETATM    3  C3  UNL     1     -34.347   4.315   4.223  1.00 20.00     0.001 A 
HETATM    4  C4  UNL     1     -34.480   6.896   3.176  1.00 20.00     0.007 A 
HETATM    5  C5  UNL     1     -33.471   4.701   3.210  1.00 20.00     0.007 A 
HETATM    6  C6  UNL     1     -33.537   5.993   2.686  1.00 20.00    -0.054 A 
ENDROOT
BRANCH   6   7
HETATM    7  C10 UNL     1     -32.583   6.413   1.581  1.00 20.00     0.014 C 
HETATM    8  C8  UNL     1     -32.009   7.806   1.867  1.00 20.00     0.015 C 
BRANCH   7   9
HETATM    9  C9  UNL     1     -31.443   5.401   1.348  1.00 20.00     0.004 C 
HETATM   10  C7  UNL     1     -31.753   4.394   0.247  1.00 20.00     0.006 C 
ENDBRANCH   7   9
ENDBRANCH   6   7
TORSDOF 2
ENDMDL
MODEL 8
REMARK VINA RESULT:      -0.9      1.142      3.993
REMARK  2 active torsions:
REMARK  status: ('A' for Active; 'I' for Inactive)
REMARK    1  A    between atoms: C6_6  and  C10_10 
REMARK    2  A    between atoms: C9_9  and  C10_10 
ROOT
HETATM    1  C1  UNL     1     -35.293   5.214   4.716  1.00 20.00     0.000 A 
HETATM    2  C2  UNL     1     -34.347   4.313   4.225  1.00 20.00     0.001 A 
HETATM    3  C3  UNL     1     -35.363   6.505   4.193  1.00 20.00     0.001 A 
HETATM    4  C4  UNL     1     -33.472   4.705   3.211  1.00 20.00     0.007 A 
HETATM    5  C5  UNL     1     -34.489   6.896   3.179  1.00 20.00     0.007 A 
HETATM    6  C6  UNL     1     -33.543   5.995   2.688  1.00 20.00    -0.054 A 
ENDROOT
BRANCH   6   7
HETATM    7  C10 UNL     1     -32.591   6.422   1.583  1.00 20.00     0.014 C 
HETATM    8  C8  UNL     1     -32.017   7.813   1.876  1.00 20.00     0.015 C 
BRANCH   7   9
HETATM    9  C9  UNL     1     -31.451   5.412   1.342  1.00 20.00     0.004 C 
HETATM   10  C7  UNL     1     -31.770   4.399   0.249  1.00 20.00     0.006 C 
ENDBRANCH   7   9
ENDBRANCH   6   7
TORSDOF 2
ENDMDL
MODEL 9
REMARK VINA RESULT:      -0.7      0.973      4.398
REMARK  2 active torsions:
REMARK  status: ('A' for Active; 'I' for Inactive)
REMARK    1  A    between atoms: C6_6  and  C10_10 
REMARK    2  A    between atoms: C9_9  and  C10_10 
ROOT
HETATM    1  C1  UNL     1     -35.017   4.719   4.306  1.00 20.00     0.000 A 
HETATM    2  C2  UNL     1     -33.842   4.471   3.594  1.00 20.00     0.001 A 
HETATM    3  C3  UNL     1     -35.480   6.026   4.455  1.00 20.00     0.001 A 
HETATM    4  C4  UNL     1     -33.132   5.532   3.032  1.00 20.00     0.007 A 
HETATM    5  C5  UNL     1     -34.770   7.086   3.892  1.00 20.00     0.007 A 
HETATM    6  C6  UNL     1     -33.596   6.839   3.180  1.00 20.00    -0.054 A 
ENDROOT
BRANCH   6   7
HETATM    7  C10 UNL     1     -32.823   7.995   2.567  1.00 20.00     0.014 C 
HETATM    8  C8  UNL     1     -31.859   8.600   3.594  1.00 20.00     0.015 C 
BRANCH   7   9
HETATM    9  C9  UNL     1     -32.063   7.604   1.284  1.00 20.00     0.004 C 
HETATM   10  C7  UNL     1     -31.623   8.807   0.459  1.00 20.00     0.006 C 
ENDBRANCH   7   9
ENDBRANCH   6   7
TORSDOF 2
ENDMDL
