MODEL 1
REMARK VINA RESULT:      -2.8      0.000      0.000
REMARK  1 active torsions:
REMARK  status: ('A' for Active; 'I' for Inactive)
REMARK    1  A    between atoms: C6_6  and  C8_8 
ROOT
HETATM    1  C1  UNL     1     -31.752   7.204   1.417  1.00 20.00     0.000 A 
HETATM    2  C2  UNL     1     -32.190   8.191   2.299  1.00 20.00     0.001 A 
HETATM    3  C3  UNL     1     -32.375   5.956   1.403  1.00 20.00     0.001 A 
HETATM    4  C4  UNL     1     -33.251   7.931   3.168  1.00 20.00     0.011 A 
HETATM    5  C5  UNL     1     -33.436   5.694   2.271  1.00 20.00     0.011 A 
HETATM    6  C6  UNL     1     -33.874   6.682   3.153  1.00 20.00    -0.037 A 
ENDROOT
BRANCH   6   7
HETATM    7  C8  UNL     1     -34.980   6.411   4.057  1.00 20.00     0.001 C 
HETATM    8  C7  UNL     1     -35.305   5.196   4.476  1.00 20.00     0.012 C 
ENDBRANCH   6   7
TORSDOF 1
ENDMDL
MODEL 2
REMARK VINA RESULT:      -2.8      0.232      1.717
REMARK  1 active torsions:
REMARK  status: ('A' for Active; 'I' for Inactive)
REMARK    1  A    between atoms: C6_6  and  C8_8 
ROOT
HETATM    1  C1  UNL     1     -31.825   7.428   1.611  1.00 20.00     0.000 A 
HETATM    2  C2  UNL     1     -32.430   6.184   1.427  1.00 20.00     0.001 A 
HETATM    3  C3  UNL     1     -32.290   8.289   2.605  1.00 20.00     0.001 A 
HETATM    4  C4  UNL     1     -33.499   5.802   2.238  1.00 20.00     0.011 A 
HETATM    5  C5  UNL     1     -33.359   7.907   3.416  1.00 20.00     0.011 A 
HETATM    6  C6  UNL     1     -33.964   6.664   3.232  1.00 20.00    -0.037 A 
ENDROOT
BRANCH   6   7
HETATM    7  C8  UNL     1     -35.078   6.265   4.077  1.00 20.00     0.001 C 
HETATM    8  C7  UNL     1     -35.257   5.030   4.524  1.00 20.00     0.012 C 
ENDBRANCH   6   7
TORSDOF 1
ENDMDL
MODEL 3
REMARK VINA RESULT:      -2.8      1.050      3.773
REMARK  1 active torsions:
REMARK  status: ('A' for Active; 'I' for Inactive)
REMARK    1  A    between atoms: C6_6  and  C8_8 
ROOT
HETATM    1  C1  UNL     1     -34.388   5.952   3.691  1.00 20.00     0.000 A 
HETATM    2  C2  UNL     1     -33.709   5.415   2.597  1.00 20.00     0.001 A 
HETATM    3  C3  UNL     1     -34.219   7.296   4.024  1.00 20.00     0.001 A 
HETATM    4  C4  UNL     1     -32.862   6.221   1.836  1.00 20.00     0.011 A 
HETATM    5  C5  UNL     1     -33.372   8.103   3.264  1.00 20.00     0.011 A 
HETATM    6  C6  UNL     1     -32.694   7.566   2.170  1.00 20.00    -0.037 A 
ENDROOT
BRANCH   6   7
HETATM    7  C8  UNL     1     -31.811   8.406   1.377  1.00 20.00     0.001 C 
HETATM    8  C7  UNL     1     -32.240   9.375   0.579  1.00 20.00     0.012 C 
ENDBRANCH   6   7
TORSDOF 1
ENDMDL
MODEL 4
REMARK VINA RESULT:      -2.7      1.054      3.404
REMARK  1 active torsions:
REMARK  status: ('A' for Active; 'I' for Inactive)
REMARK    1  A    between atoms: C6_6  and  C8_8 
ROOT
HETATM    1  C1  UNL     1     -34.364   5.975   3.684  1.00 20.00     0.000 A 
HETATM    2  C2  UNL     1     -34.187   7.316   4.023  1.00 20.00     0.001 A 
HETATM    3  C3  UNL     1     -33.697   5.441   2.582  1.00 20.00     0.001 A 
HETATM    4  C4  UNL     1     -33.341   8.124   3.261  1.00 20.00     0.011 A 
HETATM    5  C5  UNL     1     -32.852   6.247   1.819  1.00 20.00     0.011 A 
HETATM    6  C6  UNL     1     -32.674   7.588   2.158  1.00 20.00    -0.037 A 
ENDROOT
BRANCH   6   7
HETATM    7  C8  UNL     1     -31.793   8.429   1.364  1.00 20.00     0.001 C 
HETATM    8  C7  UNL     1     -32.221   9.407   0.578  1.00 20.00     0.012 C 
ENDBRANCH   6   7
TORSDOF 1
ENDMDL
MODEL 5
REMARK VINA RESULT:      -2.5      0.938      1.086
REMARK  1 active torsions:
REMARK  status: ('A' for Active; 'I' for Inactive)
REMARK    1  A    between atoms: C6_6  and  C8_8 
ROOT
HETATM    1  C1  UNL     1     -32.148   7.956   1.860  1.00 20.00     0.000 A 
HETATM    2  C2  UNL     1     -32.840   8.303   3.021  1.00 20.00     0.001 A 
HETATM    3  C3  UNL     1     -32.223   6.653   1.368  1.00 20.00     0.001 A 
HETATM    4  C4  UNL     1     -33.606   7.347   3.690  1.00 20.00     0.011 A 
HETATM    5  C5  UNL     1     -32.988   5.697   2.036  1.00 20.00     0.011 A 
HETATM    6  C6  UNL     1     -33.679   6.044   3.197  1.00 20.00    -0.037 A 
ENDROOT
BRANCH   6   7
HETATM    7  C8  UNL     1     -34.478   5.047   3.893  1.00 20.00     0.001 C 
HETATM    8  C7  UNL     1     -34.004   3.876   4.295  1.00 20.00     0.012 C 
ENDBRANCH   6   7
TORSDOF 1
ENDMDL
MODEL 6
REMARK VINA RESULT:      -2.4      0.832      3.797
REMARK  1 active torsions:
REMARK  status: ('A' for Active; 'I' for Inactive)
REMARK    1  A    between atoms: C6_6  and  C8_8 
ROOT
HETATM    1  C1  UNL     1     -35.148   5.135   4.495  1.00 20.00     0.000 A 
HETATM    2  C2  UNL     1     -34.168   4.323   3.923  1.00 20.00     0.001 A 
HETATM    3  C3  UNL     1     -35.216   6.487   4.158  1.00 20.00     0.001 A 
HETATM    4  C4  UNL     1     -33.257   4.862   3.014  1.00 20.00     0.011 A 
HETATM    5  C5  UNL     1     -34.306   7.027   3.250  1.00 20.00     0.011 A 
HETATM    6  C6  UNL     1     -33.326   6.215   2.678  1.00 20.00    -0.037 A 
ENDROOT
BRANCH   6   7
HETATM    7  C8  UNL     1     -32.377   6.778   1.730  1.00 20.00     0.001 C 
HETATM    8  C7  UNL     1     -31.985   8.044   1.748  1.00 20.00     0.012 C 
ENDBRANCH   6   7
TORSDOF 1
ENDMDL
MODEL 7
REMARK VINA RESULT:      -2.0      1.753      3.108
REMARK  1 active torsions:
REMARK  status: ('A' for Active; 'I' for Inactive)
REMARK    1  A    between atoms: C6_6  and  C8_8 
ROOT
HETATM    1  C1  UNL     1     -34.609   7.176   3.269  1.00 20.00     0.000 A 
HETATM    2  C2  UNL     1     -33.477   6.613   2.680  1.00 20.00     0.001 A 
HETATM    3  C3  UNL     1     -35.392   6.418   4.139  1.00 20.00     0.001 A 
HETATM    4  C4  UNL     1     -33.127   5.291   2.962  1.00 20.00     0.011 A 
HETATM    5  C5  UNL     1     -35.044   5.097   4.421  1.00 20.00     0.011 A 
HETATM    6  C6  UNL     1     -33.912   4.534   3.833  1.00 20.00    -0.037 A 
ENDROOT
BRANCH   6   7
HETATM    7  C8  UNL     1     -33.548   3.156   4.127  1.00 20.00     0.001 C 
HETATM    8  C7  UNL     1     -32.868   2.790   5.205  1.00 20.00     0.012 C 
ENDBRANCH   6   7
TORSDOF 1
ENDMDL
MODEL 8
REMARK VINA RESULT:      -1.6      0.945      3.372
REMARK  1 active torsions:
REMARK  status: ('A' for Active; 'I' for Inactive)
REMARK    1  A    between atoms: C6_6  and  C8_8 
ROOT
HETATM    1  C1  UNL     1     -34.154   7.660   4.278  1.00 20.00     0.000 A 
HETATM    2  C2  UNL     1     -34.645   6.394   3.958  1.00 20.00     0.001 A 
HETATM    3  C3  UNL     1     -33.136   8.227   3.513  1.00 20.00     0.001 A 
HETATM    4  C4  UNL     1     -34.117   5.695   2.871  1.00 20.00     0.011 A 
HETATM    5  C5  UNL     1     -32.607   7.530   2.427  1.00 20.00     0.011 A 
HETATM    6  C6  UNL     1     -33.098   6.264   2.106  1.00 20.00    -0.037 A 
ENDROOT
BRANCH   6   7
HETATM    7  C8  UNL     1     -32.547   5.536   0.973  1.00 20.00     0.001 C 
HETATM    8  C7  UNL     1     -31.475   4.760   1.049  1.00 20.00     0.012 C 
ENDBRANCH   6   7
TORSDOF 1
ENDMDL
MODEL 9
REMARK VINA RESULT:      -1.6      0.950      3.064
REMARK  1 active torsions:
REMARK  status: ('A' for Active; 'I' for Inactive)
REMARK    1  A    between atoms: C6_6  and  C8_8 
ROOT
HETATM    1  C1  UNL     1     -34.180   7.640   4.322  1.00 20.00     0.000 A 
HETATM    2  C2  UNL     1     -33.139   8.211   3.590  1.00 20.00     0.001 A 
HETATM    3  C3  UNL     1     -34.678   6.387   3.964  1.00 20.00     0.001 A 
HETATM    4  C4  UNL     1     -32.596   7.530   2.500  1.00 20.00     0.011 A 
HETATM    5  C5  UNL     1     -34.136   5.705   2.874  1.00 20.00     0.011 A 
HETATM    6  C6  UNL     1     -33.095   6.277   2.142  1.00 20.00    -0.037 A 
ENDROOT
BRANCH   6   7
HETATM    7  C8  UNL     1     -32.529   5.567   1.006  1.00 20.00     0.001 C 
HETATM    8  C7  UNL     1     -31.480   4.761   1.092  1.00 20.00     0.012 C 
ENDBRANCH   6   7
TORSDOF 1
ENDMDL
