MODEL 1
REMARK VINA RESULT:      -1.1      0.000      0.000
REMARK  0 active torsions:
REMARK  status: ('A' for Active; 'I' for Inactive)
ROOT
HETATM    1  C1  UNL     1     -35.146   6.382   4.569  1.00 20.00     0.001 A 
HETATM    2  C2  UNL     1     -34.897   5.086   4.141  1.00 20.00     0.001 A 
HETATM    3  C3  UNL     1     -34.433   7.454   4.026  1.00 20.00     0.013 A 
HETATM    4  C4  UNL     1     -33.931   4.832   3.164  1.00 20.00     0.019 A 
HETATM    5  C5  UNL     1     -32.599   8.153   2.337  1.00 20.00     0.020 A 
HETATM    6  C6  UNL     1     -31.763   7.536   1.436  1.00 20.00     0.051 A 
HETATM    7  C7  UNL     1     -33.448   7.229   3.034  1.00 20.00    -0.019 A 
HETATM    8  C8  UNL     1     -33.214   5.915   2.619  1.00 20.00     0.015 A 
HETATM    9  S9  UNL     1     -31.985   5.846   1.412  1.00 20.00    -0.101 SA
ENDROOT
TORSDOF 0
ENDMDL
MODEL 2
REMARK VINA RESULT:      -1.0      0.998      2.024
REMARK  0 active torsions:
REMARK  status: ('A' for Active; 'I' for Inactive)
ROOT
HETATM    1  C1  UNL     1     -34.917   5.163   4.158  1.00 20.00     0.001 A 
HETATM    2  C2  UNL     1     -35.107   6.490   4.516  1.00 20.00     0.001 A 
HETATM    3  C3  UNL     1     -33.973   4.822   3.187  1.00 20.00     0.013 A 
HETATM    4  C4  UNL     1     -34.359   7.503   3.913  1.00 20.00     0.019 A 
HETATM    5  C5  UNL     1     -32.182   5.726   1.549  1.00 20.00     0.020 A 
HETATM    6  C6  UNL     1     -31.659   6.947   1.193  1.00 20.00     0.051 A 
HETATM    7  C7  UNL     1     -33.198   5.826   2.558  1.00 20.00    -0.019 A 
HETATM    8  C8  UNL     1     -33.406   7.156   2.934  1.00 20.00     0.015 A 
HETATM    9  S9  UNL     1     -32.375   8.226   2.061  1.00 20.00    -0.101 SA
ENDROOT
TORSDOF 0
ENDMDL
MODEL 3
REMARK VINA RESULT:      -0.9      1.285      3.274
REMARK  0 active torsions:
REMARK  status: ('A' for Active; 'I' for Inactive)
ROOT
HETATM    1  C1  UNL     1     -31.896   7.982   1.599  1.00 20.00     0.001 A 
HETATM    2  C2  UNL     1     -31.683   6.676   1.181  1.00 20.00     0.001 A 
HETATM    3  C3  UNL     1     -32.852   8.264   2.577  1.00 20.00     0.013 A 
HETATM    4  C4  UNL     1     -32.420   5.625   1.731  1.00 20.00     0.019 A 
HETATM    5  C5  UNL     1     -34.639   7.258   4.160  1.00 20.00     0.020 A 
HETATM    6  C6  UNL     1     -35.147   6.015   4.454  1.00 20.00     0.051 A 
HETATM    7  C7  UNL     1     -33.615   7.220   3.154  1.00 20.00    -0.019 A 
HETATM    8  C8  UNL     1     -33.384   5.912   2.718  1.00 20.00     0.015 A 
HETATM    9  S9  UNL     1     -34.405   4.788   3.533  1.00 20.00    -0.101 SA
ENDROOT
TORSDOF 0
ENDMDL
MODEL 4
REMARK VINA RESULT:      -0.6      1.566      3.841
REMARK  0 active torsions:
REMARK  status: ('A' for Active; 'I' for Inactive)
ROOT
HETATM    1  C1  UNL     1     -31.710   6.457   0.997  1.00 20.00     0.001 A 
HETATM    2  C2  UNL     1     -31.574   7.756   1.462  1.00 20.00     0.001 A 
HETATM    3  C3  UNL     1     -32.644   5.594   1.574  1.00 20.00     0.013 A 
HETATM    4  C4  UNL     1     -32.368   8.222   2.513  1.00 20.00     0.019 A 
HETATM    5  C5  UNL     1     -34.480   5.347   3.385  1.00 20.00     0.020 A 
HETATM    6  C6  UNL     1     -35.055   6.130   4.357  1.00 20.00     0.051 A 
HETATM    7  C7  UNL     1     -33.464   6.036   2.641  1.00 20.00    -0.019 A 
HETATM    8  C8  UNL     1     -33.309   7.349   3.094  1.00 20.00     0.015 A 
HETATM    9  S9  UNL     1     -34.389   7.698   4.391  1.00 20.00    -0.101 SA
ENDROOT
TORSDOF 0
ENDMDL
MODEL 5
REMARK VINA RESULT:       0.7      1.288      3.235
REMARK  0 active torsions:
REMARK  status: ('A' for Active; 'I' for Inactive)
ROOT
HETATM    1  C1  UNL     1     -32.873   8.598   2.677  1.00 20.00     0.001 A 
HETATM    2  C2  UNL     1     -32.066   7.636   2.087  1.00 20.00     0.001 A 
HETATM    3  C3  UNL     1     -33.960   8.219   3.468  1.00 20.00     0.013 A 
HETATM    4  C4  UNL     1     -32.327   6.277   2.274  1.00 20.00     0.019 A 
HETATM    5  C5  UNL     1     -35.295   6.222   4.437  1.00 20.00     0.020 A 
HETATM    6  C6  UNL     1     -35.238   4.849   4.391  1.00 20.00     0.051 A 
HETATM    7  C7  UNL     1     -34.251   6.849   3.677  1.00 20.00    -0.019 A 
HETATM    8  C8  UNL     1     -33.425   5.898   3.073  1.00 20.00     0.015 A 
HETATM    9  S9  UNL     1     -33.937   4.294   3.442  1.00 20.00    -0.101 SA
ENDROOT
TORSDOF 0
ENDMDL
