MODEL 1
REMARK VINA RESULT:      -0.9      0.000      0.000
REMARK  1 active torsions:
REMARK  status: ('A' for Active; 'I' for Inactive)
REMARK    1  A    between atoms: C4_4  and  S6_6 
ROOT
HETATM    1  C1  UNL     1     -32.126   8.136   2.295  1.00 20.00     0.009 A 
HETATM    2  C2  UNL     1     -33.178   7.939   3.234  1.00 20.00     0.026 A 
HETATM    3  C3  UNL     1     -31.963   7.049   1.465  1.00 20.00     0.051 A 
HETATM    4  C4  UNL     1     -33.780   6.708   3.086  1.00 20.00     0.038 A 
HETATM    5  S5  UNL     1     -33.077   5.797   1.820  1.00 20.00    -0.095 SA
ENDROOT
BRANCH   4   6
HETATM    6  S6  UNL     1     -35.112   6.090   4.047  1.00 20.00    -0.136 SA
HETATM    7  H10 UNL     1     -35.156   4.842   3.544  1.00 20.00     0.107 HD
ENDBRANCH   4   6
TORSDOF 1
ENDMDL
MODEL 2
REMARK VINA RESULT:      -0.8      1.488      2.816
REMARK  1 active torsions:
REMARK  status: ('A' for Active; 'I' for Inactive)
REMARK    1  A    between atoms: C4_4  and  S6_6 
ROOT
HETATM    1  C1  UNL     1     -34.666   6.787   4.180  1.00 20.00     0.009 A 
HETATM    2  C2  UNL     1     -33.815   7.801   3.655  1.00 20.00     0.026 A 
HETATM    3  C3  UNL     1     -34.477   5.577   3.550  1.00 20.00     0.051 A 
HETATM    4  C4  UNL     1     -33.008   7.327   2.644  1.00 20.00     0.038 A 
HETATM    5  S5  UNL     1     -33.278   5.666   2.331  1.00 20.00    -0.095 SA
ENDROOT
BRANCH   4   6
HETATM    6  S6  UNL     1     -31.824   8.261   1.746  1.00 20.00    -0.136 SA
HETATM    7  H10 UNL     1     -32.661   9.152   1.183  1.00 20.00     0.107 HD
ENDBRANCH   4   6
TORSDOF 1
ENDMDL
MODEL 3
REMARK VINA RESULT:      -0.8      1.309      1.712
REMARK  1 active torsions:
REMARK  status: ('A' for Active; 'I' for Inactive)
REMARK    1  A    between atoms: C4_4  and  S6_6 
ROOT
HETATM    1  C1  UNL     1     -32.106   6.407   1.309  1.00 20.00     0.009 A 
HETATM    2  C2  UNL     1     -33.189   5.774   1.983  1.00 20.00     0.026 A 
HETATM    3  C3  UNL     1     -31.852   7.666   1.807  1.00 20.00     0.051 A 
HETATM    4  C4  UNL     1     -33.721   6.573   2.972  1.00 20.00     0.038 A 
HETATM    5  S5  UNL     1     -32.916   8.079   3.083  1.00 20.00    -0.095 SA
ENDROOT
BRANCH   4   6
HETATM    6  S6  UNL     1     -35.061   6.156   4.025  1.00 20.00    -0.136 SA
HETATM    7  H10 UNL     1     -34.998   7.214   4.855  1.00 20.00     0.107 HD
ENDBRANCH   4   6
TORSDOF 1
ENDMDL
MODEL 4
REMARK VINA RESULT:      -0.5      1.727      3.284
REMARK  1 active torsions:
REMARK  status: ('A' for Active; 'I' for Inactive)
REMARK    1  A    between atoms: C4_4  and  S6_6 
ROOT
HETATM    1  C1  UNL     1     -34.298   5.318   3.367  1.00 20.00     0.009 A 
HETATM    2  C2  UNL     1     -33.298   5.795   2.474  1.00 20.00     0.026 A 
HETATM    3  C3  UNL     1     -34.779   6.316   4.185  1.00 20.00     0.051 A 
HETATM    4  C4  UNL     1     -33.052   7.140   2.642  1.00 20.00     0.038 A 
HETATM    5  S5  UNL     1     -34.025   7.821   3.873  1.00 20.00    -0.095 SA
ENDROOT
BRANCH   4   6
HETATM    6  S6  UNL     1     -31.895   8.098   1.735  1.00 20.00    -0.136 SA
HETATM    7  H10 UNL     1     -30.816   7.895   2.513  1.00 20.00     0.107 HD
ENDBRANCH   4   6
TORSDOF 1
ENDMDL
MODEL 5
REMARK VINA RESULT:      -0.4      1.884      2.918
REMARK  1 active torsions:
REMARK  status: ('A' for Active; 'I' for Inactive)
REMARK    1  A    between atoms: C4_4  and  S6_6 
ROOT
HETATM    1  C1  UNL     1     -34.582   6.777   4.077  1.00 20.00     0.009 A 
HETATM    2  C2  UNL     1     -34.163   5.812   3.117  1.00 20.00     0.026 A 
HETATM    3  C3  UNL     1     -33.840   7.935   4.005  1.00 20.00     0.051 A 
HETATM    4  C4  UNL     1     -33.116   6.269   2.348  1.00 20.00     0.038 A 
HETATM    5  S5  UNL     1     -32.643   7.855   2.784  1.00 20.00    -0.095 SA
ENDROOT
BRANCH   4   6
HETATM    6  S6  UNL     1     -32.319   5.383   1.060  1.00 20.00    -0.136 SA
HETATM    7  H10 UNL     1     -32.370   6.332   0.106  1.00 20.00     0.107 HD
ENDBRANCH   4   6
TORSDOF 1
ENDMDL
MODEL 6
REMARK VINA RESULT:      -0.2      1.870      3.237
REMARK  1 active torsions:
REMARK  status: ('A' for Active; 'I' for Inactive)
REMARK    1  A    between atoms: C4_4  and  S6_6 
ROOT
HETATM    1  C1  UNL     1     -35.221   6.482   4.225  1.00 20.00     0.009 A 
HETATM    2  C2  UNL     1     -34.287   6.860   3.219  1.00 20.00     0.026 A 
HETATM    3  C3  UNL     1     -35.134   5.144   4.537  1.00 20.00     0.051 A 
HETATM    4  C4  UNL     1     -33.520   5.795   2.800  1.00 20.00     0.038 A 
HETATM    5  S5  UNL     1     -33.928   4.348   3.619  1.00 20.00    -0.095 SA
ENDROOT
BRANCH   4   6
HETATM    6  S6  UNL     1     -32.260   5.848   1.580  1.00 20.00    -0.136 SA
HETATM    7  H10 UNL     1     -33.041   6.007   0.496  1.00 20.00     0.107 HD
ENDBRANCH   4   6
TORSDOF 1
ENDMDL
MODEL 7
REMARK VINA RESULT:      -0.2      2.255      3.114
REMARK  1 active torsions:
REMARK  status: ('A' for Active; 'I' for Inactive)
REMARK    1  A    between atoms: C4_4  and  S6_6 
ROOT
HETATM    1  C1  UNL     1     -35.277   6.384   3.992  1.00 20.00     0.009 A 
HETATM    2  C2  UNL     1     -35.071   5.081   4.528  1.00 20.00     0.026 A 
HETATM    3  C3  UNL     1     -34.280   6.745   3.113  1.00 20.00     0.051 A 
HETATM    4  C4  UNL     1     -33.924   4.495   4.037  1.00 20.00     0.038 A 
HETATM    5  S5  UNL     1     -33.102   5.515   2.937  1.00 20.00    -0.095 SA
ENDROOT
BRANCH   4   6
HETATM    6  S6  UNL     1     -33.324   2.899   4.450  1.00 20.00    -0.136 SA
HETATM    7  H10 UNL     1     -34.016   2.186   3.543  1.00 20.00     0.107 HD
ENDBRANCH   4   6
TORSDOF 1
ENDMDL
MODEL 8
REMARK VINA RESULT:      -0.1      1.174      2.687
REMARK  1 active torsions:
REMARK  status: ('A' for Active; 'I' for Inactive)
REMARK    1  A    between atoms: C4_4  and  S6_6 
ROOT
HETATM    1  C1  UNL     1     -33.877   7.926   3.923  1.00 20.00     0.009 A 
HETATM    2  C2  UNL     1     -33.013   7.600   2.839  1.00 20.00     0.026 A 
HETATM    3  C3  UNL     1     -34.646   6.852   4.312  1.00 20.00     0.051 A 
HETATM    4  C4  UNL     1     -33.155   6.289   2.440  1.00 20.00     0.038 A 
HETATM    5  S5  UNL     1     -34.326   5.458   3.370  1.00 20.00    -0.095 SA
ENDROOT
BRANCH   4   6
HETATM    6  S6  UNL     1     -32.272   5.505   1.142  1.00 20.00    -0.136 SA
HETATM    7  H10 UNL     1     -31.175   5.148   1.836  1.00 20.00     0.107 HD
ENDBRANCH   4   6
TORSDOF 1
ENDMDL
MODEL 9
REMARK VINA RESULT:       1.0      2.024      3.128
REMARK  1 active torsions:
REMARK  status: ('A' for Active; 'I' for Inactive)
REMARK    1  A    between atoms: C4_4  and  S6_6 
ROOT
HETATM    1  C1  UNL     1     -32.245   5.572   1.418  1.00 20.00     0.009 A 
HETATM    2  C2  UNL     1     -31.925   6.808   0.788  1.00 20.00     0.026 A 
HETATM    3  C3  UNL     1     -33.069   5.745   2.508  1.00 20.00     0.051 A 
HETATM    4  C4  UNL     1     -32.516   7.880   1.420  1.00 20.00     0.038 A 
HETATM    5  S5  UNL     1     -33.452   7.394   2.768  1.00 20.00    -0.095 SA
ENDROOT
BRANCH   4   6
HETATM    6  S6  UNL     1     -32.368   9.564   0.951  1.00 20.00    -0.136 SA
HETATM    7  H10 UNL     1     -31.449   9.419  -0.022  1.00 20.00     0.107 HD
ENDBRANCH   4   6
TORSDOF 1
ENDMDL
