MODEL 1
REMARK VINA RESULT:      -1.6      0.000      0.000
REMARK  1 active torsions:
REMARK  status: ('A' for Active; 'I' for Inactive)
REMARK    1  A    between atoms: C6_6  and  S8_8 
ROOT
HETATM    1  C1  UNL     1     -32.003   7.836   1.754  1.00 20.00     0.000 A 
HETATM    2  C2  UNL     1     -32.282   6.530   1.352  1.00 20.00     0.001 A 
HETATM    3  C3  UNL     1     -32.615   8.360   2.894  1.00 20.00     0.001 A 
HETATM    4  C4  UNL     1     -33.169   5.747   2.090  1.00 20.00     0.018 A 
HETATM    5  C5  UNL     1     -33.502   7.577   3.631  1.00 20.00     0.018 A 
HETATM    6  C6  UNL     1     -33.779   6.270   3.230  1.00 20.00    -0.000 A 
ENDROOT
BRANCH   6   7
HETATM    7  S8  UNL     1     -34.914   5.270   4.172  1.00 20.00    -0.134 SA
HETATM    8  C7  UNL     1     -33.902   3.789   4.390  1.00 20.00     0.095 C 
ENDBRANCH   6   7
TORSDOF 1
ENDMDL
MODEL 2
REMARK VINA RESULT:      -1.6      0.004      1.708
REMARK  1 active torsions:
REMARK  status: ('A' for Active; 'I' for Inactive)
REMARK    1  A    between atoms: C6_6  and  S8_8 
ROOT
HETATM    1  C1  UNL     1     -32.004   7.835   1.752  1.00 20.00     0.000 A 
HETATM    2  C2  UNL     1     -32.617   8.359   2.890  1.00 20.00     0.001 A 
HETATM    3  C3  UNL     1     -32.279   6.527   1.352  1.00 20.00     0.001 A 
HETATM    4  C4  UNL     1     -33.505   7.577   3.626  1.00 20.00     0.018 A 
HETATM    5  C5  UNL     1     -33.167   5.745   2.089  1.00 20.00     0.018 A 
HETATM    6  C6  UNL     1     -33.781   6.270   3.226  1.00 20.00    -0.000 A 
ENDROOT
BRANCH   6   7
HETATM    7  S8  UNL     1     -34.915   5.270   4.168  1.00 20.00    -0.134 SA
HETATM    8  C7  UNL     1     -33.902   3.790   4.389  1.00 20.00     0.095 C 
ENDBRANCH   6   7
TORSDOF 1
ENDMDL
MODEL 3
REMARK VINA RESULT:      -1.5      2.261      3.722
REMARK  1 active torsions:
REMARK  status: ('A' for Active; 'I' for Inactive)
REMARK    1  A    between atoms: C6_6  and  S8_8 
ROOT
HETATM    1  C1  UNL     1     -34.434   6.086   3.660  1.00 20.00     0.000 A 
HETATM    2  C2  UNL     1     -33.783   5.491   2.580  1.00 20.00     0.001 A 
HETATM    3  C3  UNL     1     -34.172   7.417   3.986  1.00 20.00     0.001 A 
HETATM    4  C4  UNL     1     -32.871   6.227   1.823  1.00 20.00     0.018 A 
HETATM    5  C5  UNL     1     -33.260   8.153   3.229  1.00 20.00     0.018 A 
HETATM    6  C6  UNL     1     -32.610   7.558   2.148  1.00 20.00    -0.000 A 
ENDROOT
BRANCH   6   7
HETATM    7  S8  UNL     1     -31.444   8.498   1.182  1.00 20.00    -0.134 SA
HETATM    8  C7  UNL     1     -32.568   9.701   0.438  1.00 20.00     0.095 C 
ENDBRANCH   6   7
TORSDOF 1
ENDMDL
MODEL 4
REMARK VINA RESULT:      -1.5      2.262      4.095
REMARK  1 active torsions:
REMARK  status: ('A' for Active; 'I' for Inactive)
REMARK    1  A    between atoms: C6_6  and  S8_8 
ROOT
HETATM    1  C1  UNL     1     -34.431   6.089   3.661  1.00 20.00     0.000 A 
HETATM    2  C2  UNL     1     -34.168   7.420   3.982  1.00 20.00     0.001 A 
HETATM    3  C3  UNL     1     -33.782   5.492   2.579  1.00 20.00     0.001 A 
HETATM    4  C4  UNL     1     -33.256   8.154   3.224  1.00 20.00     0.018 A 
HETATM    5  C5  UNL     1     -32.870   6.226   1.821  1.00 20.00     0.018 A 
HETATM    6  C6  UNL     1     -32.607   7.558   2.144  1.00 20.00    -0.000 A 
ENDROOT
BRANCH   6   7
HETATM    7  S8  UNL     1     -31.443   8.496   1.175  1.00 20.00    -0.134 SA
HETATM    8  C7  UNL     1     -32.567   9.704   0.439  1.00 20.00     0.095 C 
ENDBRANCH   6   7
TORSDOF 1
ENDMDL
MODEL 5
REMARK VINA RESULT:      -1.2      1.828      3.612
REMARK  1 active torsions:
REMARK  status: ('A' for Active; 'I' for Inactive)
REMARK    1  A    between atoms: C6_6  and  S8_8 
ROOT
HETATM    1  C1  UNL     1     -35.256   5.229   4.630  1.00 20.00     0.000 A 
HETATM    2  C2  UNL     1     -34.331   4.274   4.209  1.00 20.00     0.001 A 
HETATM    3  C3  UNL     1     -35.229   6.513   4.087  1.00 20.00     0.001 A 
HETATM    4  C4  UNL     1     -33.380   4.603   3.243  1.00 20.00     0.018 A 
HETATM    5  C5  UNL     1     -34.278   6.842   3.121  1.00 20.00     0.018 A 
HETATM    6  C6  UNL     1     -33.353   5.887   2.699  1.00 20.00    -0.000 A 
ENDROOT
BRANCH   6   7
HETATM    7  S8  UNL     1     -32.137   6.307   1.467  1.00 20.00    -0.134 SA
HETATM    8  C7  UNL     1     -31.974   8.077   1.794  1.00 20.00     0.095 C 
ENDBRANCH   6   7
TORSDOF 1
ENDMDL
MODEL 6
REMARK VINA RESULT:      -1.2      1.830      3.894
REMARK  1 active torsions:
REMARK  status: ('A' for Active; 'I' for Inactive)
REMARK    1  A    between atoms: C6_6  and  S8_8 
ROOT
HETATM    1  C1  UNL     1     -35.260   5.231   4.630  1.00 20.00     0.000 A 
HETATM    2  C2  UNL     1     -35.230   6.517   4.089  1.00 20.00     0.001 A 
HETATM    3  C3  UNL     1     -34.338   4.275   4.203  1.00 20.00     0.001 A 
HETATM    4  C4  UNL     1     -34.279   6.847   3.125  1.00 20.00     0.018 A 
HETATM    5  C5  UNL     1     -33.386   4.605   3.239  1.00 20.00     0.018 A 
HETATM    6  C6  UNL     1     -33.356   5.891   2.700  1.00 20.00    -0.000 A 
ENDROOT
BRANCH   6   7
HETATM    7  S8  UNL     1     -32.141   6.312   1.467  1.00 20.00    -0.134 SA
HETATM    8  C7  UNL     1     -31.982   8.083   1.791  1.00 20.00     0.095 C 
ENDBRANCH   6   7
TORSDOF 1
ENDMDL
MODEL 7
REMARK VINA RESULT:      -0.4      1.913      3.834
REMARK  1 active torsions:
REMARK  status: ('A' for Active; 'I' for Inactive)
REMARK    1  A    between atoms: C6_6  and  S8_8 
ROOT
HETATM    1  C1  UNL     1     -34.998   4.911   4.249  1.00 20.00     0.000 A 
HETATM    2  C2  UNL     1     -35.350   6.245   4.450  1.00 20.00     0.001 A 
HETATM    3  C3  UNL     1     -33.880   4.594   3.478  1.00 20.00     0.001 A 
HETATM    4  C4  UNL     1     -34.583   7.262   3.883  1.00 20.00     0.018 A 
HETATM    5  C5  UNL     1     -33.112   5.611   2.911  1.00 20.00     0.018 A 
HETATM    6  C6  UNL     1     -33.464   6.946   3.114  1.00 20.00    -0.000 A 
ENDROOT
BRANCH   6   7
HETATM    7  S8  UNL     1     -32.484   8.245   2.388  1.00 20.00    -0.134 SA
HETATM    8  C7  UNL     1     -31.561   7.282   1.169  1.00 20.00     0.095 C 
ENDBRANCH   6   7
TORSDOF 1
ENDMDL
MODEL 8
REMARK VINA RESULT:      -0.4      1.972      3.480
REMARK  1 active torsions:
REMARK  status: ('A' for Active; 'I' for Inactive)
REMARK    1  A    between atoms: C6_6  and  S8_8 
ROOT
HETATM    1  C1  UNL     1     -35.267   4.973   4.624  1.00 20.00     0.000 A 
HETATM    2  C2  UNL     1     -34.210   4.247   4.075  1.00 20.00     0.001 A 
HETATM    3  C3  UNL     1     -35.418   6.325   4.315  1.00 20.00     0.001 A 
HETATM    4  C4  UNL     1     -33.306   4.871   3.217  1.00 20.00     0.018 A 
HETATM    5  C5  UNL     1     -34.513   6.950   3.457  1.00 20.00     0.018 A 
HETATM    6  C6  UNL     1     -33.457   6.223   2.908  1.00 20.00    -0.000 A 
ENDROOT
BRANCH   6   7
HETATM    7  S8  UNL     1     -32.300   7.021   1.812  1.00 20.00    -0.134 SA
HETATM    8  C7  UNL     1     -31.727   5.584   0.879  1.00 20.00     0.095 C 
ENDBRANCH   6   7
TORSDOF 1
ENDMDL
MODEL 9
REMARK VINA RESULT:       0.1      1.730      2.797
REMARK  1 active torsions:
REMARK  status: ('A' for Active; 'I' for Inactive)
REMARK    1  A    between atoms: C6_6  and  S8_8 
ROOT
HETATM    1  C1  UNL     1     -34.566   7.101   3.256  1.00 20.00     0.000 A 
HETATM    2  C2  UNL     1     -35.327   6.356   4.157  1.00 20.00     0.001 A 
HETATM    3  C3  UNL     1     -33.434   6.537   2.667  1.00 20.00     0.001 A 
HETATM    4  C4  UNL     1     -34.959   5.047   4.466  1.00 20.00     0.018 A 
HETATM    5  C5  UNL     1     -33.066   5.229   2.976  1.00 20.00     0.018 A 
HETATM    6  C6  UNL     1     -33.828   4.483   3.875  1.00 20.00    -0.000 A 
ENDROOT
BRANCH   6   7
HETATM    7  S8  UNL     1     -33.356   2.811   4.271  1.00 20.00    -0.134 SA
HETATM    8  C7  UNL     1     -32.595   3.087   5.886  1.00 20.00     0.095 C 
ENDBRANCH   6   7
TORSDOF 1
ENDMDL
