MODEL 1
REMARK VINA RESULT:      -2.9      0.000      0.000
REMARK  0 active torsions:
REMARK  status: ('A' for Active; 'I' for Inactive)
ROOT
HETATM    1  C1  UNL     1     -32.005   7.476   1.854  1.00 20.00     0.000 A 
HETATM    2  C2  UNL     1     -32.541   8.257   2.879  1.00 20.00     0.001 A 
HETATM    3  C3  UNL     1     -32.537   6.214   1.588  1.00 20.00     0.001 A 
HETATM    4  C4  UNL     1     -33.608   7.775   3.637  1.00 20.00     0.007 A 
HETATM    5  C5  UNL     1     -33.603   5.732   2.347  1.00 20.00     0.007 A 
HETATM    6  C6  UNL     1     -34.140   6.513   3.372  1.00 20.00    -0.062 A 
HETATM    7  C7  UNL     1     -35.280   5.997   4.183  1.00 20.00     0.048 C 
ENDROOT
TORSDOF 0
ENDMDL
MODEL 2
REMARK VINA RESULT:      -2.9      0.004      1.826
REMARK  0 active torsions:
REMARK  status: ('A' for Active; 'I' for Inactive)
ROOT
HETATM    1  C1  UNL     1     -32.006   7.478   1.853  1.00 20.00     0.000 A 
HETATM    2  C2  UNL     1     -32.532   6.213   1.588  1.00 20.00     0.001 A 
HETATM    3  C3  UNL     1     -32.544   8.258   2.877  1.00 20.00     0.001 A 
HETATM    4  C4  UNL     1     -33.598   5.729   2.347  1.00 20.00     0.007 A 
HETATM    5  C5  UNL     1     -33.610   7.774   3.634  1.00 20.00     0.007 A 
HETATM    6  C6  UNL     1     -34.138   6.509   3.371  1.00 20.00    -0.062 A 
HETATM    7  C7  UNL     1     -35.277   5.992   4.182  1.00 20.00     0.048 C 
ENDROOT
TORSDOF 0
ENDMDL
MODEL 3
REMARK VINA RESULT:      -2.4      0.716      3.263
REMARK  0 active torsions:
REMARK  status: ('A' for Active; 'I' for Inactive)
ROOT
HETATM    1  C1  UNL     1     -34.482   5.966   3.720  1.00 20.00     0.000 A 
HETATM    2  C2  UNL     1     -33.801   5.391   2.647  1.00 20.00     0.001 A 
HETATM    3  C3  UNL     1     -34.252   7.300   4.058  1.00 20.00     0.001 A 
HETATM    4  C4  UNL     1     -32.888   6.150   1.914  1.00 20.00     0.007 A 
HETATM    5  C5  UNL     1     -33.340   8.058   3.325  1.00 20.00     0.007 A 
HETATM    6  C6  UNL     1     -32.657   7.483   2.252  1.00 20.00    -0.062 A 
HETATM    7  C7  UNL     1     -31.682   8.294   1.468  1.00 20.00     0.048 C 
ENDROOT
TORSDOF 0
ENDMDL
MODEL 4
REMARK VINA RESULT:      -2.4      0.717      2.716
REMARK  0 active torsions:
REMARK  status: ('A' for Active; 'I' for Inactive)
ROOT
HETATM    1  C1  UNL     1     -34.478   5.972   3.731  1.00 20.00     0.000 A 
HETATM    2  C2  UNL     1     -34.253   7.310   4.055  1.00 20.00     0.001 A 
HETATM    3  C3  UNL     1     -33.797   5.388   2.663  1.00 20.00     0.001 A 
HETATM    4  C4  UNL     1     -33.347   8.064   3.308  1.00 20.00     0.007 A 
HETATM    5  C5  UNL     1     -32.892   6.142   1.917  1.00 20.00     0.007 A 
HETATM    6  C6  UNL     1     -32.666   7.481   2.239  1.00 20.00    -0.062 A 
HETATM    7  C7  UNL     1     -31.697   8.286   1.442  1.00 20.00     0.048 C 
ENDROOT
TORSDOF 0
ENDMDL
MODEL 5
REMARK VINA RESULT:      -2.2      0.612      2.811
REMARK  0 active torsions:
REMARK  status: ('A' for Active; 'I' for Inactive)
ROOT
HETATM    1  C1  UNL     1     -33.836   7.801   3.891  1.00 20.00     0.000 A 
HETATM    2  C2  UNL     1     -34.371   6.522   3.735  1.00 20.00     0.001 A 
HETATM    3  C3  UNL     1     -32.797   8.228   3.064  1.00 20.00     0.001 A 
HETATM    4  C4  UNL     1     -33.865   5.670   2.753  1.00 20.00     0.007 A 
HETATM    5  C5  UNL     1     -32.292   7.376   2.083  1.00 20.00     0.007 A 
HETATM    6  C6  UNL     1     -32.826   6.097   1.926  1.00 20.00    -0.062 A 
HETATM    7  C7  UNL     1     -32.285   5.186   0.876  1.00 20.00     0.048 C 
ENDROOT
TORSDOF 0
ENDMDL
MODEL 6
REMARK VINA RESULT:      -2.2      0.599      2.533
REMARK  0 active torsions:
REMARK  status: ('A' for Active; 'I' for Inactive)
ROOT
HETATM    1  C1  UNL     1     -33.728   7.822   3.798  1.00 20.00     0.000 A 
HETATM    2  C2  UNL     1     -32.698   8.209   2.940  1.00 20.00     0.001 A 
HETATM    3  C3  UNL     1     -34.290   6.551   3.685  1.00 20.00     0.001 A 
HETATM    4  C4  UNL     1     -32.232   7.324   1.967  1.00 20.00     0.007 A 
HETATM    5  C5  UNL     1     -33.823   5.667   2.712  1.00 20.00     0.007 A 
HETATM    6  C6  UNL     1     -32.794   6.052   1.853  1.00 20.00    -0.062 A 
HETATM    7  C7  UNL     1     -32.295   5.106   0.814  1.00 20.00     0.048 C 
ENDROOT
TORSDOF 0
ENDMDL
MODEL 7
REMARK VINA RESULT:      -1.8      0.630      1.676
REMARK  0 active torsions:
REMARK  status: ('A' for Active; 'I' for Inactive)
ROOT
HETATM    1  C1  UNL     1     -32.737   6.148   1.377  1.00 20.00     0.000 A 
HETATM    2  C2  UNL     1     -32.195   7.404   1.652  1.00 20.00     0.001 A 
HETATM    3  C3  UNL     1     -33.627   5.561   2.275  1.00 20.00     0.001 A 
HETATM    4  C4  UNL     1     -32.543   8.072   2.826  1.00 20.00     0.007 A 
HETATM    5  C5  UNL     1     -33.974   6.228   3.450  1.00 20.00     0.007 A 
HETATM    6  C6  UNL     1     -33.433   7.484   3.726  1.00 20.00    -0.062 A 
HETATM    7  C7  UNL     1     -33.805   8.197   4.981  1.00 20.00     0.048 C 
ENDROOT
TORSDOF 0
ENDMDL
MODEL 8
REMARK VINA RESULT:      -1.8      1.716      2.811
REMARK  0 active torsions:
REMARK  status: ('A' for Active; 'I' for Inactive)
ROOT
HETATM    1  C1  UNL     1     -34.586   6.921   3.283  1.00 20.00     0.000 A 
HETATM    2  C2  UNL     1     -35.371   6.211   4.192  1.00 20.00     0.001 A 
HETATM    3  C3  UNL     1     -33.438   6.337   2.746  1.00 20.00     0.001 A 
HETATM    4  C4  UNL     1     -35.008   4.917   4.564  1.00 20.00     0.007 A 
HETATM    5  C5  UNL     1     -33.075   5.043   3.119  1.00 20.00     0.007 A 
HETATM    6  C6  UNL     1     -33.860   4.332   4.028  1.00 20.00    -0.062 A 
HETATM    7  C7  UNL     1     -33.471   2.949   4.425  1.00 20.00     0.048 C 
ENDROOT
TORSDOF 0
ENDMDL
MODEL 9
REMARK VINA RESULT:      -1.8      1.713      2.968
REMARK  0 active torsions:
REMARK  status: ('A' for Active; 'I' for Inactive)
ROOT
HETATM    1  C1  UNL     1     -34.587   6.921   3.276  1.00 20.00     0.000 A 
HETATM    2  C2  UNL     1     -33.438   6.340   2.739  1.00 20.00     0.001 A 
HETATM    3  C3  UNL     1     -35.372   6.207   4.182  1.00 20.00     0.001 A 
HETATM    4  C4  UNL     1     -33.074   5.045   3.108  1.00 20.00     0.007 A 
HETATM    5  C5  UNL     1     -35.008   4.912   4.550  1.00 20.00     0.007 A 
HETATM    6  C6  UNL     1     -33.858   4.330   4.014  1.00 20.00    -0.062 A 
HETATM    7  C7  UNL     1     -33.469   2.946   4.409  1.00 20.00     0.048 C 
ENDROOT
TORSDOF 0
ENDMDL
