REMARK  0 active torsions:
REMARK  status: ('A' for Active; 'I' for Inactive)
ROOT
HETATM    1  C1  UNL     1     -35.020   5.840   6.295  1.00 20.00     0.002 A 
HETATM    2  C2  UNL     1     -34.419   7.069   6.567  1.00 20.00     0.002 A 
HETATM    3  C3  UNL     1     -34.657   5.123   5.155  1.00 20.00     0.025 A 
HETATM    4  C4  UNL     1     -33.456   7.582   5.699  1.00 20.00     0.025 A 
HETATM    5  C5  UNL     1     -33.693   5.636   4.286  1.00 20.00     0.055 A 
HETATM    6  C6  UNL     1     -33.093   6.866   4.558  1.00 20.00     0.055 A 
HETATM    7 CL7  UNL     1     -33.285   4.702   2.890  1.00 20.00    -0.083 Cl
HETATM    8 CL8  UNL     1     -31.893   7.554   3.521  1.00 20.00    -0.083 Cl
ENDROOT
TORSDOF 0
