REMARK  2 active torsions:
REMARK  status: ('A' for Active; 'I' for Inactive)
REMARK    1  A    between atoms: C5_5  and  S7_7 
REMARK    2  A    between atoms: C6_6  and  S8_8 
ROOT
HETATM    1  C1  UNL     1     -34.039   6.941   6.843  1.00 20.00     0.001 A 
HETATM    2  C2  UNL     1     -34.369   5.596   6.673  1.00 20.00     0.001 A 
HETATM    3  C3  UNL     1     -33.451   7.652   5.797  1.00 20.00     0.019 A 
HETATM    4  C4  UNL     1     -34.111   4.963   5.457  1.00 20.00     0.019 A 
HETATM    5  C5  UNL     1     -33.193   7.019   4.581  1.00 20.00     0.014 A 
HETATM    6  C6  UNL     1     -33.523   5.674   4.411  1.00 20.00     0.014 A 
ENDROOT
BRANCH   5   7
HETATM    7  S7  UNL     1     -32.435   8.016   3.298  1.00 20.00    -0.142 SA
HETATM    8  H13 UNL     1     -32.360   9.153   4.003  1.00 20.00     0.107 HD
ENDBRANCH   5   7
BRANCH   6   9
HETATM    9  S8  UNL     1     -33.231   4.774   2.888  1.00 20.00    -0.142 SA
HETATM   10  H14 UNL     1     -33.724   3.598   3.301  1.00 20.00     0.107 HD
ENDBRANCH   6   9
TORSDOF 2
