REMARK  1 active torsions:
REMARK  status: ('A' for Active; 'I' for Inactive)
REMARK    1  A    between atoms: C1_1  and  C8_8 
ROOT
HETATM    1  C1  UNL     1     -32.782   7.439   2.979  1.00 20.00    -0.067 C 
HETATM    2  C2  UNL     1     -32.318   7.861   1.954  1.00 20.00    -0.105 C 
HETATM    3  C9  UNL     1     -31.752   8.373   0.707  1.00 20.00     0.112 C 
ENDROOT
BRANCH   1   4
HETATM    4  C8  UNL     1     -33.332   6.936   4.198  1.00 20.00     0.017 A 
HETATM    5  C6  UNL     1     -32.982   7.521   5.415  1.00 20.00     0.020 A 
HETATM    6  C4  UNL     1     -33.519   7.030   6.605  1.00 20.00     0.001 A 
HETATM    7  C3  UNL     1     -34.406   5.954   6.578  1.00 20.00     0.000 A 
HETATM    8  C5  UNL     1     -34.756   5.369   5.361  1.00 20.00     0.001 A 
HETATM    9  C7  UNL     1     -34.219   5.860   4.171  1.00 20.00     0.020 A 
ENDBRANCH   1   4
TORSDOF 1
