REMARK  0 active torsions:
REMARK  status: ('A' for Active; 'I' for Inactive)
ROOT
HETATM    1  C1  UNL     1     -34.603   4.633   4.511  1.00 20.00     0.035 A 
HETATM    2  C2  UNL     1     -34.901   5.380   5.676  1.00 20.00     0.035 A 
HETATM    3  C3  UNL     1     -33.799   5.438   3.737  1.00 20.00     0.049 A 
HETATM    4  C4  UNL     1     -34.257   6.587   5.531  1.00 20.00     0.049 A 
HETATM    5  C5  UNL     1     -33.157   5.257   2.428  1.00 20.00     0.076 C 
HETATM    6  C6  UNL     1     -34.167   7.785   6.377  1.00 20.00     0.076 C 
HETATM    7  O7  UNL     1     -33.583   6.630   4.352  1.00 20.00    -0.320 OA
ENDROOT
TORSDOF 0
