REMARK  1 active torsions:
REMARK  status: ('A' for Active; 'I' for Inactive)
REMARK    1  A    between atoms: C4_4  and  S7_7 
ROOT
HETATM    1  C1  UNL     1     -32.394   6.833   2.421  1.00 20.00     0.009 A 
HETATM    2  C2  UNL     1     -32.715   7.477   3.650  1.00 20.00     0.026 A 
HETATM    3  C3  UNL     1     -32.890   5.549   2.365  1.00 20.00     0.051 A 
HETATM    4  C4  UNL     1     -33.443   6.661   4.488  1.00 20.00     0.040 A 
HETATM    5  S6  UNL     1     -33.737   5.124   3.791  1.00 20.00    -0.095 SA
ENDROOT
BRANCH   4   6
HETATM    6  S7  UNL     1     -34.030   7.083   6.085  1.00 20.00    -0.127 SA
HETATM    7  C5  UNL     1     -34.018   5.457   6.882  1.00 20.00     0.096 C 
ENDBRANCH   4   6
TORSDOF 1
