REMARK  1 active torsions:
REMARK  status: ('A' for Active; 'I' for Inactive)
REMARK    1  A    between atoms: C6_6  and  C9_9 
ROOT
HETATM    1  C1  UNL     1     -32.234   6.982   2.381  1.00 20.00     0.001 A 
HETATM    2  C2  UNL     1     -32.598   5.637   2.450  1.00 20.00     0.001 A 
HETATM    3  C3  UNL     1     -32.662   7.872   3.366  1.00 20.00     0.007 A 
HETATM    4  C4  UNL     1     -33.390   5.182   3.504  1.00 20.00     0.007 A 
HETATM    5  C5  UNL     1     -33.454   7.417   4.421  1.00 20.00    -0.056 A 
HETATM    6  C6  UNL     1     -33.818   6.072   4.490  1.00 20.00    -0.053 A 
HETATM    7  C7  UNL     1     -33.899   8.387   5.465  1.00 20.00     0.049 C 
ENDROOT
BRANCH   6   8
HETATM    8  C9  UNL     1     -34.666   5.562   5.608  1.00 20.00     0.034 C 
HETATM    9  C8  UNL     1     -33.874   5.387   6.901  1.00 20.00     0.010 C 
ENDBRANCH   6   8
TORSDOF 1
