REMARK  0 active torsions:
REMARK  status: ('A' for Active; 'I' for Inactive)
ROOT
HETATM    1  C1  UNL     1     -34.239   4.850   6.712  1.00 20.00     0.021 C 
HETATM    2  C2  UNL     1     -34.783   5.118   4.269  1.00 20.00     0.021 C 
HETATM    3  C3  UNL     1     -34.602   5.834   5.604  1.00 20.00     0.045 C 
HETATM    4  I4  UNL     1     -33.054   7.328   5.423  1.00 20.00    -0.086 I 
ENDROOT
TORSDOF 0
