REMARK  3 active torsions:
REMARK  status: ('A' for Active; 'I' for Inactive)
REMARK    1  A    between atoms: C6_6  and  C9_9 
REMARK    2  A    between atoms: C8_8  and  C9_9 
REMARK    3  A    between atoms: C8_8  and  O10_10 
ROOT
HETATM    1  C1  UNL     1     -34.603   6.281   6.992  1.00 20.00     0.000 A 
HETATM    2  C2  UNL     1     -34.055   7.433   6.427  1.00 20.00     0.001 A 
HETATM    3  C3  UNL     1     -34.630   5.092   6.264  1.00 20.00     0.001 A 
HETATM    4  C4  UNL     1     -33.535   7.395   5.133  1.00 20.00     0.007 A 
HETATM    5  C5  UNL     1     -34.110   5.054   4.970  1.00 20.00     0.007 A 
HETATM    6  C6  UNL     1     -33.562   6.206   4.405  1.00 20.00    -0.052 A 
ENDROOT
BRANCH   6   7
HETATM    7  C9  UNL     1     -33.005   6.165   3.022  1.00 20.00     0.038 C 
HETATM    8  C7  UNL     1     -32.443   4.774   2.664  1.00 20.00     0.017 C 
BRANCH   7   9
HETATM    9  C8  UNL     1     -31.922   7.239   2.774  1.00 20.00     0.173 C 
BRANCH   9  10
HETATM   10  O10 UNL     1     -32.553   8.482   2.487  1.00 20.00    -0.400 OA
HETATM   11  H22 UNL     1     -31.843   9.127   2.339  1.00 20.00     0.209 HD
ENDBRANCH   9  10
ENDBRANCH   7   9
ENDBRANCH   6   7
TORSDOF 3
