REMARK  2 active torsions:
REMARK  status: ('A' for Active; 'I' for Inactive)
REMARK    1  A    between atoms: C6_6  and  C8_8 
REMARK    2  A    between atoms: C8_8  and  N10_10 
ROOT
HETATM    1  N9  UNL     1     -32.764   9.558   0.466  1.00 20.00     0.068 N 
HETATM    2  N10 UNL     1     -32.027   7.346   0.959  1.00 20.00    -0.111 NA
HETATM    3  N11 UNL     1     -32.410   8.501   0.708  1.00 20.00    -0.167 NA
ENDROOT
BRANCH   2   4
HETATM    4  C8  UNL     1     -31.532   7.124   2.324  1.00 20.00     0.227 C 
BRANCH   4   5
HETATM    5  C6  UNL     1     -32.603   6.637   3.241  1.00 20.00    -0.035 A 
HETATM    6  C3  UNL     1     -33.291   5.460   2.947  1.00 20.00     0.009 A 
HETATM    7  C1  UNL     1     -34.293   5.006   3.805  1.00 20.00     0.001 A 
HETATM    8  C2  UNL     1     -34.606   5.728   4.956  1.00 20.00     0.007 A 
HETATM    9  C5  UNL     1     -33.918   6.905   5.250  1.00 20.00    -0.061 A 
HETATM   10  C4  UNL     1     -32.916   7.360   4.393  1.00 20.00     0.015 A 
HETATM   11  C7  UNL     1     -34.252   7.675   6.483  1.00 20.00     0.048 C 
ENDBRANCH   4   5
ENDBRANCH   2   4
TORSDOF 2
