REMARK  4 active torsions:
REMARK  status: ('A' for Active; 'I' for Inactive)
REMARK    1  A    between atoms: C6_6  and  C7_7 
REMARK    2  A    between atoms: C7_7  and  C8_8 
REMARK    3  A    between atoms: C8_8  and  C9_9 
REMARK    4  A    between atoms: C9_9  and  O10_10 
ROOT
HETATM    1  C1  UNL     1     -34.108   5.365   5.634  1.00 20.00     0.000 A 
HETATM    2  C2  UNL     1     -33.461   6.589   5.808  1.00 20.00     0.001 A 
HETATM    3  C3  UNL     1     -34.141   4.767   4.374  1.00 20.00     0.001 A 
HETATM    4  C4  UNL     1     -32.848   7.214   4.722  1.00 20.00     0.007 A 
HETATM    5  C5  UNL     1     -33.528   5.392   3.289  1.00 20.00     0.007 A 
HETATM    6  C6  UNL     1     -32.882   6.615   3.462  1.00 20.00    -0.058 A 
ENDROOT
BRANCH   6   7
HETATM    7  C7  UNL     1     -32.227   7.284   2.301  1.00 20.00     0.041 C 
BRANCH   7   8
HETATM    8  C8  UNL     1     -33.186   8.225   1.560  1.00 20.00     0.030 C 
BRANCH   8   9
HETATM    9  C9  UNL     1     -32.534   8.870   0.345  1.00 20.00     0.164 C 
BRANCH   9  10
HETATM   10  O10 UNL     1     -33.474   9.734  -0.277  1.00 20.00    -0.401 OA
HETATM   11  H22 UNL     1     -33.029  10.128  -1.045  1.00 20.00     0.209 HD
ENDBRANCH   9  10
ENDBRANCH   8   9
ENDBRANCH   7   8
ENDBRANCH   6   7
TORSDOF 4
