REMARK  0 active torsions:
REMARK  status: ('A' for Active; 'I' for Inactive)
ROOT
HETATM    1  C1  UNL     1     -34.319   5.398   4.540  1.00 20.00     0.008 A 
HETATM    2  C2  UNL     1     -33.363   7.323   5.644  1.00 20.00     0.008 A 
HETATM    3  C3  UNL     1     -33.681   5.762   3.354  1.00 20.00     0.019 A 
HETATM    4  C4  UNL     1     -32.725   7.687   4.457  1.00 20.00     0.019 A 
HETATM    5  C5  UNL     1     -34.160   6.179   5.685  1.00 20.00    -0.062 A 
HETATM    6  C6  UNL     1     -32.884   6.906   3.313  1.00 20.00     0.006 A 
HETATM    7  C7  UNL     1     -34.843   5.792   6.953  1.00 20.00     0.048 C 
HETATM    8  I8  UNL     1     -31.937   7.448   1.545  1.00 20.00    -0.045 I 
ENDROOT
TORSDOF 0
