REMARK  3 active torsions:
REMARK  status: ('A' for Active; 'I' for Inactive)
REMARK    1  A    between atoms: C2_2  and  C7_7 
REMARK    2  A    between atoms: C3_3  and  C8_8 
REMARK    3  A    between atoms: C7_7  and  C8_8 
ROOT
HETATM    1  C3  UNL     1     -34.516   6.598   4.445  1.00 20.00    -0.024 C 
HETATM    2  C4  UNL     1     -34.458   6.095   5.693  1.00 20.00    -0.091 C 
HETATM    3  C5  UNL     1     -34.568   7.006   6.886  1.00 20.00     0.042 C 
HETATM    4  C6  UNL     1     -34.299   4.641   6.036  1.00 20.00     0.042 C 
ENDROOT
BRANCH   1   5
HETATM    5  C8  UNL     1     -34.402   5.856   3.141  1.00 20.00     0.031 C 
BRANCH   5   6
HETATM    6  C7  UNL     1     -32.953   5.744   2.655  1.00 20.00     0.030 C 
BRANCH   6   7
HETATM    7  C2  UNL     1     -32.323   7.083   2.400  1.00 20.00    -0.037 C 
HETATM    8  C1  UNL     1     -32.366   7.719   1.224  1.00 20.00     0.007 C 
ENDBRANCH   6   7
ENDBRANCH   5   6
ENDBRANCH   1   5
TORSDOF 3
