REMARK  4 active torsions:
REMARK  status: ('A' for Active; 'I' for Inactive)
REMARK    1  A    between atoms: C6_6  and  C8_8 
REMARK    2  A    between atoms: C8_8  and  C10_10 
REMARK    3  A    between atoms: C9_9  and  C11_11 
REMARK    4  A    between atoms: C10_10  and  C11_11 
ROOT
HETATM    1  C1  UNL     1     -34.399   5.217   6.025  1.00 20.00     0.000 A 
HETATM    2  C2  UNL     1     -34.180   4.287   5.009  1.00 20.00     0.001 A 
HETATM    3  C3  UNL     1     -34.071   6.558   5.826  1.00 20.00     0.001 A 
HETATM    4  C4  UNL     1     -33.633   4.698   3.794  1.00 20.00     0.007 A 
HETATM    5  C5  UNL     1     -33.524   6.969   4.611  1.00 20.00     0.007 A 
HETATM    6  C6  UNL     1     -33.305   6.039   3.595  1.00 20.00    -0.058 A 
ENDROOT
BRANCH   6   7
HETATM    7  C8  UNL     1     -32.716   6.481   2.290  1.00 20.00     0.038 C 
BRANCH   7   8
HETATM    8  C10 UNL     1     -31.777   7.684   2.421  1.00 20.00     0.005 C 
BRANCH   8   9
HETATM    9  C11 UNL     1     -31.240   8.181   1.075  1.00 20.00    -0.000 C 
BRANCH   9  10
HETATM   10  C9  UNL     1     -32.380   8.592   0.142  1.00 20.00    -0.005 C 
HETATM   11  C7  UNL     1     -33.193   9.737   0.726  1.00 20.00     0.005 C 
ENDBRANCH   9  10
ENDBRANCH   8   9
ENDBRANCH   7   8
ENDBRANCH   6   7
TORSDOF 4
