REMARK  2 active torsions:
REMARK  status: ('A' for Active; 'I' for Inactive)
REMARK    1  A    between atoms: C6_6  and  C7_7 
REMARK    2  A    between atoms: C7_7  and  S8_8 
ROOT
HETATM    1  C1  UNL     1     -34.595   5.059   5.435  1.00 20.00     0.000 A 
HETATM    2  C2  UNL     1     -34.037   6.141   6.116  1.00 20.00     0.001 A 
HETATM    3  C3  UNL     1     -34.318   4.870   4.081  1.00 20.00     0.001 A 
HETATM    4  C4  UNL     1     -33.204   7.034   5.443  1.00 20.00     0.008 A 
HETATM    5  C5  UNL     1     -33.484   5.762   3.408  1.00 20.00     0.008 A 
HETATM    6  C6  UNL     1     -32.927   6.845   4.089  1.00 20.00    -0.049 A 
ENDROOT
BRANCH   6   7
HETATM    7  C7  UNL     1     -32.035   7.799   3.369  1.00 20.00     0.109 C 
BRANCH   7   8
HETATM    8  S8  UNL     1     -32.120   7.605   1.562  1.00 20.00    -0.178 SA
HETATM    9  H16 UNL     1     -31.239   8.572   1.277  1.00 20.00     0.101 HD
ENDBRANCH   7   8
ENDBRANCH   6   7
TORSDOF 2
