REMARK  0 active torsions:
REMARK  status: ('A' for Active; 'I' for Inactive)
ROOT
HETATM    1  C1  UNL     1     -34.380   6.526   6.633  1.00 20.00     0.001 A 
HETATM    2  C2  UNL     1     -34.800   5.377   5.959  1.00 20.00     0.003 A 
HETATM    3  C3  UNL     1     -33.513   7.445   6.024  1.00 20.00     0.014 A 
HETATM    4  C4  UNL     1     -34.372   5.102   4.657  1.00 20.00     0.038 A 
HETATM    5  C5  UNL     1     -32.223   7.843   3.782  1.00 20.00     0.039 A 
HETATM    6  C6  UNL     1     -32.204   7.055   2.655  1.00 20.00     0.143 A 
HETATM    7  C7  UNL     1     -33.071   7.189   4.714  1.00 20.00    -0.001 A 
HETATM    8  C8  UNL     1     -33.512   6.033   4.078  1.00 20.00     0.085 A 
HETATM    9  O9  UNL     1     -32.983   5.954   2.825  1.00 20.00    -0.322 OA
ENDROOT
TORSDOF 0
