REMARK  3 active torsions:
REMARK  status: ('A' for Active; 'I' for Inactive)
REMARK    1  A    between atoms: C5_5  and  S7_7 
REMARK    2  A    between atoms: C6_6  and  S8_8 
REMARK    3  A    between atoms: S7_7  and  S8_8 
ROOT
HETATM    1  S7  UNL     1     -32.391   7.530   4.381  1.00 20.00    -0.093 SA
ENDROOT
BRANCH   1   2
HETATM    2  C5  UNL     1     -31.842   6.783   2.810  1.00 20.00     0.050 C 
HETATM    3  C1  UNL     1     -32.353   5.350   2.717  1.00 20.00     0.022 C 
HETATM    4  C2  UNL     1     -32.334   7.626   1.640  1.00 20.00     0.022 C 
ENDBRANCH   1   2
BRANCH   1   5
HETATM    5  S8  UNL     1     -34.432   7.407   4.195  1.00 20.00    -0.093 SA
BRANCH   5   6
HETATM    6  C6  UNL     1     -34.872   6.384   5.620  1.00 20.00     0.050 C 
HETATM    7  C3  UNL     1     -34.179   5.030   5.515  1.00 20.00     0.022 C 
HETATM    8  C4  UNL     1     -34.491   7.105   6.908  1.00 20.00     0.022 C 
ENDBRANCH   5   6
ENDBRANCH   1   5
TORSDOF 3
