REMARK  0 active torsions:
REMARK  status: ('A' for Active; 'I' for Inactive)
ROOT
HETATM    1  C1  UNL     1     -34.666   4.701   5.491  1.00 20.00     0.016 C 
HETATM    2  C2  UNL     1     -34.389   5.618   6.669  1.00 20.00     0.075 C 
HETATM    3  I3  UNL     1     -33.631   7.497   6.008  1.00 20.00    -0.090 I 
ENDROOT
TORSDOF 0
