REMARK  0 active torsions:
REMARK  status: ('A' for Active; 'I' for Inactive)
ROOT
HETATM    1  C1  UNL     1     -34.640   6.010   6.686  1.00 20.00     0.000 A 
HETATM    2  C2  UNL     1     -34.912   5.197   5.586  1.00 20.00     0.001 A 
HETATM    3  C3  UNL     1     -33.721   7.053   6.572  1.00 20.00     0.001 A 
HETATM    4  C4  UNL     1     -34.265   5.426   4.372  1.00 20.00     0.018 A 
HETATM    5  C5  UNL     1     -33.074   7.283   5.358  1.00 20.00     0.018 A 
HETATM    6  C6  UNL     1     -33.346   6.470   4.258  1.00 20.00     0.006 A 
HETATM    7  I7  UNL     1     -32.383   6.812   2.449  1.00 20.00    -0.045 I 
ENDROOT
TORSDOF 0
