REMARK  0 active torsions:
REMARK  status: ('A' for Active; 'I' for Inactive)
ROOT
HETATM    1  C1  UNL     1     -33.808   4.128   4.121  1.00 20.00     0.001 A 
HETATM    2  C2  UNL     1     -33.160   4.934   3.185  1.00 20.00     0.007 A 
HETATM    3  C3  UNL     1     -34.219   4.667   5.340  1.00 20.00     0.007 A 
HETATM    4  C4  UNL     1     -33.335   6.819   4.687  1.00 20.00     0.013 A 
HETATM    5  C5  UNL     1     -32.924   6.279   3.467  1.00 20.00    -0.061 A 
HETATM    6  C6  UNL     1     -33.983   6.012   5.623  1.00 20.00    -0.061 A 
HETATM    7  C7  UNL     1     -32.233   7.141   2.465  1.00 20.00     0.048 C 
HETATM    8  C8  UNL     1     -34.422   6.589   6.926  1.00 20.00     0.048 C 
ENDROOT
TORSDOF 0
