REMARK  0 active torsions:
REMARK  status: ('A' for Active; 'I' for Inactive)
ROOT
HETATM    1  C1  UNL     1     -34.756   5.049   6.103  1.00 20.00     0.000 C 
HETATM    2  C2  UNL     1     -34.874   5.109   4.583  1.00 20.00     0.000 C 
HETATM    3  C3  UNL     1     -34.457   6.421   6.697  1.00 20.00     0.000 C 
HETATM    4  C4  UNL     1     -33.636   5.737   3.946  1.00 20.00     0.004 C 
HETATM    5  C5  UNL     1     -33.219   7.052   6.064  1.00 20.00     0.004 C 
HETATM    6  C6  UNL     1     -33.338   7.123   4.536  1.00 20.00    -0.018 C 
HETATM    7  C7  UNL     1     -32.067   7.707   3.922  1.00 20.00     0.010 C 
ENDROOT
TORSDOF 0
