REMARK  1 active torsions:
REMARK  status: ('A' for Active; 'I' for Inactive)
REMARK    1  A    between atoms: C2_2  and  C8_8 
ROOT
HETATM    1  C1  UNL     1     -34.168   6.886   5.720  1.00 20.00    -0.081 C 
HETATM    2  C2  UNL     1     -33.622   6.644   4.517  1.00 20.00    -0.078 C 
HETATM    3  C3  UNL     1     -34.977   5.718   6.198  1.00 20.00     0.034 C 
HETATM    4  C4  UNL     1     -33.987   5.279   4.016  1.00 20.00     0.034 C 
HETATM    5  C5  UNL     1     -34.554   4.595   5.256  1.00 20.00     0.009 C 
HETATM    6  C6  UNL     1     -34.091   8.113   6.558  1.00 20.00     0.043 C 
ENDROOT
BRANCH   2   7
HETATM    7  C8  UNL     1     -32.780   7.532   3.670  1.00 20.00     0.030 C 
HETATM    8  C7  UNL     1     -32.388   6.830   2.385  1.00 20.00     0.010 C 
ENDBRANCH   2   7
TORSDOF 1
