REMARK  5 active torsions:
REMARK  status: ('A' for Active; 'I' for Inactive)
REMARK    1  A    between atoms: C6_6  and  C8_8 
REMARK    2  A    between atoms: C8_8  and  C10_10 
REMARK    3  A    between atoms: C9_9  and  C11_11 
REMARK    4  A    between atoms: C10_10  and  C12_12 
REMARK    5  A    between atoms: C11_11  and  C12_12 
ROOT
HETATM    1  C1  UNL     1     -34.576   5.871   6.867  1.00 20.00     0.000 A 
HETATM    2  C2  UNL     1     -34.302   4.661   6.228  1.00 20.00     0.001 A 
HETATM    3  C3  UNL     1     -34.629   7.053   6.129  1.00 20.00     0.001 A 
HETATM    4  C4  UNL     1     -34.082   4.634   4.852  1.00 20.00     0.007 A 
HETATM    5  C5  UNL     1     -34.409   7.026   4.752  1.00 20.00     0.007 A 
HETATM    6  C6  UNL     1     -34.135   5.816   4.113  1.00 20.00    -0.058 A 
ENDROOT
BRANCH   6   7
HETATM    7  C8  UNL     1     -33.898   5.788   2.635  1.00 20.00     0.038 C 
BRANCH   7   8
HETATM    8  C10 UNL     1     -32.418   5.976   2.294  1.00 20.00     0.005 C 
BRANCH   8   9
HETATM    9  C12 UNL     1     -31.905   7.332   2.783  1.00 20.00     0.000 C 
BRANCH   9  10
HETATM   10  C11 UNL     1     -32.656   8.485   2.115  1.00 20.00    -0.000 C 
BRANCH  10  11
HETATM   11  C9  UNL     1     -32.518   8.431   0.594  1.00 20.00    -0.005 C 
HETATM   12  C7  UNL     1     -33.290   9.556  -0.076  1.00 20.00     0.005 C 
ENDBRANCH  10  11
ENDBRANCH   9  10
ENDBRANCH   8   9
ENDBRANCH   7   8
ENDBRANCH   6   7
TORSDOF 5
