REMARK  0 active torsions:
REMARK  status: ('A' for Active; 'I' for Inactive)
ROOT
HETATM    1  C1  UNL     1     -32.668   5.550   2.327  1.00 20.00     0.001 A 
HETATM    2  C2  UNL     1     -32.240   6.861   2.518  1.00 20.00     0.001 A 
HETATM    3  C3  UNL     1     -35.067   5.718   6.557  1.00 20.00     0.001 A 
HETATM    4  C4  UNL     1     -34.639   7.028   6.748  1.00 20.00     0.001 A 
HETATM    5  C5  UNL     1     -33.478   4.934   3.281  1.00 20.00     0.012 A 
HETATM    6  C6  UNL     1     -32.621   7.560   3.664  1.00 20.00     0.012 A 
HETATM    7  C7  UNL     1     -34.686   5.018   5.411  1.00 20.00     0.012 A 
HETATM    8  C8  UNL     1     -33.829   7.644   5.794  1.00 20.00     0.012 A 
HETATM    9  C9  UNL     1     -33.871   5.623   4.440  1.00 20.00    -0.026 A 
HETATM   10  C10 UNL     1     -33.436   6.956   4.634  1.00 20.00    -0.026 A 
ENDROOT
TORSDOF 0
