REMARK  0 active torsions:
REMARK  status: ('A' for Active; 'I' for Inactive)
ROOT
HETATM    1  C1  UNL     1     -34.417   6.689   6.452  1.00 20.00     0.001 A 
HETATM    2  C2  UNL     1     -34.769   5.379   6.130  1.00 20.00     0.001 A 
HETATM    3  C3  UNL     1     -33.711   7.468   5.535  1.00 20.00     0.007 A 
HETATM    4  C4  UNL     1     -34.415   4.846   4.890  1.00 20.00     0.007 A 
HETATM    5  C5  UNL     1     -33.357   6.936   4.296  1.00 20.00    -0.056 A 
HETATM    6  C6  UNL     1     -33.709   5.625   3.973  1.00 20.00    -0.056 A 
HETATM    7  C7  UNL     1     -32.602   7.788   3.329  1.00 20.00     0.049 C 
HETATM    8  C8  UNL     1     -33.340   5.033   2.652  1.00 20.00     0.049 C 
ENDROOT
TORSDOF 0
