REMARK  1 active torsions:
REMARK  status: ('A' for Active; 'I' for Inactive)
REMARK    1  A    between atoms: C6_6  and  N9_9 
ROOT
HETATM    1  N8  UNL     1     -32.570   9.464   1.383  1.00 20.00     0.068 N 
HETATM    2  N9  UNL     1     -32.324   7.111   1.736  1.00 20.00    -0.073 NA
HETATM    3  N10 UNL     1     -32.454   8.341   1.554  1.00 20.00    -0.162 NA
ENDROOT
BRANCH   2   4
HETATM    4  C6  UNL     1     -32.919   6.672   2.923  1.00 20.00     0.093 A 
HETATM    5  C3  UNL     1     -33.427   5.376   3.010  1.00 20.00     0.035 A 
HETATM    6  C1  UNL     1     -34.020   4.936   4.194  1.00 20.00     0.009 A 
HETATM    7  C5  UNL     1     -34.104   5.793   5.291  1.00 20.00    -0.062 A 
HETATM    8  C2  UNL     1     -33.596   7.089   5.204  1.00 20.00     0.009 A 
HETATM    9  C7  UNL     1     -34.739   5.325   6.556  1.00 20.00     0.048 C 
HETATM   10  C4  UNL     1     -33.004   7.529   4.020  1.00 20.00     0.035 A 
ENDBRANCH   2   4
TORSDOF 1
