REMARK  1 active torsions:
REMARK  status: ('A' for Active; 'I' for Inactive)
REMARK    1  A    between atoms: C6_6  and  N8_8 
ROOT
HETATM    1  N7  UNL     1     -31.624   6.710   2.138  1.00 20.00     0.068 N 
HETATM    2  N8  UNL     1     -33.522   5.461   2.885  1.00 20.00    -0.073 NA
HETATM    3  N9  UNL     1     -32.529   6.115   2.498  1.00 20.00    -0.162 NA
ENDROOT
BRANCH   2   4
HETATM    4  C6  UNL     1     -33.778   5.620   4.251  1.00 20.00     0.093 A 
HETATM    5  C4  UNL     1     -33.442   6.813   4.889  1.00 20.00     0.034 A 
HETATM    6  C2  UNL     1     -33.698   6.971   6.252  1.00 20.00     0.002 A 
HETATM    7  C1  UNL     1     -34.289   5.936   6.975  1.00 20.00     0.000 A 
HETATM    8  C3  UNL     1     -34.624   4.742   6.337  1.00 20.00     0.002 A 
HETATM    9  C5  UNL     1     -34.368   4.584   4.974  1.00 20.00     0.034 A 
ENDBRANCH   2   4
TORSDOF 1
