REMARK  0 active torsions:
REMARK  status: ('A' for Active; 'I' for Inactive)
ROOT
HETATM    1  C1  UNL     1     -32.179   7.252   1.791  1.00 20.00     0.018 C 
HETATM    2  C2  UNL     1     -32.731   6.911   2.801  1.00 20.00    -0.078 C 
HETATM    3  C3  UNL     1     -34.672   5.713   6.350  1.00 20.00     0.000 A 
HETATM    4  C4  UNL     1     -33.615   6.622   6.405  1.00 20.00     0.001 A 
HETATM    5  C5  UNL     1     -35.088   5.201   5.121  1.00 20.00     0.001 A 
HETATM    6  C6  UNL     1     -32.973   7.018   5.232  1.00 20.00     0.020 A 
HETATM    7  C7  UNL     1     -34.446   5.597   3.947  1.00 20.00     0.020 A 
HETATM    8  C8  UNL     1     -33.389   6.505   4.003  1.00 20.00     0.016 A 
ENDROOT
TORSDOF 0
