REMARK  2 active torsions:
REMARK  status: ('A' for Active; 'I' for Inactive)
REMARK    1  A    between atoms: C6_6  and  C10_10 
REMARK    2  A    between atoms: C9_9  and  C10_10 
ROOT
HETATM    1  C1  UNL     1     -34.784   6.323   6.796  1.00 20.00     0.000 A 
HETATM    2  C2  UNL     1     -33.688   7.186   6.796  1.00 20.00     0.001 A 
HETATM    3  C3  UNL     1     -35.139   5.646   5.629  1.00 20.00     0.001 A 
HETATM    4  C4  UNL     1     -32.947   7.372   5.629  1.00 20.00     0.007 A 
HETATM    5  C5  UNL     1     -34.397   5.832   4.462  1.00 20.00     0.007 A 
HETATM    6  C6  UNL     1     -33.301   6.694   4.462  1.00 20.00    -0.054 A 
ENDROOT
BRANCH   6   7
HETATM    7  C10 UNL     1     -32.495   6.897   3.191  1.00 20.00     0.014 C 
HETATM    8  C8  UNL     1     -32.528   5.630   2.327  1.00 20.00     0.015 C 
BRANCH   7   9
HETATM    9  C9  UNL     1     -32.954   8.118   2.369  1.00 20.00     0.004 C 
HETATM   10  C7  UNL     1     -32.141   8.322   1.096  1.00 20.00     0.006 C 
ENDBRANCH   7   9
ENDBRANCH   6   7
TORSDOF 2
