REMARK  1 active torsions:
REMARK  status: ('A' for Active; 'I' for Inactive)
REMARK    1  A    between atoms: C3_3  and  C8_8 
ROOT
HETATM    1  C1  UNL     1     -34.710   7.068   6.733  1.00 20.00    -0.026 C 
HETATM    2  C2  UNL     1     -33.439   6.649   6.825  1.00 20.00    -0.024 C 
HETATM    3  C4  UNL     1     -34.537   5.156   5.456  1.00 20.00     0.018 C 
HETATM    4  C5  UNL     1     -34.612   7.220   4.261  1.00 20.00     0.029 C 
HETATM    5  C6  UNL     1     -35.280   6.494   5.457  1.00 20.00     0.010 C 
HETATM    6  C7  UNL     1     -33.154   5.813   5.598  1.00 20.00     0.027 C 
HETATM    7  C8  UNL     1     -33.138   6.735   4.354  1.00 20.00     0.052 C 
HETATM    8  C9  UNL     1     -32.114   7.862   4.379  1.00 20.00     0.027 C 
ENDROOT
BRANCH   7   9
HETATM    9  C3  UNL     1     -32.762   5.936   3.110  1.00 20.00     0.182 C 
HETATM   10  O10 UNL     1     -32.977   4.694   3.181  1.00 20.00    -0.647 OA
HETATM   11  O11 UNL     1     -32.282   6.623   2.165  1.00 20.00    -0.647 OA
ENDBRANCH   7   9
TORSDOF 1
