REMARK  0 active torsions:
REMARK  status: ('A' for Active; 'I' for Inactive)
ROOT
HETATM    1  C1  UNL     1     -33.150   7.489   3.983  1.00 20.00     0.075 C 
HETATM    2  C2  UNL     1     -34.501   4.876   6.503  1.00 20.00     0.084 C 
HETATM    3  C3  UNL     1     -33.505   5.965   6.868  1.00 20.00     0.085 C 
HETATM    4  C4  UNL     1     -35.364   6.397   4.355  1.00 20.00     0.104 C 
HETATM    5  C5  UNL     1     -34.414   7.534   4.735  1.00 20.00     0.163 C 
HETATM    6  N6  UNL     1     -32.153   7.453   3.391  1.00 20.00    -0.196 NA
HETATM    7  S7  UNL     1     -34.743   4.720   4.710  1.00 20.00    -0.166 SA
HETATM    8  S8  UNL     1     -34.133   7.640   6.537  1.00 20.00    -0.148 SA
ENDROOT
TORSDOF 0
