REMARK  2 active torsions:
REMARK  status: ('A' for Active; 'I' for Inactive)
REMARK    1  A    between atoms: C3_3  and  C5_5 
REMARK    2  A    between atoms: C5_5  and  C6_6 
ROOT
HETATM    1  C1  UNL     1     -34.593   4.757   4.963  1.00 20.00     0.179 C 
HETATM    2  C2  UNL     1     -34.357   4.974   6.447  1.00 20.00     0.103 C 
HETATM    3  C3  UNL     1     -33.732   6.902   4.813  1.00 20.00     0.182 C 
HETATM    4  O7  UNL     1     -33.671   5.586   4.245  1.00 20.00    -0.375 OA
HETATM    5  S8  UNL     1     -34.175   6.762   6.565  1.00 20.00    -0.135 SA
ENDROOT
BRANCH   3   6
HETATM    6  C5  UNL     1     -32.382   7.574   4.636  1.00 20.00     0.042 C 
BRANCH   6   7
HETATM    7  C6  UNL     1     -32.202   8.108   3.216  1.00 20.00    -0.001 C 
HETATM    8  C4  UNL     1     -32.262   6.990   2.186  1.00 20.00     0.005 C 
ENDBRANCH   6   7
ENDBRANCH   3   6
TORSDOF 2
