REMARK  0 active torsions:
REMARK  status: ('A' for Active; 'I' for Inactive)
ROOT
HETATM    1  C1  UNL     1     -34.809   5.300   6.350  1.00 20.00     0.029 C 
HETATM    2  C2  UNL     1     -34.345   4.598   5.073  1.00 20.00     0.048 C 
HETATM    3  C3  UNL     1     -33.827   6.391   6.752  1.00 20.00     0.170 C 
HETATM    4  C4  UNL     1     -33.046   6.682   4.530  1.00 20.00     0.255 C 
HETATM    5  C5  UNL     1     -33.989   5.601   3.964  1.00 20.00     0.152 C 
HETATM    6  O6  UNL     1     -33.619   7.309   5.681  1.00 20.00    -0.367 OA
HETATM    7 CL7  UNL     1     -32.639   7.962   3.350  1.00 20.00    -0.092 Cl
HETATM    8 CL8  UNL     1     -33.202   4.713   2.615  1.00 20.00    -0.098 Cl
HETATM    9 CL9  UNL     1     -35.508   6.335   3.328  1.00 20.00    -0.098 Cl
ENDROOT
TORSDOF 0
