REMARK  2 active torsions:
REMARK  status: ('A' for Active; 'I' for Inactive)
REMARK    1  A    between atoms: C3_3  and  C5_5 
REMARK    2  A    between atoms: C5_5  and  C6_6 
ROOT
HETATM    1  C1  UNL     1     -34.682   6.566   6.930  1.00 20.00     0.179 C 
HETATM    2  C2  UNL     1     -34.331   5.141   6.542  1.00 20.00     0.103 C 
HETATM    3  C3  UNL     1     -33.698   7.052   4.891  1.00 20.00     0.182 C 
HETATM    4  O7  UNL     1     -33.761   7.442   6.269  1.00 20.00    -0.375 OA
HETATM    5  S8  UNL     1     -34.026   5.273   4.772  1.00 20.00    -0.135 SA
ENDROOT
BRANCH   3   6
HETATM    6  C5  UNL     1     -32.325   7.399   4.346  1.00 20.00     0.042 C 
BRANCH   6   7
HETATM    7  C6  UNL     1     -32.336   7.507   2.821  1.00 20.00    -0.001 C 
HETATM    8  C4  UNL     1     -32.736   6.193   2.170  1.00 20.00     0.005 C 
ENDBRANCH   6   7
ENDBRANCH   3   6
TORSDOF 2
