REMARK  0 active torsions:
REMARK  status: ('A' for Active; 'I' for Inactive)
ROOT
HETATM    1  C1  UNL     1     -34.615   5.358   6.765  1.00 20.00    -0.030 C 
HETATM    2  C2  UNL     1     -34.714   6.685   7.017  1.00 20.00    -0.029 C 
HETATM    3  C3  UNL     1     -32.910   6.203   3.398  1.00 20.00     0.224 C 
HETATM    4  C4  UNL     1     -33.961   4.782   5.510  1.00 20.00     0.043 C 
HETATM    5  C5  UNL     1     -34.124   7.763   6.108  1.00 20.00     0.053 C 
HETATM    6  C6  UNL     1     -33.906   5.920   4.520  1.00 20.00     0.104 C 
HETATM    7  C7  UNL     1     -33.124   7.043   5.241  1.00 20.00     0.101 C 
HETATM    8  N8  UNL     1     -32.751   7.477   3.905  1.00 20.00    -0.355 N 
HETATM    9  O9  UNL     1     -32.472   5.637   2.427  1.00 20.00    -0.273 OA
HETATM   10  H18 UNL     1     -32.092   8.176   3.586  1.00 20.00     0.162 HD
ENDROOT
TORSDOF 0
