REMARK  0 active torsions:
REMARK  status: ('A' for Active; 'I' for Inactive)
ROOT
HETATM    1  C1  UNL     1     -32.816   7.479   4.300  1.00 20.00     0.056 A 
HETATM    2  C2  UNL     1     -33.705   6.851   5.146  1.00 20.00     0.077 A 
HETATM    3  C3  UNL     1     -33.050   5.600   3.194  1.00 20.00     0.072 A 
HETATM    4  C4  UNL     1     -32.236   8.828   4.476  1.00 20.00     0.072 C 
HETATM    5  C5  UNL     1     -32.894   4.560   2.154  1.00 20.00     0.079 C 
HETATM    6  N6  UNL     1     -32.439   6.764   3.180  1.00 20.00    -0.249 NA
HETATM    7  S7  UNL     1     -34.093   5.300   4.524  1.00 20.00    -0.066 SA
HETATM    8 BR8  UNL     1     -34.415   7.553   6.756  1.00 20.00    -0.041 Br
ENDROOT
TORSDOF 0
