REMARK  0 active torsions:
REMARK  status: ('A' for Active; 'I' for Inactive)
ROOT
HETATM    1  C1  UNL     1     -32.271   7.277   2.181  1.00 20.00     0.136 A 
HETATM    2  C2  UNL     1     -32.564   5.991   1.796  1.00 20.00     0.136 A 
HETATM    3  C3  UNL     1     -33.313   6.919   4.200  1.00 20.00     0.059 A 
HETATM    4  C4  UNL     1     -33.599   5.614   3.815  1.00 20.00     0.059 A 
HETATM    5  C5  UNL     1     -33.676   7.442   5.561  1.00 20.00     0.061 C 
HETATM    6  C6  UNL     1     -34.387   4.684   4.694  1.00 20.00     0.061 C 
HETATM    7  C7  UNL     1     -34.752   6.610   6.256  1.00 20.00     0.006 C 
HETATM    8  C8  UNL     1     -34.422   5.124   6.156  1.00 20.00     0.006 C 
HETATM    9  N9  UNL     1     -32.635   7.760   3.384  1.00 20.00    -0.262 NA
HETATM   10  N10 UNL     1     -33.232   5.143   2.601  1.00 20.00    -0.262 NA
ENDROOT
TORSDOF 0
