REMARK  2 active torsions:
REMARK  status: ('A' for Active; 'I' for Inactive)
REMARK    1  A    between atoms: C3_3  and  O11_11 
REMARK    2  A    between atoms: C8_8  and  O11_11 
ROOT
HETATM    1  C1  UNL     1     -34.200   4.227   5.583  1.00 20.00    -0.025 C 
HETATM    2  C2  UNL     1     -35.011   4.857   4.720  1.00 20.00    -0.023 C 
HETATM    3  C4  UNL     1     -35.310   5.871   6.774  1.00 20.00     0.019 C 
HETATM    4  C5  UNL     1     -33.036   6.315   6.187  1.00 20.00     0.042 C 
HETATM    5  C6  UNL     1     -33.940   5.181   6.724  1.00 20.00     0.011 C 
HETATM    6  C7  UNL     1     -35.288   6.232   5.285  1.00 20.00     0.038 C 
HETATM    7  C8  UNL     1     -33.996   7.082   5.235  1.00 20.00     0.140 C 
ENDROOT
BRANCH   7   8
HETATM    8  O11 UNL     1     -33.467   7.188   3.928  1.00 20.00    -0.316 OA
BRANCH   8   9
HETATM    9  C3  UNL     1     -32.282   7.867   3.811  1.00 20.00     0.255 C 
HETATM   10  C9  UNL     1     -31.844   7.898   2.378  1.00 20.00     0.126 C 
HETATM   11  O10 UNL     1     -31.656   8.379   4.729  1.00 20.00    -0.266 OA
ENDBRANCH   8   9
ENDBRANCH   7   8
TORSDOF 2
