REMARK  0 active torsions:
REMARK  status: ('A' for Active; 'I' for Inactive)
ROOT
HETATM    1  C1  UNL     1     -34.142   4.844   6.570  1.00 20.00     0.197 C 
HETATM    2  C2  UNL     1     -33.464   6.186   6.591  1.00 20.00     0.197 C 
HETATM    3  C3  UNL     1     -34.448   5.872   4.573  1.00 20.00     0.156 C 
HETATM    4  C4  UNL     1     -35.900   6.075   4.161  1.00 20.00     0.078 C 
HETATM    5  C5  UNL     1     -33.514   5.956   3.372  1.00 20.00     0.078 C 
HETATM    6  O6  UNL     1     -34.302   4.577   5.178  1.00 20.00    -0.354 OA
HETATM    7  O7  UNL     1     -34.093   6.891   5.522  1.00 20.00    -0.354 OA
ENDROOT
TORSDOF 0
