REMARK  1 active torsions:
REMARK  status: ('A' for Active; 'I' for Inactive)
REMARK    1  A    between atoms: C9_9  and  C10_10 
ROOT
HETATM    1  C1  UNL     1     -32.454   5.081   2.392  1.00 20.00     0.015 C 
HETATM    2  C2  UNL     1     -32.223   7.569   2.884  1.00 20.00     0.015 C 
HETATM    3  C5  UNL     1     -33.006   5.301   0.988  1.00 20.00     0.074 C 
HETATM    4  C6  UNL     1     -32.756   7.997   1.521  1.00 20.00     0.074 C 
HETATM    5  C9  UNL     1     -32.751   6.216   3.384  1.00 20.00    -0.009 C 
HETATM    6  S11 UNL     1     -32.335   6.802   0.221  1.00 20.00    -0.169 SA
ENDROOT
BRANCH   5   7
HETATM    7  C10 UNL     1     -34.238   6.283   3.744  1.00 20.00    -0.009 C 
HETATM    8  C3  UNL     1     -34.747   4.952   4.319  1.00 20.00     0.015 C 
HETATM    9  C7  UNL     1     -34.206   4.607   5.702  1.00 20.00     0.074 C 
HETATM   10  S12 UNL     1     -34.640   5.865   6.935  1.00 20.00    -0.169 SA
HETATM   11  C8  UNL     1     -33.990   7.331   6.085  1.00 20.00     0.074 C 
HETATM   12  C4  UNL     1     -34.548   7.466   4.673  1.00 20.00     0.015 C 
ENDBRANCH   5   7
TORSDOF 1
