REMARK  0 active torsions:
REMARK  status: ('A' for Active; 'I' for Inactive)
ROOT
HETATM    1  C1  UNL     1     -34.335   5.495   6.733  1.00 20.00     0.000 C 
HETATM    2  C2  UNL     1     -33.910   6.867   6.931  1.00 20.00     0.017 C 
HETATM    3  C3  UNL     1     -34.412   4.971   5.497  1.00 20.00     0.010 C 
HETATM    4  C4  UNL     1     -33.384   7.542   5.896  1.00 20.00     0.092 C 
HETATM    5  C5  UNL     1     -32.185   6.349   2.704  1.00 20.00     0.072 C 
HETATM    6  C6  UNL     1     -32.348   7.303   3.640  1.00 20.00     0.015 C 
HETATM    7  C7  UNL     1     -34.116   5.811   4.285  1.00 20.00     0.178 C 
HETATM    8  C8  UNL     1     -31.567   8.575   3.667  1.00 20.00     0.069 C 
HETATM    9  N9  UNL     1     -33.288   6.992   4.629  1.00 20.00    -0.343 N 
HETATM   10  S10 UNL     1     -33.170   4.934   2.983  1.00 20.00    -0.110 SA
ENDROOT
TORSDOF 0
