REMARK  3 active torsions:
REMARK  status: ('A' for Active; 'I' for Inactive)
REMARK    1  A    between atoms: C2_2  and  C5_5 
REMARK    2  A    between atoms: C2_2  and  O10_10 
REMARK    3  A    between atoms: C7_7  and  O10_10 
ROOT
HETATM    1  C1  UNL     1     -32.385   8.504   1.205  1.00 20.00     0.065 C 
HETATM    2  C3  UNL     1     -31.459   7.787   3.446  1.00 20.00     0.036 A 
HETATM    3  C4  UNL     1     -32.272   7.494   2.215  1.00 20.00     0.107 A 
HETATM    4  C5  UNL     1     -32.958   7.715   3.543  1.00 20.00     0.104 A 
HETATM    5  N8  UNL     1     -32.476   9.321   0.387  1.00 20.00    -0.197 NA
ENDROOT
BRANCH   4   6
HETATM    6  C2  UNL     1     -33.580   6.575   4.226  1.00 20.00     0.264 C 
HETATM    7  O9  UNL     1     -34.001   5.579   3.652  1.00 20.00    -0.265 OA
BRANCH   6   8
HETATM    8  O10 UNL     1     -33.607   6.808   5.569  1.00 20.00    -0.322 OA
BRANCH   8   9
HETATM    9  C7  UNL     1     -34.694   6.202   6.276  1.00 20.00     0.174 C 
HETATM   10  C6  UNL     1     -34.275   4.823   6.739  1.00 20.00     0.034 C 
ENDBRANCH   8   9
ENDBRANCH   6   8
ENDBRANCH   4   6
TORSDOF 3
