REMARK  0 active torsions:
REMARK  status: ('A' for Active; 'I' for Inactive)
ROOT
HETATM    1  C1  UNL     1     -32.387   5.727   2.947  1.00 20.00     0.006 C 
HETATM    2  C2  UNL     1     -32.074   7.108   3.528  1.00 20.00     0.006 C 
HETATM    3  C3  UNL     1     -33.700   5.286   3.588  1.00 20.00     0.068 C 
HETATM    4  C4  UNL     1     -33.207   7.427   4.501  1.00 20.00     0.068 C 
HETATM    5  C5  UNL     1     -33.801   4.940   6.859  1.00 20.00     0.197 C 
HETATM    6  C6  UNL     1     -34.971   5.883   6.787  1.00 20.00     0.197 C 
HETATM    7  C7  UNL     1     -33.755   6.062   4.897  1.00 20.00     0.164 C 
HETATM    8  O8  UNL     1     -32.902   5.457   5.879  1.00 20.00    -0.353 OA
HETATM    9  O9  UNL     1     -35.090   6.151   5.391  1.00 20.00    -0.353 OA
ENDROOT
TORSDOF 0
