REMARK  0 active torsions:
REMARK  status: ('A' for Active; 'I' for Inactive)
ROOT
HETATM    1  C1  UNL     1     -34.357   4.949   6.698  1.00 20.00    -0.028 C 
HETATM    2  C2  UNL     1     -34.249   4.464   5.457  1.00 20.00    -0.023 C 
HETATM    3  C3  UNL     1     -32.912   6.905   3.927  1.00 20.00     0.259 C 
HETATM    4  C4  UNL     1     -34.893   6.344   6.707  1.00 20.00     0.060 C 
HETATM    5  C5  UNL     1     -33.699   5.766   3.353  1.00 20.00     0.122 C 
HETATM    6  C6  UNL     1     -34.712   5.455   4.431  1.00 20.00     0.047 C 
HETATM    7  C7  UNL     1     -34.804   6.743   5.233  1.00 20.00     0.143 C 
HETATM    8  O8  UNL     1     -31.852   7.322   3.487  1.00 20.00    -0.265 OA
HETATM    9  O9  UNL     1     -33.570   7.442   4.996  1.00 20.00    -0.315 OA
ENDROOT
TORSDOF 0
