REMARK  0 active torsions:
REMARK  status: ('A' for Active; 'I' for Inactive)
ROOT
HETATM    1  C1  UNL     1     -33.085   5.066   2.961  1.00 20.00     0.038 A 
HETATM    2  C2  UNL     1     -33.465   7.094   4.195  1.00 20.00     0.058 A 
HETATM    3  C3  UNL     1     -33.694   4.382   4.001  1.00 20.00     0.119 A 
HETATM    4  C4  UNL     1     -32.972   6.448   3.067  1.00 20.00     0.015 A 
HETATM    5  C5  UNL     1     -34.057   6.320   5.180  1.00 20.00     0.104 A 
HETATM    6  N6  UNL     1     -34.185   4.976   5.111  1.00 20.00    -0.254 NA
HETATM    7 BR7  UNL     1     -32.154   7.441   1.685  1.00 20.00    -0.051 Br
HETATM    8 BR8  UNL     1     -34.739   7.182   6.729  1.00 20.00    -0.029 Br
ENDROOT
TORSDOF 0
