REMARK  0 active torsions:
REMARK  status: ('A' for Active; 'I' for Inactive)
ROOT
HETATM    1  C1  UNL     1     -32.339   7.748   4.296  1.00 20.00    -0.007 C 
HETATM    2  C2  UNL     1     -32.892   7.192   3.211  1.00 20.00     0.008 C 
HETATM    3  C3  UNL     1     -32.928   7.628   5.667  1.00 20.00     0.035 C 
HETATM    4  C4  UNL     1     -34.159   6.394   3.233  1.00 20.00     0.058 C 
HETATM    5  C5  UNL     1     -34.666   6.331   6.959  1.00 20.00     0.172 C 
HETATM    6  C6  UNL     1     -34.064   4.825   5.278  1.00 20.00     0.172 C 
HETATM    7  C7  UNL     1     -34.384   7.122   5.690  1.00 20.00     0.019 C 
HETATM    8  C8  UNL     1     -34.669   6.065   4.635  1.00 20.00     0.021 C 
HETATM    9  O9  UNL     1     -34.244   4.979   6.697  1.00 20.00    -0.390 OA
HETATM   10 CL10 UNL     1     -32.146   7.368   1.661  1.00 20.00    -0.089 Cl
ENDROOT
TORSDOF 0
