REMARK  2 active torsions:
REMARK  status: ('A' for Active; 'I' for Inactive)
REMARK    1  A    between atoms: C5_5  and  C6_6 
REMARK    2  A    between atoms: C6_6  and  N8_8 
ROOT
HETATM    1  C1  UNL     1     -32.342   6.411   2.327  1.00 20.00     0.135 A 
HETATM    2  C2  UNL     1     -33.283   5.495   2.734  1.00 20.00     0.111 A 
HETATM    3  C3  UNL     1     -33.257   7.262   4.050  1.00 20.00     0.209 A 
HETATM    4  N7  UNL     1     -32.331   7.509   3.150  1.00 20.00    -0.255 NA
HETATM    5  N8  UNL     1     -33.861   6.054   3.839  1.00 20.00    -0.350 N 
ENDROOT
BRANCH   5   6
HETATM    6  C6  UNL     1     -34.926   5.469   4.645  1.00 20.00     0.129 C 
BRANCH   6   7
HETATM    7  C5  UNL     1     -34.400   4.875   5.950  1.00 20.00     0.016 C 
HETATM    8  C4  UNL     1     -33.730   5.934   6.810  1.00 20.00     0.006 C 
ENDBRANCH   6   7
ENDBRANCH   5   6
TORSDOF 2
