REMARK  0 active torsions:
REMARK  status: ('A' for Active; 'I' for Inactive)
ROOT
HETATM    1  C1  UNL     1     -33.477   5.177   3.253  1.00 20.00     0.089 A 
HETATM    2  C2  UNL     1     -32.770   7.507   3.714  1.00 20.00     0.089 A 
HETATM    3  C3  UNL     1     -33.790   5.586   4.525  1.00 20.00     0.109 A 
HETATM    4  C4  UNL     1     -33.412   6.926   4.779  1.00 20.00     0.109 A 
HETATM    5  C5  UNL     1     -34.316   5.347   6.746  1.00 20.00     0.202 C 
HETATM    6  C6  UNL     1     -34.595   6.854   6.743  1.00 20.00     0.202 C 
HETATM    7  O7  UNL     1     -34.411   4.788   5.425  1.00 20.00    -0.346 OA
HETATM    8  O8  UNL     1     -33.635   7.570   5.948  1.00 20.00    -0.346 OA
HETATM    9  S9  UNL     1     -32.674   6.424   2.382  1.00 20.00    -0.108 SA
ENDROOT
TORSDOF 0
