REMARK  1 active torsions:
REMARK  status: ('A' for Active; 'I' for Inactive)
REMARK    1  A    between atoms: C3_3  and  O11_11 
ROOT
HETATM    1  C1  UNL     1     -33.670   5.548   3.378  1.00 20.00    -0.019 A 
HETATM    2  C2  UNL     1     -32.986   6.758   3.342  1.00 20.00    -0.029 A 
HETATM    3  C3  UNL     1     -34.279   5.136   4.558  1.00 20.00     0.096 A 
HETATM    4  C4  UNL     1     -32.940   7.513   4.503  1.00 20.00     0.037 A 
HETATM    5  C5  UNL     1     -34.175   5.963   5.665  1.00 20.00     0.064 A 
HETATM    6  C6  UNL     1     -33.754   4.690   2.157  1.00 20.00     0.052 C 
HETATM    7  C7  UNL     1     -32.322   7.227   2.091  1.00 20.00     0.051 C 
HETATM    8  C8  UNL     1     -32.220   8.822   4.524  1.00 20.00     0.071 C 
HETATM    9  C9  UNL     1     -34.810   5.569   6.958  1.00 20.00     0.073 C 
HETATM   10  N10 UNL     1     -33.519   7.145   5.668  1.00 20.00    -0.255 NA
ENDROOT
BRANCH   3  11
HETATM   11  O11 UNL     1     -34.955   3.958   4.624  1.00 20.00    -0.358 OA
HETATM   12  H24 UNL     1     -35.316   3.825   5.515  1.00 20.00     0.217 HD
ENDBRANCH   3  11
TORSDOF 1
