REMARK  0 active torsions:
REMARK  status: ('A' for Active; 'I' for Inactive)
ROOT
HETATM    1  C1  UNL     1     -33.267   6.405   3.497  1.00 20.00    -0.017 C 
HETATM    2  C2  UNL     1     -33.063   4.924   3.372  1.00 20.00     0.155 C 
HETATM    3  C3  UNL     1     -32.563   7.277   2.770  1.00 20.00     0.023 C 
HETATM    4  C4  UNL     1     -33.902   4.081   4.329  1.00 20.00     0.089 C 
HETATM    5  C5  UNL     1     -35.591   5.976   4.337  1.00 20.00     0.016 C 
HETATM    6  C6  UNL     1     -34.301   6.858   4.483  1.00 20.00     0.030 C 
HETATM    7  C7  UNL     1     -34.827   4.937   5.217  1.00 20.00     0.002 C 
HETATM    8  C8  UNL     1     -34.143   6.187   5.918  1.00 20.00    -0.036 C 
HETATM    9  C9  UNL     1     -34.987   6.845   7.027  1.00 20.00     0.016 C 
HETATM   10  C10 UNL     1     -32.725   5.991   6.468  1.00 20.00     0.016 C 
HETATM   11  O11 UNL     1     -32.281   4.424   2.571  1.00 20.00    -0.293 OA
ENDROOT
TORSDOF 0
