REMARK  0 active torsions:
REMARK  status: ('A' for Active; 'I' for Inactive)
ROOT
HETATM    1  C1  UNL     1     -33.758   6.654   6.350  1.00 20.00    -0.024 C 
HETATM    2  C2  UNL     1     -33.424   7.138   5.137  1.00 20.00    -0.083 C 
HETATM    3  C3  UNL     1     -34.605   5.405   6.478  1.00 20.00     0.033 C 
HETATM    4  C4  UNL     1     -35.498   6.060   4.190  1.00 20.00     0.015 C 
HETATM    5  C5  UNL     1     -33.976   6.380   3.957  1.00 20.00     0.022 C 
HETATM    6  C6  UNL     1     -34.963   4.883   5.070  1.00 20.00    -0.002 C 
HETATM    7  C7  UNL     1     -33.751   4.803   4.041  1.00 20.00    -0.036 C 
HETATM    8  C8  UNL     1     -32.581   8.343   4.897  1.00 20.00     0.043 C 
HETATM    9  C9  UNL     1     -32.405   4.293   4.572  1.00 20.00     0.016 C 
HETATM   10  C10 UNL     1     -34.050   4.038   2.736  1.00 20.00     0.016 C 
ENDROOT
TORSDOF 0
