REMARK  2 active torsions:
REMARK  status: ('A' for Active; 'I' for Inactive)
REMARK    1  A    between atoms: C2_2  and  C4_4 
REMARK    2  A    between atoms: C4_4  and  O5_5 
ROOT
HETATM    1  C1  UNL     1     -34.395   7.575   4.050  1.00 20.00     0.052 A 
HETATM    2  C2  UNL     1     -33.820   6.850   5.236  1.00 20.00     0.051 A 
HETATM    3  C3  UNL     1     -33.283   6.574   3.850  1.00 20.00     0.119 A 
HETATM    4 CL6  UNL     1     -33.666   5.069   3.026  1.00 20.00    -0.101 Cl
HETATM    5 CL7  UNL     1     -31.681   7.196   3.454  1.00 20.00    -0.101 Cl
ENDROOT
BRANCH   2   6
HETATM    6  C4  UNL     1     -34.657   5.872   5.987  1.00 20.00     0.172 C 
BRANCH   6   7
HETATM    7  O5  UNL     1     -35.450   5.111   5.076  1.00 20.00    -0.400 OA
HETATM    8  H13 UNL     1     -35.971   4.496   5.613  1.00 20.00     0.209 HD
ENDBRANCH   6   7
ENDBRANCH   2   6
TORSDOF 2
