REMARK  1 active torsions:
REMARK  status: ('A' for Active; 'I' for Inactive)
REMARK    1  A    between atoms: C1_1  and  C10_10 
ROOT
HETATM    1  C2  UNL     1     -34.391   6.092   7.003  1.00 20.00     0.009 C 
HETATM    2  C3  UNL     1     -35.775   5.512   4.973  1.00 20.00     0.010 C 
HETATM    3  C4  UNL     1     -35.051   7.850   5.318  1.00 20.00     0.010 C 
HETATM    4  C5  UNL     1     -33.550   4.820   4.990  1.00 20.00     0.022 C 
HETATM    5  C6  UNL     1     -32.824   7.161   5.336  1.00 20.00     0.022 C 
HETATM    6  C7  UNL     1     -34.726   4.988   5.955  1.00 20.00    -0.013 C 
HETATM    7  C8  UNL     1     -33.971   7.425   6.314  1.00 20.00    -0.013 C 
HETATM    8  C9  UNL     1     -35.009   6.676   4.326  1.00 20.00     0.002 C 
HETATM    9  C10 UNL     1     -33.509   6.213   4.346  1.00 20.00     0.024 C 
ENDROOT
BRANCH   9  10
HETATM   10  C1  UNL     1     -32.870   6.200   2.996  1.00 20.00     0.132 C 
HETATM   11  C11 UNL     1     -32.778   7.519   2.278  1.00 20.00     0.091 C 
HETATM   12  O12 UNL     1     -32.438   5.162   2.497  1.00 20.00    -0.298 OA
ENDBRANCH   9  10
TORSDOF 1
