REMARK  1 active torsions:
REMARK  status: ('A' for Active; 'I' for Inactive)
REMARK    1  A    between atoms: C11_11  and  C12_12 
ROOT
HETATM    1  C1  UNL     1     -32.433   7.043   1.751  1.00 20.00     0.059 C 
HETATM    2  C12 UNL     1     -32.219   5.870   2.587  1.00 20.00     0.133 C 
HETATM    3  N13 UNL     1     -32.577   7.966   1.063  1.00 20.00    -0.197 NA
ENDROOT
BRANCH   2   4
HETATM    4  C11 UNL     1     -33.260   6.013   3.700  1.00 20.00    -0.027 C 
HETATM    5  C5  UNL     1     -34.687   6.038   3.101  1.00 20.00     0.015 C 
HETATM    6  C8  UNL     1     -35.736   6.181   4.217  1.00 20.00    -0.013 C 
HETATM    7  C2  UNL     1     -35.611   4.993   5.185  1.00 20.00     0.009 C 
HETATM    8  C3  UNL     1     -35.482   7.489   4.985  1.00 20.00     0.009 C 
HETATM    9  C9  UNL     1     -34.204   4.964   5.806  1.00 20.00    -0.013 C 
HETATM   10  C4  UNL     1     -33.958   6.278   6.566  1.00 20.00     0.009 C 
HETATM   11  C6  UNL     1     -33.159   4.824   4.685  1.00 20.00     0.015 C 
HETATM   12  C10 UNL     1     -34.075   7.473   5.605  1.00 20.00    -0.013 C 
HETATM   13  C7  UNL     1     -33.030   7.326   4.485  1.00 20.00     0.015 C 
ENDBRANCH   2   4
TORSDOF 1
