REMARK  0 active torsions:
REMARK  status: ('A' for Active; 'I' for Inactive)
ROOT
HETATM    1  C1  UNL     1     -33.078   6.417   3.841  1.00 20.00    -0.080 C 
HETATM    2  C2  UNL     1     -32.077   7.077   3.249  1.00 20.00     0.015 C 
HETATM    3  C3  UNL     1     -33.608   5.074   3.385  1.00 20.00     0.039 C 
HETATM    4  C4  UNL     1     -35.863   5.832   4.121  1.00 20.00     0.007 C 
HETATM    5  C5  UNL     1     -35.277   7.188   4.564  1.00 20.00     0.015 C 
HETATM    6  C6  UNL     1     -34.716   4.840   4.438  1.00 20.00    -0.002 C 
HETATM    7  C7  UNL     1     -33.869   6.807   5.094  1.00 20.00    -0.014 C 
HETATM    8  C8  UNL     1     -34.104   5.411   5.747  1.00 20.00    -0.033 C 
HETATM    9  C9  UNL     1     -33.260   7.873   5.990  1.00 20.00     0.021 C 
HETATM   10  C10 UNL     1     -35.075   5.394   6.945  1.00 20.00     0.016 C 
HETATM   11  C11 UNL     1     -32.825   4.685   6.219  1.00 20.00     0.016 C 
ENDROOT
TORSDOF 0
