REMARK  2 active torsions:
REMARK  status: ('A' for Active; 'I' for Inactive)
REMARK    1  A    between atoms: C1_1  and  C7_7 
REMARK    2  A    between atoms: C7_7  and  S10_10 
ROOT
HETATM    1  C1  UNL     1     -33.229   6.790   4.495  1.00 20.00     0.009 A 
HETATM    2  C2  UNL     1     -34.133   6.792   5.571  1.00 20.00     0.068 A 
HETATM    3  C3  UNL     1     -33.623   5.715   3.742  1.00 20.00     0.084 A 
HETATM    4  C4  UNL     1     -34.192   7.729   6.706  1.00 20.00     0.073 C 
HETATM    5  C5  UNL     1     -33.141   5.117   2.490  1.00 20.00     0.079 C 
HETATM    6  N8  UNL     1     -35.019   5.795   5.492  1.00 20.00    -0.133 NA
HETATM    7  O9  UNL     1     -34.690   5.114   4.326  1.00 20.00    -0.217 OA
ENDROOT
BRANCH   1   8
HETATM    8  C7  UNL     1     -32.095   7.740   4.227  1.00 20.00     0.116 C 
BRANCH   8   9
HETATM    9  S10 UNL     1     -32.674   9.330   3.587  1.00 20.00    -0.169 SA
HETATM   10  C6  UNL     1     -32.925   8.850   1.862  1.00 20.00     0.090 C 
ENDBRANCH   8   9
ENDBRANCH   1   8
TORSDOF 2
