REMARK  2 active torsions:
REMARK  status: ('A' for Active; 'I' for Inactive)
REMARK    1  A    between atoms: C1_1  and  C6_6 
REMARK    2  A    between atoms: C7_7  and  C9_9 
ROOT
HETATM    1  C2  UNL     1     -33.881   7.920   4.454  1.00 20.00     0.015 C 
HETATM    2  C3  UNL     1     -34.304   5.707   3.253  1.00 20.00     0.015 C 
HETATM    3  C4  UNL     1     -32.377   7.721   4.258  1.00 20.00     0.005 C 
HETATM    4  C5  UNL     1     -32.795   5.534   3.077  1.00 20.00     0.005 C 
HETATM    5  C6  UNL     1     -34.682   6.623   4.413  1.00 20.00     0.087 C 
HETATM    6  C7  UNL     1     -32.034   6.864   3.033  1.00 20.00    -0.015 C 
ENDROOT
BRANCH   5   7
HETATM    7  C1  UNL     1     -34.489   5.867   5.718  1.00 20.00     0.177 C 
HETATM    8  O10 UNL     1     -34.235   6.584   6.724  1.00 20.00    -0.648 OA
HETATM    9  O11 UNL     1     -34.608   4.613   5.626  1.00 20.00    -0.648 OA
ENDBRANCH   5   7
BRANCH   6  10
HETATM   10  C9  UNL     1     -32.284   7.618   1.724  1.00 20.00     0.000 C 
HETATM   11  C8  UNL     1     -31.500   8.888   1.661  1.00 20.00     0.005 C 
ENDBRANCH   6  10
TORSDOF 2
