REMARK  1 active torsions:
REMARK  status: ('A' for Active; 'I' for Inactive)
REMARK    1  A    between atoms: C4_4  and  C7_7 
ROOT
HETATM    1  C1  UNL     1     -32.646   5.267   2.427  1.00 20.00     0.015 A 
HETATM    2  C2  UNL     1     -33.305   4.558   3.434  1.00 20.00     0.008 A 
HETATM    3  C3  UNL     1     -33.137   7.380   3.529  1.00 20.00     0.022 A 
HETATM    4  C4  UNL     1     -32.563   6.668   2.474  1.00 20.00     0.002 A 
HETATM    5  C5  UNL     1     -33.860   5.273   4.483  1.00 20.00    -0.052 A 
HETATM    6  C6  UNL     1     -33.777   6.669   4.530  1.00 20.00    -0.051 A 
HETATM    7  C8  UNL     1     -34.639   4.746   5.647  1.00 20.00     0.039 C 
HETATM    8  C9  UNL     1     -34.494   7.206   5.728  1.00 20.00     0.039 C 
HETATM    9  C10 UNL     1     -34.593   5.947   6.603  1.00 20.00     0.009 C 
ENDROOT
BRANCH   4  10
HETATM   10  C7  UNL     1     -31.878   7.384   1.409  1.00 20.00     0.269 C 
HETATM   11  O11 UNL     1     -31.767   8.613   1.387  1.00 20.00    -0.301 OA
ENDBRANCH   4  10
TORSDOF 1
