REMARK  1 active torsions:
REMARK  status: ('A' for Active; 'I' for Inactive)
REMARK    1  A    between atoms: C5_5  and  C7_7 
ROOT
HETATM    1  C1  UNL     1     -33.308   5.513   3.479  1.00 20.00     0.010 C 
HETATM    2  C2  UNL     1     -33.194   6.912   4.156  1.00 20.00    -0.004 A 
HETATM    3  C3  UNL     1     -34.415   4.864   4.364  1.00 20.00    -0.004 A 
HETATM    4  C4  UNL     1     -34.561   7.273   4.707  1.00 20.00    -0.000 A 
HETATM    5  C5  UNL     1     -33.511   6.741   5.630  1.00 20.00    -0.000 A 
HETATM    6  C6  UNL     1     -35.337   5.972   4.839  1.00 20.00    -0.000 A 
HETATM    7  C7  UNL     1     -34.287   5.439   5.762  1.00 20.00    -0.000 A 
ENDROOT
TORSDOF 1
