REMARK  2 active torsions:
REMARK  status: ('A' for Active; 'I' for Inactive)
REMARK    1  A    between atoms: C3_3  and  C9_9 
REMARK    2  A    between atoms: C4_4  and  C10_10 
ROOT
HETATM    1  C1  UNL     1     -35.184   6.310   4.715  1.00 20.00     0.009 A 
HETATM    2  C2  UNL     1     -34.714   6.558   3.495  1.00 20.00     0.009 A 
HETATM    3  C3  UNL     1     -34.101   5.758   5.580  1.00 20.00     0.076 A 
HETATM    4  C4  UNL     1     -33.268   6.198   3.420  1.00 20.00     0.076 A 
HETATM    5  C5  UNL     1     -34.415   4.340   6.048  1.00 20.00     0.050 C 
HETATM    6  C6  UNL     1     -33.014   5.080   2.412  1.00 20.00     0.050 C 
HETATM    7  O11 UNL     1     -32.925   5.705   4.737  1.00 20.00    -0.362 OA
ENDROOT
BRANCH   3   8
HETATM    8  C9  UNL     1     -33.797   6.674   6.763  1.00 20.00     0.037 C 
HETATM    9  C7  UNL     1     -33.354   8.028   6.314  1.00 20.00     0.008 C 
ENDBRANCH   3   8
BRANCH   4  10
HETATM   10  C10 UNL     1     -32.395   7.415   3.125  1.00 20.00     0.037 C 
HETATM   11  C8  UNL     1     -32.757   8.052   1.823  1.00 20.00     0.008 C 
ENDBRANCH   4  10
TORSDOF 2
