REMARK  2 active torsions:
REMARK  status: ('A' for Active; 'I' for Inactive)
REMARK    1  A    between atoms: C2_2  and  C4_4 
REMARK    2  A    between atoms: C3_3  and  C4_4 
ROOT
HETATM    1  C4  UNL     1     -33.496   7.417   4.540  1.00 20.00     0.127 C 
HETATM    2 CL7  UNL     1     -33.236   7.182   6.295  1.00 20.00    -0.121 Cl
ENDROOT
BRANCH   1   3
HETATM    3  C2  UNL     1     -34.541   6.428   4.039  1.00 20.00     0.164 A 
HETATM    4  C1  UNL     1     -34.546   4.998   4.503  1.00 20.00     0.201 A 
HETATM    5  O5  UNL     1     -35.456   5.971   5.041  1.00 20.00    -0.380 OA
ENDBRANCH   1   3
BRANCH   1   6
HETATM    6  C3  UNL     1     -32.172   7.351   3.777  1.00 20.00     0.137 C 
HETATM    7 CL6  UNL     1     -32.331   7.692   2.035  1.00 20.00    -0.129 Cl
ENDBRANCH   1   6
TORSDOF 2
