REMARK  0 active torsions:
REMARK  status: ('A' for Active; 'I' for Inactive)
ROOT
HETATM    1  C1  UNL     1     -34.058   4.212   5.593  1.00 20.00    -0.029 C 
HETATM    2  C2  UNL     1     -34.119   5.196   6.495  1.00 20.00    -0.023 C 
HETATM    3  C3  UNL     1     -33.106   6.837   4.027  1.00 20.00     0.264 C 
HETATM    4  C4  UNL     1     -34.424   4.690   4.225  1.00 20.00     0.042 C 
HETATM    5  C5  UNL     1     -33.623   7.651   6.114  1.00 20.00     0.188 C 
HETATM    6  C6  UNL     1     -34.558   6.490   5.877  1.00 20.00     0.046 C 
HETATM    7  C7  UNL     1     -34.433   6.211   4.385  1.00 20.00     0.098 C 
HETATM    8  O8  UNL     1     -32.510   6.686   2.971  1.00 20.00    -0.265 OA
HETATM    9  O9  UNL     1     -32.657   7.613   5.057  1.00 20.00    -0.320 OA
ENDROOT
TORSDOF 0
