REMARK  2 active torsions:
REMARK  status: ('A' for Active; 'I' for Inactive)
REMARK    1  A    between atoms: C2_2  and  C3_3 
REMARK    2  A    between atoms: N9_9  and  N10_10 
ROOT
HETATM    1  C1  UNL     1     -33.780   7.284   5.618  1.00 20.00    -0.018 C 
HETATM    2  C2  UNL     1     -33.390   6.780   4.442  1.00 20.00    -0.043 C 
HETATM    3  C5  UNL     1     -34.422   6.246   6.477  1.00 20.00     0.028 C 
HETATM    4  C6  UNL     1     -33.710   5.323   4.329  1.00 20.00     0.040 C 
HETATM    5  C7  UNL     1     -34.671   5.101   5.497  1.00 20.00     0.008 C 
ENDROOT
BRANCH   2   6
HETATM    6  C3  UNL     1     -32.728   7.491   3.395  1.00 20.00     0.147 C 
HETATM    7  N9  UNL     1     -32.375   6.939   2.273  1.00 20.00    -0.163 NA
BRANCH   7   8
HETATM    8  N10 UNL     1     -31.749   7.857   1.437  1.00 20.00    -0.168 NA
HETATM    9  C4  UNL     1     -32.617   8.447   0.684  1.00 20.00     0.109 C 
HETATM   10  C8  UNL     1     -32.190   9.482  -0.308  1.00 20.00     0.059 C 
ENDBRANCH   7   8
ENDBRANCH   2   6
TORSDOF 2
