REMARK  4 active torsions:
REMARK  status: ('A' for Active; 'I' for Inactive)
REMARK    1  A    between atoms: C1_1  and  C7_7 
REMARK    2  A    between atoms: C1_1  and  C8_8 
REMARK    3  A    between atoms: C7_7  and  C9_9 
REMARK    4  A    between atoms: C8_8  and  C10_10 
ROOT
HETATM    1  C1  UNL     1     -32.246   7.366   3.191  1.00 20.00     0.131 C 
HETATM    2  O11 UNL     1     -31.152   7.855   3.476  1.00 20.00    -0.298 OA
ENDROOT
BRANCH   1   3
HETATM    3  C7  UNL     1     -33.160   7.998   2.148  1.00 20.00     0.082 C 
BRANCH   3   4
HETATM    4  C9  UNL     1     -32.398   8.686   1.006  1.00 20.00    -0.016 C 
HETATM    5  C3  UNL     1     -31.505   7.695   0.256  1.00 20.00     0.010 C 
HETATM    6  C4  UNL     1     -33.386   9.333   0.033  1.00 20.00     0.010 C 
ENDBRANCH   3   4
ENDBRANCH   1   3
BRANCH   1   7
HETATM    7  C8  UNL     1     -32.774   6.110   3.888  1.00 20.00     0.054 C 
HETATM    8  C2  UNL     1     -32.925   4.967   2.883  1.00 20.00     0.018 C 
BRANCH   7   9
HETATM    9  C10 UNL     1     -34.057   6.441   4.688  1.00 20.00    -0.012 C 
HETATM   10  C5  UNL     1     -33.805   7.554   5.710  1.00 20.00     0.010 C 
HETATM   11  C6  UNL     1     -34.676   5.227   5.388  1.00 20.00     0.010 C 
ENDBRANCH   7   9
ENDBRANCH   1   7
TORSDOF 4
