REMARK  1 active torsions:
REMARK  status: ('A' for Active; 'I' for Inactive)
REMARK    1  A    between atoms: C6_6  and  C10_10 
ROOT
HETATM    1  C1  UNL     1     -32.518   7.622   3.651  1.00 20.00     0.127 C 
HETATM    2  C2  UNL     1     -32.408   6.625   2.520  1.00 20.00     0.082 C 
HETATM    3  C3  UNL     1     -33.895   7.808   4.244  1.00 20.00     0.083 C 
HETATM    4  C4  UNL     1     -34.369   5.403   3.576  1.00 20.00     0.010 C 
HETATM    5  C5  UNL     1     -32.984   5.266   2.921  1.00 20.00    -0.011 C 
HETATM    6  C6  UNL     1     -34.498   6.472   4.677  1.00 20.00    -0.004 C 
HETATM    7  C7  UNL     1     -31.991   4.467   3.767  1.00 20.00     0.010 C 
HETATM    8  O11 UNL     1     -31.559   8.302   4.011  1.00 20.00    -0.298 OA
ENDROOT
BRANCH   6   9
HETATM    9  C10 UNL     1     -33.939   6.019   6.027  1.00 20.00    -0.018 C 
HETATM   10  C8  UNL     1     -34.222   7.065   7.103  1.00 20.00     0.010 C 
HETATM   11  C9  UNL     1     -34.527   4.667   6.425  1.00 20.00     0.010 C 
ENDBRANCH   6   9
TORSDOF 1
