REMARK  1 active torsions:
REMARK  status: ('A' for Active; 'I' for Inactive)
REMARK    1  A    between atoms: C1_1  and  C5_5 
ROOT
HETATM    1  C2  UNL     1     -34.260   4.466   5.550  1.00 20.00     0.022 C 
HETATM    2  C3  UNL     1     -33.765   6.926   5.490  1.00 20.00     0.022 C 
HETATM    3  C4  UNL     1     -35.920   6.057   4.541  1.00 20.00     0.022 C 
HETATM    4  C5  UNL     1     -34.432   5.761   4.751  1.00 20.00     0.002 C 
ENDROOT
BRANCH   4   5
HETATM    5  C1  UNL     1     -33.797   5.555   3.381  1.00 20.00     0.239 C 
HETATM    6  O6  UNL     1     -32.869   6.223   2.935  1.00 20.00    -0.306 OA
ENDBRANCH   4   5
TORSDOF 1
