REMARK  1 active torsions:
REMARK  status: ('A' for Active; 'I' for Inactive)
REMARK    1  A    between atoms: C1_1  and  C3_3 
ROOT
HETATM    1  C1  UNL     1     -33.690   6.969   4.226  1.00 20.00     0.000 C 
HETATM    2  C2  UNL     1     -32.612   7.530   3.672  1.00 20.00     0.081 C 
HETATM    3 CL4  UNL     1     -32.152   7.262   2.044  1.00 20.00    -0.097 Cl
ENDROOT
BRANCH   1   4
HETATM    4  C3  UNL     1     -34.101   7.205   5.641  1.00 20.00     0.142 C 
HETATM    5 CL5  UNL     1     -34.122   5.668   6.531  1.00 20.00    -0.126 Cl
ENDBRANCH   1   4
TORSDOF 1
