REMARK  1 active torsions:
REMARK  status: ('A' for Active; 'I' for Inactive)
REMARK    1  A    between atoms: C4_4  and  C12_12 
ROOT
HETATM    1  C1  UNL     1     -34.158   5.428   3.801  1.00 20.00     0.005 C 
HETATM    2  C2  UNL     1     -33.439   5.453   2.670  1.00 20.00     0.001 C 
HETATM    3  C3  UNL     1     -32.899   7.236   4.812  1.00 20.00    -0.012 C 
HETATM    4  C4  UNL     1     -33.950   6.399   4.857  1.00 20.00    -0.058 C 
HETATM    5  C5  UNL     1     -32.443   8.638   1.933  1.00 20.00     0.004 C 
HETATM    6  C6  UNL     1     -31.583   8.613   3.155  1.00 20.00     0.065 C 
HETATM    7  C7  UNL     1     -31.891   7.223   3.686  1.00 20.00     0.042 C 
HETATM    8  C8  UNL     1     -32.363   6.471   2.423  1.00 20.00     0.138 C 
HETATM    9  C9  UNL     1     -32.733   9.927   1.236  1.00 20.00     0.065 C 
HETATM   10  N13 UNL     1     -32.886   7.502   1.495  1.00 20.00    -0.289 NA
ENDROOT
BRANCH   4  11
HETATM   11  C12 UNL     1     -34.934   6.393   5.987  1.00 20.00     0.010 C 
HETATM   12  C10 UNL     1     -34.956   5.025   6.662  1.00 20.00     0.015 C 
HETATM   13  C11 UNL     1     -34.609   7.492   6.995  1.00 20.00     0.015 C 
ENDBRANCH   4  11
TORSDOF 1
