REMARK  0 active torsions:
REMARK  status: ('A' for Active; 'I' for Inactive)
ROOT
HETATM    1  C1  UNL     1     -33.428   6.711   3.701  1.00 20.00    -0.017 C 
HETATM    2  C2  UNL     1     -33.628   5.232   3.604  1.00 20.00     0.159 C 
HETATM    3  C3  UNL     1     -32.569   7.430   2.982  1.00 20.00     0.023 C 
HETATM    4  C4  UNL     1     -33.994   6.585   6.111  1.00 20.00     0.010 C 
HETATM    5  C5  UNL     1     -34.187   5.053   5.978  1.00 20.00     0.013 C 
HETATM    6  C6  UNL     1     -35.592   6.170   4.406  1.00 20.00     0.022 C 
HETATM    7  C7  UNL     1     -34.443   7.130   4.740  1.00 20.00     0.022 C 
HETATM    8  C8  UNL     1     -34.753   4.894   4.560  1.00 20.00     0.061 C 
HETATM    9  O9  UNL     1     -32.978   4.456   2.929  1.00 20.00    -0.292 OA
ENDROOT
TORSDOF 0
