REMARK  0 active torsions:
REMARK  status: ('A' for Active; 'I' for Inactive)
ROOT
HETATM    1  C1  UNL     1     -33.551   5.922   3.717  1.00 20.00    -0.021 C 
HETATM    2  C2  UNL     1     -33.785   4.690   4.212  1.00 20.00    -0.021 C 
HETATM    3  C3  UNL     1     -33.844   6.882   5.971  1.00 20.00    -0.021 C 
HETATM    4  C4  UNL     1     -34.077   5.650   6.466  1.00 20.00    -0.021 C 
HETATM    5  C5  UNL     1     -35.594   5.995   4.771  1.00 20.00     0.024 C 
HETATM    6  C6  UNL     1     -34.370   6.896   4.547  1.00 20.00     0.031 C 
HETATM    7  C7  UNL     1     -34.758   4.852   5.367  1.00 20.00     0.031 C 
ENDROOT
TORSDOF 0
