REMARK  0 active torsions:
REMARK  status: ('A' for Active; 'I' for Inactive)
ROOT
HETATM    1  C1  UNL     1     -33.345   6.158   3.767  1.00 20.00     0.118 C 
HETATM    2  C2  UNL     1     -34.311   7.038   5.847  1.00 20.00     0.118 C 
HETATM    3  C3  UNL     1     -34.334   5.984   4.831  1.00 20.00     0.288 C 
HETATM    4  N4  UNL     1     -32.560   6.298   2.923  1.00 20.00    -0.193 NA
HETATM    5  N5  UNL     1     -34.292   7.875   6.651  1.00 20.00    -0.193 NA
HETATM    6 CL6  UNL     1     -35.953   5.958   4.090  1.00 20.00    -0.069 Cl
HETATM    7 CL7  UNL     1     -34.020   4.427   5.636  1.00 20.00    -0.069 Cl
ENDROOT
TORSDOF 0
