REMARK  3 active torsions:
REMARK  status: ('A' for Active; 'I' for Inactive)
REMARK    1  A    between atoms: C3_3  and  C4_4 
REMARK    2  A    between atoms: C3_3  and  S7_7 
REMARK    3  A    between atoms: C4_4  and  S8_8 
ROOT
HETATM    1  C1  UNL     1     -32.589   6.465   2.559  1.00 20.00     0.133 C 
HETATM    2  N5  UNL     1     -32.178   7.393   1.997  1.00 20.00    -0.184 NA
HETATM    3  S7  UNL     1     -33.176   5.107   3.376  1.00 20.00    -0.050 SA
ENDROOT
BRANCH   3   4
HETATM    4  C3  UNL     1     -34.843   5.727   3.752  1.00 20.00     0.101 C 
BRANCH   4   5
HETATM    5  C4  UNL     1     -35.468   4.905   4.871  1.00 20.00     0.101 C 
BRANCH   5   6
HETATM    6  S8  UNL     1     -34.454   5.022   6.375  1.00 20.00    -0.050 SA
HETATM    7  C2  UNL     1     -34.100   6.673   6.305  1.00 20.00     0.133 C 
HETATM    8  N6  UNL     1     -33.853   7.805   6.264  1.00 20.00    -0.184 NA
ENDBRANCH   5   6
ENDBRANCH   4   5
ENDBRANCH   3   4
TORSDOF 3
