REMARK  0 active torsions:
REMARK  status: ('A' for Active; 'I' for Inactive)
ROOT
HETATM    1  C1  UNL     1     -34.150   4.652   5.453  1.00 20.00    -0.018 C 
HETATM    2  C2  UNL     1     -34.135   5.703   6.290  1.00 20.00    -0.025 C 
HETATM    3  C3  UNL     1     -33.301   6.003   3.688  1.00 20.00     0.135 C 
HETATM    4  C4  UNL     1     -33.260   7.260   4.558  1.00 20.00     0.087 C 
HETATM    5  C5  UNL     1     -35.451   6.308   4.480  1.00 20.00     0.025 C 
HETATM    6  C6  UNL     1     -34.509   5.167   4.085  1.00 20.00     0.078 C 
HETATM    7  C7  UNL     1     -34.466   6.938   5.475  1.00 20.00     0.016 C 
HETATM    8  O8  UNL     1     -32.473   5.701   2.844  1.00 20.00    -0.297 OA
ENDROOT
TORSDOF 0
