REMARK  2 active torsions:
REMARK  status: ('A' for Active; 'I' for Inactive)
REMARK    1  A    between atoms: C1_1  and  C2_2 
REMARK    2  A    between atoms: C1_1  and  C3_3 
ROOT
HETATM    1  C1  UNL     1     -33.897   5.498   4.059  1.00 20.00     0.168 C 
HETATM    2  O4  UNL     1     -34.130   4.352   4.439  1.00 20.00    -0.294 OA
ENDROOT
BRANCH   1   3
HETATM    3  C2  UNL     1     -33.138   5.745   2.780  1.00 20.00     0.301 C 
HETATM    4  F5  UNL     1     -32.444   6.913   2.837  1.00 20.00    -0.248 F 
ENDBRANCH   1   3
BRANCH   1   5
HETATM    5  C3  UNL     1     -34.336   6.734   4.809  1.00 20.00     0.195 C 
HETATM    6 CL6  UNL     1     -33.101   7.231   5.976  1.00 20.00    -0.122 Cl
ENDBRANCH   1   5
TORSDOF 2
