REMARK  1 active torsions:
REMARK  status: ('A' for Active; 'I' for Inactive)
REMARK    1  A    between atoms: C8_8  and  O9_9 
ROOT
HETATM    1  C1  UNL     1     -34.309   4.812   6.706  1.00 20.00     0.015 C 
HETATM    2  C2  UNL     1     -34.547   5.334   5.652  1.00 20.00    -0.079 C 
HETATM    3  C3  UNL     1     -32.243   6.559   3.020  1.00 20.00     0.000 C 
HETATM    4  C4  UNL     1     -32.726   7.404   4.195  1.00 20.00     0.004 C 
HETATM    5  C5  UNL     1     -32.787   5.135   3.085  1.00 20.00     0.004 C 
HETATM    6  C6  UNL     1     -34.250   7.394   4.307  1.00 20.00     0.051 C 
HETATM    7  C7  UNL     1     -34.312   5.119   3.195  1.00 20.00     0.051 C 
HETATM    8  C8  UNL     1     -34.839   5.975   4.357  1.00 20.00     0.120 C 
ENDROOT
BRANCH   8   9
HETATM    9  O9  UNL     1     -36.260   6.071   4.239  1.00 20.00    -0.378 OA
HETATM   10  H21 UNL     1     -36.435   6.493   3.385  1.00 20.00     0.211 HD
ENDBRANCH   8   9
TORSDOF 1
