REMARK  1 active torsions:
REMARK  status: ('A' for Active; 'I' for Inactive)
REMARK    1  A    between atoms: C3_3  and  C6_6 
ROOT
HETATM    1  C1  UNL     1     -31.870   8.060   4.405  1.00 20.00    -0.030 C 
HETATM    2  C2  UNL     1     -32.228   7.374   3.313  1.00 20.00    -0.026 C 
HETATM    3  C4  UNL     1     -32.591   7.956   5.711  1.00 20.00     0.031 C 
HETATM    4  C5  UNL     1     -33.373   6.394   3.280  1.00 20.00     0.014 C 
HETATM    5  C6  UNL     1     -33.939   6.071   4.686  1.00 20.00     0.058 C 
HETATM    6  C7  UNL     1     -33.990   7.325   5.585  1.00 20.00    -0.004 C 
HETATM    7  C8  UNL     1     -32.928   5.108   2.572  1.00 20.00     0.015 C 
HETATM    8  C9  UNL     1     -34.537   7.017   6.983  1.00 20.00     0.011 C 
ENDROOT
BRANCH   5   9
HETATM    9  C3  UNL     1     -35.320   5.501   4.520  1.00 20.00     0.236 C 
HETATM   10  O10 UNL     1     -36.249   6.116   4.006  1.00 20.00    -0.306 OA
ENDBRANCH   5   9
TORSDOF 1
