REMARK  2 active torsions:
REMARK  status: ('A' for Active; 'I' for Inactive)
REMARK    1  A    between atoms: C2_2  and  C4_4 
REMARK    2  A    between atoms: C5_5  and  C9_9 
ROOT
HETATM    1  C1  UNL     1     -32.989   5.263   2.754  1.00 20.00    -0.016 C 
HETATM    2  C2  UNL     1     -32.573   6.449   2.290  1.00 20.00    -0.024 C 
HETATM    3  C6  UNL     1     -33.696   5.111   4.072  1.00 20.00     0.036 C 
HETATM    4  C7  UNL     1     -32.733   7.740   3.034  1.00 20.00     0.042 C 
HETATM    5  C8  UNL     1     -33.094   7.529   4.509  1.00 20.00     0.014 C 
HETATM    6  C9  UNL     1     -34.173   6.449   4.666  1.00 20.00     0.017 C 
ENDROOT
BRANCH   6   7
HETATM    7  C5  UNL     1     -34.564   6.276   6.101  1.00 20.00    -0.089 C 
HETATM    8  C3  UNL     1     -35.019   5.108   6.577  1.00 20.00     0.014 C 
HETATM    9  C10 UNL     1     -34.417   7.486   6.977  1.00 20.00     0.043 C 
ENDBRANCH   6   7
BRANCH   2  10
HETATM   10  C4  UNL     1     -31.903   6.474   0.987  1.00 20.00     0.265 C 
HETATM   11  O11 UNL     1     -31.488   7.508   0.479  1.00 20.00    -0.302 OA
ENDBRANCH   2  10
TORSDOF 2
