REMARK  1 active torsions:
REMARK  status: ('A' for Active; 'I' for Inactive)
REMARK    1  A    between atoms: C3_3  and  C8_8 
ROOT
HETATM    1  C1  UNL     1     -33.519   6.389   6.535  1.00 20.00    -0.026 C 
HETATM    2  C2  UNL     1     -33.659   7.113   5.415  1.00 20.00    -0.025 C 
HETATM    3  C4  UNL     1     -35.675   6.047   5.774  1.00 20.00     0.017 C 
HETATM    4  C5  UNL     1     -34.120   4.285   5.388  1.00 20.00     0.021 C 
HETATM    5  C6  UNL     1     -34.550   5.287   6.485  1.00 20.00     0.009 C 
HETATM    6  C7  UNL     1     -34.777   6.485   4.611  1.00 20.00     0.019 C 
HETATM    7  C8  UNL     1     -34.317   5.106   4.081  1.00 20.00     0.055 C 
ENDROOT
BRANCH   7   8
HETATM    8  C3  UNL     1     -33.081   5.174   3.239  1.00 20.00     0.236 C 
HETATM    9  O9  UNL     1     -32.803   6.130   2.522  1.00 20.00    -0.306 OA
ENDBRANCH   7   8
TORSDOF 1
