REMARK  1 active torsions:
REMARK  status: ('A' for Active; 'I' for Inactive)
REMARK    1  A    between atoms: C6_6  and  C10_10 
ROOT
HETATM    1  C1  UNL     1     -32.475   7.955   3.491  1.00 20.00     0.053 A 
HETATM    2  C2  UNL     1     -32.509   7.146   2.418  1.00 20.00    -0.075 A 
HETATM    3  C3  UNL     1     -33.092   7.200   4.606  1.00 20.00     0.159 A 
HETATM    4  C4  UNL     1     -32.542   4.861   3.625  1.00 20.00     0.029 A 
HETATM    5  C5  UNL     1     -33.131   5.827   2.635  1.00 20.00     0.032 A 
HETATM    6  C6  UNL     1     -33.565   5.868   4.102  1.00 20.00     0.035 A 
HETATM    7  C7  UNL     1     -31.971   7.496   1.074  1.00 20.00     0.044 C 
HETATM    8  O11 UNL     1     -33.206   7.586   5.756  1.00 20.00    -0.292 OA
ENDROOT
BRANCH   6   9
HETATM    9  C10 UNL     1     -34.934   5.378   4.469  1.00 20.00    -0.006 C 
HETATM   10  C8  UNL     1     -35.084   5.210   5.989  1.00 20.00     0.011 C 
HETATM   11  C9  UNL     1     -36.029   6.320   3.945  1.00 20.00     0.011 C 
ENDBRANCH   6   9
TORSDOF 1
