REMARK  1 active torsions:
REMARK  status: ('A' for Active; 'I' for Inactive)
REMARK    1  A    between atoms: C1_1  and  C6_6 
ROOT
HETATM    1  C3  UNL     1     -34.147   6.564   6.330  1.00 20.00     0.022 C 
HETATM    2  C4  UNL     1     -33.910   4.320   5.218  1.00 20.00     0.022 C 
HETATM    3  C5  UNL     1     -35.674   5.912   4.459  1.00 20.00     0.022 C 
HETATM    4  C6  UNL     1     -34.238   5.803   5.002  1.00 20.00     0.009 C 
ENDROOT
BRANCH   4   5
HETATM    5  C1  UNL     1     -33.260   6.439   3.995  1.00 20.00     0.130 C 
HETATM    6  C2  UNL     1     -32.432   7.620   4.444  1.00 20.00     0.091 C 
HETATM    7  O7  UNL     1     -33.154   6.024   2.839  1.00 20.00    -0.298 OA
ENDBRANCH   4   5
TORSDOF 1
