REMARK  2 active torsions:
REMARK  status: ('A' for Active; 'I' for Inactive)
REMARK    1  A    between atoms: C2_2  and  C4_4 
REMARK    2  A    between atoms: C3_3  and  C4_4 
ROOT
HETATM    1  C4  UNL     1     -34.068   6.005   4.466  1.00 20.00     0.127 C 
HETATM    2 CL7  UNL     1     -33.260   4.769   3.455  1.00 20.00    -0.121 Cl
ENDROOT
BRANCH   1   3
HETATM    3  C2  UNL     1     -34.750   5.333   5.652  1.00 20.00     0.164 A 
HETATM    4  C1  UNL     1     -34.943   6.061   6.953  1.00 20.00     0.201 A 
HETATM    5  O5  UNL     1     -33.894   5.095   6.774  1.00 20.00    -0.380 OA
ENDBRANCH   1   3
BRANCH   1   6
HETATM    6  C3  UNL     1     -33.080   7.104   4.863  1.00 20.00     0.137 C 
HETATM    7 CL6  UNL     1     -32.283   7.886   3.475  1.00 20.00    -0.129 Cl
ENDBRANCH   1   6
TORSDOF 2
