REMARK  2 active torsions:
REMARK  status: ('A' for Active; 'I' for Inactive)
REMARK    1  A    between atoms: C1_1  and  C3_3 
REMARK    2  A    between atoms: C2_2  and  C4_4 
ROOT
HETATM    1  C1  UNL     1     -33.027   6.783   3.655  1.00 20.00    -0.015 C 
HETATM    2  C2  UNL     1     -34.215   6.522   4.220  1.00 20.00    -0.015 C 
ENDROOT
BRANCH   1   3
HETATM    3  C3  UNL     1     -32.683   6.423   2.247  1.00 20.00     0.141 C 
HETATM    4 CL5  UNL     1     -32.278   7.889   1.329  1.00 20.00    -0.126 Cl
ENDBRANCH   1   3
BRANCH   2   5
HETATM    5  C4  UNL     1     -34.552   6.866   5.633  1.00 20.00     0.141 C 
HETATM    6 CL6  UNL     1     -34.933   5.387   6.541  1.00 20.00    -0.126 Cl
ENDBRANCH   2   5
TORSDOF 2
