REMARK  2 active torsions:
REMARK  status: ('A' for Active; 'I' for Inactive)
REMARK    1  A    between atoms: C6_6  and  C7_7 
REMARK    2  A    between atoms: C7_7  and  C8_8 
ROOT
HETATM    1  C1  UNL     1     -33.820   5.379   3.905  1.00 20.00     0.069 C 
HETATM    2  C2  UNL     1     -34.705   6.962   6.380  1.00 20.00     0.002 C 
HETATM    3  C3  UNL     1     -33.185   6.875   6.508  1.00 20.00     0.002 C 
HETATM    4  C4  UNL     1     -34.992   7.314   4.921  1.00 20.00     0.024 C 
HETATM    5  C5  UNL     1     -32.622   7.179   5.119  1.00 20.00     0.024 C 
HETATM    6  C6  UNL     1     -33.757   6.836   4.146  1.00 20.00     0.050 C 
HETATM    7  N9  UNL     1     -33.870   4.235   3.715  1.00 20.00    -0.196 NA
ENDROOT
BRANCH   6   8
HETATM    8  C7  UNL     1     -33.604   7.563   2.811  1.00 20.00     0.039 C 
BRANCH   8   9
HETATM    9  C8  UNL     1     -32.305   7.230   2.092  1.00 20.00     0.116 C 
HETATM   10 CL10 UNL     1     -32.145   8.112   0.556  1.00 20.00    -0.130 Cl
ENDBRANCH   8   9
ENDBRANCH   6   8
TORSDOF 2
