REMARK  2 active torsions:
REMARK  status: ('A' for Active; 'I' for Inactive)
REMARK    1  A    between atoms: C1_1  and  C3_3 
REMARK    2  A    between atoms: C1_1  and  O5_5 
ROOT
HETATM    1  C1  UNL     1     -33.635   6.361   4.652  1.00 20.00     0.291 C 
HETATM    2  O4  UNL     1     -32.870   7.280   4.389  1.00 20.00    -0.262 OA
ENDROOT
BRANCH   1   3
HETATM    3  C3  UNL     1     -34.520   6.283   5.867  1.00 20.00     0.277 C 
HETATM    4 CL6  UNL     1     -34.131   4.826   6.797  1.00 20.00    -0.097 Cl
HETATM    5 CL7  UNL     1     -34.248   7.739   6.835  1.00 20.00    -0.097 Cl
ENDBRANCH   1   3
BRANCH   1   6
HETATM    6  O5  UNL     1     -33.842   5.255   3.874  1.00 20.00    -0.324 OA
HETATM    7  C2  UNL     1     -33.085   5.203   2.660  1.00 20.00     0.213 C 
ENDBRANCH   1   6
TORSDOF 2
