REMARK  1 active torsions:
REMARK  status: ('A' for Active; 'I' for Inactive)
REMARK    1  A    between atoms: C8_8  and  O10_10 
ROOT
HETATM    1  C1  UNL     1     -33.715   6.414   2.128  1.00 20.00     0.005 C 
HETATM    2  C2  UNL     1     -31.915   6.259   3.864  1.00 20.00     0.005 C 
HETATM    3  C3  UNL     1     -34.343   7.573   2.914  1.00 20.00     0.008 C 
HETATM    4  C4  UNL     1     -32.576   7.407   4.641  1.00 20.00     0.008 C 
HETATM    5  C5  UNL     1     -33.986   4.867   4.081  1.00 20.00     0.042 C 
HETATM    6  C6  UNL     1     -32.973   5.462   3.081  1.00 20.00    -0.012 C 
HETATM    7  C7  UNL     1     -34.101   7.375   4.427  1.00 20.00     0.019 C 
HETATM    8  C8  UNL     1     -34.677   6.002   4.875  1.00 20.00     0.058 C 
HETATM    9  C9  UNL     1     -34.558   5.770   6.384  1.00 20.00     0.046 C 
ENDROOT
BRANCH   8  10
HETATM   10  O10 UNL     1     -36.076   5.965   4.565  1.00 20.00    -0.390 OA
HETATM   11  H26 UNL     1     -36.388   5.091   4.839  1.00 20.00     0.210 HD
ENDBRANCH   8  10
TORSDOF 1
