REMARK  2 active torsions:
REMARK  status: ('A' for Active; 'I' for Inactive)
REMARK    1  A    between atoms: C1_1  and  C8_8 
REMARK    2  A    between atoms: C8_8  and  O10_10 
ROOT
HETATM    1  C1  UNL     1     -32.785   7.473   3.035  1.00 20.00    -0.069 C 
HETATM    2  C2  UNL     1     -32.671   7.847   1.899  1.00 20.00    -0.108 C 
HETATM    3  C9  UNL     1     -32.534   8.301   0.516  1.00 20.00     0.112 C 
ENDROOT
BRANCH   1   4
HETATM    4  C8  UNL     1     -32.924   7.015   4.429  1.00 20.00     0.121 C 
HETATM    5  C6  UNL     1     -34.323   7.346   4.973  1.00 20.00     0.051 C 
HETATM    6  C4  UNL     1     -35.422   6.475   4.366  1.00 20.00     0.004 C 
HETATM    7  C3  UNL     1     -35.105   4.989   4.510  1.00 20.00     0.000 C 
HETATM    8  C5  UNL     1     -33.736   4.642   3.932  1.00 20.00     0.004 C 
HETATM    9  C7  UNL     1     -32.633   5.510   4.538  1.00 20.00     0.051 C 
BRANCH   4  10
HETATM   10  O10 UNL     1     -31.957   7.720   5.209  1.00 20.00    -0.378 OA
HETATM   11  H24 UNL     1     -32.061   7.408   6.120  1.00 20.00     0.211 HD
ENDBRANCH   4  10
ENDBRANCH   1   4
TORSDOF 2
