REMARK  0 active torsions:
REMARK  status: ('A' for Active; 'I' for Inactive)
ROOT
HETATM    1  C1  UNL     1     -32.686   8.793   5.484  1.00 20.00     0.002 A 
HETATM    2  C2  UNL     1     -33.332   7.696   6.054  1.00 20.00     0.016 A 
HETATM    3  C3  UNL     1     -32.398   8.818   4.109  1.00 20.00     0.019 A 
HETATM    4  C4  UNL     1     -33.669   6.652   5.213  1.00 20.00     0.017 A 
HETATM    5  C5  UNL     1     -33.394   6.656   3.852  1.00 20.00    -0.026 A 
HETATM    6  C6  UNL     1     -32.752   7.745   3.284  1.00 20.00     0.018 A 
HETATM    7  C7  UNL     1     -34.338   5.402   5.538  1.00 20.00     0.160 A 
HETATM    8  C8  UNL     1     -33.857   5.413   3.162  1.00 20.00     0.048 A 
HETATM    9  C9  UNL     1     -34.490   4.573   4.285  1.00 20.00     0.088 A 
HETATM   10  O10 UNL     1     -34.710   5.094   6.655  1.00 20.00    -0.292 OA
HETATM   11 BR11 UNL     1     -32.346   7.819   1.440  1.00 20.00    -0.051 Br
ENDROOT
TORSDOF 0
