REMARK  3 active torsions:
REMARK  status: ('A' for Active; 'I' for Inactive)
REMARK    1  A    between atoms: C5_5  and  C7_7 
REMARK    2  A    between atoms: C6_6  and  C8_8 
REMARK    3  A    between atoms: C7_7  and  C8_8 
ROOT
HETATM    1  C1  UNL     1     -33.186   9.682   0.150  1.00 20.00     0.012 C 
HETATM    2  C3  UNL     1     -32.443   8.859   0.611  1.00 20.00    -0.117 C 
HETATM    3  C5  UNL     1     -31.528   7.854   1.171  1.00 20.00     0.093 C 
ENDROOT
BRANCH   3   4
HETATM    4  C7  UNL     1     -32.250   6.852   2.075  1.00 20.00     0.013 C 
BRANCH   4   5
HETATM    5  C8  UNL     1     -32.870   7.511   3.315  1.00 20.00     0.013 C 
BRANCH   5   6
HETATM    6  C6  UNL     1     -33.529   6.499   4.256  1.00 20.00     0.093 C 
HETATM    7  C4  UNL     1     -34.053   7.131   5.475  1.00 20.00    -0.117 C 
HETATM    8  C2  UNL     1     -34.480   7.643   6.473  1.00 20.00     0.012 C 
ENDBRANCH   5   6
ENDBRANCH   4   5
ENDBRANCH   3   4
TORSDOF 3
