REMARK  1 active torsions:
REMARK  status: ('A' for Active; 'I' for Inactive)
REMARK    1  A    between atoms: C1_1  and  N7_7 
ROOT
HETATM    1  C2  UNL     1     -34.355   6.111   6.872  1.00 20.00     0.003 C 
HETATM    2  C3  UNL     1     -34.302   4.829   6.040  1.00 20.00     0.020 C 
HETATM    3  C4  UNL     1     -33.297   7.111   6.404  1.00 20.00     0.020 C 
HETATM    4  C5  UNL     1     -34.407   5.134   4.548  1.00 20.00     0.123 C 
HETATM    5  C6  UNL     1     -33.416   7.383   4.907  1.00 20.00     0.123 C 
HETATM    6  N7  UNL     1     -33.425   6.136   4.151  1.00 20.00    -0.381 N 
ENDROOT
BRANCH   6   7
HETATM    7  C1  UNL     1     -32.608   5.946   3.085  1.00 20.00     0.168 C 
HETATM    8  S8  UNL     1     -32.643   4.576   2.140  1.00 20.00    -0.074 SA
ENDBRANCH   6   7
TORSDOF 1
