REMARK  2 active torsions:
REMARK  status: ('A' for Active; 'I' for Inactive)
REMARK    1  A    between atoms: C6_6  and  C11_11 
REMARK    2  A    between atoms: C11_11  and  O12_12 
ROOT
HETATM    1  C1  UNL     1     -32.702   5.795   1.331  1.00 20.00    -0.024 C 
HETATM    2  C2  UNL     1     -32.274   7.061   1.188  1.00 20.00    -0.087 C 
HETATM    3  C3  UNL     1     -33.409   5.289   2.555  1.00 20.00     0.035 C 
HETATM    4  C4  UNL     1     -32.502   8.106   2.252  1.00 20.00     0.034 C 
HETATM    5  C5  UNL     1     -33.512   7.684   3.323  1.00 20.00     0.012 C 
HETATM    6  C6  UNL     1     -33.283   6.234   3.761  1.00 20.00     0.023 C 
HETATM    7  C7  UNL     1     -31.540   7.516  -0.039  1.00 20.00     0.043 C 
ENDROOT
BRANCH   6   8
HETATM    8  C11 UNL     1     -34.255   5.832   4.868  1.00 20.00     0.057 C 
HETATM    9  C8  UNL     1     -33.992   4.397   5.320  1.00 20.00     0.046 C 
HETATM   10  C9  UNL     1     -35.703   5.992   4.407  1.00 20.00     0.046 C 
BRANCH   8  11
HETATM   11  O12 UNL     1     -34.040   6.683   5.995  1.00 20.00    -0.385 OA
HETATM   12  C10 UNL     1     -34.917   6.358   7.061  1.00 20.00     0.202 C 
ENDBRANCH   8  11
ENDBRANCH   6   8
TORSDOF 2
