REMARK  3 active torsions:
REMARK  status: ('A' for Active; 'I' for Inactive)
REMARK    1  A    between atoms: C6_6  and  C7_7 
REMARK    2  A    between atoms: C6_6  and  C8_8 
REMARK    3  A    between atoms: C7_7  and  C9_9 
ROOT
HETATM    1  C7  UNL     1     -33.612   6.516   4.566  1.00 20.00     0.008 C 
ENDROOT
BRANCH   1   2
HETATM    2  C6  UNL     1     -33.369   6.699   3.060  1.00 20.00     0.004 C 
BRANCH   2   3
HETATM    3  C8  UNL     1     -32.396   7.851   2.736  1.00 20.00    -0.023 C 
HETATM    4  C1  UNL     1     -32.896   9.203   3.246  1.00 20.00     0.009 C 
HETATM    5  C2  UNL     1     -32.164   7.924   1.225  1.00 20.00     0.009 C 
ENDBRANCH   2   3
ENDBRANCH   1   2
BRANCH   1   6
HETATM    6  C9  UNL     1     -34.547   5.340   4.960  1.00 20.00    -0.051 C 
HETATM    7  C3  UNL     1     -35.961   5.538   4.390  1.00 20.00     0.014 C 
HETATM    8  C4  UNL     1     -34.641   5.296   6.498  1.00 20.00     0.014 C 
HETATM    9  C5  UNL     1     -33.987   3.993   4.471  1.00 20.00     0.014 C 
ENDBRANCH   1   6
TORSDOF 3
