REMARK  1 active torsions:
REMARK  status: ('A' for Active; 'I' for Inactive)
REMARK    1  A    between atoms: C3_3  and  C4_4 
ROOT
HETATM    1  C1  UNL     1     -34.732   5.002   6.518  1.00 20.00     0.033 C 
HETATM    2  C2  UNL     1     -35.718   6.013   4.437  1.00 20.00     0.033 C 
HETATM    3  C4  UNL     1     -34.425   5.564   5.126  1.00 20.00     0.042 C 
HETATM    4 CL6  UNL     1     -33.722   4.220   4.141  1.00 20.00    -0.119 Cl
ENDROOT
BRANCH   3   5
HETATM    5  C3  UNL     1     -33.374   6.687   5.173  1.00 20.00     0.139 C 
HETATM    6 CL5  UNL     1     -32.983   7.367   3.572  1.00 20.00    -0.129 Cl
ENDBRANCH   3   5
TORSDOF 1
