REMARK  2 active torsions:
REMARK  status: ('A' for Active; 'I' for Inactive)
REMARK    1  A    between atoms: C1_1  and  C6_6 
REMARK    2  A    between atoms: C1_1  and  C7_7 
ROOT
HETATM    1  C1  UNL     1     -33.375   6.074   3.803  1.00 20.00     0.135 C 
HETATM    2  O8  UNL     1     -33.435   4.965   3.275  1.00 20.00    -0.297 OA
ENDROOT
BRANCH   1   3
HETATM    3  C6  UNL     1     -32.308   7.026   3.477  1.00 20.00     0.056 A 
HETATM    4  C2  UNL     1     -32.083   7.420   2.042  1.00 20.00     0.013 A 
HETATM    5  C3  UNL     1     -32.672   8.408   3.005  1.00 20.00     0.013 A 
ENDBRANCH   1   3
BRANCH   1   6
HETATM    6  C7  UNL     1     -34.395   6.522   4.815  1.00 20.00     0.056 A 
HETATM    7  C4  UNL     1     -34.618   5.668   6.011  1.00 20.00     0.013 A 
HETATM    8  C5  UNL     1     -33.908   6.982   6.142  1.00 20.00     0.013 A 
ENDBRANCH   1   6
TORSDOF 2
