REMARK  1 active torsions:
REMARK  status: ('A' for Active; 'I' for Inactive)
REMARK    1  A    between atoms: C4_4  and  C9_9 
ROOT
HETATM    1  C1  UNL     1     -34.092   6.416   6.926  1.00 20.00    -0.025 C 
HETATM    2  C2  UNL     1     -34.024   5.111   6.622  1.00 20.00    -0.025 C 
HETATM    3  C5  UNL     1     -35.468   6.078   5.103  1.00 20.00     0.017 C 
HETATM    4  C6  UNL     1     -33.371   7.097   4.656  1.00 20.00     0.017 C 
HETATM    5  C7  UNL     1     -34.532   7.143   5.676  1.00 20.00     0.009 C 
HETATM    6  C8  UNL     1     -34.405   4.972   5.166  1.00 20.00     0.016 C 
HETATM    7  C9  UNL     1     -33.252   5.583   4.340  1.00 20.00     0.015 C 
ENDROOT
BRANCH   7   8
HETATM    8  C4  UNL     1     -33.376   5.296   2.876  1.00 20.00    -0.031 C 
HETATM    9  C3  UNL     1     -32.437   4.678   2.152  1.00 20.00     0.007 C 
ENDBRANCH   7   8
TORSDOF 1
