REMARK  2 active torsions:
REMARK  status: ('A' for Active; 'I' for Inactive)
REMARK    1  A    between atoms: C1_1  and  C3_3 
REMARK    2  A    between atoms: C2_2  and  C3_3 
ROOT
HETATM    1  C3  UNL     1     -34.364   6.276   4.366  1.00 20.00     0.109 C 
HETATM    2 CL6  UNL     1     -33.583   4.798   3.708  1.00 20.00    -0.123 Cl
ENDROOT
BRANCH   1   3
HETATM    3  C1  UNL     1     -33.338   7.410   4.460  1.00 20.00     0.135 C 
HETATM    4 CL4  UNL     1     -32.560   7.797   2.905  1.00 20.00    -0.129 Cl
ENDBRANCH   1   3
BRANCH   1   5
HETATM    5  C2  UNL     1     -35.075   5.913   5.671  1.00 20.00     0.135 C 
HETATM    6 CL5  UNL     1     -33.926   5.424   6.940  1.00 20.00    -0.129 Cl
ENDBRANCH   1   5
TORSDOF 2
