REMARK  7 active torsions:
REMARK  status: ('A' for Active; 'I' for Inactive)
REMARK    1  A    between atoms: C1_1  and  C4_4 
REMARK    2  A    between atoms: C1_1  and  O10_10 
REMARK    3  A    between atoms: C4_4  and  C5_5 
REMARK    4  A    between atoms: C5_5  and  C6_6 
REMARK    5  A    between atoms: C6_6  and  C7_7 
REMARK    6  A    between atoms: C7_7  and  C8_8 
REMARK    7  A    between atoms: C8_8  and  O11_11 
ROOT
HETATM    1  C5  UNL     1     -34.602   5.685   3.918  1.00 20.00     0.010 C 
ENDROOT
BRANCH   1   2
HETATM    2  C4  UNL     1     -34.477   4.857   5.196  1.00 20.00     0.111 C 
BRANCH   2   3
HETATM    3  C1  UNL     1     -34.031   5.670   6.392  1.00 20.00     0.258 C 
HETATM    4  O9  UNL     1     -33.373   5.241   7.330  1.00 20.00    -0.265 OA
BRANCH   3   5
HETATM    5  O10 UNL     1     -34.456   6.958   6.235  1.00 20.00    -0.326 OA
HETATM    6  C2  UNL     1     -34.080   7.863   7.279  1.00 20.00     0.213 C 
ENDBRANCH   3   5
ENDBRANCH   2   3
ENDBRANCH   1   2
BRANCH   1   7
HETATM    7  C6  UNL     1     -33.263   6.279   3.472  1.00 20.00     0.002 C 
BRANCH   7   8
HETATM    8  C7  UNL     1     -33.413   7.072   2.175  1.00 20.00     0.026 C 
BRANCH   8   9
HETATM    9  C8  UNL     1     -32.080   7.631   1.700  1.00 20.00     0.167 C 
BRANCH   9  10
HETATM   10  O11 UNL     1     -32.285   8.342   0.487  1.00 20.00    -0.396 OA
HETATM   11  C3  UNL     1     -32.819   9.638   0.725  1.00 20.00     0.201 C 
ENDBRANCH   9  10
ENDBRANCH   8   9
ENDBRANCH   7   8
ENDBRANCH   1   7
TORSDOF 7
