REMARK  0 active torsions:
REMARK  status: ('A' for Active; 'I' for Inactive)
ROOT
HETATM    1  C1  UNL     1     -32.341   6.821   3.018  1.00 20.00     0.064 C 
HETATM    2  C2  UNL     1     -34.556   5.894   6.604  1.00 20.00     0.005 C 
HETATM    3  C3  UNL     1     -35.575   7.227   4.750  1.00 20.00     0.005 C 
HETATM    4  C4  UNL     1     -34.251   4.765   5.610  1.00 20.00     0.006 C 
HETATM    5  C5  UNL     1     -35.238   6.106   3.758  1.00 20.00     0.006 C 
HETATM    6  C6  UNL     1     -33.147   7.488   5.279  1.00 20.00     0.024 C 
HETATM    7  C7  UNL     1     -32.776   6.325   4.335  1.00 20.00     0.097 C 
HETATM    8  C8  UNL     1     -34.543   7.256   5.889  1.00 20.00    -0.013 C 
HETATM    9  C9  UNL     1     -33.972   5.350   4.212  1.00 20.00     0.003 C 
HETATM   10  N10 UNL     1     -31.998   7.211   1.980  1.00 20.00    -0.197 NA
ENDROOT
TORSDOF 0
