REMARK  1 active torsions:
REMARK  status: ('A' for Active; 'I' for Inactive)
REMARK    1  A    between atoms: C7_7  and  O12_12 
ROOT
HETATM    1  C1  UNL     1     -32.255   7.932   1.215  1.00 20.00     0.015 C 
HETATM    2  C2  UNL     1     -32.211   7.593   2.366  1.00 20.00    -0.079 C 
HETATM    3  C3  UNL     1     -31.993   5.659   3.889  1.00 20.00     0.055 C 
HETATM    4  C4  UNL     1     -34.532   5.626   3.486  1.00 20.00     0.013 C 
HETATM    5  C5  UNL     1     -33.400   7.668   4.553  1.00 20.00     0.060 C 
HETATM    6  C6  UNL     1     -33.194   4.878   3.334  1.00 20.00    -0.014 C 
HETATM    7  C7  UNL     1     -32.158   7.176   3.781  1.00 20.00     0.121 C 
HETATM    8  C8  UNL     1     -34.587   6.667   4.625  1.00 20.00    -0.044 C 
HETATM    9  C9  UNL     1     -33.246   3.468   3.925  1.00 20.00     0.010 C 
HETATM   10  C10 UNL     1     -35.912   7.450   4.508  1.00 20.00     0.015 C 
HETATM   11  C11 UNL     1     -34.599   5.965   5.999  1.00 20.00     0.015 C 
ENDROOT
BRANCH   7  12
HETATM   12  O12 UNL     1     -30.999   7.773   4.371  1.00 20.00    -0.378 OA
HETATM   13  H30 UNL     1     -30.987   7.485   5.295  1.00 20.00     0.211 HD
ENDBRANCH   7  12
TORSDOF 1
