REMARK  1 active torsions:
REMARK  status: ('A' for Active; 'I' for Inactive)
REMARK    1  A    between atoms: C5_5  and  S6_6 
ROOT
HETATM    1  C1  UNL     1     -34.059   4.390   5.156  1.00 20.00     0.026 C 
HETATM    2  C2  UNL     1     -34.466   6.674   6.123  1.00 20.00     0.026 C 
HETATM    3  C3  UNL     1     -35.785   5.902   4.128  1.00 20.00     0.026 C 
HETATM    4  C5  UNL     1     -34.430   5.841   4.839  1.00 20.00    -0.003 C 
ENDROOT
BRANCH   4   5
HETATM    5  S6  UNL     1     -33.150   6.546   3.728  1.00 20.00    -0.165 SA
HETATM    6  C4  UNL     1     -33.348   5.384   2.361  1.00 20.00     0.090 C 
ENDBRANCH   4   5
TORSDOF 1
