REMARK  3 active torsions:
REMARK  status: ('A' for Active; 'I' for Inactive)
REMARK    1  A    between atoms: C3_3  and  C8_8 
REMARK    2  A    between atoms: C6_6  and  C7_7 
REMARK    3  A    between atoms: C7_7  and  C8_8 
ROOT
HETATM    1  C5  UNL     1     -32.951   7.589   5.670  1.00 20.00     0.010 C 
HETATM    2  C8  UNL     1     -32.849   6.884   4.317  1.00 20.00    -0.014 C 
ENDROOT
BRANCH   2   3
HETATM    3  C3  UNL     1     -34.066   5.977   4.115  1.00 20.00    -0.011 A 
HETATM    4  C1  UNL     1     -34.376   4.892   5.109  1.00 20.00     0.005 A 
HETATM    5  C2  UNL     1     -35.262   6.103   5.018  1.00 20.00     0.005 A 
ENDBRANCH   2   3
BRANCH   2   6
HETATM    6  C7  UNL     1     -32.736   7.875   3.144  1.00 20.00     0.004 C 
BRANCH   6   7
HETATM    7  C6  UNL     1     -32.163   7.249   1.870  1.00 20.00    -0.004 C 
HETATM    8  C4  UNL     1     -32.139   8.249   0.724  1.00 20.00     0.005 C 
ENDBRANCH   6   7
ENDBRANCH   2   6
TORSDOF 3
