REMARK  0 active torsions:
REMARK  status: ('A' for Active; 'I' for Inactive)
ROOT
HETATM    1  C1  UNL     1     -33.308   6.799   4.271  1.00 20.00     0.282 C 
HETATM    2  C2  UNL     1     -33.267   7.363   5.676  1.00 20.00     0.278 C 
HETATM    3  C3  UNL     1     -34.500   4.906   5.212  1.00 20.00     0.205 C 
HETATM    4  C4  UNL     1     -34.838   5.797   6.381  1.00 20.00     0.195 C 
HETATM    5  O5  UNL     1     -32.757   7.372   3.335  1.00 20.00    -0.263 OA
HETATM    6  O6  UNL     1     -34.039   5.673   4.085  1.00 20.00    -0.318 OA
HETATM    7  O7  UNL     1     -33.651   6.498   6.721  1.00 20.00    -0.379 OA
ENDROOT
TORSDOF 0
