REMARK  0 active torsions:
REMARK  status: ('A' for Active; 'I' for Inactive)
ROOT
HETATM    1  C1  UNL     1     -33.931   5.656   4.005  1.00 20.00     0.111 C 
HETATM    2  C2  UNL     1     -34.744   5.041   6.189  1.00 20.00     0.049 C 
HETATM    3  C3  UNL     1     -34.199   5.945   5.368  1.00 20.00     0.104 C 
HETATM    4  N4  UNL     1     -33.710   5.422   2.890  1.00 20.00    -0.190 NA
HETATM    5 CL5  UNL     1     -33.791   7.522   5.938  1.00 20.00    -0.073 Cl
ENDROOT
TORSDOF 0
