REMARK  3 active torsions:
REMARK  status: ('A' for Active; 'I' for Inactive)
REMARK    1  A    between atoms: C1_1  and  C7_7 
REMARK    2  A    between atoms: C1_1  and  C9_9 
REMARK    3  A    between atoms: C7_7  and  C8_8 
ROOT
HETATM    1  C1  UNL     1     -33.351   5.998   3.687  1.00 20.00     0.134 C 
HETATM    2  O10 UNL     1     -32.441   5.168   3.747  1.00 20.00    -0.297 OA
ENDROOT
BRANCH   1   3
HETATM    3  C7  UNL     1     -33.473   6.941   2.492  1.00 20.00     0.083 C 
BRANCH   3   4
HETATM    4  C8  UNL     1     -32.119   7.320   1.871  1.00 20.00    -0.016 C 
HETATM    5  C2  UNL     1     -31.243   8.021   2.911  1.00 20.00     0.010 C 
HETATM    6  C3  UNL     1     -32.300   8.226   0.651  1.00 20.00     0.010 C 
ENDBRANCH   3   4
ENDBRANCH   1   3
BRANCH   1   7
HETATM    7  C9  UNL     1     -34.394   6.126   4.818  1.00 20.00     0.009 C 
HETATM    8  C4  UNL     1     -35.801   5.873   4.250  1.00 20.00     0.022 C 
HETATM    9  C5  UNL     1     -34.124   5.096   5.923  1.00 20.00     0.022 C 
HETATM   10  C6  UNL     1     -34.338   7.549   5.388  1.00 20.00     0.022 C 
ENDBRANCH   1   7
TORSDOF 3
