REMARK  0 active torsions:
REMARK  status: ('A' for Active; 'I' for Inactive)
ROOT
HETATM    1  C1  UNL     1     -33.606   5.546   3.628  1.00 20.00    -0.077 C 
HETATM    2  C2  UNL     1     -32.688   4.932   2.874  1.00 20.00     0.015 C 
HETATM    3  C3  UNL     1     -34.546   4.850   5.802  1.00 20.00     0.009 C 
HETATM    4  C4  UNL     1     -34.745   6.324   6.199  1.00 20.00     0.006 C 
HETATM    5  C5  UNL     1     -35.850   5.960   4.149  1.00 20.00     0.014 C 
HETATM    6  C6  UNL     1     -34.793   4.866   4.284  1.00 20.00     0.015 C 
HETATM    7  C7  UNL     1     -34.980   7.022   4.840  1.00 20.00    -0.002 C 
HETATM    8  C8  UNL     1     -33.691   7.035   3.951  1.00 20.00    -0.021 C 
HETATM    9  C9  UNL     1     -33.905   7.886   2.686  1.00 20.00     0.020 C 
HETATM   10  C10 UNL     1     -32.448   7.555   4.686  1.00 20.00     0.020 C 
ENDROOT
TORSDOF 0
