REMARK  3 active torsions:
REMARK  status: ('A' for Active; 'I' for Inactive)
REMARK    1  A    between atoms: C2_2  and  C8_8 
REMARK    2  A    between atoms: C4_4  and  C7_7 
REMARK    3  A    between atoms: C7_7  and  C8_8 
ROOT
HETATM    1  C7  UNL     1     -32.729   7.258   4.561  1.00 20.00     0.034 C 
ENDROOT
BRANCH   1   2
HETATM    2  C4  UNL     1     -32.244   7.383   3.143  1.00 20.00    -0.030 C 
HETATM    3  C3  UNL     1     -32.710   8.291   2.273  1.00 20.00    -0.035 C 
HETATM    4  C5  UNL     1     -32.229   8.416   0.865  1.00 20.00     0.035 C 
ENDBRANCH   1   2
BRANCH   1   5
HETATM    5  C8  UNL     1     -34.239   6.965   4.650  1.00 20.00     0.007 C 
HETATM    6  C6  UNL     1     -34.570   5.677   3.893  1.00 20.00     0.014 C 
BRANCH   5   7
HETATM    7  C2  UNL     1     -34.692   6.832   6.085  1.00 20.00    -0.032 C 
HETATM    8  C1  UNL     1     -34.210   5.921   6.939  1.00 20.00     0.007 C 
ENDBRANCH   5   7
ENDBRANCH   1   5
TORSDOF 3
