REMARK  0 active torsions:
REMARK  status: ('A' for Active; 'I' for Inactive)
ROOT
HETATM    1  C1  UNL     1     -32.699   6.645   2.553  1.00 20.00     0.047 C 
HETATM    2  C2  UNL     1     -33.721   5.882   2.956  1.00 20.00    -0.013 C 
HETATM    3  C3  UNL     1     -34.287   6.040   7.245  1.00 20.00    -0.030 C 
HETATM    4  C4  UNL     1     -33.978   4.882   6.648  1.00 20.00    -0.030 C 
HETATM    5  C5  UNL     1     -32.053   7.587   3.495  1.00 20.00     0.149 C 
HETATM    6  C6  UNL     1     -34.496   7.322   6.498  1.00 20.00     0.033 C 
HETATM    7  C7  UNL     1     -33.816   4.733   5.163  1.00 20.00     0.040 C 
HETATM    8  C8  UNL     1     -32.521   7.604   4.933  1.00 20.00     0.088 C 
HETATM    9  C9  UNL     1     -34.021   7.284   5.031  1.00 20.00     0.008 C 
HETATM   10  C10 UNL     1     -34.353   5.932   4.335  1.00 20.00    -0.019 C 
HETATM   11  C11 UNL     1     -35.884   5.805   4.162  1.00 20.00     0.020 C 
HETATM   12  O12 UNL     1     -31.115   8.285   3.113  1.00 20.00    -0.293 OA
ENDROOT
TORSDOF 0
