REMARK  2 active torsions:
REMARK  status: ('A' for Active; 'I' for Inactive)
REMARK    1  A    between atoms: C1_1  and  C6_6 
REMARK    2  A    between atoms: C5_5  and  C10_10 
ROOT
HETATM    1  C2  UNL     1     -32.983   5.181   2.571  1.00 20.00     0.006 C 
HETATM    2  C3  UNL     1     -33.926   4.724   3.686  1.00 20.00     0.016 C 
HETATM    3  C4  UNL     1     -33.994   7.159   3.423  1.00 20.00     0.021 C 
HETATM    4  C5  UNL     1     -32.653   6.629   2.914  1.00 20.00    -0.010 C 
HETATM    5  C6  UNL     1     -34.541   6.007   4.282  1.00 20.00     0.010 C 
HETATM    6  C7  UNL     1     -36.067   5.976   4.285  1.00 20.00     0.023 C 
ENDROOT
BRANCH   4   7
HETATM    7  C10 UNL     1     -32.111   7.414   1.732  1.00 20.00    -0.019 C 
HETATM    8  C8  UNL     1     -33.113   7.420   0.576  1.00 20.00     0.010 C 
HETATM    9  C9  UNL     1     -31.765   8.847   2.142  1.00 20.00     0.010 C 
ENDBRANCH   4   7
BRANCH   5  10
HETATM   10  C1  UNL     1     -34.094   6.174   5.713  1.00 20.00     0.240 C 
HETATM   11  O11 UNL     1     -34.326   5.353   6.594  1.00 20.00    -0.306 OA
ENDBRANCH   5  10
TORSDOF 2
