REMARK  2 active torsions:
REMARK  status: ('A' for Active; 'I' for Inactive)
REMARK    1  A    between atoms: C3_3  and  C5_5 
REMARK    2  A    between atoms: C5_5  and  N6_6 
ROOT
HETATM    1  C1  UNL     1     -34.391   6.250   5.225  1.00 20.00     0.157 C 
HETATM    2  N6  UNL     1     -34.292   6.901   4.252  1.00 20.00    -0.271 NA
HETATM    3  S7  UNL     1     -34.554   5.366   6.540  1.00 20.00    -0.055 SA
ENDROOT
BRANCH   2   4
HETATM    4  C5  UNL     1     -32.933   7.353   3.949  1.00 20.00     0.183 C 
BRANCH   4   5
HETATM    5  C3  UNL     1     -32.522   6.878   2.583  1.00 20.00    -0.073 C 
HETATM    6  C2  UNL     1     -32.200   7.739   1.606  1.00 20.00     0.015 C 
HETATM    7  C4  UNL     1     -32.519   5.393   2.354  1.00 20.00     0.044 C 
ENDBRANCH   4   5
ENDBRANCH   2   4
TORSDOF 2
