REMARK  3 active torsions:
REMARK  status: ('A' for Active; 'I' for Inactive)
REMARK    1  A    between atoms: C2_2  and  C6_6 
REMARK    2  A    between atoms: C2_2  and  C7_7 
REMARK    3  A    between atoms: C6_6  and  C8_8 
ROOT
HETATM    1  C6  UNL     1     -33.191   5.813   4.773  1.00 20.00     0.042 C 
ENDROOT
BRANCH   1   2
HETATM    2  C2  UNL     1     -33.049   6.164   3.305  1.00 20.00    -0.075 C 
HETATM    3  C1  UNL     1     -33.356   5.275   2.345  1.00 20.00     0.015 C 
BRANCH   2   4
HETATM    4  C7  UNL     1     -32.502   7.517   2.946  1.00 20.00     0.147 C 
HETATM    5 CL9  UNL     1     -32.379   7.693   1.179  1.00 20.00    -0.126 Cl
ENDBRANCH   2   4
ENDBRANCH   1   2
BRANCH   1   6
HETATM    6  C8  UNL     1     -34.533   6.178   5.475  1.00 20.00    -0.048 C 
HETATM    7  C3  UNL     1     -34.820   5.238   6.659  1.00 20.00     0.015 C 
HETATM    8  C4  UNL     1     -34.409   7.616   6.018  1.00 20.00     0.015 C 
HETATM    9  C5  UNL     1     -35.721   6.131   4.501  1.00 20.00     0.015 C 
ENDBRANCH   1   6
TORSDOF 3
