REMARK  1 active torsions:
REMARK  status: ('A' for Active; 'I' for Inactive)
REMARK    1  A    between atoms: C1_1  and  C4_4 
REMARK       I    between atoms: C1_1  and  N5_5 
ROOT
HETATM    1  C1  UNL     1     -33.280   5.917   3.815  1.00 20.00     0.326 C 
HETATM    2  C2  UNL     1     -31.689   7.860   4.179  1.00 20.00     0.152 C 
HETATM    3  C3  UNL     1     -32.338   7.160   1.908  1.00 20.00     0.152 C 
HETATM    4  N5  UNL     1     -32.463   6.944   3.344  1.00 20.00    -0.353 N 
HETATM    5  O6  UNL     1     -33.493   4.869   3.198  1.00 20.00    -0.263 OA
ENDROOT
BRANCH   1   6
HETATM    6  C4  UNL     1     -33.932   6.118   5.156  1.00 20.00     0.472 C 
HETATM    7  F7  UNL     1     -33.608   7.311   5.716  1.00 20.00    -0.162 F 
HETATM    8  F8  UNL     1     -35.285   6.052   5.090  1.00 20.00    -0.162 F 
HETATM    9  F9  UNL     1     -33.547   5.164   6.046  1.00 20.00    -0.162 F 
ENDBRANCH   1   6
TORSDOF 1
