REMARK  2 active torsions:
REMARK  status: ('A' for Active; 'I' for Inactive)
REMARK    1  A    between atoms: C3_3  and  C4_4 
REMARK    2  A    between atoms: C4_4  and  O5_5 
ROOT
HETATM    1  C1  UNL     1     -34.072   4.899   4.334  1.00 20.00     0.046 C 
HETATM    2  C2  UNL     1     -36.092   6.355   4.569  1.00 20.00     0.046 C 
HETATM    3  C4  UNL     1     -34.757   5.960   5.203  1.00 20.00     0.063 C 
ENDROOT
BRANCH   3   4
HETATM    4  C3  UNL     1     -33.810   7.155   5.395  1.00 20.00     0.151 C 
HETATM    5 CL6  UNL     1     -32.931   7.595   3.906  1.00 20.00    -0.127 Cl
ENDBRANCH   3   4
BRANCH   3   6
HETATM    6  O5  UNL     1     -35.035   5.366   6.473  1.00 20.00    -0.390 OA
HETATM    7  H15 UNL     1     -35.617   4.612   6.299  1.00 20.00     0.210 HD
ENDBRANCH   3   6
TORSDOF 2
