REMARK  1 active torsions:
REMARK  status: ('A' for Active; 'I' for Inactive)
REMARK    1  A    between atoms: C1_1  and  C3_3 
ROOT
HETATM    1  C2  UNL     1     -34.675   4.857   6.248  1.00 20.00     0.208 A 
HETATM    2  C3  UNL     1     -34.598   5.606   4.943  1.00 20.00     0.206 A 
HETATM    3  O5  UNL     1     -33.900   6.053   6.116  1.00 20.00    -0.374 OA
ENDROOT
BRANCH   2   4
HETATM    4  C1  UNL     1     -33.709   5.144   3.878  1.00 20.00     0.265 C 
HETATM    5  O4  UNL     1     -33.132   5.900   3.103  1.00 20.00    -0.304 OA
ENDBRANCH   2   4
TORSDOF 1
