REMARK  3 active torsions:
REMARK  status: ('A' for Active; 'I' for Inactive)
REMARK    1  A    between atoms: C1_1  and  S7_7 
REMARK    2  A    between atoms: C1_1  and  S8_8 
REMARK    3  A    between atoms: C5_5  and  S8_8 
ROOT
HETATM    1  S8  UNL     1     -32.802   5.074   4.710  1.00 20.00    -0.103 SA
ENDROOT
BRANCH   1   2
HETATM    2  C1  UNL     1     -32.984   5.548   3.031  1.00 20.00     0.102 C 
HETATM    3  S6  UNL     1     -32.361   6.973   2.415  1.00 20.00    -0.065 SA
BRANCH   2   4
HETATM    4  S7  UNL     1     -33.813   4.368   2.025  1.00 20.00    -0.124 SA
HETATM    5  H18 UNL     1     -33.700   5.035   0.868  1.00 20.00     0.108 HD
ENDBRANCH   2   4
ENDBRANCH   1   2
BRANCH   1   6
HETATM    6  C5  UNL     1     -34.321   5.854   5.383  1.00 20.00     0.003 C 
HETATM    7  C2  UNL     1     -35.388   5.878   4.285  1.00 20.00     0.026 C 
HETATM    8  C3  UNL     1     -34.803   5.022   6.574  1.00 20.00     0.026 C 
HETATM    9  C4  UNL     1     -33.984   7.279   5.831  1.00 20.00     0.026 C 
ENDBRANCH   1   6
TORSDOF 3
