REMARK  4 active torsions:
REMARK  status: ('A' for Active; 'I' for Inactive)
REMARK    1  A    between atoms: C1_1  and  C9_9 
REMARK    2  A    between atoms: C2_2  and  C7_7 
REMARK    3  A    between atoms: C2_2  and  C9_9 
REMARK    4  A    between atoms: C7_7  and  C8_8 
ROOT
HETATM    1  C5  UNL     1     -33.133   4.634   3.250  1.00 20.00     0.031 C 
HETATM    2  C6  UNL     1     -34.996   6.274   2.942  1.00 20.00     0.031 C 
HETATM    3  C9  UNL     1     -33.733   5.952   3.759  1.00 20.00     0.073 C 
ENDROOT
BRANCH   3   4
HETATM    4  C1  UNL     1     -34.158   5.860   5.236  1.00 20.00     0.138 C 
HETATM    5  C3  UNL     1     -34.752   7.080   5.897  1.00 20.00     0.092 C 
HETATM    6  O10 UNL     1     -33.987   4.828   5.889  1.00 20.00    -0.297 OA
ENDBRANCH   3   4
BRANCH   3   7
HETATM    7  C2  UNL     1     -32.690   7.075   3.553  1.00 20.00     0.142 C 
HETATM    8  O11 UNL     1     -32.293   7.770   4.490  1.00 20.00    -0.297 OA
BRANCH   7   9
HETATM    9  C7  UNL     1     -32.182   7.306   2.132  1.00 20.00     0.079 C 
BRANCH   9  10
HETATM   10  C8  UNL     1     -33.007   8.327   1.351  1.00 20.00     0.003 C 
HETATM   11  C4  UNL     1     -32.523   8.493  -0.083  1.00 20.00     0.005 C 
ENDBRANCH   9  10
ENDBRANCH   7   9
ENDBRANCH   3   7
TORSDOF 4
