REMARK  1 active torsions:
REMARK  status: ('A' for Active; 'I' for Inactive)
REMARK    1  A    between atoms: C7_7  and  C8_8 
ROOT
HETATM    1  C1  UNL     1     -35.505   6.673   3.723  1.00 20.00     0.015 C 
HETATM    2  C2  UNL     1     -33.043   7.008   3.644  1.00 20.00     0.015 C 
HETATM    3  C3  UNL     1     -33.980   4.710   3.789  1.00 20.00     0.015 C 
HETATM    4  C7  UNL     1     -34.161   6.161   4.298  1.00 20.00    -0.045 C 
ENDROOT
BRANCH   4   5
HETATM    5  C8  UNL     1     -34.122   6.244   5.892  1.00 20.00    -0.045 C 
HETATM    6  C4  UNL     1     -35.240   5.397   6.545  1.00 20.00     0.015 C 
HETATM    7  C5  UNL     1     -34.303   7.695   6.401  1.00 20.00     0.015 C 
HETATM    8  C6  UNL     1     -32.778   5.732   6.466  1.00 20.00     0.015 C 
ENDBRANCH   4   5
TORSDOF 1
