REMARK  4 active torsions:
REMARK  status: ('A' for Active; 'I' for Inactive)
REMARK    1  A    between atoms: C2_2  and  C5_5 
REMARK    2  A    between atoms: C4_4  and  C6_6 
REMARK    3  A    between atoms: C5_5  and  O8_8 
REMARK    4  A    between atoms: C6_6  and  O8_8 
ROOT
HETATM    1  O8  UNL     1     -32.633   7.571   4.482  1.00 20.00    -0.383 OA
ENDROOT
BRANCH   1   2
HETATM    2  C5  UNL     1     -33.960   7.329   4.929  1.00 20.00     0.218 C 
BRANCH   2   3
HETATM    3  C2  UNL     1     -34.065   5.934   5.455  1.00 20.00     0.026 C 
HETATM    4  C1  UNL     1     -33.849   5.594   6.732  1.00 20.00     0.034 C 
HETATM    5 CL9  UNL     1     -34.450   4.713   4.289  1.00 20.00    -0.088 Cl
ENDBRANCH   2   3
ENDBRANCH   1   2
BRANCH   1   6
HETATM    6  C6  UNL     1     -32.410   7.022   3.190  1.00 20.00     0.202 C 
BRANCH   6   7
HETATM    7  C4  UNL     1     -32.984   7.960   2.150  1.00 20.00     0.169 A 
HETATM    8  C3  UNL     1     -32.242   9.194   1.719  1.00 20.00     0.202 A 
HETATM    9  O7  UNL     1     -32.256   8.001   0.919  1.00 20.00    -0.379 OA
ENDBRANCH   6   7
ENDBRANCH   1   6
TORSDOF 4
