REMARK  1 active torsions:
REMARK  status: ('A' for Active; 'I' for Inactive)
REMARK    1  A    between atoms: C2_2  and  C3_3 
ROOT
HETATM    1  C3  UNL     1     -34.283   5.649   4.479  1.00 20.00     0.423 C 
HETATM    2  F4  UNL     1     -33.800   5.393   3.235  1.00 20.00    -0.166 F 
HETATM    3  F5  UNL     1     -35.638   5.667   4.366  1.00 20.00    -0.166 F 
HETATM    4  F6  UNL     1     -33.977   4.573   5.249  1.00 20.00    -0.166 F 
ENDROOT
BRANCH   1   5
HETATM    5  C2  UNL     1     -33.730   6.915   5.043  1.00 20.00     0.085 C 
HETATM    6  C1  UNL     1     -34.047   7.392   6.254  1.00 20.00     0.036 C 
HETATM    7 BR7  UNL     1     -32.532   7.818   3.924  1.00 20.00    -0.047 Br
ENDBRANCH   1   5
TORSDOF 1
