REMARK  0 active torsions:
REMARK  status: ('A' for Active; 'I' for Inactive)
ROOT
HETATM    1  C1  UNL     1     -32.330   6.587   2.279  1.00 20.00     0.000 C 
HETATM    2  C2  UNL     1     -33.018   5.314   2.760  1.00 20.00     0.003 C 
HETATM    3  C3  UNL     1     -31.942   7.488   3.445  1.00 20.00     0.003 C 
HETATM    4  C4  UNL     1     -35.136   5.751   6.670  1.00 20.00     0.029 C 
HETATM    5  C5  UNL     1     -34.225   5.626   3.647  1.00 20.00     0.038 C 
HETATM    6  C6  UNL     1     -33.143   7.807   4.336  1.00 20.00     0.038 C 
HETATM    7  C7  UNL     1     -35.087   6.887   5.678  1.00 20.00     0.040 C 
HETATM    8  C8  UNL     1     -33.667   5.496   6.921  1.00 20.00     0.168 C 
HETATM    9  C9  UNL     1     -33.860   6.543   4.830  1.00 20.00     0.061 C 
HETATM   10  O10 UNL     1     -32.974   5.812   5.706  1.00 20.00    -0.380 OA
ENDROOT
TORSDOF 0
