REMARK  0 active torsions:
REMARK  status: ('A' for Active; 'I' for Inactive)
ROOT
HETATM    1  C1  UNL     1     -33.995   6.875   5.600  1.00 20.00    -0.089 C 
HETATM    2  C2  UNL     1     -34.304   7.169   6.874  1.00 20.00     0.014 C 
HETATM    3  C3  UNL     1     -34.917   6.006   4.781  1.00 20.00     0.033 C 
HETATM    4  C4  UNL     1     -32.744   7.454   4.978  1.00 20.00     0.033 C 
HETATM    5  C5  UNL     1     -34.352   4.643   4.381  1.00 20.00     0.004 C 
HETATM    6  C6  UNL     1     -32.860   7.896   3.514  1.00 20.00     0.004 C 
HETATM    7  C7  UNL     1     -33.101   4.638   3.501  1.00 20.00     0.000 C 
HETATM    8  C8  UNL     1     -32.334   6.880   2.495  1.00 20.00     0.000 C 
HETATM    9  C9  UNL     1     -33.147   5.597   2.310  1.00 20.00     0.000 C 
ENDROOT
TORSDOF 0
