REMARK  2 active torsions:
REMARK  status: ('A' for Active; 'I' for Inactive)
REMARK    1  A    between atoms: C1_1  and  C3_3 
REMARK    2  A    between atoms: C2_2  and  C5_5 
ROOT
HETATM    1  C1  UNL     1     -33.048   6.394   3.249  1.00 20.00     0.003 C 
HETATM    2  C2  UNL     1     -33.341   7.238   4.246  1.00 20.00     0.041 C 
ENDROOT
BRANCH   1   3
HETATM    3  C3  UNL     1     -32.424   6.826   2.018  1.00 20.00    -0.004 C 
HETATM    4  C4  UNL     1     -32.744   7.970   1.396  1.00 20.00    -0.031 C 
HETATM    5  C6  UNL     1     -32.108   8.428   0.124  1.00 20.00     0.036 C 
ENDBRANCH   1   3
BRANCH   2   6
HETATM    6  C5  UNL     1     -33.978   6.708   5.468  1.00 20.00     0.258 C 
HETATM    7  O7  UNL     1     -34.269   7.432   6.412  1.00 20.00    -0.302 OA
ENDBRANCH   2   6
TORSDOF 2
