REMARK  1 active torsions:
REMARK  status: ('A' for Active; 'I' for Inactive)
REMARK    1  A    between atoms: C5_5  and  C6_6 
ROOT
HETATM    1  C1  UNL     1     -31.322   8.627   1.634  1.00 20.00     0.086 C 
HETATM    2  C2  UNL     1     -32.738   8.865   1.153  1.00 20.00     0.086 C 
HETATM    3  C5  UNL     1     -32.912   6.970   3.109  1.00 20.00     0.078 C 
HETATM    4  C7  UNL     1     -32.502   5.498   3.118  1.00 20.00     0.041 C 
HETATM    5  S9  UNL     1     -31.420   8.012   3.333  1.00 20.00    -0.145 SA
HETATM    6  S10 UNL     1     -33.688   7.363   1.495  1.00 20.00    -0.145 SA
ENDROOT
BRANCH   3   7
HETATM    7  C6  UNL     1     -33.904   7.275   4.231  1.00 20.00     0.078 C 
HETATM    8  C8  UNL     1     -34.314   8.748   4.223  1.00 20.00     0.041 C 
HETATM    9  S11 UNL     1     -33.122   6.876   5.841  1.00 20.00    -0.145 SA
HETATM   10  C3  UNL     1     -34.491   5.902   6.516  1.00 20.00     0.086 C 
HETATM   11  C4  UNL     1     -35.081   5.097   5.378  1.00 20.00     0.086 C 
HETATM   12  S12 UNL     1     -35.401   6.239   4.012  1.00 20.00    -0.145 SA
ENDBRANCH   3   7
TORSDOF 1
