REMARK  3 active torsions:
REMARK  status: ('A' for Active; 'I' for Inactive)
REMARK    1  A    between atoms: C4_4  and  C10_10 
REMARK    2  A    between atoms: C5_5  and  C11_11 
REMARK    3  A    between atoms: C6_6  and  C12_12 
ROOT
HETATM    1  C7  UNL     1     -32.473   6.541   1.831  1.00 20.00     0.009 C 
HETATM    2  C8  UNL     1     -32.645   5.255   2.637  1.00 20.00     0.010 C 
HETATM    3  C9  UNL     1     -33.338   7.887   3.781  1.00 20.00     0.017 C 
HETATM    4  C10 UNL     1     -32.217   7.743   2.744  1.00 20.00     0.008 C 
HETATM    5  C11 UNL     1     -33.757   5.379   3.689  1.00 20.00     0.015 C 
HETATM    6  C12 UNL     1     -33.522   6.601   4.607  1.00 20.00     0.015 C 
ENDROOT
BRANCH   4   7
HETATM    7  C4  UNL     1     -32.071   8.994   1.934  1.00 20.00    -0.032 C 
HETATM    8  C1  UNL     1     -33.035   9.498   1.156  1.00 20.00     0.007 C 
ENDBRANCH   4   7
BRANCH   6   9
HETATM    9  C6  UNL     1     -34.646   6.791   5.585  1.00 20.00    -0.031 C 
HETATM   10  C3  UNL     1     -34.498   6.751   6.913  1.00 20.00     0.007 C 
ENDBRANCH   6   9
BRANCH   5  11
HETATM   11  C5  UNL     1     -33.846   4.094   4.462  1.00 20.00    -0.031 C 
HETATM   12  C2  UNL     1     -32.861   3.610   5.225  1.00 20.00     0.007 C 
ENDBRANCH   5  11
TORSDOF 3
