REMARK  1 active torsions:
REMARK  status: ('A' for Active; 'I' for Inactive)
REMARK    1  A    between atoms: C1_1  and  C3_3 
ROOT
HETATM    1  C2  UNL     1     -34.637   5.026   5.558  1.00 20.00     0.018 A 
HETATM    2  C3  UNL     1     -34.501   6.147   4.559  1.00 20.00     0.076 A 
HETATM    3  C4  UNL     1     -34.479   6.440   6.040  1.00 20.00    -0.005 A 
HETATM    4  C5  UNL     1     -33.234   6.852   6.748  1.00 20.00     0.011 C 
ENDROOT
BRANCH   2   5
HETATM    5  C1  UNL     1     -33.280   6.248   3.751  1.00 20.00     0.223 C 
HETATM    6  O6  UNL     1     -32.618   7.281   3.709  1.00 20.00    -0.279 OA
HETATM    7 CL7  UNL     1     -32.929   4.769   2.909  1.00 20.00    -0.043 Cl
ENDBRANCH   2   5
TORSDOF 1
