REMARK  0 active torsions:
REMARK  status: ('A' for Active; 'I' for Inactive)
ROOT
HETATM    1  C1  UNL     1     -33.451   5.718   3.168  1.00 20.00     0.053 A 
HETATM    2  C2  UNL     1     -34.165   6.003   4.259  1.00 20.00    -0.072 A 
HETATM    3  C3  UNL     1     -32.633   6.911   2.913  1.00 20.00     0.150 A 
HETATM    4  C4  UNL     1     -35.103   5.095   4.983  1.00 20.00     0.034 C 
HETATM    5  C5  UNL     1     -32.853   7.981   3.947  1.00 20.00     0.092 A 
HETATM    6  C6  UNL     1     -34.722   5.019   6.464  1.00 20.00     0.004 C 
HETATM    7  C7  UNL     1     -34.541   6.407   7.091  1.00 20.00     0.001 C 
HETATM    8  C8  UNL     1     -33.533   7.257   6.309  1.00 20.00     0.009 C 
HETATM    9  C9  UNL     1     -33.936   7.371   4.837  1.00 20.00     0.022 A 
HETATM   10  O10 UNL     1     -31.861   7.001   1.970  1.00 20.00    -0.293 OA
ENDROOT
TORSDOF 0
