REMARK  2 active torsions:
REMARK  status: ('A' for Active; 'I' for Inactive)
REMARK    1  A    between atoms: C1_1  and  C2_2 
REMARK    2  A    between atoms: C3_3  and  C4_4 
ROOT
HETATM    1  C1  UNL     1     -34.207   5.351   4.550  1.00 20.00     0.051 C 
HETATM    2  C3  UNL     1     -33.306   5.594   3.584  1.00 20.00    -0.014 C 
HETATM    3  C5  UNL     1     -32.827   4.625   2.538  1.00 20.00     0.052 C 
ENDROOT
BRANCH   2   4
HETATM    4  C4  UNL     1     -32.675   6.964   3.489  1.00 20.00     0.151 C 
HETATM    5  C6  UNL     1     -32.234   7.505   2.151  1.00 20.00     0.096 C 
HETATM    6  O8  UNL     1     -32.522   7.643   4.507  1.00 20.00    -0.293 OA
ENDBRANCH   2   4
BRANCH   1   7
HETATM    7  C2  UNL     1     -34.648   6.341   5.560  1.00 20.00     0.259 C 
HETATM    8  O7  UNL     1     -34.072   6.461   6.636  1.00 20.00    -0.302 OA
ENDBRANCH   1   7
TORSDOF 2
