REMARK  1 active torsions:
REMARK  status: ('A' for Active; 'I' for Inactive)
REMARK    1  A    between atoms: C1_1  and  O7_7 
ROOT
HETATM    1  C1  UNL     1     -33.941   6.034   4.521  1.00 20.00     0.294 A 
HETATM    2  C2  UNL     1     -34.376   6.085   5.970  1.00 20.00     0.106 A 
HETATM    3  C3  UNL     1     -34.315   4.834   6.789  1.00 20.00     0.051 C 
HETATM    4  C4  UNL     1     -34.396   7.379   6.720  1.00 20.00     0.051 C 
HETATM    5  O6  UNL     1     -35.327   6.027   4.898  1.00 20.00    -0.343 OA
ENDROOT
BRANCH   1   6
HETATM    6  O7  UNL     1     -33.457   7.250   3.933  1.00 20.00    -0.363 OA
HETATM    7  C5  UNL     1     -32.110   7.489   4.298  1.00 20.00     0.204 C 
ENDBRANCH   1   6
TORSDOF 1
