REMARK  0 active torsions:
REMARK  status: ('A' for Active; 'I' for Inactive)
ROOT
HETATM    1  C1  UNL     1     -34.671   7.159   6.837  1.00 20.00     0.005 C 
HETATM    2  C2  UNL     1     -33.162   6.879   6.804  1.00 20.00     0.008 C 
HETATM    3  C3  UNL     1     -34.290   4.932   6.090  1.00 20.00     0.012 C 
HETATM    4  C4  UNL     1     -34.893   6.541   4.418  1.00 20.00     0.047 C 
HETATM    5  C5  UNL     1     -35.235   6.112   5.862  1.00 20.00    -0.011 C 
HETATM    6  C6  UNL     1     -33.038   5.756   5.753  1.00 20.00     0.025 C 
HETATM    7  C7  UNL     1     -33.375   6.264   4.326  1.00 20.00     0.117 C 
HETATM    8 CL8  UNL     1     -32.454   7.710   3.843  1.00 20.00    -0.101 Cl
HETATM    9 CL9  UNL     1     -33.044   4.980   3.113  1.00 20.00    -0.101 Cl
ENDROOT
TORSDOF 0
