REMARK  0 active torsions:
REMARK  status: ('A' for Active; 'I' for Inactive)
ROOT
HETATM    1  C1  UNL     1     -33.585   6.458   6.869  1.00 20.00     0.005 C 
HETATM    2  C2  UNL     1     -33.864   7.710   6.025  1.00 20.00     0.008 C 
HETATM    3  C3  UNL     1     -35.258   5.971   5.248  1.00 20.00     0.012 C 
HETATM    4  C4  UNL     1     -33.059   5.125   4.812  1.00 20.00     0.047 C 
HETATM    5  C5  UNL     1     -34.074   5.317   5.960  1.00 20.00    -0.011 C 
HETATM    6  C6  UNL     1     -34.406   7.127   4.703  1.00 20.00     0.025 C 
HETATM    7  C7  UNL     1     -33.308   6.361   3.919  1.00 20.00     0.117 C 
HETATM    8 CL8  UNL     1     -33.928   5.857   2.309  1.00 20.00    -0.101 Cl
HETATM    9 CL9  UNL     1     -31.824   7.309   3.650  1.00 20.00    -0.101 Cl
ENDROOT
TORSDOF 0
