REMARK  1 active torsions:
REMARK  status: ('A' for Active; 'I' for Inactive)
REMARK    1  A    between atoms: C1_1  and  C8_8 
ROOT
HETATM    1  C1  UNL     1     -33.041   6.585   3.607  1.00 20.00     0.139 C 
HETATM    2  C2  UNL     1     -34.280   4.846   4.092  1.00 20.00     0.209 C 
HETATM    3  C3  UNL     1     -34.586   6.010   5.028  1.00 20.00     0.070 C 
HETATM    4  C4  UNL     1     -35.948   6.643   4.726  1.00 20.00     0.042 C 
HETATM    5  C5  UNL     1     -34.497   5.606   6.496  1.00 20.00     0.042 C 
HETATM    6  N9  UNL     1     -33.537   7.005   4.727  1.00 20.00    -0.258 NA
HETATM    7  O10 UNL     1     -33.478   5.425   3.070  1.00 20.00    -0.335 OA
ENDROOT
BRANCH   1   8
HETATM    8  C8  UNL     1     -31.987   7.279   2.825  1.00 20.00     0.054 C 
HETATM    9  C6  UNL     1     -32.484   7.605   1.414  1.00 20.00     0.018 C 
HETATM   10  C7  UNL     1     -31.518   8.554   3.531  1.00 20.00     0.018 C 
ENDBRANCH   1   8
TORSDOF 1
