REMARK  2 active torsions:
REMARK  status: ('A' for Active; 'I' for Inactive)
REMARK    1  A    between atoms: C5_5  and  C9_9 
REMARK    2  A    between atoms: C9_9  and  O10_10 
ROOT
HETATM    1  C1  UNL     1     -32.500   7.521   3.127  1.00 20.00    -0.024 C 
HETATM    2  C2  UNL     1     -32.695   6.505   2.276  1.00 20.00    -0.087 C 
HETATM    3  C3  UNL     1     -33.170   7.281   4.439  1.00 20.00     0.035 C 
HETATM    4  C4  UNL     1     -33.527   5.423   2.891  1.00 20.00     0.041 C 
HETATM    5  C5  UNL     1     -33.479   5.779   4.384  1.00 20.00     0.026 C 
HETATM    6  C6  UNL     1     -32.216   6.409   0.874  1.00 20.00     0.043 C 
ENDROOT
BRANCH   5   7
HETATM    7  C9  UNL     1     -34.750   5.403   5.129  1.00 20.00     0.055 C 
HETATM    8  C7  UNL     1     -35.962   6.126   4.539  1.00 20.00     0.045 C 
HETATM    9  C8  UNL     1     -34.625   5.707   6.624  1.00 20.00     0.045 C 
BRANCH   7  10
HETATM   10  O10 UNL     1     -34.977   3.999   4.974  1.00 20.00    -0.390 OA
HETATM   11  H26 UNL     1     -35.791   3.801   5.460  1.00 20.00     0.210 HD
ENDBRANCH   7  10
ENDBRANCH   5   7
TORSDOF 2
