REMARK  2 active torsions:
REMARK  status: ('A' for Active; 'I' for Inactive)
REMARK    1  A    between atoms: C2_2  and  C3_3 
REMARK    2  A    between atoms: C2_2  and  S5_5 
ROOT
HETATM    1  C1  UNL     1     -32.657   6.830   3.478  1.00 20.00     0.133 C 
HETATM    2  N4  UNL     1     -32.204   7.891   3.596  1.00 20.00    -0.184 NA
HETATM    3  S5  UNL     1     -33.306   5.280   3.299  1.00 20.00    -0.050 SA
ENDROOT
BRANCH   3   4
HETATM    4  C2  UNL     1     -34.877   5.550   4.175  1.00 20.00     0.105 C 
BRANCH   4   5
HETATM    5  C3  UNL     1     -34.703   5.566   5.687  1.00 20.00     0.126 C 
HETATM    6 CL6  UNL     1     -33.554   6.818   6.219  1.00 20.00    -0.130 Cl
ENDBRANCH   4   5
ENDBRANCH   3   4
TORSDOF 2
