REMARK  2 active torsions:
REMARK  status: ('A' for Active; 'I' for Inactive)
REMARK    1  A    between atoms: C1_1  and  C7_7 
REMARK       I    between atoms: C1_1  and  N9_9 
REMARK    2  A    between atoms: C7_7  and  C8_8 
ROOT
HETATM    1  C1  UNL     1     -32.973   5.851   2.848  1.00 20.00     0.219 C 
HETATM    2  C2  UNL     1     -34.265   5.580   6.280  1.00 20.00     0.021 C 
HETATM    3  C3  UNL     1     -34.434   7.073   6.024  1.00 20.00     0.021 C 
HETATM    4  C4  UNL     1     -34.139   5.009   4.876  1.00 20.00     0.126 C 
HETATM    5  C5  UNL     1     -33.500   7.326   4.849  1.00 20.00     0.126 C 
HETATM    6  N9  UNL     1     -33.499   6.068   4.108  1.00 20.00    -0.352 N 
HETATM    7  O10 UNL     1     -32.997   4.764   2.268  1.00 20.00    -0.273 OA
ENDROOT
BRANCH   1   8
HETATM    8  C7  UNL     1     -32.352   7.056   2.187  1.00 20.00     0.103 C 
BRANCH   8   9
HETATM    9  C8  UNL     1     -33.390   7.809   1.373  1.00 20.00     0.005 C 
HETATM   10  C6  UNL     1     -32.806   9.003   0.630  1.00 20.00     0.005 C 
ENDBRANCH   8   9
ENDBRANCH   1   8
TORSDOF 2
