REMARK  0 active torsions:
REMARK  status: ('A' for Active; 'I' for Inactive)
ROOT
HETATM    1  C1  UNL     1     -32.755   7.381   5.068  1.00 20.00     0.223 A 
HETATM    2  C2  UNL     1     -33.549   7.195   2.634  1.00 20.00     0.027 A 
HETATM    3  C3  UNL     1     -32.505   6.937   3.678  1.00 20.00     0.089 A 
HETATM    4  C4  UNL     1     -33.515   5.856   3.354  1.00 20.00    -0.006 A 
HETATM    5  C5  UNL     1     -34.342   5.633   4.633  1.00 20.00     0.034 A 
HETATM    6  C6  UNL     1     -33.111   4.665   2.534  1.00 20.00     0.018 C 
HETATM    7  C7  UNL     1     -34.104   4.257   5.268  1.00 20.00     0.039 C 
HETATM    8  C8  UNL     1     -35.836   5.839   4.380  1.00 20.00     0.039 C 
HETATM    9  N9  UNL     1     -33.826   6.653   5.552  1.00 20.00    -0.351 N 
HETATM   10  O10 UNL     1     -32.106   8.250   5.625  1.00 20.00    -0.273 OA
HETATM   11  H23 UNL     1     -34.195   6.782   6.489  1.00 20.00     0.163 HD
ENDROOT
TORSDOF 0
