REMARK  2 active torsions:
REMARK  status: ('A' for Active; 'I' for Inactive)
REMARK    1  A    between atoms: C9_9  and  C11_11 
REMARK    2  A    between atoms: C10_10  and  C11_11 
ROOT
HETATM    1  C6  UNL     1     -32.495   6.907   2.539  1.00 20.00     0.207 A 
HETATM    2  C11 UNL     1     -32.936   6.565   3.941  1.00 20.00     0.089 A 
HETATM    3  O12 UNL     1     -31.817   7.425   3.695  1.00 20.00    -0.374 OA
ENDROOT
BRANCH   2   4
HETATM    4  C9  UNL     1     -32.595   5.230   4.559  1.00 20.00     0.023 C 
HETATM    5  C2  UNL     1     -32.339   5.436   6.064  1.00 20.00     0.012 C 
HETATM    6  C7  UNL     1     -33.579   6.066   6.730  1.00 20.00    -0.013 C 
HETATM    7  C1  UNL     1     -34.789   5.137   6.531  1.00 20.00     0.009 C 
HETATM    8  C3  UNL     1     -33.870   7.429   6.068  1.00 20.00     0.012 C 
HETATM    9  C8  UNL     1     -35.059   4.933   5.030  1.00 20.00    -0.013 C 
HETATM   10  C4  UNL     1     -33.813   4.303   4.372  1.00 20.00     0.012 C 
HETATM   11  C5  UNL     1     -35.347   6.301   4.376  1.00 20.00     0.012 C 
HETATM   12  C10 UNL     1     -34.137   7.238   4.563  1.00 20.00     0.023 C 
ENDBRANCH   2   4
TORSDOF 2
