REMARK  0 active torsions:
REMARK  status: ('A' for Active; 'I' for Inactive)
ROOT
HETATM    1  C1  UNL     1     -33.065   7.227   3.574  1.00 20.00     0.131 C 
HETATM    2  C2  UNL     1     -32.736   5.810   3.145  1.00 20.00     0.079 C 
HETATM    3  C3  UNL     1     -33.889   4.826   3.321  1.00 20.00     0.012 C 
HETATM    4  C4  UNL     1     -33.013   5.671   6.323  1.00 20.00     0.001 C 
HETATM    5  C5  UNL     1     -33.339   7.146   6.081  1.00 20.00     0.012 C 
HETATM    6  C6  UNL     1     -34.125   4.718   5.887  1.00 20.00     0.005 C 
HETATM    7  C7  UNL     1     -35.238   6.527   4.549  1.00 20.00     0.016 C 
HETATM    8  C8  UNL     1     -34.023   7.423   4.740  1.00 20.00     0.056 C 
HETATM    9  C9  UNL     1     -34.787   5.068   4.545  1.00 20.00    -0.013 C 
HETATM   10  O10 UNL     1     -32.494   8.189   3.057  1.00 20.00    -0.298 OA
ENDROOT
TORSDOF 0
