REMARK  0 active torsions:
REMARK  status: ('A' for Active; 'I' for Inactive)
ROOT
HETATM    1  C1  UNL     1     -34.730   5.534   6.629  1.00 20.00     0.000 C 
HETATM    2  C2  UNL     1     -34.674   4.536   5.476  1.00 20.00     0.000 C 
HETATM    3  C3  UNL     1     -33.515   6.450   6.750  1.00 20.00     0.000 C 
HETATM    4  C4  UNL     1     -34.570   5.163   4.088  1.00 20.00     0.001 C 
HETATM    5  C5  UNL     1     -33.566   7.673   5.826  1.00 20.00     0.001 C 
HETATM    6  C6  UNL     1     -33.129   5.457   3.646  1.00 20.00     0.012 C 
HETATM    7  C7  UNL     1     -32.473   7.692   4.754  1.00 20.00     0.012 C 
HETATM    8  C8  UNL     1     -31.525   7.054   2.524  1.00 20.00     0.038 C 
HETATM    9  C9  UNL     1     -31.660   8.427   1.897  1.00 20.00     0.168 C 
HETATM   10  C10 UNL     1     -33.773   7.695   2.551  1.00 20.00     0.177 C 
HETATM   11  C11 UNL     1     -32.765   6.940   3.425  1.00 20.00    -0.017 C 
HETATM   12  O12 UNL     1     -33.057   8.744   1.882  1.00 20.00    -0.390 OA
ENDROOT
TORSDOF 0
