REMARK  2 active torsions:
REMARK  status: ('A' for Active; 'I' for Inactive)
REMARK    1  A    between atoms: C1_1  and  C2_2 
REMARK    2  A    between atoms: C2_2  and  C3_3 
ROOT
HETATM    1  C2  UNL     1     -34.320   6.232   4.814  1.00 20.00     0.391 C 
HETATM    2  F5  UNL     1     -35.649   6.385   4.575  1.00 20.00    -0.188 F 
HETATM    3  F6  UNL     1     -33.969   5.030   4.288  1.00 20.00    -0.188 F 
ENDROOT
BRANCH   1   4
HETATM    4  C1  UNL     1     -33.523   7.336   4.178  1.00 20.00     0.319 C 
HETATM    5  O4  UNL     1     -32.381   7.188   3.757  1.00 20.00    -0.300 OA
ENDBRANCH   1   4
BRANCH   1   6
HETATM    6  C3  UNL     1     -34.094   6.194   6.304  1.00 20.00     0.461 C 
HETATM    7  F7  UNL     1     -34.463   7.355   6.886  1.00 20.00    -0.165 F 
HETATM    8  F8  UNL     1     -34.819   5.204   6.870  1.00 20.00    -0.165 F 
HETATM    9  F9  UNL     1     -32.796   5.973   6.601  1.00 20.00    -0.165 F 
ENDBRANCH   1   6
TORSDOF 2
