REMARK  2 active torsions:
REMARK  status: ('A' for Active; 'I' for Inactive)
REMARK    1  A    between atoms: C1_1  and  C2_2 
REMARK    2  A    between atoms: C1_1  and  C3_3 
ROOT
HETATM    1  C3  UNL     1     -34.373   5.819   4.828  1.00 20.00     0.321 C 
HETATM    2  F4  UNL     1     -33.591   6.928   4.909  1.00 20.00    -0.188 F 
HETATM    3  F5  UNL     1     -35.532   6.210   4.238  1.00 20.00    -0.188 F 
HETATM    4 CL7  UNL     1     -34.706   5.226   6.463  1.00 20.00    -0.048 Cl
ENDROOT
BRANCH   1   5
HETATM    5  C1  UNL     1     -33.673   4.789   3.950  1.00 20.00     0.112 C 
BRANCH   5   6
HETATM    6  C2  UNL     1     -33.410   5.279   2.531  1.00 20.00     0.122 C 
HETATM    7 CL6  UNL     1     -32.352   6.712   2.559  1.00 20.00    -0.130 Cl
ENDBRANCH   5   6
ENDBRANCH   1   5
TORSDOF 2
