REMARK  1 active torsions:
REMARK  status: ('A' for Active; 'I' for Inactive)
REMARK    1  A    between atoms: C3_3  and  C7_7 
ROOT
HETATM    1  C1  UNL     1     -34.064   4.962   5.365  1.00 20.00     0.001 C 
HETATM    2  C2  UNL     1     -34.015   6.231   5.804  1.00 20.00    -0.083 C 
HETATM    3  C5  UNL     1     -33.613   4.575   3.989  1.00 20.00     0.196 C 
HETATM    4  C6  UNL     1     -33.458   7.319   4.922  1.00 20.00     0.069 C 
HETATM    5  C7  UNL     1     -32.667   6.736   3.743  1.00 20.00     0.148 C 
HETATM    6  C8  UNL     1     -34.499   6.637   7.162  1.00 20.00     0.043 C 
HETATM    7  O11 UNL     1     -33.444   5.705   3.127  1.00 20.00    -0.378 OA
ENDROOT
BRANCH   5   8
HETATM    8  C3  UNL     1     -32.369   7.778   2.715  1.00 20.00     0.007 C 
HETATM    9  C4  UNL     1     -32.261   7.613   1.383  1.00 20.00    -0.089 C 
HETATM   10  C9  UNL     1     -31.954   8.773   0.477  1.00 20.00     0.042 C 
HETATM   11  C10 UNL     1     -32.431   6.292   0.688  1.00 20.00     0.042 C 
ENDBRANCH   5   8
TORSDOF 1
