REMARK  1 active torsions:
REMARK  status: ('A' for Active; 'I' for Inactive)
REMARK    1  A    between atoms: C4_4  and  O5_5 
ROOT
HETATM    1  C1  UNL     1     -33.119   4.942   2.991  1.00 20.00     0.014 C 
HETATM    2  C2  UNL     1     -33.972   5.144   3.812  1.00 20.00    -0.091 C 
HETATM    3  C4  UNL     1     -35.012   5.388   4.811  1.00 20.00     0.259 C 
ENDROOT
BRANCH   3   4
HETATM    4  O5  UNL     1     -34.588   6.378   5.739  1.00 20.00    -0.384 OA
HETATM    5  C3  UNL     1     -33.723   5.832   6.726  1.00 20.00     0.202 C 
ENDBRANCH   3   4
TORSDOF 1
