REMARK  2 active torsions:
REMARK  status: ('A' for Active; 'I' for Inactive)
REMARK    1  A    between atoms: C1_1  and  C2_2 
REMARK    2  A    between atoms: C1_1  and  C3_3 
ROOT
HETATM    1  C1  UNL     1     -33.333   6.384   4.510  1.00 20.00     0.188 C 
ENDROOT
BRANCH   1   2
HETATM    2  C2  UNL     1     -33.348   5.928   3.065  1.00 20.00     0.361 C 
HETATM    3  F4  UNL     1     -33.183   4.582   3.020  1.00 20.00    -0.214 F 
HETATM    4  F5  UNL     1     -32.300   6.469   2.398  1.00 20.00    -0.214 F 
ENDBRANCH   1   2
BRANCH   1   5
HETATM    5  C3  UNL     1     -34.453   5.769   5.317  1.00 20.00     0.392 C 
HETATM    6  F6  UNL     1     -34.452   6.221   6.589  1.00 20.00    -0.171 F 
HETATM    7  F7  UNL     1     -35.659   6.047   4.777  1.00 20.00    -0.171 F 
HETATM    8  F8  UNL     1     -34.324   4.425   5.360  1.00 20.00    -0.171 F 
ENDBRANCH   1   5
TORSDOF 2
