REMARK  0 active torsions:
REMARK  status: ('A' for Active; 'I' for Inactive)
ROOT
HETATM    1  C1  UNL     1     -35.282   5.662   5.679  1.00 20.00    -0.030 C 
HETATM    2  C2  UNL     1     -34.575   6.569   6.379  1.00 20.00    -0.030 C 
HETATM    3  C3  UNL     1     -32.326   6.857   2.263  1.00 20.00    -0.030 C 
HETATM    4  C4  UNL     1     -33.119   5.793   2.462  1.00 20.00    -0.025 C 
HETATM    5  C5  UNL     1     -34.955   5.265   4.256  1.00 20.00     0.035 C 
HETATM    6  C6  UNL     1     -33.409   7.343   5.806  1.00 20.00     0.032 C 
HETATM    7  C7  UNL     1     -32.179   7.686   3.511  1.00 20.00     0.032 C 
HETATM    8  C8  UNL     1     -33.548   5.733   3.892  1.00 20.00     0.016 C 
HETATM    9  C9  UNL     1     -33.401   7.209   4.288  1.00 20.00     0.000 C 
ENDROOT
TORSDOF 0
