REMARK  0 active torsions:
REMARK  status: ('A' for Active; 'I' for Inactive)
ROOT
HETATM    1  C1  UNL     1     -34.103   4.724   6.225  1.00 20.00     0.044 C 
HETATM    2  C2  UNL     1     -35.580   5.867   4.528  1.00 20.00     0.044 C 
HETATM    3  C3  UNL     1     -34.152   5.528   4.933  1.00 20.00     0.087 C 
HETATM    4 CL4  UNL     1     -33.349   4.620   3.623  1.00 20.00    -0.107 Cl
HETATM    5 BR5  UNL     1     -33.167   7.202   5.203  1.00 20.00    -0.069 Br
ENDROOT
TORSDOF 0
