REMARK  2 active torsions:
REMARK  status: ('A' for Active; 'I' for Inactive)
REMARK    1  A    between atoms: C3_3  and  C8_8 
REMARK    2  A    between atoms: C4_4  and  C7_7 
ROOT
HETATM    1  C5  UNL     1     -33.754   5.924   2.573  1.00 20.00     0.040 C 
HETATM    2  C6  UNL     1     -32.503   6.605   2.068  1.00 20.00     0.045 C 
HETATM    3  C7  UNL     1     -33.590   6.056   4.079  1.00 20.00     0.151 C 
HETATM    4  C8  UNL     1     -32.335   7.759   3.056  1.00 20.00     0.075 C 
HETATM    5  C10 UNL     1     -30.870   8.125   3.271  1.00 20.00     0.050 C 
HETATM    6  O11 UNL     1     -32.881   7.288   4.306  1.00 20.00    -0.367 OA
ENDROOT
BRANCH   3   7
HETATM    7  C4  UNL     1     -34.883   6.076   4.816  1.00 20.00    -0.065 C 
HETATM    8  C2  UNL     1     -36.059   5.909   4.192  1.00 20.00     0.016 C 
HETATM    9  C9  UNL     1     -34.796   6.293   6.298  1.00 20.00     0.045 C 
ENDBRANCH   3   7
BRANCH   4  10
HETATM   10  C3  UNL     1     -33.109   8.978   2.645  1.00 20.00     0.000 C 
HETATM   11  C1  UNL     1     -32.918   9.633   1.494  1.00 20.00     0.010 C 
ENDBRANCH   4  10
TORSDOF 2
