REMARK  3 active torsions:
REMARK  status: ('A' for Active; 'I' for Inactive)
REMARK    1  A    between atoms: C1_1  and  C10_10 
REMARK    2  A    between atoms: C2_2  and  C8_8 
REMARK    3  A    between atoms: C9_9  and  C10_10 
ROOT
HETATM    1  C1  UNL     1     -33.007   7.404   3.941  1.00 20.00    -0.016 C 
HETATM    2  C2  UNL     1     -32.602   6.969   2.728  1.00 20.00    -0.087 C 
HETATM    3  C3  UNL     1     -32.987   5.578   2.278  1.00 20.00     0.043 C 
ENDROOT
BRANCH   1   4
HETATM    4  C10 UNL     1     -33.836   6.731   5.033  1.00 20.00    -0.030 C 
HETATM    5  C6  UNL     1     -34.007   7.688   6.231  1.00 20.00     0.019 C 
HETATM    6  C7  UNL     1     -35.257   6.479   4.466  1.00 20.00     0.019 C 
BRANCH   4   7
HETATM    7  C9  UNL     1     -33.254   5.378   5.530  1.00 20.00     0.008 C 
HETATM    8  C5  UNL     1     -34.060   4.680   6.621  1.00 20.00     0.006 C 
ENDBRANCH   4   7
ENDBRANCH   1   4
BRANCH   2   9
HETATM    9  C8  UNL     1     -31.816   7.757   1.707  1.00 20.00     0.029 C 
HETATM   10  C4  UNL     1     -32.701   8.530   0.738  1.00 20.00     0.010 C 
ENDBRANCH   2   9
TORSDOF 3
