REMARK  3 active torsions:
REMARK  status: ('A' for Active; 'I' for Inactive)
REMARK    1  A    between atoms: C5_5  and  C7_7 
REMARK    2  A    between atoms: C5_5  and  C8_8 
REMARK    3  A    between atoms: C6_6  and  C8_8 
ROOT
HETATM    1  C3  UNL     1     -32.521   4.830   2.670  1.00 20.00     0.016 C 
HETATM    2  C4  UNL     1     -34.560   6.249   2.382  1.00 20.00     0.016 C 
HETATM    3  C8  UNL     1     -33.067   6.268   2.784  1.00 20.00    -0.035 C 
ENDROOT
BRANCH   3   4
HETATM    4  C5  UNL     1     -33.004   6.740   4.273  1.00 20.00     0.013 C 
BRANCH   4   5
HETATM    5  C7  UNL     1     -34.182   6.329   5.189  1.00 20.00    -0.022 C 
HETATM    6  C1  UNL     1     -34.323   4.806   5.279  1.00 20.00     0.009 C 
HETATM    7  C2  UNL     1     -33.975   6.890   6.600  1.00 20.00     0.009 C 
ENDBRANCH   4   5
ENDBRANCH   3   4
BRANCH   3   8
HETATM    8  C6  UNL     1     -32.275   7.232   1.871  1.00 20.00     0.123 C 
HETATM    9 CL9  UNL     1     -32.841   8.925   1.925  1.00 20.00    -0.130 Cl
ENDBRANCH   3   8
TORSDOF 3
