REMARK  2 active torsions:
REMARK  status: ('A' for Active; 'I' for Inactive)
REMARK    1  A    between atoms: C1_1  and  C2_2 
REMARK    2  A    between atoms: C2_2  and  C3_3 
ROOT
HETATM    1  C3  UNL     1     -34.598   5.570   4.221  1.00 20.00     0.393 C 
HETATM    2  F5  UNL     1     -34.408   5.017   3.005  1.00 20.00    -0.171 F 
HETATM    3  F6  UNL     1     -34.498   4.581   5.138  1.00 20.00    -0.171 F 
HETATM    4  F7  UNL     1     -35.859   6.048   4.275  1.00 20.00    -0.171 F 
ENDROOT
BRANCH   1   5
HETATM    5  C2  UNL     1     -33.583   6.652   4.503  1.00 20.00     0.186 C 
BRANCH   5   6
HETATM    6  C1  UNL     1     -33.756   7.287   5.860  1.00 20.00     0.239 C 
HETATM    7  O4  UNL     1     -34.641   7.000   6.660  1.00 20.00    -0.307 OA
ENDBRANCH   5   6
ENDBRANCH   1   5
TORSDOF 2
