REMARK  0 active torsions:
REMARK  status: ('A' for Active; 'I' for Inactive)
ROOT
HETATM    1  C1  UNL     1     -31.803   6.282   2.413  1.00 20.00     0.047 C 
HETATM    2  C2  UNL     1     -32.395   6.186   3.609  1.00 20.00    -0.014 C 
HETATM    3  C3  UNL     1     -32.038   7.462   1.549  1.00 20.00     0.149 C 
HETATM    4  C4  UNL     1     -33.001   8.523   2.025  1.00 20.00     0.084 C 
HETATM    5  C5  UNL     1     -33.013   8.607   3.546  1.00 20.00     0.021 C 
HETATM    6  C6  UNL     1     -34.909   5.879   6.369  1.00 20.00     0.000 C 
HETATM    7  C7  UNL     1     -33.443   6.220   6.601  1.00 20.00     0.001 C 
HETATM    8  C8  UNL     1     -35.206   5.648   4.892  1.00 20.00     0.001 C 
HETATM    9  C9  UNL     1     -32.991   7.403   5.742  1.00 20.00     0.013 C 
HETATM   10  C10 UNL     1     -34.780   6.845   4.039  1.00 20.00     0.013 C 
HETATM   11  C11 UNL     1     -33.294   7.243   4.229  1.00 20.00    -0.022 C 
HETATM   12  O12 UNL     1     -31.498   7.529   0.446  1.00 20.00    -0.293 OA
ENDROOT
TORSDOF 0
