REMARK  2 active torsions:
REMARK  status: ('A' for Active; 'I' for Inactive)
REMARK    1  A    between atoms: C1_1  and  C3_3 
REMARK    2  A    between atoms: C2_2  and  C4_4 
ROOT
HETATM    1  C1  UNL     1     -33.749   6.365   4.719  1.00 20.00     0.017 C 
HETATM    2  C2  UNL     1     -33.092   7.334   4.454  1.00 20.00     0.017 C 
ENDROOT
BRANCH   1   3
HETATM    3  C3  UNL     1     -34.544   5.194   5.041  1.00 20.00     0.459 C 
HETATM    4  F5  UNL     1     -34.489   4.924   6.364  1.00 20.00    -0.159 F 
HETATM    5  F6  UNL     1     -35.840   5.385   4.706  1.00 20.00    -0.159 F 
HETATM    6  F7  UNL     1     -34.095   4.109   4.373  1.00 20.00    -0.159 F 
ENDBRANCH   1   3
BRANCH   2   7
HETATM    7  C4  UNL     1     -32.298   8.507   4.133  1.00 20.00     0.459 C 
HETATM    8  F8  UNL     1     -33.042   9.428   3.481  1.00 20.00    -0.159 F 
HETATM    9  F9  UNL     1     -31.252   8.178   3.342  1.00 20.00    -0.159 F 
HETATM   10  F10 UNL     1     -31.810   9.080   5.255  1.00 20.00    -0.159 F 
ENDBRANCH   2   7
TORSDOF 2
