REMARK  2 active torsions:
REMARK  status: ('A' for Active; 'I' for Inactive)
REMARK    1  A    between atoms: C3_3  and  C8_8 
REMARK    2  A    between atoms: C4_4  and  C7_7 
ROOT
HETATM    1  C5  UNL     1     -33.527   5.036   3.904  1.00 20.00     0.040 C 
HETATM    2  C6  UNL     1     -33.169   5.711   2.599  1.00 20.00     0.045 C 
HETATM    3  C7  UNL     1     -34.409   6.085   4.561  1.00 20.00     0.151 C 
HETATM    4  C8  UNL     1     -33.011   7.173   3.017  1.00 20.00     0.075 C 
HETATM    5  C10 UNL     1     -33.391   8.136   1.898  1.00 20.00     0.050 C 
HETATM    6  O11 UNL     1     -33.920   7.365   4.121  1.00 20.00    -0.367 OA
ENDROOT
BRANCH   3   7
HETATM    7  C4  UNL     1     -34.388   6.020   6.048  1.00 20.00    -0.065 C 
HETATM    8  C2  UNL     1     -34.260   4.857   6.704  1.00 20.00     0.016 C 
HETATM    9  C9  UNL     1     -34.517   7.328   6.769  1.00 20.00     0.045 C 
ENDBRANCH   3   7
BRANCH   4  10
HETATM   10  C3  UNL     1     -31.624   7.479   3.503  1.00 20.00     0.000 C 
HETATM   11  C1  UNL     1     -31.341   8.413   4.418  1.00 20.00     0.010 C 
ENDBRANCH   4  10
TORSDOF 2
