REMARK  3 active torsions:
REMARK  status: ('A' for Active; 'I' for Inactive)
REMARK    1  A    between atoms: C1_1  and  C3_3 
REMARK    2  A    between atoms: C1_1  and  O4_4 
REMARK    3  A    between atoms: C2_2  and  O4_4 
ROOT
HETATM    1  C1  UNL     1     -33.689   6.806   4.566  1.00 20.00     0.291 C 
ENDROOT
BRANCH   1   2
HETATM    2  C3  UNL     1     -34.699   5.701   4.738  1.00 20.00     0.408 C 
HETATM    3  F7  UNL     1     -35.867   6.028   4.143  1.00 20.00    -0.169 F 
HETATM    4  F8  UNL     1     -34.953   5.469   6.043  1.00 20.00    -0.169 F 
HETATM    5  F9  UNL     1     -34.264   4.550   4.184  1.00 20.00    -0.169 F 
ENDBRANCH   1   2
BRANCH   1   6
HETATM    6  O4  UNL     1     -33.470   7.023   3.180  1.00 20.00    -0.324 OA
BRANCH   6   7
HETATM    7  C2  UNL     1     -32.515   8.044   2.932  1.00 20.00     0.500 C 
HETATM    8  F5  UNL     1     -31.325   7.692   3.474  1.00 20.00    -0.185 F 
HETATM    9  F6  UNL     1     -32.340   8.184   1.596  1.00 20.00    -0.185 F 
ENDBRANCH   6   7
ENDBRANCH   1   6
TORSDOF 3
