REMARK  1 active torsions:
REMARK  status: ('A' for Active; 'I' for Inactive)
REMARK    1  A    between atoms: C4_4  and  C5_5 
ROOT
HETATM    1  C1  UNL     1     -35.578   6.332   4.316  1.00 20.00     0.015 C 
HETATM    2  C2  UNL     1     -33.966   4.427   4.442  1.00 20.00     0.015 C 
HETATM    3  C3  UNL     1     -34.790   5.523   6.545  1.00 20.00     0.015 C 
HETATM    4  C5  UNL     1     -34.369   5.765   5.085  1.00 20.00    -0.039 C 
ENDROOT
BRANCH   4   5
HETATM    5  C4  UNL     1     -33.222   6.797   4.996  1.00 20.00     0.122 C 
HETATM    6 CL6  UNL     1     -32.686   7.149   3.333  1.00 20.00    -0.130 Cl
ENDBRANCH   4   5
TORSDOF 1
