REMARK  1 active torsions:
REMARK  status: ('A' for Active; 'I' for Inactive)
REMARK    1  A    between atoms: C5_5  and  O10_10 
ROOT
HETATM    1  C1  UNL     1     -34.738   5.832   6.219  1.00 20.00     0.007 C 
HETATM    2  C2  UNL     1     -33.916   6.889   6.341  1.00 20.00    -0.084 C 
HETATM    3  C3  UNL     1     -33.009   7.330   5.218  1.00 20.00     0.042 C 
HETATM    4  C4  UNL     1     -33.741   5.276   3.946  1.00 20.00     0.045 C 
HETATM    5  C5  UNL     1     -34.818   4.968   4.994  1.00 20.00     0.142 C 
HETATM    6  C6  UNL     1     -33.403   6.781   3.824  1.00 20.00    -0.042 C 
HETATM    7  C7  UNL     1     -33.841   7.692   7.606  1.00 20.00     0.043 C 
HETATM    8  C8  UNL     1     -32.216   6.953   2.858  1.00 20.00     0.015 C 
HETATM    9  C9  UNL     1     -34.595   7.577   3.253  1.00 20.00     0.015 C 
ENDROOT
BRANCH   5  10
HETATM   10  O10 UNL     1     -36.107   5.111   4.401  1.00 20.00    -0.392 OA
HETATM   11  H26 UNL     1     -36.750   4.828   5.069  1.00 20.00     0.210 HD
ENDBRANCH   5  10
TORSDOF 1
