REMARK  1 active torsions:
REMARK  status: ('A' for Active; 'I' for Inactive)
REMARK    1  A    between atoms: C2_2  and  C3_3 
ROOT
HETATM    1  C1  UNL     1     -34.730   4.889   6.234  1.00 20.00     0.023 C 
HETATM    2  C2  UNL     1     -34.099   6.026   5.910  1.00 20.00    -0.009 C 
HETATM    3  C4  UNL     1     -33.916   7.135   6.906  1.00 20.00     0.052 C 
ENDROOT
BRANCH   2   4
HETATM    4  C3  UNL     1     -33.540   6.261   4.529  1.00 20.00     0.247 C 
HETATM    5  O5  UNL     1     -32.974   7.334   4.313  1.00 20.00    -0.274 OA
HETATM    6 CL6  UNL     1     -33.706   5.027   3.294  1.00 20.00    -0.039 Cl
ENDBRANCH   2   4
TORSDOF 1
