REMARK  2 active torsions:
REMARK  status: ('A' for Active; 'I' for Inactive)
REMARK    1  A    between atoms: C1_1  and  C4_4 
REMARK    2  A    between atoms: C5_5  and  C8_8 
ROOT
HETATM    1  C2  UNL     1     -35.112   5.150   4.310  1.00 20.00     0.020 C 
HETATM    2  C3  UNL     1     -34.969   7.295   4.383  1.00 20.00     0.020 C 
HETATM    3  C4  UNL     1     -35.219   6.197   5.441  1.00 20.00     0.087 C 
HETATM    4  C5  UNL     1     -34.434   6.214   3.416  1.00 20.00    -0.010 C 
ENDROOT
BRANCH   3   5
HETATM    5  C1  UNL     1     -34.183   6.091   6.508  1.00 20.00     0.177 C 
HETATM    6  O9  UNL     1     -33.732   7.191   6.932  1.00 20.00    -0.648 OA
HETATM    7  O10 UNL     1     -33.891   4.910   6.847  1.00 20.00    -0.648 OA
ENDBRANCH   3   5
BRANCH   4   8
HETATM    8  C8  UNL     1     -32.922   6.117   3.290  1.00 20.00    -0.019 C 
HETATM    9  C6  UNL     1     -32.503   4.756   2.726  1.00 20.00     0.010 C 
HETATM   10  C7  UNL     1     -32.371   7.243   2.411  1.00 20.00     0.010 C 
ENDBRANCH   4   8
TORSDOF 2
