REMARK  2 active torsions:
REMARK  status: ('A' for Active; 'I' for Inactive)
REMARK    1  A    between atoms: C1_1  and  C2_2 
REMARK    2  A    between atoms: C1_1  and  C3_3 
ROOT
HETATM    1  C1  UNL     1     -33.553   6.754   4.155  1.00 20.00     0.148 C 
HETATM    2 CL4  UNL     1     -33.609   5.192   3.244  1.00 20.00    -0.119 Cl
ENDROOT
BRANCH   1   3
HETATM    3  C2  UNL     1     -32.272   7.523   3.769  1.00 20.00     0.199 C 
HETATM    4 CL5  UNL     1     -32.158   7.765   1.995  1.00 20.00    -0.106 Cl
HETATM    5 CL6  UNL     1     -32.204   9.139   4.533  1.00 20.00    -0.106 Cl
ENDBRANCH   1   3
BRANCH   1   6
HETATM    6  C3  UNL     1     -33.713   6.495   5.670  1.00 20.00     0.199 C 
HETATM    7 CL7  UNL     1     -34.830   5.153   6.038  1.00 20.00    -0.106 Cl
HETATM    8 CL8  UNL     1     -34.244   7.966   6.542  1.00 20.00    -0.106 Cl
ENDBRANCH   1   6
TORSDOF 2
