REMARK  2 active torsions:
REMARK  status: ('A' for Active; 'I' for Inactive)
REMARK    1  A    between atoms: C7_7  and  O9_9 
REMARK    2  A    between atoms: C8_8  and  O9_9 
ROOT
HETATM    1  O9  UNL     1     -33.639   6.710   4.269  1.00 20.00    -0.371 OA
ENDROOT
BRANCH   1   2
HETATM    2  C7  UNL     1     -33.069   6.410   2.994  1.00 20.00     0.051 C 
HETATM    3  C1  UNL     1     -34.203   6.204   1.991  1.00 20.00     0.045 C 
HETATM    4  C2  UNL     1     -32.201   7.599   2.588  1.00 20.00     0.045 C 
HETATM    5  C3  UNL     1     -32.221   5.146   3.126  1.00 20.00     0.045 C 
ENDBRANCH   1   2
BRANCH   1   6
HETATM    6  C8  UNL     1     -34.471   5.654   4.722  1.00 20.00     0.051 C 
HETATM    7  C4  UNL     1     -33.938   4.338   4.158  1.00 20.00     0.045 C 
HETATM    8  C5  UNL     1     -34.416   5.647   6.248  1.00 20.00     0.045 C 
HETATM    9  C6  UNL     1     -35.897   5.916   4.237  1.00 20.00     0.045 C 
ENDBRANCH   1   6
TORSDOF 2
