REMARK  2 active torsions:
REMARK  status: ('A' for Active; 'I' for Inactive)
REMARK    1  A    between atoms: C1_1  and  C3_3 
REMARK    2  A    between atoms: C3_3  and  C4_4 
ROOT
HETATM    1  C1  UNL     1     -32.679   7.120   4.624  1.00 20.00    -0.088 C 
HETATM    2  C2  UNL     1     -33.441   7.077   5.551  1.00 20.00     0.004 C 
HETATM    3 CL5  UNL     1     -34.556   7.011   6.903  1.00 20.00    -0.023 Cl
ENDROOT
BRANCH   1   4
HETATM    4  C3  UNL     1     -31.744   7.173   3.491  1.00 20.00     0.110 C 
BRANCH   4   5
HETATM    5  C4  UNL     1     -32.362   6.630   2.208  1.00 20.00     0.126 C 
HETATM    6 CL6  UNL     1     -32.829   4.918   2.378  1.00 20.00    -0.130 Cl
ENDBRANCH   4   5
ENDBRANCH   1   4
TORSDOF 2
