REMARK  0 active torsions:
REMARK  status: ('A' for Active; 'I' for Inactive)
ROOT
HETATM    1  C1  UNL     1     -33.135   7.763   3.803  1.00 20.00     0.053 A 
HETATM    2  C2  UNL     1     -33.907   6.957   4.535  1.00 20.00    -0.072 A 
HETATM    3  C3  UNL     1     -32.618   6.925   2.713  1.00 20.00     0.150 A 
HETATM    4  C4  UNL     1     -34.613   7.298   5.806  1.00 20.00     0.034 C 
HETATM    5  C5  UNL     1     -33.094   5.503   2.817  1.00 20.00     0.092 A 
HETATM    6  C6  UNL     1     -34.240   6.292   6.899  1.00 20.00     0.004 C 
HETATM    7  C7  UNL     1     -34.397   4.839   6.433  1.00 20.00     0.001 C 
HETATM    8  C8  UNL     1     -33.608   4.567   5.146  1.00 20.00     0.009 C 
HETATM    9  C9  UNL     1     -34.012   5.543   4.038  1.00 20.00     0.022 A 
HETATM   10  O10 UNL     1     -31.879   7.352   1.838  1.00 20.00    -0.293 OA
ENDROOT
TORSDOF 0
