REMARK  3 active torsions:
REMARK  status: ('A' for Active; 'I' for Inactive)
REMARK    1  A    between atoms: C1_1  and  C5_5 
REMARK    2  A    between atoms: C1_1  and  O8_8 
REMARK    3  A    between atoms: C6_6  and  O8_8 
ROOT
HETATM    1  O8  UNL     1     -33.315   6.802   4.825  1.00 20.00    -0.310 OA
ENDROOT
BRANCH   1   2
HETATM    2  C1  UNL     1     -33.050   6.682   3.487  1.00 20.00     0.273 C 
HETATM    3  O7  UNL     1     -33.139   5.650   2.836  1.00 20.00    -0.264 OA
BRANCH   2   4
HETATM    4  C5  UNL     1     -32.637   8.029   2.959  1.00 20.00     0.225 C 
HETATM    5 CL9  UNL     1     -32.256   7.917   1.232  1.00 20.00    -0.120 Cl
ENDBRANCH   2   4
ENDBRANCH   1   2
BRANCH   1   6
HETATM    6  C6  UNL     1     -34.644   6.467   5.225  1.00 20.00     0.060 C 
HETATM    7  C2  UNL     1     -34.912   5.011   4.850  1.00 20.00     0.045 C 
HETATM    8  C3  UNL     1     -34.731   6.658   6.738  1.00 20.00     0.045 C 
HETATM    9  C4  UNL     1     -35.618   7.402   4.509  1.00 20.00     0.045 C 
ENDBRANCH   1   6
TORSDOF 3
