REMARK  0 active torsions:
REMARK  status: ('A' for Active; 'I' for Inactive)
ROOT
HETATM    1  C1  UNL     1     -33.784   6.252   4.398  1.00 20.00    -0.011 C 
HETATM    2  C2  UNL     1     -34.081   4.926   5.017  1.00 20.00     0.155 C 
HETATM    3  C3  UNL     1     -32.971   6.285   3.335  1.00 20.00    -0.078 C 
HETATM    4  C4  UNL     1     -34.397   7.466   5.026  1.00 20.00     0.042 C 
HETATM    5  C5  UNL     1     -34.225   4.892   6.524  1.00 20.00     0.083 C 
HETATM    6  C6  UNL     1     -34.331   7.411   6.551  1.00 20.00     0.005 C 
HETATM    7  C7  UNL     1     -34.947   6.117   7.072  1.00 20.00     0.008 C 
HETATM    8  C8  UNL     1     -32.615   7.570   2.646  1.00 20.00     0.043 C 
HETATM    9  C9  UNL     1     -32.361   5.039   2.761  1.00 20.00     0.043 C 
HETATM   10  O10 UNL     1     -34.130   3.898   4.346  1.00 20.00    -0.293 OA
ENDROOT
TORSDOF 0
