REMARK  0 active torsions:
REMARK  status: ('A' for Active; 'I' for Inactive)
ROOT
HETATM    1  C1  UNL     1     -33.601   6.778   5.035  1.00 20.00    -0.013 A 
HETATM    2  C2  UNL     1     -34.076   5.812   4.236  1.00 20.00    -0.070 A 
HETATM    3  C3  UNL     1     -32.680   7.577   4.204  1.00 20.00     0.160 A 
HETATM    4  C4  UNL     1     -33.534   5.836   2.824  1.00 20.00     0.022 A 
HETATM    5  C5  UNL     1     -32.605   7.063   2.789  1.00 20.00     0.064 A 
HETATM    6  C6  UNL     1     -33.859   7.108   6.457  1.00 20.00     0.052 C 
HETATM    7  C7  UNL     1     -35.084   4.773   4.606  1.00 20.00     0.044 C 
HETATM    8  C8  UNL     1     -32.771   4.559   2.471  1.00 20.00     0.015 C 
HETATM    9  C9  UNL     1     -33.073   8.128   1.809  1.00 20.00     0.019 C 
HETATM   10  O10 UNL     1     -32.066   8.547   4.625  1.00 20.00    -0.292 OA
ENDROOT
TORSDOF 0
