REMARK  1 active torsions:
REMARK  status: ('A' for Active; 'I' for Inactive)
REMARK    1  A    between atoms: C4_4  and  C8_8 
ROOT
HETATM    1  C1  UNL     1     -33.764   5.491   6.388  1.00 20.00    -0.007 C 
HETATM    2  C2  UNL     1     -33.985   6.790   6.143  1.00 20.00     0.009 C 
HETATM    3  C5  UNL     1     -34.039   4.413   5.383  1.00 20.00     0.029 C 
HETATM    4  C6  UNL     1     -34.503   7.316   4.835  1.00 20.00     0.061 C 
HETATM    5  C7  UNL     1     -34.849   4.898   4.174  1.00 20.00     0.014 C 
HETATM    6  C8  UNL     1     -34.429   6.292   3.686  1.00 20.00     0.035 C 
HETATM    7 CL9  UNL     1     -33.661   7.978   7.356  1.00 20.00    -0.089 Cl
ENDROOT
BRANCH   6   8
HETATM    8  C4  UNL     1     -33.069   6.286   3.048  1.00 20.00     0.007 C 
HETATM    9  C3  UNL     1     -32.243   7.337   3.019  1.00 20.00     0.032 C 
HETATM   10 CL10 UNL     1     -32.600   4.789   2.319  1.00 20.00    -0.089 Cl
ENDBRANCH   6   8
TORSDOF 1
