REMARK  2 active torsions:
REMARK  status: ('A' for Active; 'I' for Inactive)
REMARK    1  A    between atoms: C1_1  and  C6_6 
REMARK    2  A    between atoms: C6_6  and  O8_8 
ROOT
HETATM    1  C3  UNL     1     -35.928   6.296   4.292  1.00 20.00     0.054 C 
HETATM    2  C4  UNL     1     -34.391   4.758   5.543  1.00 20.00     0.054 C 
HETATM    3  C6  UNL     1     -34.507   6.097   4.819  1.00 20.00     0.112 C 
ENDROOT
BRANCH   3   4
HETATM    4  C1  UNL     1     -33.480   6.166   3.683  1.00 20.00     0.156 C 
HETATM    5  C2  UNL     1     -32.891   7.515   3.344  1.00 20.00     0.094 C 
HETATM    6  O7  UNL     1     -33.111   5.159   3.076  1.00 20.00    -0.295 OA
ENDBRANCH   3   4
BRANCH   3   7
HETATM    7  O8  UNL     1     -34.227   7.132   5.752  1.00 20.00    -0.378 OA
HETATM    8  C5  UNL     1     -33.163   6.775   6.624  1.00 20.00     0.203 C 
ENDBRANCH   3   7
TORSDOF 2
