REMARK  3 active torsions:
REMARK  status: ('A' for Active; 'I' for Inactive)
REMARK    1  A    between atoms: C1_1  and  C3_3 
REMARK    2  A    between atoms: C3_3  and  C6_6 
REMARK    3  A    between atoms: C6_6  and  C7_7 
ROOT
HETATM    1  C3  UNL     1     -32.493   6.501   2.631  1.00 20.00     0.149 C 
HETATM    2  O8  UNL     1     -32.688   5.322   2.345  1.00 20.00    -0.293 OA
ENDROOT
BRANCH   1   3
HETATM    3  C1  UNL     1     -32.105   7.504   1.598  1.00 20.00     0.045 C 
HETATM    4  C2  UNL     1     -33.036   8.196   0.929  1.00 20.00    -0.027 C 
HETATM    5  C4  UNL     1     -32.710   9.214  -0.115  1.00 20.00     0.036 C 
ENDBRANCH   1   3
BRANCH   1   6
HETATM    6  C6  UNL     1     -32.629   7.039   4.044  1.00 20.00     0.082 C 
BRANCH   6   7
HETATM    7  C7  UNL     1     -34.026   6.819   4.620  1.00 20.00     0.003 C 
HETATM    8  C5  UNL     1     -34.392   5.344   4.644  1.00 20.00     0.005 C 
ENDBRANCH   6   7
ENDBRANCH   1   6
TORSDOF 3
