REMARK  2 active torsions:
REMARK  status: ('A' for Active; 'I' for Inactive)
REMARK    1  A    between atoms: C1_1  and  C2_2 
REMARK    2  A    between atoms: C1_1  and  C3_3 
ROOT
HETATM    1  C1  UNL     1     -33.160   6.863   3.958  1.00 20.00     0.153 C 
ENDROOT
BRANCH   1   2
HETATM    2  C2  UNL     1     -33.116   6.368   2.512  1.00 20.00     0.186 C 
HETATM    3 CL7  UNL     1     -32.508   4.698   2.389  1.00 20.00    -0.108 Cl
HETATM    4 CL8  UNL     1     -32.068   7.436   1.538  1.00 20.00    -0.108 Cl
ENDBRANCH   1   2
BRANCH   1   5
HETATM    5  C3  UNL     1     -34.061   6.046   4.865  1.00 20.00     0.390 C 
HETATM    6  F4  UNL     1     -35.342   6.076   4.440  1.00 20.00    -0.171 F 
HETATM    7  F5  UNL     1     -33.675   4.756   4.942  1.00 20.00    -0.171 F 
HETATM    8  F6  UNL     1     -34.037   6.549   6.121  1.00 20.00    -0.171 F 
ENDBRANCH   1   5
TORSDOF 2
