REMARK  2 active torsions:
REMARK  status: ('A' for Active; 'I' for Inactive)
REMARK    1  A    between atoms: C2_2  and  C3_3 
REMARK    2  A    between atoms: C3_3  and  O4_4 
ROOT
HETATM    1  C3  UNL     1     -34.153   5.536   4.420  1.00 20.00     0.398 C 
HETATM    2  F6  UNL     1     -34.120   4.185   4.512  1.00 20.00    -0.171 F 
HETATM    3  F7  UNL     1     -35.455   5.911   4.351  1.00 20.00    -0.171 F 
ENDROOT
BRANCH   1   4
HETATM    4  C2  UNL     1     -33.436   6.002   3.172  1.00 20.00     0.367 C 
HETATM    5  F5  UNL     1     -32.447   6.862   3.534  1.00 20.00    -0.223 F 
HETATM    6 CL8  UNL     1     -32.710   4.642   2.289  1.00 20.00    -0.080 Cl
ENDBRANCH   1   4
BRANCH   1   7
HETATM    7  O4  UNL     1     -33.575   6.111   5.587  1.00 20.00    -0.328 OA
HETATM    8  C1  UNL     1     -34.224   5.695   6.780  1.00 20.00     0.208 C 
ENDBRANCH   1   7
TORSDOF 2
