REMARK  0 active torsions:
REMARK  status: ('A' for Active; 'I' for Inactive)
ROOT
HETATM    1  C1  UNL     1     -33.900   5.304   3.614  1.00 20.00     0.117 C 
HETATM    2  C2  UNL     1     -33.560   6.833   5.970  1.00 20.00     0.117 C 
HETATM    3  C3  UNL     1     -32.986   4.778   2.516  1.00 20.00     0.033 C 
HETATM    4  C4  UNL     1     -34.121   8.142   6.509  1.00 20.00     0.033 C 
HETATM    5  S5  UNL     1     -33.325   6.965   4.152  1.00 20.00    -0.137 SA
HETATM    6  S6  UNL     1     -33.928   4.149   5.008  1.00 20.00    -0.081 SA
HETATM    7  S7  UNL     1     -34.673   5.465   6.378  1.00 20.00    -0.081 SA
ENDROOT
TORSDOF 0
