REMARK  2 active torsions:
REMARK  status: ('A' for Active; 'I' for Inactive)
REMARK    1  A    between atoms: C6_6  and  C7_7 
REMARK    2  A    between atoms: C7_7  and  O8_8 
ROOT
HETATM    1  C1  UNL     1     -34.560   7.280   6.736  1.00 20.00     0.015 C 
HETATM    2  C2  UNL     1     -34.602   6.706   5.682  1.00 20.00    -0.079 C 
HETATM    3  C5  UNL     1     -35.794   6.584   3.539  1.00 20.00     0.061 C 
HETATM    4  C7  UNL     1     -34.659   5.998   4.388  1.00 20.00     0.119 C 
ENDROOT
BRANCH   4   5
HETATM    5  C6  UNL     1     -33.294   6.028   3.640  1.00 20.00     0.024 C 
HETATM    6  C3  UNL     1     -33.299   5.273   2.305  1.00 20.00     0.014 C 
HETATM    7  C4  UNL     1     -32.772   7.456   3.418  1.00 20.00     0.014 C 
ENDBRANCH   4   5
BRANCH   4   8
HETATM    8  O8  UNL     1     -35.002   4.631   4.650  1.00 20.00    -0.378 OA
HETATM    9  H20 UNL     1     -35.865   4.651   5.088  1.00 20.00     0.211 HD
ENDBRANCH   4   8
TORSDOF 2
