REMARK  3 active torsions:
REMARK  status: ('A' for Active; 'I' for Inactive)
REMARK    1  A    between atoms: C6_6  and  C9_9 
REMARK    2  A    between atoms: C7_7  and  C8_8 
REMARK    3  A    between atoms: C7_7  and  C9_9 
ROOT
HETATM    1  C4  UNL     1     -34.911   4.229   4.523  1.00 20.00     0.015 C 
HETATM    2  C5  UNL     1     -32.818   4.861   5.707  1.00 20.00     0.015 C 
HETATM    3  C9  UNL     1     -34.133   5.419   5.116  1.00 20.00    -0.048 C 
ENDROOT
BRANCH   3   4
HETATM    4  C6  UNL     1     -34.996   6.033   6.254  1.00 20.00     0.004 C 
HETATM    5  C1  UNL     1     -34.396   7.234   6.974  1.00 20.00     0.006 C 
ENDBRANCH   3   4
BRANCH   3   6
HETATM    6  C7  UNL     1     -33.752   6.451   4.011  1.00 20.00     0.012 C 
BRANCH   6   7
HETATM    7  C8  UNL     1     -32.476   6.163   3.187  1.00 20.00    -0.022 C 
HETATM    8  C2  UNL     1     -32.616   4.823   2.454  1.00 20.00     0.009 C 
HETATM    9  C3  UNL     1     -32.203   7.258   2.150  1.00 20.00     0.009 C 
ENDBRANCH   6   7
ENDBRANCH   3   6
TORSDOF 3
