REMARK  0 active torsions:
REMARK  status: ('A' for Active; 'I' for Inactive)
ROOT
HETATM    1  C1  UNL     1     -34.494   4.883   6.212  1.00 20.00     0.196 C 
HETATM    2  C2  UNL     1     -34.783   5.320   4.802  1.00 20.00     0.196 C 
HETATM    3  C3  UNL     1     -33.664   6.955   5.881  1.00 20.00     0.337 C 
HETATM    4  O4  UNL     1     -34.231   6.112   6.888  1.00 20.00    -0.365 OA
HETATM    5  O5  UNL     1     -33.846   6.373   4.587  1.00 20.00    -0.365 OA
ENDROOT
TORSDOF 0
