REMARK  2 active torsions:
REMARK  status: ('A' for Active; 'I' for Inactive)
REMARK    1  A    between atoms: C1_1  and  C2_2 
REMARK    2  A    between atoms: C1_1  and  C3_3 
ROOT
HETATM    1  C1  UNL     1     -33.498   6.553   4.469  1.00 20.00     0.234 C 
ENDROOT
BRANCH   1   2
HETATM    2  C2  UNL     1     -33.280   6.289   2.996  1.00 20.00     0.396 C 
HETATM    3  F4  UNL     1     -32.905   5.012   2.773  1.00 20.00    -0.171 F 
HETATM    4  F5  UNL     1     -34.420   6.507   2.303  1.00 20.00    -0.171 F 
HETATM    5  F6  UNL     1     -32.330   7.099   2.484  1.00 20.00    -0.171 F 
ENDBRANCH   1   2
BRANCH   1   6
HETATM    6  C3  UNL     1     -34.598   5.697   5.055  1.00 20.00     0.396 C 
HETATM    7  F7  UNL     1     -34.779   5.990   6.362  1.00 20.00    -0.171 F 
HETATM    8  F8  UNL     1     -34.301   4.383   4.969  1.00 20.00    -0.171 F 
HETATM    9  F9  UNL     1     -35.773   5.902   4.424  1.00 20.00    -0.171 F 
ENDBRANCH   1   6
TORSDOF 2
