REMARK  0 active torsions:
REMARK  status: ('A' for Active; 'I' for Inactive)
ROOT
HETATM    1  C1  UNL     1     -34.912   5.872   5.878  1.00 20.00     0.050 C 
HETATM    2  C2  UNL     1     -33.623   6.306   6.554  1.00 20.00     0.171 C 
HETATM    3  C3  UNL     1     -34.558   5.942   4.407  1.00 20.00     0.128 C 
HETATM    4  C4  UNL     1     -33.671   7.182   4.400  1.00 20.00     0.235 C 
HETATM    5  O5  UNL     1     -32.929   7.160   5.629  1.00 20.00    -0.369 OA
HETATM    6 CL6  UNL     1     -33.695   4.446   3.932  1.00 20.00    -0.121 Cl
HETATM    7 CL7  UNL     1     -32.589   7.340   3.012  1.00 20.00    -0.094 Cl
ENDROOT
TORSDOF 0
