REMARK  2 active torsions:
REMARK  status: ('A' for Active; 'I' for Inactive)
REMARK    1  A    between atoms: C5_5  and  C7_7 
REMARK    2  A    between atoms: C7_7  and  C8_8 
ROOT
HETATM    1  C1  UNL     1     -34.767   6.217   6.843  1.00 20.00    -0.030 C 
HETATM    2  C2  UNL     1     -34.213   7.275   6.243  1.00 20.00    -0.026 C 
HETATM    3  C3  UNL     1     -34.952   5.078   5.898  1.00 20.00     0.027 C 
HETATM    4  C4  UNL     1     -34.094   5.490   4.701  1.00 20.00     0.012 C 
HETATM    5  C5  UNL     1     -33.944   7.015   4.793  1.00 20.00     0.008 C 
ENDROOT
BRANCH   5   6
HETATM    6  C7  UNL     1     -32.569   7.489   4.346  1.00 20.00     0.008 C 
BRANCH   6   7
HETATM    7  C8  UNL     1     -32.494   7.630   2.827  1.00 20.00    -0.004 C 
HETATM    8  C6  UNL     1     -32.741   6.301   2.132  1.00 20.00     0.005 C 
ENDBRANCH   6   7
ENDBRANCH   5   6
TORSDOF 2
