REMARK  2 active torsions:
REMARK  status: ('A' for Active; 'I' for Inactive)
REMARK    1  A    between atoms: C2_2  and  C3_3 
REMARK    2  A    between atoms: C2_2  and  C4_4 
ROOT
HETATM    1  C1  UNL     1     -33.667   5.499   2.748  1.00 20.00     0.016 C 
HETATM    2  C2  UNL     1     -33.197   6.446   3.577  1.00 20.00    -0.062 C 
ENDROOT
BRANCH   2   3
HETATM    3  C3  UNL     1     -33.759   6.609   4.962  1.00 20.00     0.149 C 
HETATM    4 CL5  UNL     1     -34.327   5.049   5.600  1.00 20.00    -0.126 Cl
ENDBRANCH   2   3
BRANCH   2   5
HETATM    5  C4  UNL     1     -32.095   7.373   3.146  1.00 20.00     0.149 C 
HETATM    6 CL6  UNL     1     -32.162   7.660   1.392  1.00 20.00    -0.126 Cl
ENDBRANCH   2   5
TORSDOF 2
