REMARK  5 active torsions:
REMARK  status: ('A' for Active; 'I' for Inactive)
REMARK    1  A    between atoms: C1_1  and  C5_5 
REMARK    2  A    between atoms: C1_1  and  C9_9 
REMARK    3  A    between atoms: C5_5  and  C6_6 
REMARK    4  A    between atoms: C7_7  and  C9_9 
REMARK    5  A    between atoms: C8_8  and  C9_9 
ROOT
HETATM    1  C1  UNL     1     -33.074   6.453   3.263  1.00 20.00     0.131 C 
HETATM    2  O10 UNL     1     -33.239   5.342   2.760  1.00 20.00    -0.298 OA
ENDROOT
BRANCH   1   3
HETATM    3  C5  UNL     1     -31.908   7.355   2.885  1.00 20.00     0.078 C 
BRANCH   3   4
HETATM    4  C6  UNL     1     -32.333   8.717   2.342  1.00 20.00     0.003 C 
HETATM    5  C2  UNL     1     -33.126   8.607   1.047  1.00 20.00     0.005 C 
ENDBRANCH   3   4
ENDBRANCH   1   3
BRANCH   1   6
HETATM    6  C9  UNL     1     -34.056   7.015   4.291  1.00 20.00     0.054 C 
BRANCH   6   7
HETATM    7  C7  UNL     1     -33.314   7.339   5.598  1.00 20.00     0.007 C 
HETATM    8  C3  UNL     1     -34.227   7.925   6.667  1.00 20.00     0.006 C 
ENDBRANCH   6   7
BRANCH   6   9
HETATM    9  C8  UNL     1     -35.186   6.005   4.549  1.00 20.00     0.007 C 
HETATM   10  C4  UNL     1     -34.678   4.681   5.106  1.00 20.00     0.006 C 
ENDBRANCH   6   9
ENDBRANCH   1   6
TORSDOF 5
