REMARK  2 active torsions:
REMARK  status: ('A' for Active; 'I' for Inactive)
REMARK    1  A    between atoms: C1_1  and  C5_5 
REMARK    2  A    between atoms: C1_1  and  C6_6 
ROOT
HETATM    1  C1  UNL     1     -33.777   6.779   5.054  1.00 20.00     0.167 C 
HETATM    2  O7  UNL     1     -33.488   7.286   6.143  1.00 20.00    -0.294 OA
ENDROOT
BRANCH   1   3
HETATM    3  C5  UNL     1     -33.295   7.408   3.762  1.00 20.00     0.248 C 
HETATM    4 CL8  UNL     1     -31.525   7.423   3.782  1.00 20.00    -0.100 Cl
HETATM    5 CL9  UNL     1     -33.951   9.050   3.670  1.00 20.00    -0.100 Cl
ENDBRANCH   1   3
BRANCH   1   6
HETATM    6  C6  UNL     1     -34.631   5.497   4.971  1.00 20.00     0.012 C 
HETATM    7  C2  UNL     1     -33.829   4.387   4.268  1.00 20.00     0.022 C 
HETATM    8  C3  UNL     1     -34.990   5.017   6.384  1.00 20.00     0.022 C 
HETATM    9  C4  UNL     1     -35.902   5.770   4.155  1.00 20.00     0.022 C 
ENDBRANCH   1   6
TORSDOF 2
