REMARK  1 active torsions:
REMARK  status: ('A' for Active; 'I' for Inactive)
REMARK    1  A    between atoms: C4_4  and  C7_7 
ROOT
HETATM    1  C1  UNL     1     -34.508   6.128   6.603  1.00 20.00     0.135 A 
HETATM    2  C2  UNL     1     -34.105   7.287   5.977  1.00 20.00     0.136 A 
HETATM    3  C3  UNL     1     -34.062   4.944   4.699  1.00 20.00     0.143 A 
HETATM    4  C4  UNL     1     -33.660   6.103   4.072  1.00 20.00     0.055 A 
HETATM    5  N8  UNL     1     -34.493   4.936   5.975  1.00 20.00    -0.270 NA
HETATM    6  N9  UNL     1     -33.674   7.295   4.700  1.00 20.00    -0.262 NA
ENDROOT
BRANCH   4   7
HETATM    7  C7  UNL     1     -33.181   6.073   2.632  1.00 20.00     0.031 C 
HETATM    8  C5  UNL     1     -32.576   4.715   2.268  1.00 20.00     0.016 C 
HETATM    9  C6  UNL     1     -32.192   7.206   2.345  1.00 20.00     0.016 C 
ENDBRANCH   4   7
TORSDOF 1
