REMARK  2 active torsions:
REMARK  status: ('A' for Active; 'I' for Inactive)
REMARK    1  A    between atoms: C1_1  and  C2_2 
REMARK    2  A    between atoms: C1_1  and  C3_3 
ROOT
HETATM    1  C1  UNL     1     -33.933   6.277   4.300  1.00 20.00     0.173 C 
HETATM    2  O4  UNL     1     -33.982   5.337   3.506  1.00 20.00    -0.294 OA
ENDROOT
BRANCH   1   3
HETATM    3  C2  UNL     1     -33.053   7.490   4.081  1.00 20.00     0.195 C 
HETATM    4 CL5  UNL     1     -32.175   7.362   2.550  1.00 20.00    -0.122 Cl
ENDBRANCH   1   3
BRANCH   1   5
HETATM    5  C3  UNL     1     -34.727   6.270   5.587  1.00 20.00     0.248 C 
HETATM    6 CL6  UNL     1     -34.359   7.764   6.457  1.00 20.00    -0.100 Cl
HETATM    7 CL7  UNL     1     -34.286   4.843   6.535  1.00 20.00    -0.100 Cl
ENDBRANCH   1   5
TORSDOF 2
