REMARK  2 active torsions:
REMARK  status: ('A' for Active; 'I' for Inactive)
REMARK    1  A    between atoms: C1_1  and  C2_2 
REMARK    2  A    between atoms: C2_2  and  C3_3 
ROOT
HETATM    1  C2  UNL     1     -33.270   6.127   3.959  1.00 20.00     0.203 C 
HETATM    2 CL8  UNL     1     -33.256   5.152   2.456  1.00 20.00    -0.115 Cl
ENDROOT
BRANCH   1   3
HETATM    3  C1  UNL     1     -33.451   7.610   3.639  1.00 20.00     0.143 C 
HETATM    4 CL7  UNL     1     -32.171   8.219   2.558  1.00 20.00    -0.129 Cl
ENDBRANCH   1   3
BRANCH   1   5
HETATM    5  C3  UNL     1     -34.381   5.620   4.862  1.00 20.00     0.405 C 
HETATM    6  F4  UNL     1     -34.393   6.259   6.052  1.00 20.00    -0.169 F 
HETATM    7  F5  UNL     1     -35.590   5.806   4.286  1.00 20.00    -0.169 F 
HETATM    8  F6  UNL     1     -34.251   4.297   5.102  1.00 20.00    -0.169 F 
ENDBRANCH   1   5
TORSDOF 2
