REMARK  0 active torsions:
REMARK  status: ('A' for Active; 'I' for Inactive)
ROOT
HETATM    1  C1  UNL     1     -32.474   7.102   2.797  1.00 20.00    -0.089 C 
HETATM    2  C2  UNL     1     -33.896   5.942   5.020  1.00 20.00    -0.089 C 
HETATM    3  C3  UNL     1     -32.313   7.896   1.729  1.00 20.00     0.014 C 
HETATM    4  C4  UNL     1     -34.056   5.148   6.088  1.00 20.00     0.014 C 
HETATM    5  C5  UNL     1     -32.159   7.555   4.202  1.00 20.00     0.037 C 
HETATM    6  C6  UNL     1     -33.008   5.693   2.688  1.00 20.00     0.037 C 
HETATM    7  C7  UNL     1     -33.363   7.351   5.128  1.00 20.00     0.037 C 
HETATM    8  C8  UNL     1     -34.211   5.488   3.615  1.00 20.00     0.037 C 
ENDROOT
TORSDOF 0
