REMARK  0 active torsions:
REMARK  status: ('A' for Active; 'I' for Inactive)
ROOT
HETATM    1  C1  UNL     1     -35.009   6.457   6.276  1.00 20.00     0.002 C 
HETATM    2  C2  UNL     1     -33.711   5.816   6.770  1.00 20.00     0.002 C 
HETATM    3  C3  UNL     1     -35.005   6.309   4.753  1.00 20.00     0.032 C 
HETATM    4  C4  UNL     1     -32.980   5.315   5.523  1.00 20.00     0.032 C 
HETATM    5  C5  UNL     1     -31.997   6.396   2.143  1.00 20.00     0.086 C 
HETATM    6  C6  UNL     1     -32.327   7.815   2.551  1.00 20.00     0.086 C 
HETATM    7  C7  UNL     1     -33.529   6.167   4.375  1.00 20.00     0.056 C 
HETATM    8  S8  UNL     1     -33.326   5.338   2.764  1.00 20.00    -0.147 SA
HETATM    9  S9  UNL     1     -32.696   7.805   4.324  1.00 20.00    -0.147 SA
ENDROOT
TORSDOF 0
