REMARK  0 active torsions:
REMARK  status: ('A' for Active; 'I' for Inactive)
ROOT
HETATM    1  C1  UNL     1     -33.943   6.639   5.973  1.00 20.00     0.051 C 
HETATM    2  C2  UNL     1     -34.260   4.227   5.341  1.00 20.00     0.051 C 
HETATM    3  C3  UNL     1     -33.325   5.853   3.667  1.00 20.00     0.051 C 
HETATM    4  C4  UNL     1     -34.270   5.668   4.847  1.00 20.00     0.092 C 
HETATM    5  F5  UNL     1     -35.534   5.948   4.413  1.00 20.00    -0.244 F 
ENDROOT
TORSDOF 0
