REMARK  3 active torsions:
REMARK  status: ('A' for Active; 'I' for Inactive)
REMARK    1  A    between atoms: C2_2  and  C7_7 
REMARK    2  A    between atoms: C5_5  and  C6_6 
REMARK    3  A    between atoms: C6_6  and  C7_7 
ROOT
HETATM    1  C4  UNL     1     -34.324   7.594   6.531  1.00 20.00     0.012 C 
HETATM    2  C7  UNL     1     -33.521   6.728   5.560  1.00 20.00     0.012 C 
ENDROOT
BRANCH   2   3
HETATM    3  C2  UNL     1     -34.106   5.314   5.524  1.00 20.00     0.149 A 
HETATM    4  C1  UNL     1     -35.288   4.982   4.656  1.00 20.00     0.200 A 
HETATM    5  O8  UNL     1     -33.947   4.636   4.274  1.00 20.00    -0.381 OA
ENDBRANCH   2   3
BRANCH   2   6
HETATM    6  C6  UNL     1     -33.489   7.316   4.136  1.00 20.00     0.006 C 
BRANCH   6   7
HETATM    7  C5  UNL     1     -32.345   6.773   3.278  1.00 20.00    -0.004 C 
HETATM    8  C3  UNL     1     -32.401   7.330   1.863  1.00 20.00     0.005 C 
ENDBRANCH   6   7
ENDBRANCH   2   6
TORSDOF 3
