REMARK  2 active torsions:
REMARK  status: ('A' for Active; 'I' for Inactive)
REMARK    1  A    between atoms: C1_1  and  C3_3 
REMARK    2  A    between atoms: C2_2  and  C3_3 
ROOT
HETATM    1  C3  UNL     1     -33.795   6.602   4.240  1.00 20.00     0.187 C 
HETATM    2 BR7  UNL     1     -33.568   4.743   3.667  1.00 20.00    -0.077 Br
ENDROOT
BRANCH   1   3
HETATM    3  C1  UNL     1     -34.358   6.524   5.661  1.00 20.00     0.190 C 
HETATM    4  O4  UNL     1     -34.137   7.545   6.375  1.00 20.00    -0.647 OA
HETATM    5  O5  UNL     1     -34.959   5.456   5.965  1.00 20.00    -0.647 OA
ENDBRANCH   1   3
BRANCH   1   6
HETATM    6  C2  UNL     1     -32.483   7.340   4.064  1.00 20.00     0.248 C 
HETATM    7  F6  UNL     1     -32.096   7.313   2.760  1.00 20.00    -0.254 F 
ENDBRANCH   1   6
TORSDOF 2
