REMARK  0 active torsions:
REMARK  status: ('A' for Active; 'I' for Inactive)
ROOT
HETATM    1  C1  UNL     1     -34.576   4.833   6.244  1.00 20.00     0.000 C 
HETATM    2  C2  UNL     1     -34.709   6.249   6.797  1.00 20.00     0.000 C 
HETATM    3  C3  UNL     1     -34.613   4.717   4.720  1.00 20.00     0.004 C 
HETATM    4  C4  UNL     1     -33.703   7.263   6.252  1.00 20.00     0.004 C 
HETATM    5  C5  UNL     1     -33.335   5.241   4.059  1.00 20.00     0.049 C 
HETATM    6  C6  UNL     1     -33.990   7.650   4.802  1.00 20.00     0.049 C 
HETATM    7  C7  UNL     1     -33.518   7.935   1.721  1.00 20.00     0.180 C 
HETATM    8  C8  UNL     1     -32.023   7.687   1.677  1.00 20.00     0.103 C 
HETATM    9  C9  UNL     1     -33.357   6.742   3.733  1.00 20.00     0.108 C 
HETATM   10  O10 UNL     1     -34.118   6.905   2.514  1.00 20.00    -0.369 OA
HETATM   11  S11 UNL     1     -31.636   7.282   3.386  1.00 20.00    -0.129 SA
ENDROOT
TORSDOF 0
