REMARK  3 active torsions:
REMARK  status: ('A' for Active; 'I' for Inactive)
REMARK    1  A    between atoms: C5_5  and  C8_8 
REMARK    2  A    between atoms: C6_6  and  O10_10 
REMARK    3  A    between atoms: C8_8  and  C9_9 
ROOT
HETATM    1  C1  UNL     1     -33.547   5.896   2.743  1.00 20.00     0.007 C 
HETATM    2  C2  UNL     1     -32.971   7.636   4.486  1.00 20.00     0.007 C 
HETATM    3  C3  UNL     1     -34.137   5.005   3.833  1.00 20.00     0.032 C 
HETATM    4  C4  UNL     1     -33.562   6.740   5.571  1.00 20.00     0.032 C 
HETATM    5  C5  UNL     1     -32.450   6.816   3.297  1.00 20.00    -0.014 C 
HETATM    6  C6  UNL     1     -34.650   5.825   5.015  1.00 20.00     0.118 C 
ENDROOT
BRANCH   5   7
HETATM    7  C8  UNL     1     -31.914   7.735   2.202  1.00 20.00     0.004 C 
BRANCH   7   8
HETATM    8  C9  UNL     1     -33.027   8.587   1.602  1.00 20.00    -0.004 C 
HETATM    9  C7  UNL     1     -32.489   9.521   0.530  1.00 20.00     0.005 C 
ENDBRANCH   7   8
ENDBRANCH   5   7
BRANCH   6  10
HETATM   10  O10 UNL     1     -35.082   4.951   6.052  1.00 20.00    -0.396 OA
HETATM   11  H28 UNL     1     -35.791   4.405   5.678  1.00 20.00     0.210 HD
ENDBRANCH   6  10
TORSDOF 3
