REMARK  0 active torsions:
REMARK  status: ('A' for Active; 'I' for Inactive)
ROOT
HETATM    1  C1  UNL     1     -33.073   6.300   3.045  1.00 20.00    -0.077 C 
HETATM    2  C2  UNL     1     -33.905   6.336   4.096  1.00 20.00    -0.077 C 
HETATM    3  C3  UNL     1     -33.064   5.159   2.061  1.00 20.00     0.034 C 
HETATM    4  C4  UNL     1     -32.096   7.407   2.749  1.00 20.00     0.034 C 
HETATM    5  C5  UNL     1     -33.914   7.477   5.081  1.00 20.00     0.034 C 
HETATM    6  C6  UNL     1     -34.882   5.229   4.393  1.00 20.00     0.034 C 
HETATM    7  C7  UNL     1     -33.232   5.676   0.631  1.00 20.00     0.004 C 
HETATM    8  C8  UNL     1     -32.268   7.912   1.315  1.00 20.00     0.004 C 
HETATM    9  C9  UNL     1     -33.747   6.960   6.510  1.00 20.00     0.004 C 
HETATM   10  C10 UNL     1     -34.710   4.723   5.826  1.00 20.00     0.004 C 
HETATM   11  C11 UNL     1     -32.216   6.770   0.299  1.00 20.00     0.001 C 
HETATM   12  C12 UNL     1     -34.762   5.865   6.842  1.00 20.00     0.001 C 
ENDROOT
TORSDOF 0
