REMARK  1 active torsions:
REMARK  status: ('A' for Active; 'I' for Inactive)
REMARK    1  A    between atoms: C1_1  and  C7_7 
ROOT
HETATM    1  C2  UNL     1     -34.483   6.108   6.874  1.00 20.00     0.000 C 
HETATM    2  C3  UNL     1     -33.901   7.445   6.431  1.00 20.00     0.001 C 
HETATM    3  C4  UNL     1     -35.234   5.422   5.738  1.00 20.00     0.001 C 
HETATM    4  C5  UNL     1     -33.007   7.294   5.199  1.00 20.00     0.018 C 
HETATM    5  C6  UNL     1     -34.354   5.250   4.499  1.00 20.00     0.018 C 
HETATM    6  C7  UNL     1     -33.701   6.560   4.049  1.00 20.00     0.032 C 
HETATM    7  C8  UNL     1     -34.757   7.470   3.424  1.00 20.00     0.025 C 
ENDROOT
BRANCH   6   8
HETATM    8  C1  UNL     1     -32.736   6.321   2.887  1.00 20.00     0.227 C 
HETATM    9  O9  UNL     1     -32.470   5.190   2.491  1.00 20.00    -0.279 OA
HETATM   10 CL10 UNL     1     -32.106   7.807   2.244  1.00 20.00    -0.043 Cl
ENDBRANCH   6   8
TORSDOF 1
