REMARK  3 active torsions:
REMARK  status: ('A' for Active; 'I' for Inactive)
REMARK    1  A    between atoms: C3_3  and  C4_4 
REMARK    2  A    between atoms: C5_5  and  C8_8 
REMARK    3  A    between atoms: C6_6  and  C8_8 
ROOT
HETATM    1  C4  UNL     1     -32.435   7.085   2.470  1.00 20.00    -0.004 C 
HETATM    2  C6  UNL     1     -33.142   7.483   3.539  1.00 20.00    -0.019 C 
ENDROOT
BRANCH   2   3
HETATM    3  C8  UNL     1     -33.209   6.705   4.832  1.00 20.00     0.026 C 
HETATM    4  C7  UNL     1     -33.351   7.665   6.015  1.00 20.00     0.018 C 
BRANCH   3   5
HETATM    5  C5  UNL     1     -34.365   5.736   4.809  1.00 20.00    -0.029 C 
HETATM    6  C2  UNL     1     -34.273   4.474   4.372  1.00 20.00     0.007 C 
ENDBRANCH   3   5
ENDBRANCH   2   3
BRANCH   1   7
HETATM    7  C3  UNL     1     -32.377   7.837   1.238  1.00 20.00    -0.011 C 
HETATM    8  C1  UNL     1     -32.291   9.171   1.195  1.00 20.00     0.011 C 
ENDBRANCH   1   7
TORSDOF 3
