REMARK  1 active torsions:
REMARK  status: ('A' for Active; 'I' for Inactive)
REMARK    1  A    between atoms: C1_1  and  C3_3 
ROOT
HETATM    1  C2  UNL     1     -34.876   5.640   3.814  1.00 20.00     0.067 A 
HETATM    2  C3  UNL     1     -33.971   5.723   5.028  1.00 20.00     0.083 A 
HETATM    3  C4  UNL     1     -33.437   5.219   3.687  1.00 20.00     0.132 A 
HETATM    4  C5  UNL     1     -34.234   4.745   6.148  1.00 20.00     0.030 C 
HETATM    5 CL8  UNL     1     -32.381   6.246   2.708  1.00 20.00    -0.100 Cl
HETATM    6 CL9  UNL     1     -33.099   3.503   3.452  1.00 20.00    -0.100 Cl
ENDROOT
BRANCH   2   7
HETATM    7  C1  UNL     1     -33.571   7.065   5.441  1.00 20.00     0.184 C 
HETATM    8  O6  UNL     1     -32.507   7.496   4.916  1.00 20.00    -0.647 OA
HETATM    9  O7  UNL     1     -34.346   7.616   6.273  1.00 20.00    -0.647 OA
ENDBRANCH   2   7
TORSDOF 1
