REMARK  3 active torsions:
REMARK  status: ('A' for Active; 'I' for Inactive)
REMARK    1  A    between atoms: C7_7  and  C8_8 
REMARK    2  A    between atoms: C7_7  and  C9_9 
REMARK    3  A    between atoms: C9_9  and  S10_10 
ROOT
HETATM    1  C7  UNL     1     -33.333   6.815   4.097  1.00 20.00     0.028 C 
ENDROOT
BRANCH   1   2
HETATM    2  C8  UNL     1     -34.345   6.250   5.147  1.00 20.00    -0.050 C 
HETATM    3  C1  UNL     1     -33.982   6.578   6.600  1.00 20.00     0.014 C 
HETATM    4  C2  UNL     1     -35.717   6.906   4.850  1.00 20.00     0.014 C 
HETATM    5  C3  UNL     1     -34.537   4.729   5.001  1.00 20.00     0.014 C 
ENDBRANCH   1   2
BRANCH   1   6
HETATM    6  C9  UNL     1     -33.140   6.203   2.678  1.00 20.00     0.001 C 
HETATM    7  C4  UNL     1     -34.520   6.142   1.990  1.00 20.00     0.026 C 
HETATM    8  C5  UNL     1     -32.535   4.799   2.667  1.00 20.00     0.026 C 
BRANCH   6   9
HETATM    9  S10 UNL     1     -32.097   7.284   1.612  1.00 20.00    -0.164 SA
HETATM   10  C6  UNL     1     -33.108   8.773   1.723  1.00 20.00     0.090 C 
ENDBRANCH   6   9
ENDBRANCH   1   6
TORSDOF 3
