REMARK  2 active torsions:
REMARK  status: ('A' for Active; 'I' for Inactive)
REMARK    1  A    between atoms: C6_6  and  C7_7 
REMARK    2  A    between atoms: C6_6  and  C8_8 
ROOT
HETATM    1  C1  UNL     1     -35.540   6.135   4.751  1.00 20.00     0.068 C 
HETATM    2  C4  UNL     1     -34.458   6.832   6.824  1.00 20.00     0.031 C 
HETATM    3  C5  UNL     1     -34.046   4.547   5.903  1.00 20.00     0.031 C 
HETATM    4  C8  UNL     1     -34.283   6.016   5.525  1.00 20.00     0.042 C 
HETATM    5  N9  UNL     1     -36.530   6.232   4.154  1.00 20.00    -0.196 NA
ENDROOT
BRANCH   4   6
HETATM    6  C6  UNL     1     -33.086   6.616   4.734  1.00 20.00     0.027 C 
BRANCH   6   7
HETATM    7  C7  UNL     1     -33.020   6.380   3.206  1.00 20.00    -0.021 C 
HETATM    8  C2  UNL     1     -32.961   4.872   2.930  1.00 20.00     0.009 C 
HETATM    9  C3  UNL     1     -31.831   7.060   2.526  1.00 20.00     0.009 C 
ENDBRANCH   6   7
ENDBRANCH   4   6
TORSDOF 2
