REMARK  2 active torsions:
REMARK  status: ('A' for Active; 'I' for Inactive)
REMARK    1  A    between atoms: C5_5  and  C7_7 
REMARK    2  A    between atoms: C6_6  and  O8_8 
ROOT
HETATM    1  C1  UNL     1     -32.948   4.673   5.836  1.00 20.00     0.003 C 
HETATM    2  C2  UNL     1     -33.922   4.333   4.710  1.00 20.00     0.014 C 
HETATM    3  C3  UNL     1     -33.455   5.841   6.680  1.00 20.00     0.032 C 
HETATM    4  C4  UNL     1     -34.698   6.746   4.663  1.00 20.00     0.045 C 
HETATM    5  C5  UNL     1     -34.255   5.538   3.819  1.00 20.00     0.096 C 
HETATM    6  C6  UNL     1     -33.770   7.074   5.836  1.00 20.00     0.118 C 
ENDROOT
BRANCH   5   7
HETATM    7  C7  UNL     1     -33.102   5.874   2.869  1.00 20.00     0.391 C 
HETATM    8  F9  UNL     1     -33.453   6.884   2.060  1.00 20.00    -0.171 F 
HETATM    9  F10 UNL     1     -32.019   6.237   3.573  1.00 20.00    -0.171 F 
HETATM   10  F11 UNL     1     -32.796   4.804   2.121  1.00 20.00    -0.171 F 
ENDBRANCH   5   7
BRANCH   6  11
HETATM   11  O8  UNL     1     -32.548   7.637   5.367  1.00 20.00    -0.396 OA
HETATM   12  H22 UNL     1     -32.032   7.874   6.153  1.00 20.00     0.210 HD
ENDBRANCH   6  11
TORSDOF 2
