REMARK  1 active torsions:
REMARK  status: ('A' for Active; 'I' for Inactive)
REMARK    1  A    between atoms: C6_6  and  C8_8 
ROOT
HETATM    1  C1  UNL     1     -33.982   5.094   6.565  1.00 20.00     0.000 C 
HETATM    2  C2  UNL     1     -34.107   4.631   5.117  1.00 20.00     0.002 C 
HETATM    3  C3  UNL     1     -34.203   6.596   6.701  1.00 20.00     0.002 C 
HETATM    4  C4  UNL     1     -33.179   5.420   4.191  1.00 20.00     0.026 C 
HETATM    5  C5  UNL     1     -33.276   7.390   5.779  1.00 20.00     0.026 C 
HETATM    6  C6  UNL     1     -33.353   6.946   4.306  1.00 20.00     0.037 C 
HETATM    7 CL9  UNL     1     -34.957   7.417   3.624  1.00 20.00    -0.119 Cl
ENDROOT
BRANCH   6   8
HETATM    8  C8  UNL     1     -32.278   7.663   3.483  1.00 20.00     0.021 C 
HETATM    9  C7  UNL     1     -32.359   7.295   2.039  1.00 20.00     0.007 C 
ENDBRANCH   6   8
TORSDOF 1
