REMARK  0 active torsions:
REMARK  status: ('A' for Active; 'I' for Inactive)
ROOT
HETATM    1  C1  UNL     1     -32.950   5.398   2.753  1.00 20.00     0.132 C 
HETATM    2  C2  UNL     1     -33.193   6.905   4.990  1.00 20.00     0.064 C 
HETATM    3  C3  UNL     1     -32.904   7.620   3.678  1.00 20.00     0.128 C 
HETATM    4  C4  UNL     1     -34.173   5.750   4.756  1.00 20.00     0.051 C 
HETATM    5  C5  UNL     1     -32.443   4.575   1.612  1.00 20.00     0.099 C 
HETATM    6  C6  UNL     1     -31.791   8.647   3.835  1.00 20.00     0.040 C 
HETATM    7  C7  UNL     1     -35.585   6.241   4.409  1.00 20.00     0.040 C 
HETATM    8  C8  UNL     1     -34.244   4.879   6.018  1.00 20.00     0.040 C 
HETATM    9  N9  UNL     1     -33.706   4.892   3.663  1.00 20.00    -0.261 NA
HETATM   10  O10 UNL     1     -32.491   6.673   2.675  1.00 20.00    -0.333 OA
ENDROOT
TORSDOF 0
