REMARK  4 active torsions:
REMARK  status: ('A' for Active; 'I' for Inactive)
REMARK    1  A    between atoms: C3_3  and  C4_4 
REMARK    2  A    between atoms: C4_4  and  C5_5 
REMARK    3  A    between atoms: C5_5  and  C6_6 
REMARK    4  A    between atoms: C6_6  and  C7_7 
ROOT
HETATM    1  C1  UNL     1     -32.502   8.469   0.631  1.00 20.00    -0.176 C 
HETATM    2  C2  UNL     1     -32.735   9.314  -0.326  1.00 20.00     0.091 C 
HETATM    3  C3  UNL     1     -32.268   7.621   1.591  1.00 20.00     0.066 C 
ENDROOT
BRANCH   3   4
HETATM    4  C4  UNL     1     -32.541   7.875   3.043  1.00 20.00     0.017 C 
BRANCH   4   5
HETATM    5  C5  UNL     1     -33.574   6.891   3.596  1.00 20.00     0.002 C 
BRANCH   5   6
HETATM    6  C6  UNL     1     -33.827   7.130   5.086  1.00 20.00     0.015 C 
BRANCH   6   7
HETATM    7  C7  UNL     1     -34.830   6.126   5.640  1.00 20.00     0.114 C 
HETATM    8 CL8  UNL     1     -34.214   4.467   5.455  1.00 20.00    -0.130 Cl
ENDBRANCH   6   7
ENDBRANCH   5   6
ENDBRANCH   4   5
ENDBRANCH   3   4
TORSDOF 4
