REMARK  5 active torsions:
REMARK  status: ('A' for Active; 'I' for Inactive)
REMARK    1  A    between atoms: C1_1  and  C8_8 
REMARK    2  A    between atoms: C4_4  and  C6_6 
REMARK    3  A    between atoms: C5_5  and  C8_8 
REMARK    4  A    between atoms: C6_6  and  C7_7 
REMARK    5  A    between atoms: C7_7  and  C8_8 
ROOT
HETATM    1  C8  UNL     1     -33.597   7.362   4.912  1.00 20.00     0.072 C 
ENDROOT
BRANCH   1   2
HETATM    2  C1  UNL     1     -34.445   6.359   4.129  1.00 20.00     0.223 C 
HETATM    3  O9  UNL     1     -35.519   6.671   3.623  1.00 20.00    -0.279 OA
HETATM    4 CL10 UNL     1     -33.716   4.779   4.054  1.00 20.00    -0.043 Cl
ENDBRANCH   1   2
BRANCH   1   5
HETATM    5  C5  UNL     1     -33.419   6.873   6.360  1.00 20.00     0.009 C 
HETATM    6  C3  UNL     1     -34.742   6.724   7.100  1.00 20.00     0.006 C 
ENDBRANCH   1   5
BRANCH   1   7
HETATM    7  C7  UNL     1     -32.224   7.524   4.232  1.00 20.00     0.013 C 
BRANCH   7   8
HETATM    8  C6  UNL     1     -32.335   8.090   2.811  1.00 20.00     0.000 C 
BRANCH   8   9
HETATM    9  C4  UNL     1     -33.046   9.445   2.755  1.00 20.00    -0.005 C 
HETATM   10  C2  UNL     1     -33.139  10.024   1.351  1.00 20.00     0.005 C 
ENDBRANCH   8   9
ENDBRANCH   7   8
ENDBRANCH   1   7
TORSDOF 5
