REMARK  1 active torsions:
REMARK  status: ('A' for Active; 'I' for Inactive)
REMARK    1  A    between atoms: C2_2  and  C3_3 
ROOT
HETATM    1  C3  UNL     1     -33.671   6.440   4.669  1.00 20.00     0.101 C 
HETATM    2  C4  UNL     1     -32.800   6.755   3.699  1.00 20.00     0.288 C 
HETATM    3  F5  UNL     1     -32.762   6.043   2.551  1.00 20.00    -0.171 F 
HETATM    4  F6  UNL     1     -31.947   7.792   3.851  1.00 20.00    -0.171 F 
HETATM    5 CL7  UNL     1     -34.743   5.096   4.415  1.00 20.00    -0.079 Cl
ENDROOT
BRANCH   1   6
HETATM    6  C2  UNL     1     -33.739   7.184   5.914  1.00 20.00     0.019 C 
HETATM    7  C1  UNL     1     -34.562   6.962   6.947  1.00 20.00     0.013 C 
ENDBRANCH   1   6
TORSDOF 1
