REMARK  2 active torsions:
REMARK  status: ('A' for Active; 'I' for Inactive)
REMARK    1  A    between atoms: C3_3  and  C4_4 
REMARK    2  A    between atoms: C4_4  and  C5_5 
ROOT
HETATM    1  C1  UNL     1     -33.125   6.630   3.378  1.00 20.00     0.012 C 
HETATM    2  C2  UNL     1     -33.841   5.832   3.917  1.00 20.00    -0.117 C 
HETATM    3  C3  UNL     1     -34.721   4.852   4.571  1.00 20.00     0.094 C 
ENDROOT
BRANCH   3   4
HETATM    4  C4  UNL     1     -34.529   4.822   6.090  1.00 20.00     0.027 C 
BRANCH   4   5
HETATM    5  C5  UNL     1     -34.853   6.130   6.811  1.00 20.00     0.115 C 
HETATM    6 CL6  UNL     1     -33.859   7.483   6.224  1.00 20.00    -0.130 Cl
ENDBRANCH   4   5
ENDBRANCH   3   4
TORSDOF 2
