REMARK  0 active torsions:
REMARK  status: ('A' for Active; 'I' for Inactive)
ROOT
HETATM    1  C1  UNL     1     -32.905   7.298   3.568  1.00 20.00     0.288 C 
HETATM    2  C2  UNL     1     -33.931   7.457   4.713  1.00 20.00     0.288 C 
HETATM    3  C3  UNL     1     -33.221   5.785   3.583  1.00 20.00     0.343 C 
HETATM    4  C4  UNL     1     -34.584   6.142   4.225  1.00 20.00     0.343 C 
HETATM    5  F5  UNL     1     -31.631   7.637   3.866  1.00 20.00    -0.240 F 
HETATM    6  F6  UNL     1     -33.412   7.414   5.963  1.00 20.00    -0.240 F 
HETATM    7  F7  UNL     1     -32.401   5.032   4.352  1.00 20.00    -0.196 F 
HETATM    8  F8  UNL     1     -33.283   5.186   2.373  1.00 20.00    -0.196 F 
HETATM    9  F9  UNL     1     -35.011   5.305   5.195  1.00 20.00    -0.196 F 
HETATM   10  F10 UNL     1     -35.610   6.293   3.356  1.00 20.00    -0.196 F 
ENDROOT
TORSDOF 0
