REMARK  2 active torsions:
REMARK  status: ('A' for Active; 'I' for Inactive)
REMARK    1  A    between atoms: C1_1  and  C5_5 
REMARK    2  A    between atoms: C5_5  and  C6_6 
ROOT
HETATM    1  C5  UNL     1     -32.713   6.540   4.924  1.00 20.00     0.104 C 
ENDROOT
BRANCH   1   2
HETATM    2  C1  UNL     1     -32.780   6.533   3.405  1.00 20.00     0.219 C 
HETATM    3  O7  UNL     1     -32.844   7.577   2.760  1.00 20.00    -0.280 OA
HETATM    4 CL8  UNL     1     -32.752   4.929   2.730  1.00 20.00    -0.044 Cl
ENDBRANCH   1   2
BRANCH   1   5
HETATM    5  C6  UNL     1     -34.082   6.438   5.637  1.00 20.00    -0.044 C 
HETATM    6  C2  UNL     1     -34.333   7.659   6.537  1.00 20.00     0.015 C 
HETATM    7  C3  UNL     1     -35.180   6.393   4.557  1.00 20.00     0.015 C 
HETATM    8  C4  UNL     1     -34.180   5.156   6.481  1.00 20.00     0.015 C 
ENDBRANCH   1   5
TORSDOF 2
