REMARK  1 active torsions:
REMARK  status: ('A' for Active; 'I' for Inactive)
REMARK    1  A    between atoms: C3_3  and  C5_5 
ROOT
HETATM    1  C1  UNL     1     -34.224   6.838   6.040  1.00 20.00     0.065 A 
HETATM    2  C2  UNL     1     -34.488   4.614   5.022  1.00 20.00     0.069 A 
HETATM    3  C3  UNL     1     -33.678   6.778   4.776  1.00 20.00     0.026 A 
HETATM    4  C4  UNL     1     -33.831   5.490   4.187  1.00 20.00     0.031 A 
HETATM    5  S7  UNL     1     -34.918   5.345   6.510  1.00 20.00    -0.111 SA
HETATM    6 BR8  UNL     1     -33.201   5.048   2.465  1.00 20.00    -0.050 Br
ENDROOT
BRANCH   3   7
HETATM    7  C5  UNL     1     -33.040   7.924   4.178  1.00 20.00     0.271 C 
HETATM    8  O6  UNL     1     -31.852   7.939   3.819  1.00 20.00    -0.301 OA
ENDBRANCH   3   7
TORSDOF 1
