REMARK  3 active torsions:
REMARK  status: ('A' for Active; 'I' for Inactive)
REMARK    1  A    between atoms: C2_2  and  C3_3 
REMARK    2  A    between atoms: C2_2  and  C4_4 
REMARK    3  A    between atoms: C3_3  and  O5_5 
ROOT
HETATM    1  C2  UNL     1     -33.474   6.595   4.989  1.00 20.00     0.379 C 
HETATM    2  F6  UNL     1     -33.480   7.745   5.721  1.00 20.00    -0.231 F 
ENDROOT
BRANCH   1   3
HETATM    3  C3  UNL     1     -34.828   5.931   5.155  1.00 20.00     0.393 C 
HETATM    4  F7  UNL     1     -34.832   4.749   4.489  1.00 20.00    -0.172 F 
HETATM    5  F8  UNL     1     -35.800   6.708   4.618  1.00 20.00    -0.172 F 
BRANCH   3   6
HETATM    6  O5  UNL     1     -35.120   5.688   6.525  1.00 20.00    -0.329 OA
HETATM    7  C1  UNL     1     -34.166   4.838   7.145  1.00 20.00     0.208 C 
ENDBRANCH   3   6
ENDBRANCH   1   3
BRANCH   1   8
HETATM    8  C4  UNL     1     -33.139   6.958   3.560  1.00 20.00     0.426 C 
HETATM    9  F9  UNL     1     -33.044   5.844   2.800  1.00 20.00    -0.168 F 
HETATM   10  F10 UNL     1     -31.957   7.605   3.477  1.00 20.00    -0.168 F 
HETATM   11  F11 UNL     1     -34.086   7.749   3.016  1.00 20.00    -0.168 F 
ENDBRANCH   1   8
TORSDOF 3
