REMARK  2 active torsions:
REMARK  status: ('A' for Active; 'I' for Inactive)
REMARK    1  A    between atoms: C1_1  and  C5_5 
REMARK    2  A    between atoms: C4_4  and  C5_5 
ROOT
HETATM    1  C1  UNL     1     -34.115   6.512   5.421  1.00 20.00     0.164 C 
HETATM    2  C2  UNL     1     -34.234   5.189   5.565  1.00 20.00     0.301 C 
HETATM    3  F7  UNL     1     -34.233   7.281   6.529  1.00 20.00    -0.205 F 
HETATM    4  F8  UNL     1     -34.458   4.668   6.790  1.00 20.00    -0.170 F 
HETATM    5  F9  UNL     1     -34.131   4.367   4.499  1.00 20.00    -0.170 F 
ENDROOT
BRANCH   1   6
HETATM    6  C5  UNL     1     -33.873   7.204   4.112  1.00 20.00     0.110 C 
BRANCH   6   7
HETATM    7  C4  UNL     1     -32.572   6.848   3.457  1.00 20.00     0.151 A 
HETATM    8  C3  UNL     1     -32.294   7.220   2.027  1.00 20.00     0.200 A 
HETATM    9  O6  UNL     1     -32.681   5.888   2.401  1.00 20.00    -0.381 OA
ENDBRANCH   6   7
ENDBRANCH   1   6
TORSDOF 2
