REMARK  5 active torsions:
REMARK  status: ('A' for Active; 'I' for Inactive)
REMARK    1  A    between atoms: C1_1  and  C2_2 
REMARK    2  A    between atoms: C1_1  and  C3_3 
REMARK    3  A    between atoms: C2_2  and  P11_11 
REMARK    4  A    between atoms: C8_8  and  P11_11 
REMARK    5  A    between atoms: C9_9  and  P11_11 
ROOT
HETATM    1  O10 UNL     1     -33.088   7.193   5.436  1.00 20.00    -0.317 OA
HETATM    2  P11 UNL     1     -33.627   6.632   4.146  1.00 20.00     0.105 P 
ENDROOT
BRANCH   2   3
HETATM    3  C2  UNL     1     -34.274   7.623   2.874  1.00 20.00     0.096 C 
BRANCH   3   4
HETATM    4  C1  UNL     1     -33.448   8.155   2.025  1.00 20.00    -0.141 C 
BRANCH   4   5
HETATM    5  C3  UNL     1     -32.623   8.693   1.168  1.00 20.00     0.026 C 
HETATM    6  C4  UNL     1     -31.138   8.485   1.244  1.00 20.00     0.030 C 
HETATM    7  C5  UNL     1     -33.096   9.561   0.037  1.00 20.00     0.030 C 
ENDBRANCH   4   5
ENDBRANCH   3   4
ENDBRANCH   2   3
BRANCH   2   8
HETATM    8  C8  UNL     1     -34.940   5.451   4.468  1.00 20.00     0.073 C 
HETATM    9  C6  UNL     1     -34.580   4.472   5.565  1.00 20.00     0.013 C 
ENDBRANCH   2   8
BRANCH   2  10
HETATM   10  C9  UNL     1     -32.382   5.642   3.315  1.00 20.00     0.073 C 
HETATM   11  C7  UNL     1     -32.965   4.793   2.205  1.00 20.00     0.013 C 
ENDBRANCH   2  10
TORSDOF 5
