REMARK  0 active torsions:
REMARK  status: ('A' for Active; 'I' for Inactive)
REMARK       I    between atoms: C2_2  and  N4_4 
ROOT
HETATM    1  C1  UNL     1     -34.015   6.324   5.341  1.00 20.00     0.166 C 
HETATM    2  C2  UNL     1     -33.022   6.452   3.394  1.00 20.00     0.240 C 
HETATM    3  C3  UNL     1     -32.236   7.387   2.532  1.00 20.00     0.119 C 
HETATM    4  N4  UNL     1     -33.394   6.995   4.605  1.00 20.00    -0.200 NA
HETATM    5  O5  UNL     1     -33.263   5.324   2.975  1.00 20.00    -0.272 OA
HETATM    6  S6  UNL     1     -34.858   5.441   6.365  1.00 20.00    -0.055 SA
ENDROOT
TORSDOF 0
