REMARK  2 active torsions:
REMARK  status: ('A' for Active; 'I' for Inactive)
REMARK    1  A    between atoms: C1_1  and  C2_2 
REMARK    2  A    between atoms: C1_1  and  C3_3 
ROOT
HETATM    1  C1  UNL     1     -33.503   6.097   3.690  1.00 20.00     0.245 C 
HETATM    2  O4  UNL     1     -33.610   5.154   2.908  1.00 20.00    -0.287 OA
ENDROOT
BRANCH   1   3
HETATM    3  C2  UNL     1     -32.741   7.363   3.375  1.00 20.00     0.202 C 
HETATM    4 CL8  UNL     1     -32.056   7.293   1.745  1.00 20.00    -0.122 Cl
ENDBRANCH   1   3
BRANCH   1   5
HETATM    5  C3  UNL     1     -34.147   6.042   5.047  1.00 20.00     0.452 C 
HETATM    6  F5  UNL     1     -33.917   7.172   5.760  1.00 20.00    -0.163 F 
HETATM    7  F6  UNL     1     -33.676   5.005   5.785  1.00 20.00    -0.163 F 
HETATM    8  F7  UNL     1     -35.493   5.891   4.971  1.00 20.00    -0.163 F 
ENDBRANCH   1   5
TORSDOF 2
