REMARK  4 active torsions:
REMARK  status: ('A' for Active; 'I' for Inactive)
REMARK    1  A    between atoms: C1_1  and  C4_4 
REMARK    2  A    between atoms: C2_2  and  C8_8 
REMARK    3  A    between atoms: C8_8  and  C9_9 
REMARK    4  A    between atoms: C8_8  and  O10_10 
ROOT
HETATM    1  C8  UNL     1     -33.184   5.527   4.312  1.00 20.00     0.200 C 
ENDROOT
BRANCH   1   2
HETATM    2  C2  UNL     1     -32.925   6.411   3.166  1.00 20.00    -0.069 C 
HETATM    3  C1  UNL     1     -32.713   7.135   2.232  1.00 20.00    -0.070 C 
BRANCH   3   4
HETATM    4  C4  UNL     1     -32.462   7.996   1.122  1.00 20.00    -0.018 C 
HETATM    5  C3  UNL     1     -32.903   9.262   1.162  1.00 20.00     0.028 C 
HETATM    6  C5  UNL     1     -31.712   7.457  -0.060  1.00 20.00     0.057 C 
ENDBRANCH   3   4
ENDBRANCH   1   2
BRANCH   1   7
HETATM    7  C9  UNL     1     -33.945   6.222   5.461  1.00 20.00     0.018 C 
HETATM    8  C6  UNL     1     -33.233   7.475   5.985  1.00 20.00     0.013 C 
HETATM    9  C7  UNL     1     -34.250   5.261   6.613  1.00 20.00     0.013 C 
ENDBRANCH   1   7
BRANCH   1  10
HETATM   10  O10 UNL     1     -33.923   4.395   3.859  1.00 20.00    -0.383 OA
HETATM   11  H24 UNL     1     -33.373   3.956   3.193  1.00 20.00     0.211 HD
ENDBRANCH   1  10
TORSDOF 4
