REMARK  4 active torsions:
REMARK  status: ('A' for Active; 'I' for Inactive)
REMARK    1  A    between atoms: C1_1  and  C5_5 
REMARK    2  A    between atoms: C1_1  and  C8_8 
REMARK    3  A    between atoms: C6_6  and  C8_8 
REMARK    4  A    between atoms: C7_7  and  C8_8 
ROOT
HETATM    1  C8  UNL     1     -33.765   5.893   4.736  1.00 20.00     0.054 C 
ENDROOT
BRANCH   1   2
HETATM    2  C1  UNL     1     -33.192   6.144   3.338  1.00 20.00     0.130 C 
HETATM    3  O9  UNL     1     -33.059   5.234   2.519  1.00 20.00    -0.298 OA
BRANCH   2   4
HETATM    4  C5  UNL     1     -32.821   7.583   3.011  1.00 20.00     0.074 C 
HETATM    5  C2  UNL     1     -32.284   7.742   1.600  1.00 20.00     0.013 C 
ENDBRANCH   2   4
ENDBRANCH   1   2
BRANCH   1   6
HETATM    6  C6  UNL     1     -35.158   5.244   4.680  1.00 20.00     0.007 C 
HETATM    7  C3  UNL     1     -36.189   6.141   4.005  1.00 20.00     0.006 C 
ENDBRANCH   1   6
BRANCH   1   8
HETATM    8  C7  UNL     1     -33.752   7.196   5.555  1.00 20.00     0.007 C 
HETATM    9  C4  UNL     1     -34.211   7.052   7.001  1.00 20.00     0.006 C 
ENDBRANCH   1   8
TORSDOF 4
