REMARK  2 active torsions:
REMARK  status: ('A' for Active; 'I' for Inactive)
REMARK    1  A    between atoms: C2_2  and  C3_3 
REMARK    2  A    between atoms: C2_2  and  N4_4 
ROOT
HETATM    1  C1  UNL     1     -33.052   6.043   3.006  1.00 20.00     0.157 C 
HETATM    2  N4  UNL     1     -33.499   5.233   3.730  1.00 20.00    -0.274 NA
HETATM    3  S5  UNL     1     -32.422   7.125   2.021  1.00 20.00    -0.055 SA
ENDROOT
BRANCH   2   4
HETATM    4  C2  UNL     1     -34.842   5.529   4.232  1.00 20.00     0.165 C 
BRANCH   4   5
HETATM    5  C3  UNL     1     -34.819   5.615   5.748  1.00 20.00     0.136 C 
HETATM    6 CL6  UNL     1     -33.720   6.899   6.307  1.00 20.00    -0.129 Cl
ENDBRANCH   4   5
ENDBRANCH   2   4
TORSDOF 2
