REMARK  0 active torsions:
REMARK  status: ('A' for Active; 'I' for Inactive)
ROOT
HETATM    1  C1  UNL     1     -32.753   4.605   2.409  1.00 20.00     0.014 C 
HETATM    2  C2  UNL     1     -33.353   5.112   3.317  1.00 20.00    -0.091 C 
HETATM    3  C3  UNL     1     -34.801   6.876   6.959  1.00 20.00     0.000 C 
HETATM    4  C4  UNL     1     -34.216   7.825   5.913  1.00 20.00     0.003 C 
HETATM    5  C5  UNL     1     -34.058   5.550   7.009  1.00 20.00     0.003 C 
HETATM    6  C6  UNL     1     -33.501   7.111   4.760  1.00 20.00     0.039 C 
HETATM    7  C7  UNL     1     -34.073   4.808   5.667  1.00 20.00     0.039 C 
HETATM    8  C8  UNL     1     -34.090   5.733   4.432  1.00 20.00     0.099 C 
HETATM    9 CL9  UNL     1     -35.779   5.932   3.835  1.00 20.00    -0.105 Cl
ENDROOT
TORSDOF 0
