REMARK  2 active torsions:
REMARK  status: ('A' for Active; 'I' for Inactive)
REMARK    1  A    between atoms: C3_3  and  C7_7 
REMARK    2  A    between atoms: C7_7  and  C8_8 
ROOT
HETATM    1  C1  UNL     1     -33.229   5.496   3.382  1.00 20.00     0.263 C 
HETATM    2  C2  UNL     1     -33.676   7.222   4.901  1.00 20.00     0.046 C 
HETATM    3  C3  UNL     1     -32.835   6.923   3.675  1.00 20.00     0.088 C 
HETATM    4  C4  UNL     1     -33.718   5.874   5.587  1.00 20.00     0.128 C 
HETATM    5  C5  UNL     1     -34.931   5.694   6.480  1.00 20.00     0.040 C 
HETATM    6  O9  UNL     1     -33.080   4.912   2.320  1.00 20.00    -0.265 OA
HETATM    7  O10 UNL     1     -33.763   4.929   4.509  1.00 20.00    -0.316 OA
ENDROOT
BRANCH   3   8
HETATM    8  C7  UNL     1     -33.124   7.863   2.520  1.00 20.00     0.014 C 
BRANCH   8   9
HETATM    9  C8  UNL     1     -32.025   7.805   1.459  1.00 20.00    -0.004 C 
HETATM   10  C6  UNL     1     -32.328   8.726   0.288  1.00 20.00     0.005 C 
ENDBRANCH   8   9
ENDBRANCH   3   8
TORSDOF 2
