REMARK  3 active torsions:
REMARK  status: ('A' for Active; 'I' for Inactive)
REMARK    1  A    between atoms: C2_2  and  O5_5 
REMARK    2  A    between atoms: C3_3  and  C4_4 
REMARK    3  A    between atoms: C3_3  and  O5_5 
ROOT
HETATM    1  C3  UNL     1     -33.655   5.845   4.437  1.00 20.00     0.454 C 
HETATM    2  F6  UNL     1     -34.704   5.301   3.774  1.00 20.00    -0.166 F 
HETATM    3  F7  UNL     1     -32.741   4.866   4.643  1.00 20.00    -0.166 F 
ENDROOT
BRANCH   1   4
HETATM    4  C4  UNL     1     -34.116   6.398   5.755  1.00 20.00     0.484 C 
HETATM    5  F8  UNL     1     -35.040   7.364   5.574  1.00 20.00    -0.163 F 
HETATM    6  F9  UNL     1     -34.670   5.434   6.521  1.00 20.00    -0.163 F 
HETATM    7  F10 UNL     1     -33.087   6.934   6.445  1.00 20.00    -0.163 F 
ENDBRANCH   1   4
BRANCH   1   8
HETATM    8  O5  UNL     1     -33.076   6.872   3.642  1.00 20.00    -0.319 OA
BRANCH   8   9
HETATM    9  C2  UNL     1     -32.623   6.396   2.382  1.00 20.00     0.170 C 
HETATM   10  C1  UNL     1     -32.024   7.549   1.606  1.00 20.00     0.033 C 
ENDBRANCH   8   9
ENDBRANCH   1   8
TORSDOF 3
