REMARK  0 active torsions:
REMARK  status: ('A' for Active; 'I' for Inactive)
ROOT
HETATM    1  C1  UNL     1     -34.135   5.006   5.118  1.00 20.00     0.134 C 
HETATM    2  C2  UNL     1     -33.110   7.163   4.820  1.00 20.00     0.134 C 
HETATM    3  C3  UNL     1     -34.979   5.594   6.245  1.00 20.00     0.183 C 
HETATM    4  C4  UNL     1     -33.978   7.700   5.954  1.00 20.00     0.183 C 
HETATM    5  N5  UNL     1     -33.791   6.051   4.148  1.00 20.00    -0.224 NA
HETATM    6  O6  UNL     1     -34.279   6.661   6.886  1.00 20.00    -0.389 OA
HETATM    7 CL7  UNL     1     -32.843   5.415   2.799  1.00 20.00    -0.022 Cl
ENDROOT
TORSDOF 0
