REMARK  2 active torsions:
REMARK  status: ('A' for Active; 'I' for Inactive)
REMARK    1  A    between atoms: C1_1  and  C2_2 
REMARK    2  A    between atoms: C1_1  and  C3_3 
ROOT
HETATM    1  C3  UNL     1     -34.038   6.663   5.325  1.00 20.00     0.256 C 
HETATM    2  F4  UNL     1     -35.076   7.114   4.563  1.00 20.00    -0.207 F 
HETATM    3 CL5  UNL     1     -34.325   7.181   7.005  1.00 20.00    -0.066 Cl
HETATM    4 CL6  UNL     1     -34.027   4.884   5.238  1.00 20.00    -0.066 Cl
ENDROOT
BRANCH   1   5
HETATM    5  C1  UNL     1     -32.750   7.267   4.758  1.00 20.00     0.089 C 
BRANCH   5   6
HETATM    6  C2  UNL     1     -32.671   7.325   3.238  1.00 20.00     0.090 C 
HETATM    7 BR7  UNL     1     -32.723   5.513   2.514  1.00 20.00    -0.096 Br
ENDBRANCH   5   6
ENDBRANCH   1   5
TORSDOF 2
