REMARK  0 active torsions:
REMARK  status: ('A' for Active; 'I' for Inactive)
ROOT
HETATM    1  C1  UNL     1     -34.684   5.273   6.461  1.00 20.00     0.072 C 
HETATM    2  C2  UNL     1     -34.400   6.685   6.949  1.00 20.00     0.173 C 
HETATM    3  C3  UNL     1     -33.127   6.279   5.041  1.00 20.00     0.255 C 
HETATM    4  C4  UNL     1     -34.352   5.366   4.982  1.00 20.00     0.154 C 
HETATM    5  O5  UNL     1     -33.387   7.232   6.086  1.00 20.00    -0.367 OA
HETATM    6 CL6  UNL     1     -32.710   7.100   3.530  1.00 20.00    -0.092 Cl
HETATM    7 CL7  UNL     1     -33.983   3.779   4.280  1.00 20.00    -0.098 Cl
HETATM    8 CL8  UNL     1     -35.736   6.097   4.107  1.00 20.00    -0.098 Cl
ENDROOT
TORSDOF 0
