REMARK  1 active torsions:
REMARK  status: ('A' for Active; 'I' for Inactive)
REMARK    1  A    between atoms: C1_1  and  C6_6 
ROOT
HETATM    1  C2  UNL     1     -33.305   7.380   5.865  1.00 20.00     0.022 C 
HETATM    2  C3  UNL     1     -33.860   5.852   3.904  1.00 20.00     0.022 C 
HETATM    3  C4  UNL     1     -34.406   6.814   6.753  1.00 20.00     0.074 C 
HETATM    4  C5  UNL     1     -35.006   5.160   4.631  1.00 20.00     0.074 C 
HETATM    5  C6  UNL     1     -33.638   7.292   4.374  1.00 20.00     0.048 C 
HETATM    6  S8  UNL     1     -34.706   5.055   6.418  1.00 20.00    -0.169 SA
ENDROOT
BRANCH   5   7
HETATM    7  C1  UNL     1     -32.518   7.891   3.578  1.00 20.00     0.235 C 
HETATM    8  O7  UNL     1     -32.237   7.543   2.436  1.00 20.00    -0.306 OA
ENDBRANCH   5   7
TORSDOF 1
