REMARK  4 active torsions:
REMARK  status: ('A' for Active; 'I' for Inactive)
REMARK    1  A    between atoms: C3_3  and  C5_5 
REMARK    2  A    between atoms: C4_4  and  C6_6 
REMARK    3  A    between atoms: C5_5  and  C7_7 
REMARK    4  A    between atoms: C6_6  and  C7_7 
ROOT
HETATM    1  C1  UNL     1     -32.274   7.527   2.032  1.00 20.00     0.059 C 
HETATM    2  C4  UNL     1     -32.520   6.079   1.974  1.00 20.00     0.124 C 
HETATM    3  N8  UNL     1     -32.078   8.670   2.075  1.00 20.00    -0.197 NA
ENDROOT
BRANCH   2   4
HETATM    4  C6  UNL     1     -33.294   5.576   3.194  1.00 20.00     0.014 C 
BRANCH   4   5
HETATM    5  C7  UNL     1     -34.636   6.296   3.383  1.00 20.00     0.006 C 
BRANCH   5   6
HETATM    6  C5  UNL     1     -35.383   5.857   4.650  1.00 20.00     0.050 C 
BRANCH   6   7
HETATM    7  C3  UNL     1     -34.600   6.021   5.923  1.00 20.00     0.002 C 
HETATM    8  C2  UNL     1     -34.241   5.006   6.719  1.00 20.00     0.032 C 
HETATM    9 CL9  UNL     1     -34.111   7.636   6.313  1.00 20.00    -0.090 Cl
ENDBRANCH   6   7
ENDBRANCH   5   6
ENDBRANCH   4   5
ENDBRANCH   2   4
TORSDOF 4
