REMARK  2 active torsions:
REMARK  status: ('A' for Active; 'I' for Inactive)
REMARK    1  A    between atoms: C2_2  and  C3_3 
REMARK    2  A    between atoms: C3_3  and  C4_4 
ROOT
HETATM    1  C1  UNL     1     -32.587   6.289   2.797  1.00 20.00     0.059 C 
HETATM    2  C2  UNL     1     -33.497   5.142   2.676  1.00 20.00     0.132 C 
HETATM    3  N5  UNL     1     -31.868   7.195   2.891  1.00 20.00    -0.197 NA
ENDROOT
BRANCH   2   4
HETATM    4  C3  UNL     1     -33.741   4.489   4.035  1.00 20.00     0.131 C 
BRANCH   4   5
HETATM    5  C4  UNL     1     -34.393   5.444   5.011  1.00 20.00     0.388 C 
HETATM    6  F6  UNL     1     -33.605   6.512   5.256  1.00 20.00    -0.171 F 
HETATM    7  F7  UNL     1     -35.576   5.896   4.542  1.00 20.00    -0.171 F 
HETATM    8  F8  UNL     1     -34.628   4.829   6.191  1.00 20.00    -0.171 F 
ENDBRANCH   4   5
ENDBRANCH   2   4
TORSDOF 2
