REMARK  3 active torsions:
REMARK  status: ('A' for Active; 'I' for Inactive)
REMARK    1  A    between atoms: C4_4  and  C5_5 
REMARK    2  A    between atoms: C4_4  and  C6_6 
REMARK    3  A    between atoms: C5_5  and  N7_7 
ROOT
HETATM    1  C1  UNL     1     -32.445   7.124   2.872  1.00 20.00     0.157 C 
HETATM    2  N7  UNL     1     -32.738   6.753   3.948  1.00 20.00    -0.276 NA
HETATM    3  S8  UNL     1     -32.035   7.648   1.426  1.00 20.00    -0.055 SA
ENDROOT
BRANCH   2   4
HETATM    4  C5  UNL     1     -33.493   5.500   3.985  1.00 20.00     0.151 C 
BRANCH   4   5
HETATM    5  C4  UNL     1     -34.881   5.745   4.570  1.00 20.00     0.026 C 
BRANCH   5   6
HETATM    6  C6  UNL     1     -34.893   6.253   6.025  1.00 20.00    -0.021 C 
HETATM    7  C2  UNL     1     -34.211   5.227   6.935  1.00 20.00     0.009 C 
HETATM    8  C3  UNL     1     -34.206   7.611   6.176  1.00 20.00     0.009 C 
ENDBRANCH   5   6
ENDBRANCH   4   5
ENDBRANCH   2   4
TORSDOF 3
