REMARK  0 active torsions:
REMARK  status: ('A' for Active; 'I' for Inactive)
ROOT
HETATM    1  C1  UNL     1     -33.118   5.803   3.128  1.00 20.00     0.135 C 
HETATM    2  C2  UNL     1     -33.888   4.927   4.082  1.00 20.00     0.088 C 
HETATM    3  C3  UNL     1     -33.914   7.226   4.866  1.00 20.00     0.025 C 
HETATM    4  C4  UNL     1     -33.089   7.259   3.562  1.00 20.00     0.014 C 
HETATM    5  C5  UNL     1     -34.757   5.932   4.850  1.00 20.00    -0.040 C 
HETATM    6  C6  UNL     1     -31.646   7.687   3.841  1.00 20.00     0.023 C 
HETATM    7  C7  UNL     1     -33.703   8.158   2.491  1.00 20.00     0.023 C 
HETATM    8  C8  UNL     1     -35.023   5.445   6.281  1.00 20.00     0.015 C 
HETATM    9  C9  UNL     1     -36.110   6.133   4.148  1.00 20.00     0.015 C 
HETATM   10  O10 UNL     1     -32.546   5.370   2.134  1.00 20.00    -0.297 OA
ENDROOT
TORSDOF 0
