REMARK  1 active torsions:
REMARK  status: ('A' for Active; 'I' for Inactive)
REMARK    1  A    between atoms: C1_1  and  C6_6 
ROOT
HETATM    1  C2  UNL     1     -33.014   5.992   6.394  1.00 20.00     0.005 C 
HETATM    2  C3  UNL     1     -33.049   7.193   5.440  1.00 20.00     0.006 C 
HETATM    3  C4  UNL     1     -34.020   4.523   4.634  1.00 20.00     0.017 C 
HETATM    4  C5  UNL     1     -35.243   6.318   5.622  1.00 20.00     0.010 C 
HETATM    5  C6  UNL     1     -34.081   5.703   3.650  1.00 20.00     0.059 C 
HETATM    6  C7  UNL     1     -34.270   5.199   5.996  1.00 20.00    -0.013 C 
HETATM    7  C8  UNL     1     -34.296   6.917   4.578  1.00 20.00    -0.003 C 
ENDROOT
BRANCH   5   8
HETATM    8  C1  UNL     1     -32.868   5.815   2.783  1.00 20.00     0.127 C 
HETATM    9  C9  UNL     1     -32.569   4.647   1.882  1.00 20.00     0.091 C 
HETATM   10  O10 UNL     1     -32.150   6.814   2.803  1.00 20.00    -0.298 OA
ENDBRANCH   5   8
TORSDOF 1
