REMARK  2 active torsions:
REMARK  status: ('A' for Active; 'I' for Inactive)
REMARK    1  A    between atoms: C2_2  and  C3_3 
REMARK    2  A    between atoms: C4_4  and  C5_5 
ROOT
HETATM    1  C3  UNL     1     -33.124   7.400   5.141  1.00 20.00    -0.001 C 
HETATM    2  C4  UNL     1     -32.833   6.952   3.911  1.00 20.00    -0.000 C 
ENDROOT
BRANCH   2   3
HETATM    3  C5  UNL     1     -32.487   7.829   2.814  1.00 20.00    -0.004 C 
HETATM    4  C6  UNL     1     -32.195   7.384   1.583  1.00 20.00    -0.031 C 
HETATM    5  C7  UNL     1     -31.837   8.279   0.442  1.00 20.00     0.036 C 
ENDBRANCH   2   3
BRANCH   1   6
HETATM    6  C2  UNL     1     -33.469   6.523   6.237  1.00 20.00    -0.010 C 
HETATM    7  C1  UNL     1     -34.249   5.446   6.099  1.00 20.00     0.011 C 
ENDBRANCH   1   6
TORSDOF 2
