REMARK  1 active torsions:
REMARK  status: ('A' for Active; 'I' for Inactive)
REMARK    1  A    between atoms: C3_3  and  C4_4 
ROOT
HETATM    1  C1  UNL     1     -32.828   7.170   2.674  1.00 20.00     0.197 C 
HETATM    2  C2  UNL     1     -32.519   5.730   2.369  1.00 20.00     0.197 C 
HETATM    3  C3  UNL     1     -33.085   5.918   4.544  1.00 20.00     0.369 C 
HETATM    4  O5  UNL     1     -32.739   7.236   4.096  1.00 20.00    -0.351 OA
HETATM    5  O6  UNL     1     -33.173   5.029   3.424  1.00 20.00    -0.351 OA
ENDROOT
BRANCH   3   6
HETATM    6  C4  UNL     1     -34.417   5.952   5.268  1.00 20.00     0.437 C 
HETATM    7  F7  UNL     1     -34.357   6.777   6.328  1.00 20.00    -0.166 F 
HETATM    8  F8  UNL     1     -35.389   6.387   4.444  1.00 20.00    -0.166 F 
HETATM    9  F9  UNL     1     -34.747   4.722   5.703  1.00 20.00    -0.166 F 
ENDBRANCH   3   6
TORSDOF 1
