REMARK  2 active torsions:
REMARK  status: ('A' for Active; 'I' for Inactive)
REMARK    1  A    between atoms: C2_2  and  C6_6 
REMARK    2  A    between atoms: C2_2  and  O9_9 
ROOT
HETATM    1  C1  UNL     1     -34.427   6.687   5.913  1.00 20.00     0.079 C 
HETATM    2  C3  UNL     1     -36.018   6.118   4.135  1.00 20.00     0.042 C 
HETATM    3  C4  UNL     1     -34.471   4.375   5.096  1.00 20.00     0.042 C 
HETATM    4  C6  UNL     1     -34.618   5.851   4.704  1.00 20.00     0.129 C 
HETATM    5  N7  UNL     1     -34.279   7.341   6.860  1.00 20.00    -0.196 NA
ENDROOT
BRANCH   4   6
HETATM    6  C2  UNL     1     -33.561   6.211   3.656  1.00 20.00     0.280 C 
HETATM    7  O8  UNL     1     -33.467   5.686   2.553  1.00 20.00    -0.263 OA
BRANCH   6   8
HETATM    8  O9  UNL     1     -32.739   7.198   4.126  1.00 20.00    -0.325 OA
HETATM    9  C5  UNL     1     -31.705   7.622   3.232  1.00 20.00     0.213 C 
ENDBRANCH   6   8
ENDBRANCH   4   6
TORSDOF 2
