REMARK  5 active torsions:
REMARK  status: ('A' for Active; 'I' for Inactive)
REMARK    1  A    between atoms: C3_3  and  C7_7 
REMARK    2  A    between atoms: C4_4  and  C8_8 
REMARK    3  A    between atoms: C7_7  and  C9_9 
REMARK    4  A    between atoms: C8_8  and  C10_10 
REMARK    5  A    between atoms: C9_9  and  C10_10 
ROOT
HETATM    1  C9  UNL     1     -31.999   7.064   3.411  1.00 20.00     0.004 C 
ENDROOT
BRANCH   1   2
HETATM    2  C7  UNL     1     -31.391   8.187   2.570  1.00 20.00     0.026 C 
BRANCH   2   3
HETATM    3  C3  UNL     1     -32.456   9.074   1.994  1.00 20.00    -0.031 C 
HETATM    4  C1  UNL     1     -32.649   9.250   0.679  1.00 20.00    -0.035 C 
HETATM    5  C5  UNL     1     -33.705  10.136   0.105  1.00 20.00     0.035 C 
ENDBRANCH   2   3
ENDBRANCH   1   2
BRANCH   1   6
HETATM    6  C10 UNL     1     -32.905   6.165   2.566  1.00 20.00     0.004 C 
BRANCH   6   7
HETATM    7  C8  UNL     1     -33.483   5.019   3.399  1.00 20.00     0.026 C 
BRANCH   7   8
HETATM    8  C4  UNL     1     -34.328   5.537   4.527  1.00 20.00    -0.031 C 
HETATM    9  C2  UNL     1     -34.050   5.331   5.822  1.00 20.00    -0.035 C 
HETATM   10  C6  UNL     1     -34.886   5.851   6.944  1.00 20.00     0.035 C 
ENDBRANCH   7   8
ENDBRANCH   6   7
ENDBRANCH   1   6
TORSDOF 5
