REMARK  0 active torsions:
REMARK  status: ('A' for Active; 'I' for Inactive)
ROOT
HETATM    1  C1  UNL     1     -34.322   7.570   5.763  1.00 20.00     0.027 A 
HETATM    2  C2  UNL     1     -33.222   6.929   4.956  1.00 20.00     0.027 A 
HETATM    3  C3  UNL     1     -34.370   6.084   5.471  1.00 20.00     0.120 A 
HETATM    4  C4  UNL     1     -34.025   8.117   7.118  1.00 20.00     0.014 C 
HETATM    5  C5  UNL     1     -33.059   7.279   3.516  1.00 20.00     0.014 C 
HETATM    6 CL6  UNL     1     -34.015   4.919   6.745  1.00 20.00    -0.101 Cl
HETATM    7 CL7  UNL     1     -35.617   5.515   4.361  1.00 20.00    -0.101 Cl
ENDROOT
TORSDOF 0
