REMARK  1 active torsions:
REMARK  status: ('A' for Active; 'I' for Inactive)
REMARK    1  A    between atoms: C1_1  and  C4_4 
ROOT
HETATM    1  C1  UNL     1     -34.160   5.384   4.654  1.00 20.00    -0.080 C 
HETATM    2  C2  UNL     1     -33.531   5.346   3.632  1.00 20.00    -0.106 C 
HETATM    3  C5  UNL     1     -32.764   5.301   2.388  1.00 20.00     0.112 C 
ENDROOT
BRANCH   1   4
HETATM    4  C4  UNL     1     -34.909   5.424   5.859  1.00 20.00     0.054 C 
HETATM    5  C3  UNL     1     -34.466   6.066   6.944  1.00 20.00     0.020 C 
ENDBRANCH   1   4
TORSDOF 1
