REMARK  0 active torsions:
REMARK  status: ('A' for Active; 'I' for Inactive)
ROOT
HETATM    1  C1  UNL     1     -33.004   5.956   3.272  1.00 20.00     0.131 C 
HETATM    2  C2  UNL     1     -33.757   4.834   3.947  1.00 20.00     0.087 C 
HETATM    3  C3  UNL     1     -33.633   6.764   5.394  1.00 20.00     0.021 C 
HETATM    4  C4  UNL     1     -33.088   7.252   4.049  1.00 20.00     0.052 C 
HETATM    5  C5  UNL     1     -34.537   5.562   5.056  1.00 20.00    -0.041 C 
HETATM    6  C6  UNL     1     -31.747   7.950   4.174  1.00 20.00     0.018 C 
HETATM    7  C7  UNL     1     -35.913   6.024   4.547  1.00 20.00     0.015 C 
HETATM    8  C8  UNL     1     -34.732   4.662   6.280  1.00 20.00     0.015 C 
HETATM    9  O9  UNL     1     -32.396   5.821   2.217  1.00 20.00    -0.298 OA
ENDROOT
TORSDOF 0
