REMARK  3 active torsions:
REMARK  status: ('A' for Active; 'I' for Inactive)
REMARK    1  A    between atoms: C4_4  and  C6_6 
REMARK    2  A    between atoms: C5_5  and  C6_6 
REMARK    3  A    between atoms: C6_6  and  N7_7 
ROOT
HETATM    1  C1  UNL     1     -32.496   8.070   2.871  1.00 20.00     0.158 C 
HETATM    2  N7  UNL     1     -32.427   7.559   3.923  1.00 20.00    -0.270 NA
HETATM    3  S8  UNL     1     -32.555   8.776   1.444  1.00 20.00    -0.055 SA
ENDROOT
BRANCH   2   4
HETATM    4  C6  UNL     1     -33.657   6.884   4.359  1.00 20.00     0.109 C 
BRANCH   4   5
HETATM    5  C4  UNL     1     -33.735   6.946   5.889  1.00 20.00     0.023 C 
HETATM    6  C2  UNL     1     -34.994   6.287   6.437  1.00 20.00     0.007 C 
ENDBRANCH   4   5
BRANCH   4   7
HETATM    7  C5  UNL     1     -33.617   5.430   3.872  1.00 20.00     0.023 C 
HETATM    8  C3  UNL     1     -33.505   5.326   2.379  1.00 20.00     0.007 C 
ENDBRANCH   4   7
ENDBRANCH   2   4
TORSDOF 3
