REMARK  0 active torsions:
REMARK  status: ('A' for Active; 'I' for Inactive)
ROOT
HETATM    1  C1  UNL     1     -34.979   5.182   6.408  1.00 20.00    -0.025 C 
HETATM    2  C2  UNL     1     -34.696   6.479   6.605  1.00 20.00    -0.025 C 
HETATM    3  C3  UNL     1     -33.273   4.841   2.986  1.00 20.00    -0.024 A 
HETATM    4  C4  UNL     1     -32.864   5.956   2.374  1.00 20.00    -0.025 A 
HETATM    5  C5  UNL     1     -35.548   6.297   4.473  1.00 20.00     0.018 C 
HETATM    6  C6  UNL     1     -34.971   4.945   4.914  1.00 20.00     0.016 C 
HETATM    7  C7  UNL     1     -34.498   7.107   5.242  1.00 20.00     0.014 C 
HETATM    8  C8  UNL     1     -33.496   5.041   4.448  1.00 20.00     0.021 A 
HETATM    9  C9  UNL     1     -32.757   7.130   3.300  1.00 20.00     0.009 A 
HETATM   10  C10 UNL     1     -33.157   6.557   4.677  1.00 20.00     0.009 A 
HETATM   11  C11 UNL     1     -31.340   7.695   3.311  1.00 20.00     0.014 C 
ENDROOT
TORSDOF 0
