REMARK  2 active torsions:
REMARK  status: ('A' for Active; 'I' for Inactive)
REMARK    1  A    between atoms: C1_1  and  C3_3 
REMARK    2  A    between atoms: C2_2  and  C3_3 
ROOT
HETATM    1  C3  UNL     1     -33.765   5.816   4.521  1.00 20.00     0.358 C 
HETATM    2  F8  UNL     1     -34.815   6.316   3.824  1.00 20.00    -0.194 F 
HETATM    3  F9  UNL     1     -33.843   4.464   4.438  1.00 20.00    -0.194 F 
ENDROOT
BRANCH   1   4
HETATM    4  C1  UNL     1     -32.479   6.274   3.876  1.00 20.00     0.430 C 
HETATM    5  F4  UNL     1     -32.459   5.867   2.581  1.00 20.00    -0.208 F 
HETATM    6  F5  UNL     1     -32.420   7.627   3.863  1.00 20.00    -0.208 F 
ENDBRANCH   1   4
BRANCH   1   7
HETATM    7  C2  UNL     1     -33.889   6.232   5.966  1.00 20.00     0.430 C 
HETATM    8  F6  UNL     1     -33.861   7.586   6.045  1.00 20.00    -0.208 F 
HETATM    9  F7  UNL     1     -35.085   5.835   6.464  1.00 20.00    -0.208 F 
ENDBRANCH   1   7
TORSDOF 2
