REMARK  0 active torsions:
REMARK  status: ('A' for Active; 'I' for Inactive)
ROOT
HETATM    1  C1  UNL     1     -33.637   5.384   3.442  1.00 20.00    -0.003 A 
HETATM    2  C2  UNL     1     -32.657   6.400   3.112  1.00 20.00    -0.003 A 
HETATM    3  C3  UNL     1     -34.110   5.644   4.675  1.00 20.00    -0.013 A 
HETATM    4  C4  UNL     1     -32.566   7.247   4.154  1.00 20.00    -0.013 A 
HETATM    5  C5  UNL     1     -33.122   6.974   6.678  1.00 20.00     0.019 A 
HETATM    6  C6  UNL     1     -34.212   7.829   6.079  1.00 20.00     0.019 A 
HETATM    7  C7  UNL     1     -33.475   6.845   5.234  1.00 20.00    -0.005 A 
ENDROOT
TORSDOF 0
