REMARK  3 active torsions:
REMARK  status: ('A' for Active; 'I' for Inactive)
REMARK    1  A    between atoms: C1_1  and  C7_7 
REMARK    2  A    between atoms: C5_5  and  C6_6 
REMARK    3  A    between atoms: C6_6  and  C7_7 
ROOT
HETATM    1  C3  UNL     1     -35.711   6.070   3.967  1.00 20.00     0.024 C 
HETATM    2  C4  UNL     1     -34.027   4.247   4.086  1.00 20.00     0.024 C 
HETATM    3  C7  UNL     1     -34.284   5.727   4.438  1.00 20.00     0.029 C 
ENDROOT
BRANCH   3   4
HETATM    4  C1  UNL     1     -34.199   5.906   5.971  1.00 20.00     0.226 C 
HETATM    5  O8  UNL     1     -33.907   4.975   6.719  1.00 20.00    -0.279 OA
HETATM    6 CL9  UNL     1     -34.552   7.525   6.530  1.00 20.00    -0.043 Cl
ENDBRANCH   3   4
BRANCH   3   7
HETATM    7  C6  UNL     1     -33.269   6.636   3.695  1.00 20.00     0.017 C 
BRANCH   7   8
HETATM    8  C5  UNL     1     -32.991   6.239   2.240  1.00 20.00    -0.003 C 
HETATM    9  C2  UNL     1     -32.056   7.233   1.567  1.00 20.00     0.005 C 
ENDBRANCH   7   8
ENDBRANCH   3   7
TORSDOF 3
