REMARK  3 active torsions:
REMARK  status: ('A' for Active; 'I' for Inactive)
REMARK    1  A    between atoms: C5_5  and  C6_6 
REMARK    2  A    between atoms: C5_5  and  N8_8 
REMARK    3  A    between atoms: C6_6  and  N9_9 
ROOT
HETATM    1  C1  UNL     1     -32.429   7.790   2.610  1.00 20.00     0.157 C 
HETATM    2  N8  UNL     1     -31.927   6.875   3.148  1.00 20.00    -0.274 NA
HETATM    3  S10 UNL     1     -33.090   9.050   1.894  1.00 20.00    -0.055 SA
ENDROOT
BRANCH   2   4
HETATM    4  C5  UNL     1     -32.533   5.575   2.847  1.00 20.00     0.172 C 
BRANCH   4   5
HETATM    5  C6  UNL     1     -33.996   5.571   3.275  1.00 20.00     0.172 C 
BRANCH   5   6
HETATM    6  N9  UNL     1     -34.178   5.855   4.695  1.00 20.00    -0.280 N 
HETATM    7  C4  UNL     1     -34.821   5.065   5.602  1.00 20.00     0.113 A 
HETATM    8  C2  UNL     1     -34.743   5.729   6.801  1.00 20.00     0.040 A 
HETATM    9  C3  UNL     1     -34.032   6.907   6.505  1.00 20.00     0.140 A 
HETATM   10  N7  UNL     1     -33.684   6.990   5.218  1.00 20.00    -0.185 NA
ENDBRANCH   5   6
ENDBRANCH   4   5
ENDBRANCH   2   4
TORSDOF 3
