REMARK  0 active torsions:
REMARK  status: ('A' for Active; 'I' for Inactive)
ROOT
HETATM    1  C1  UNL     1     -32.451   6.491   2.750  1.00 20.00     0.000 C 
HETATM    2  C2  UNL     1     -33.149   5.157   3.015  1.00 20.00     0.001 C 
HETATM    3  C3  UNL     1     -32.202   7.259   4.049  1.00 20.00     0.001 C 
HETATM    4  C4  UNL     1     -34.444   5.350   3.802  1.00 20.00     0.009 C 
HETATM    5  C5  UNL     1     -33.495   7.456   4.839  1.00 20.00     0.009 C 
HETATM    6  C6  UNL     1     -33.874   5.367   6.337  1.00 20.00     0.010 A 
HETATM    7  C7  UNL     1     -35.205   6.044   6.179  1.00 20.00     0.010 A 
HETATM    8  C8  UNL     1     -34.184   6.130   5.069  1.00 20.00    -0.040 A 
ENDROOT
TORSDOF 0
