REMARK  1 active torsions:
REMARK  status: ('A' for Active; 'I' for Inactive)
REMARK    1  A    between atoms: C7_7  and  O8_8 
ROOT
HETATM    1  C1  UNL     1     -34.137   4.354   4.369  1.00 20.00    -0.025 C 
HETATM    2  C2  UNL     1     -34.612   4.573   5.604  1.00 20.00    -0.023 C 
HETATM    3  C3  UNL     1     -35.507   6.215   4.244  1.00 20.00     0.019 C 
HETATM    4  C4  UNL     1     -33.153   6.609   4.230  1.00 20.00     0.041 C 
HETATM    5  C5  UNL     1     -34.216   5.664   3.624  1.00 20.00     0.011 C 
HETATM    6  C6  UNL     1     -35.007   6.031   5.680  1.00 20.00     0.037 C 
HETATM    7  C7  UNL     1     -33.732   6.904   5.641  1.00 20.00     0.126 C 
ENDROOT
BRANCH   7   8
HETATM    8  O8  UNL     1     -32.815   6.576   6.667  1.00 20.00    -0.395 OA
HETATM    9  H18 UNL     1     -32.019   7.117   6.524  1.00 20.00     0.210 HD
ENDBRANCH   7   8
TORSDOF 1
