REMARK  2 active torsions:
REMARK  status: ('A' for Active; 'I' for Inactive)
REMARK    1  A    between atoms: C1_1  and  C4_4 
REMARK    2  A    between atoms: C3_3  and  C4_4 
ROOT
HETATM    1  C4  UNL     1     -34.444   5.698   4.626  1.00 20.00     0.359 C 
HETATM    2  F8  UNL     1     -35.685   6.165   4.321  1.00 20.00    -0.191 F 
HETATM    3  F9  UNL     1     -34.571   4.354   4.784  1.00 20.00    -0.191 F 
ENDROOT
BRANCH   1   4
HETATM    4  C1  UNL     1     -33.465   6.024   3.521  1.00 20.00     0.200 C 
HETATM    5  C2  UNL     1     -33.320   5.022   2.405  1.00 20.00     0.098 C 
HETATM    6  O5  UNL     1     -32.787   7.051   3.549  1.00 20.00    -0.292 OA
ENDBRANCH   1   4
BRANCH   1   7
HETATM    7  C3  UNL     1     -34.011   6.304   5.940  1.00 20.00     0.432 C 
HETATM    8  F6  UNL     1     -33.983   7.656   5.840  1.00 20.00    -0.207 F 
HETATM    9  F7  UNL     1     -34.928   6.003   6.894  1.00 20.00    -0.207 F 
ENDBRANCH   1   7
TORSDOF 2
