REMARK  1 active torsions:
REMARK  status: ('A' for Active; 'I' for Inactive)
REMARK    1  A    between atoms: C2_2  and  C3_3 
ROOT
HETATM    1  C1  UNL     1     -33.359   7.534   6.124  1.00 20.00     0.101 A 
HETATM    2  C2  UNL     1     -33.361   7.024   4.841  1.00 20.00     0.118 A 
HETATM    3  N4  UNL     1     -34.346   6.086   4.573  1.00 20.00    -0.166 NA
HETATM    4  N5  UNL     1     -35.106   5.864   5.633  1.00 20.00    -0.037 NA
HETATM    5  S7  UNL     1     -34.650   6.776   6.963  1.00 20.00    -0.008 SA
ENDROOT
BRANCH   2   6
HETATM    6  C3  UNL     1     -32.427   7.409   3.822  1.00 20.00     0.292 C 
HETATM    7  O6  UNL     1     -32.433   6.946   2.666  1.00 20.00    -0.300 OA
ENDBRANCH   2   6
TORSDOF 1
