REMARK  2 active torsions:
REMARK  status: ('A' for Active; 'I' for Inactive)
REMARK    1  A    between atoms: C5_5  and  C6_6 
REMARK    2  A    between atoms: C6_6  and  N7_7 
ROOT
HETATM    1  C1  UNL     1     -32.450   7.523   2.676  1.00 20.00     0.158 C 
HETATM    2  N7  UNL     1     -32.601   7.299   3.817  1.00 20.00    -0.270 NA
HETATM    3  S8  UNL     1     -32.220   7.851   1.134  1.00 20.00    -0.055 SA
ENDROOT
BRANCH   2   4
HETATM    4  C6  UNL     1     -33.612   6.275   4.112  1.00 20.00     0.109 C 
HETATM    5  C4  UNL     1     -33.224   4.997   3.377  1.00 20.00     0.035 C 
BRANCH   4   6
HETATM    6  C5  UNL     1     -33.750   6.084   5.638  1.00 20.00     0.002 C 
HETATM    7  C2  UNL     1     -34.828   5.045   5.966  1.00 20.00     0.011 C 
HETATM    8  C3  UNL     1     -34.034   7.383   6.399  1.00 20.00     0.011 C 
ENDBRANCH   4   6
ENDBRANCH   2   4
TORSDOF 2
