REMARK  4 active torsions:
REMARK  status: ('A' for Active; 'I' for Inactive)
REMARK    1  A    between atoms: C1_1  and  C6_6 
REMARK    2  A    between atoms: C6_6  and  C8_8 
REMARK    3  A    between atoms: C7_7  and  C8_8 
REMARK    4  A    between atoms: C7_7  and  C9_9 
ROOT
HETATM    1  C2  UNL     1     -32.393   4.890   2.176  1.00 20.00     0.010 C 
HETATM    2  C8  UNL     1     -33.094   6.066   2.871  1.00 20.00    -0.010 C 
ENDROOT
BRANCH   2   3
HETATM    3  C6  UNL     1     -32.224   7.326   2.673  1.00 20.00     0.100 C 
BRANCH   3   4
HETATM    4  C1  UNL     1     -32.340   7.929   1.281  1.00 20.00     0.219 C 
HETATM    5  O10 UNL     1     -32.029   7.320   0.263  1.00 20.00    -0.280 OA
HETATM    6 CL11 UNL     1     -32.907   9.575   1.338  1.00 20.00    -0.044 Cl
ENDBRANCH   3   4
ENDBRANCH   2   3
BRANCH   2   7
HETATM    7  C7  UNL     1     -33.305   5.778   4.380  1.00 20.00     0.013 C 
BRANCH   7   8
HETATM    8  C9  UNL     1     -34.322   6.679   5.142  1.00 20.00    -0.051 C 
HETATM    9  C3  UNL     1     -35.377   5.759   5.791  1.00 20.00     0.014 C 
HETATM   10  C4  UNL     1     -35.047   7.663   4.214  1.00 20.00     0.014 C 
HETATM   11  C5  UNL     1     -33.622   7.468   6.263  1.00 20.00     0.014 C 
ENDBRANCH   7   8
ENDBRANCH   2   7
TORSDOF 4
