REMARK  4 active torsions:
REMARK  status: ('A' for Active; 'I' for Inactive)
REMARK    1  A    between atoms: C3_3  and  C6_6 
REMARK    2  A    between atoms: C5_5  and  C7_7 
REMARK    3  A    between atoms: C6_6  and  C8_8 
REMARK    4  A    between atoms: C7_7  and  C8_8 
ROOT
HETATM    1  C1  UNL     1     -32.343   7.852   1.909  1.00 20.00     0.059 C 
HETATM    2  C5  UNL     1     -32.097   6.976   3.063  1.00 20.00     0.124 C 
HETATM    3  N9  UNL     1     -32.537   8.542   0.997  1.00 20.00    -0.197 NA
ENDROOT
BRANCH   2   4
HETATM    4  C7  UNL     1     -32.461   7.650   4.388  1.00 20.00     0.014 C 
BRANCH   4   5
HETATM    5  C8  UNL     1     -33.942   8.043   4.465  1.00 20.00     0.005 C 
BRANCH   5   6
HETATM    6  C6  UNL     1     -34.888   6.836   4.413  1.00 20.00     0.033 C 
BRANCH   6   7
HETATM    7  C3  UNL     1     -34.640   5.795   5.479  1.00 20.00    -0.093 C 
HETATM    8  C2  UNL     1     -34.357   4.521   5.163  1.00 20.00     0.014 C 
HETATM    9  C4  UNL     1     -34.688   6.253   6.908  1.00 20.00     0.042 C 
ENDBRANCH   6   7
ENDBRANCH   5   6
ENDBRANCH   4   5
ENDBRANCH   2   4
TORSDOF 4
