REMARK  2 active torsions:
REMARK  status: ('A' for Active; 'I' for Inactive)
REMARK    1  A    between atoms: C1_1  and  C4_4 
REMARK    2  A    between atoms: C1_1  and  O8_8 
ROOT
HETATM    1  C2  UNL     1     -35.011   5.955   6.702  1.00 20.00     0.020 A 
HETATM    2  C3  UNL     1     -34.027   4.885   6.339  1.00 20.00     0.020 A 
HETATM    3  C4  UNL     1     -34.414   5.927   5.311  1.00 20.00     0.044 A 
HETATM    4  C5  UNL     1     -35.315   5.480   4.187  1.00 20.00     0.026 C 
ENDROOT
BRANCH   3   5
HETATM    5  C1  UNL     1     -33.403   6.965   4.993  1.00 20.00     0.266 C 
HETATM    6  O7  UNL     1     -33.033   7.825   5.780  1.00 20.00    -0.264 OA
BRANCH   5   7
HETATM    7  O8  UNL     1     -32.969   6.801   3.710  1.00 20.00    -0.326 OA
HETATM    8  C6  UNL     1     -31.985   7.742   3.269  1.00 20.00     0.213 C 
ENDBRANCH   5   7
ENDBRANCH   3   5
TORSDOF 2
