REMARK  2 active torsions:
REMARK  status: ('A' for Active; 'I' for Inactive)
REMARK    1  A    between atoms: C5_5  and  C6_6 
REMARK    2  A    between atoms: C5_5  and  N7_7 
ROOT
HETATM    1  C1  UNL     1     -32.281   7.090   2.124  1.00 20.00     0.157 C 
HETATM    2  N7  UNL     1     -32.282   6.393   3.068  1.00 20.00    -0.275 NA
HETATM    3  S8  UNL     1     -32.251   8.049   0.852  1.00 20.00    -0.055 SA
ENDROOT
BRANCH   2   4
HETATM    4  C5  UNL     1     -33.433   5.490   3.164  1.00 20.00     0.158 C 
BRANCH   4   5
HETATM    5  C6  UNL     1     -34.210   5.718   4.477  1.00 20.00    -0.033 C 
HETATM    6  C2  UNL     1     -35.667   6.116   4.186  1.00 20.00     0.016 C 
HETATM    7  C3  UNL     1     -33.531   6.862   5.253  1.00 20.00     0.016 C 
HETATM    8  C4  UNL     1     -34.190   4.451   5.349  1.00 20.00     0.016 C 
ENDBRANCH   4   5
ENDBRANCH   2   4
TORSDOF 2
