REMARK  5 active torsions:
REMARK  status: ('A' for Active; 'I' for Inactive)
REMARK    1  A    between atoms: C1_1  and  C6_6 
REMARK    2  A    between atoms: C2_2  and  C7_7 
REMARK    3  A    between atoms: C2_2  and  C8_8 
REMARK    4  A    between atoms: C7_7  and  C9_9 
REMARK    5  A    between atoms: C8_8  and  C10_10 
ROOT
HETATM    1  C1  UNL     1     -34.476   4.749   5.333  1.00 20.00    -0.024 C 
HETATM    2  C2  UNL     1     -33.781   4.499   4.205  1.00 20.00    -0.084 C 
ENDROOT
BRANCH   2   3
HETATM    3  C7  UNL     1     -33.214   3.115   3.958  1.00 20.00     0.033 C 
BRANCH   3   4
HETATM    4  C9  UNL     1     -34.025   2.021   4.658  1.00 20.00    -0.000 C 
HETATM    5  C4  UNL     1     -35.472   2.020   4.191  1.00 20.00     0.005 C 
ENDBRANCH   3   4
ENDBRANCH   2   3
BRANCH   2   6
HETATM    6  C8  UNL     1     -33.520   5.531   3.129  1.00 20.00     0.033 C 
BRANCH   6   7
HETATM    7  C10 UNL     1     -32.025   5.801   2.945  1.00 20.00    -0.000 C 
HETATM    8  C5  UNL     1     -31.778   6.821   1.844  1.00 20.00     0.005 C 
ENDBRANCH   6   7
ENDBRANCH   2   6
BRANCH   1   9
HETATM    9  C6  UNL     1     -35.074   6.057   5.765  1.00 20.00     0.023 C 
HETATM   10  C3  UNL     1     -34.090   6.869   6.592  1.00 20.00     0.009 C 
ENDBRANCH   1   9
TORSDOF 5
