REMARK  2 active torsions:
REMARK  status: ('A' for Active; 'I' for Inactive)
REMARK    1  A    between atoms: C5_5  and  C7_7 
REMARK    2  A    between atoms: C6_6  and  O10_10 
ROOT
HETATM    1  C1  UNL     1     -32.505   5.689   2.501  1.00 20.00     0.006 A 
HETATM    2  C2  UNL     1     -32.612   7.837   3.809  1.00 20.00     0.006 A 
HETATM    3  C3  UNL     1     -33.400   5.135   3.332  1.00 20.00    -0.008 A 
HETATM    4  C4  UNL     1     -33.508   7.288   4.643  1.00 20.00    -0.008 A 
HETATM    5  C6  UNL     1     -32.012   7.099   2.646  1.00 20.00     0.163 A 
HETATM    6  C7  UNL     1     -34.024   5.881   4.483  1.00 20.00     0.044 A 
HETATM    7  C8  UNL     1     -35.549   5.879   4.361  1.00 20.00     0.031 C 
ENDROOT
BRANCH   6   8
HETATM    8  C5  UNL     1     -33.600   5.146   5.725  1.00 20.00     0.248 C 
HETATM    9  O9  UNL     1     -34.390   4.636   6.512  1.00 20.00    -0.305 OA
ENDBRANCH   6   8
BRANCH   5  10
HETATM   10  O10 UNL     1     -32.310   7.799   1.441  1.00 20.00    -0.388 OA
HETATM   11  H20 UNL     1     -31.847   7.332   0.728  1.00 20.00     0.210 HD
ENDBRANCH   5  10
TORSDOF 2
