REMARK  1 active torsions:
REMARK  status: ('A' for Active; 'I' for Inactive)
REMARK    1  A    between atoms: C1_1  and  C5_5 
ROOT
HETATM    1  C2  UNL     1     -34.697   7.497   6.958  1.00 20.00     0.006 C 
HETATM    2  C3  UNL     1     -35.048   6.002   6.983  1.00 20.00     0.006 C 
HETATM    3  C4  UNL     1     -32.812   6.225   6.275  1.00 20.00     0.011 C 
HETATM    4  C5  UNL     1     -34.042   7.356   4.542  1.00 20.00     0.067 C 
HETATM    5  C6  UNL     1     -33.508   7.555   5.981  1.00 20.00    -0.002 C 
HETATM    6  C7  UNL     1     -34.064   5.396   5.962  1.00 20.00    -0.006 C 
HETATM    7  C8  UNL     1     -34.391   5.834   4.496  1.00 20.00    -0.033 C 
HETATM    8  C10 UNL     1     -33.539   5.016   3.503  1.00 20.00     0.016 C 
HETATM    9  C11 UNL     1     -35.863   5.621   4.108  1.00 20.00     0.016 C 
ENDROOT
BRANCH   4  10
HETATM   10  C1  UNL     1     -33.028   7.806   3.532  1.00 20.00     0.128 C 
HETATM   11  C9  UNL     1     -33.561   8.344   2.232  1.00 20.00     0.091 C 
HETATM   12  O12 UNL     1     -31.821   7.741   3.758  1.00 20.00    -0.298 OA
ENDBRANCH   4  10
TORSDOF 1
