REMARK  3 active torsions:
REMARK  status: ('A' for Active; 'I' for Inactive)
REMARK    1  A    between atoms: C3_3  and  C5_5 
REMARK    2  A    between atoms: C4_4  and  C6_6 
REMARK    3  A    between atoms: C5_5  and  C6_6 
ROOT
HETATM    1  C1  UNL     1     -32.847   5.887   3.389  1.00 20.00     0.059 C 
HETATM    2  C4  UNL     1     -32.473   7.210   3.905  1.00 20.00     0.124 C 
HETATM    3  N7  UNL     1     -33.141   4.842   2.980  1.00 20.00    -0.197 NA
ENDROOT
BRANCH   2   4
HETATM    4  C6  UNL     1     -32.942   7.423   5.346  1.00 20.00     0.020 C 
BRANCH   4   5
HETATM    5  C5  UNL     1     -34.471   7.397   5.482  1.00 20.00     0.051 C 
BRANCH   5   6
HETATM    6  C3  UNL     1     -35.053   6.064   5.104  1.00 20.00     0.002 C 
HETATM    7  C2  UNL     1     -35.981   5.894   4.154  1.00 20.00     0.032 C 
HETATM    8 CL8  UNL     1     -34.412   4.690   5.939  1.00 20.00    -0.090 Cl
ENDBRANCH   5   6
ENDBRANCH   4   5
ENDBRANCH   2   4
TORSDOF 3
