REMARK  1 active torsions:
REMARK  status: ('A' for Active; 'I' for Inactive)
REMARK    1  A    between atoms: C1_1  and  C6_6 
ROOT
HETATM    1  C2  UNL     1     -34.134   6.067   4.001  1.00 20.00     0.038 C 
HETATM    2  C3  UNL     1     -33.042   7.492   5.751  1.00 20.00     0.038 C 
HETATM    3  C4  UNL     1     -35.199   5.731   5.038  1.00 20.00     0.168 C 
HETATM    4  C5  UNL     1     -34.167   7.079   6.692  1.00 20.00     0.168 C 
HETATM    5  C6  UNL     1     -33.509   7.423   4.303  1.00 20.00     0.051 C 
HETATM    6  O8  UNL     1     -34.654   5.779   6.357  1.00 20.00    -0.391 OA
ENDROOT
BRANCH   5   7
HETATM    7  C1  UNL     1     -32.301   7.601   3.404  1.00 20.00     0.235 C 
HETATM    8  O7  UNL     1     -32.209   7.099   2.289  1.00 20.00    -0.306 OA
ENDBRANCH   5   7
TORSDOF 1
