REMARK  0 active torsions:
REMARK  status: ('A' for Active; 'I' for Inactive)
ROOT
HETATM    1  C1  UNL     1     -33.218   7.024   6.353  1.00 20.00     0.009 C 
HETATM    2  C2  UNL     1     -35.342   7.448   5.089  1.00 20.00     0.009 C 
HETATM    3  C3  UNL     1     -34.875   5.168   6.024  1.00 20.00     0.009 C 
HETATM    4  C4  UNL     1     -33.149   7.400   3.875  1.00 20.00     0.048 C 
HETATM    5  C5  UNL     1     -32.681   5.121   4.811  1.00 20.00     0.048 C 
HETATM    6  C6  UNL     1     -34.805   5.546   3.547  1.00 20.00     0.048 C 
HETATM    7  C7  UNL     1     -33.847   7.804   5.184  1.00 20.00    -0.011 C 
HETATM    8  C8  UNL     1     -33.376   5.509   6.126  1.00 20.00    -0.011 C 
HETATM    9  C9  UNL     1     -35.515   5.936   4.853  1.00 20.00    -0.011 C 
HETATM   10  C10 UNL     1     -33.313   5.892   3.645  1.00 20.00     0.104 C 
HETATM   11  F11 UNL     1     -32.695   5.545   2.489  1.00 20.00    -0.243 F 
ENDROOT
TORSDOF 0
