REMARK  1 active torsions:
REMARK  status: ('A' for Active; 'I' for Inactive)
REMARK    1  A    between atoms: C1_1  and  C6_6 
ROOT
HETATM    1  C2  UNL     1     -34.012   4.345   3.556  1.00 20.00     0.002 C 
HETATM    2  C3  UNL     1     -32.939   5.211   2.904  1.00 20.00     0.012 C 
HETATM    3  C4  UNL     1     -34.293   4.779   4.994  1.00 20.00     0.009 C 
HETATM    4  C5  UNL     1     -33.563   7.134   4.425  1.00 20.00     0.021 C 
HETATM    5  C6  UNL     1     -33.285   6.698   2.983  1.00 20.00     0.055 C 
HETATM    6  C7  UNL     1     -34.644   6.279   5.126  1.00 20.00    -0.047 C 
HETATM    7  C9  UNL     1     -34.687   6.652   6.620  1.00 20.00     0.015 C 
HETATM    8  C10 UNL     1     -36.034   6.565   4.527  1.00 20.00     0.015 C 
ENDROOT
BRANCH   5   9
HETATM    9  C1  UNL     1     -32.146   7.495   2.425  1.00 20.00     0.127 C 
HETATM   10  C8  UNL     1     -32.166   7.757   0.943  1.00 20.00     0.091 C 
HETATM   11  O11 UNL     1     -31.240   7.916   3.142  1.00 20.00    -0.298 OA
ENDBRANCH   5   9
TORSDOF 1
