REMARK  0 active torsions:
REMARK  status: ('A' for Active; 'I' for Inactive)
ROOT
HETATM    1  C1  UNL     1     -32.843   6.600   5.010  1.00 20.00     0.048 C 
HETATM    2  C2  UNL     1     -34.489   7.192   3.422  1.00 20.00     0.177 C 
HETATM    3  C3  UNL     1     -33.088   6.602   3.501  1.00 20.00    -0.023 C 
HETATM    4  C4  UNL     1     -34.245   6.510   5.634  1.00 20.00     0.054 C 
HETATM    5  C5  UNL     1     -33.069   5.173   2.934  1.00 20.00     0.017 C 
HETATM    6  C6  UNL     1     -32.066   7.454   2.748  1.00 20.00     0.017 C 
HETATM    7  C7  UNL     1     -34.479   7.636   6.645  1.00 20.00     0.045 C 
HETATM    8  C8  UNL     1     -34.505   5.160   6.299  1.00 20.00     0.045 C 
HETATM    9  O9  UNL     1     -35.191   6.673   4.559  1.00 20.00    -0.380 OA
ENDROOT
TORSDOF 0
