REMARK  2 active torsions:
REMARK  status: ('A' for Active; 'I' for Inactive)
REMARK    1  A    between atoms: C1_1  and  C3_3 
REMARK    2  A    between atoms: C2_2  and  C3_3 
ROOT
HETATM    1  C3  UNL     1     -33.787   6.605   4.495  1.00 20.00     0.139 C 
HETATM    2 CL6  UNL     1     -34.350   4.951   4.887  1.00 20.00    -0.120 Cl
ENDROOT
BRANCH   1   3
HETATM    3  C1  UNL     1     -33.332   7.303   5.767  1.00 20.00     0.244 C 
HETATM    4  F4  UNL     1     -34.358   7.352   6.658  1.00 20.00    -0.254 F 
ENDBRANCH   1   3
BRANCH   1   5
HETATM    5  C2  UNL     1     -32.674   6.527   3.462  1.00 20.00     0.244 C 
HETATM    6  F5  UNL     1     -33.139   5.893   2.351  1.00 20.00    -0.254 F 
ENDBRANCH   1   5
TORSDOF 2
