REMARK  1 active torsions:
REMARK  status: ('A' for Active; 'I' for Inactive)
REMARK    1  A    between atoms: C9_9  and  O10_10 
ROOT
HETATM    1  C1  UNL     1     -31.184   8.417   3.345  1.00 20.00     0.001 C 
HETATM    2  C2  UNL     1     -31.676   8.622   4.786  1.00 20.00     0.005 C 
HETATM    3  C3  UNL     1     -32.017   7.266   2.756  1.00 20.00     0.005 C 
HETATM    4  C4  UNL     1     -33.517   7.451   6.194  1.00 20.00     0.007 C 
HETATM    5  C5  UNL     1     -34.323   6.148   6.244  1.00 20.00     0.032 C 
HETATM    6  C6  UNL     1     -33.898   5.780   3.750  1.00 20.00     0.036 C 
HETATM    7  C7  UNL     1     -32.489   7.369   5.076  1.00 20.00    -0.010 C 
HETATM    8  C8  UNL     1     -33.172   7.115   3.734  1.00 20.00    -0.008 C 
HETATM    9  C9  UNL     1     -34.933   5.772   4.884  1.00 20.00     0.118 C 
ENDROOT
BRANCH   9  10
HETATM   10  O10 UNL     1     -35.510   4.473   4.962  1.00 20.00    -0.396 OA
HETATM   11  H26 UNL     1     -36.196   4.514   5.647  1.00 20.00     0.210 HD
ENDBRANCH   9  10
TORSDOF 1
