REMARK  1 active torsions:
REMARK  status: ('A' for Active; 'I' for Inactive)
REMARK    1  A    between atoms: C1_1  and  C5_5 
ROOT
HETATM    1  C2  UNL     1     -33.561   7.105   6.247  1.00 20.00     0.040 C 
HETATM    2  C3  UNL     1     -33.860   5.651   6.548  1.00 20.00     0.168 C 
HETATM    3  C4  UNL     1     -35.005   6.217   4.595  1.00 20.00     0.179 C 
HETATM    4  C5  UNL     1     -33.892   7.224   4.782  1.00 20.00     0.073 C 
HETATM    5  O7  UNL     1     -34.884   5.238   5.638  1.00 20.00    -0.390 OA
ENDROOT
BRANCH   4   6
HETATM    6  C1  UNL     1     -32.683   6.814   3.958  1.00 20.00     0.237 C 
HETATM    7  O6  UNL     1     -32.163   7.537   3.115  1.00 20.00    -0.306 OA
ENDBRANCH   4   6
TORSDOF 1
