REMARK  1 active torsions:
REMARK  status: ('A' for Active; 'I' for Inactive)
REMARK    1  A    between atoms: C2_2  and  C4_4 
ROOT
HETATM    1  C4  UNL     1     -34.452   6.281   5.204  1.00 20.00     0.407 C 
HETATM    2  F5  UNL     1     -34.348   7.558   5.652  1.00 20.00    -0.167 F 
HETATM    3  F6  UNL     1     -35.752   6.090   4.862  1.00 20.00    -0.167 F 
HETATM    4  F7  UNL     1     -34.204   5.471   6.264  1.00 20.00    -0.167 F 
ENDROOT
BRANCH   1   5
HETATM    5  C2  UNL     1     -33.547   6.037   4.048  1.00 20.00     0.084 C 
HETATM    6  C1  UNL     1     -33.439   4.867   3.403  1.00 20.00    -0.026 C 
HETATM    7  C3  UNL     1     -32.525   4.638   2.245  1.00 20.00     0.036 C 
ENDBRANCH   1   5
TORSDOF 1
