REMARK  2 active torsions:
REMARK  status: ('A' for Active; 'I' for Inactive)
REMARK    1  A    between atoms: C1_1  and  C2_2 
REMARK    2  A    between atoms: C1_1  and  C3_3 
ROOT
HETATM    1  C3  UNL     1     -34.345   5.815   4.837  1.00 20.00     0.390 C 
HETATM    2  F5  UNL     1     -34.575   5.195   6.016  1.00 20.00    -0.171 F 
HETATM    3  F6  UNL     1     -33.918   7.066   5.109  1.00 20.00    -0.171 F 
HETATM    4  F7  UNL     1     -35.525   5.908   4.187  1.00 20.00    -0.171 F 
ENDROOT
BRANCH   1   5
HETATM    5  C1  UNL     1     -33.324   5.048   4.025  1.00 20.00     0.148 C 
BRANCH   5   6
HETATM    6  C2  UNL     1     -33.020   5.723   2.700  1.00 20.00     0.230 C 
HETATM    7  F4  UNL     1     -32.524   6.968   2.934  1.00 20.00    -0.255 F 
ENDBRANCH   5   6
ENDBRANCH   1   5
TORSDOF 2
