REMARK  1 active torsions:
REMARK  status: ('A' for Active; 'I' for Inactive)
REMARK    1  A    between atoms: C1_1  and  C6_6 
ROOT
HETATM    1  C2  UNL     1     -33.351   5.374   6.683  1.00 20.00     0.005 C 
HETATM    2  C3  UNL     1     -33.289   6.829   6.199  1.00 20.00     0.006 C 
HETATM    3  C4  UNL     1     -33.993   4.604   4.390  1.00 20.00     0.016 C 
HETATM    4  C5  UNL     1     -35.440   5.969   5.708  1.00 20.00     0.010 C 
HETATM    5  C6  UNL     1     -33.951   6.049   3.866  1.00 20.00     0.051 C 
HETATM    6  C7  UNL     1     -34.489   4.779   5.838  1.00 20.00    -0.013 C 
HETATM    7  C8  UNL     1     -34.368   6.877   5.100  1.00 20.00    -0.003 C 
ENDROOT
BRANCH   5   8
HETATM    8  C1  UNL     1     -32.621   6.437   3.302  1.00 20.00     0.236 C 
HETATM    9  O9  UNL     1     -32.179   7.580   3.339  1.00 20.00    -0.306 OA
ENDBRANCH   5   8
TORSDOF 1
