REMARK  1 active torsions:
REMARK  status: ('A' for Active; 'I' for Inactive)
REMARK    1  A    between atoms: C4_4  and  N7_7 
ROOT
HETATM    1  C1  UNL     1     -32.312   7.162   2.145  1.00 20.00     0.163 C 
HETATM    2  N7  UNL     1     -32.751   6.104   2.450  1.00 20.00    -0.231 NA
HETATM    3  S9  UNL     1     -31.716   8.580   1.726  1.00 20.00    -0.055 SA
ENDROOT
BRANCH   2   4
HETATM    4  C4  UNL     1     -33.524   6.128   3.599  1.00 20.00     0.094 A 
HETATM    5  C2  UNL     1     -34.610   5.291   3.919  1.00 20.00     0.171 A 
HETATM    6  N6  UNL     1     -35.145   5.572   5.110  1.00 20.00    -0.183 NA
HETATM    7  N8  UNL     1     -34.392   6.595   5.548  1.00 20.00    -0.283 N 
HETATM    8  C3  UNL     1     -33.407   6.966   4.681  1.00 20.00     0.145 A 
HETATM    9  C5  UNL     1     -34.668   7.189   6.835  1.00 20.00     0.179 C 
ENDBRANCH   2   4
TORSDOF 1
