REMARK  1 active torsions:
REMARK  status: ('A' for Active; 'I' for Inactive)
REMARK    1  A    between atoms: C1_1  and  C3_3 
ROOT
HETATM    1  C2  UNL     1     -32.676   6.457   5.451  1.00 20.00     0.110 C 
HETATM    2  C3  UNL     1     -33.497   6.795   4.174  1.00 20.00     0.110 C 
HETATM    3  C4  UNL     1     -33.993   6.212   6.210  1.00 20.00     0.310 C 
HETATM    4  C5  UNL     1     -34.694   6.036   4.839  1.00 20.00     0.323 C 
HETATM    5  C6  UNL     1     -33.750   8.295   3.998  1.00 20.00     0.031 C 
HETATM    6  F8  UNL     1     -34.436   7.251   6.954  1.00 20.00    -0.200 F 
HETATM    7  F9  UNL     1     -34.011   5.125   7.014  1.00 20.00    -0.200 F 
HETATM    8  F10 UNL     1     -34.851   4.749   4.448  1.00 20.00    -0.198 F 
HETATM    9  F11 UNL     1     -35.906   6.623   4.725  1.00 20.00    -0.198 F 
ENDROOT
BRANCH   2  10
HETATM   10  C1  UNL     1     -32.966   6.168   2.855  1.00 20.00     0.233 C 
HETATM   11  O7  UNL     1     -32.872   4.953   2.710  1.00 20.00    -0.279 OA
HETATM   12 CL12 UNL     1     -32.547   7.376   1.678  1.00 20.00    -0.043 Cl
ENDBRANCH   2  10
TORSDOF 1
