REMARK  2 active torsions:
REMARK  status: ('A' for Active; 'I' for Inactive)
REMARK    1  A    between atoms: C3_3  and  O6_6 
REMARK    2  A    between atoms: C4_4  and  O6_6 
ROOT
HETATM    1  C1  UNL     1     -33.991   6.744   6.584  1.00 20.00     0.014 C 
HETATM    2  C2  UNL     1     -34.393   5.959   5.769  1.00 20.00    -0.091 C 
HETATM    3  C4  UNL     1     -34.884   5.003   4.776  1.00 20.00     0.272 C 
ENDROOT
BRANCH   3   4
HETATM    4  O6  UNL     1     -33.810   4.508   3.987  1.00 20.00    -0.297 OA
BRANCH   4   5
HETATM    5  C3  UNL     1     -33.097   5.441   3.270  1.00 20.00     0.358 C 
HETATM    6  O5  UNL     1     -32.953   6.601   3.644  1.00 20.00    -0.245 OA
HETATM    7 CL7  UNL     1     -32.431   4.793   1.794  1.00 20.00    -0.012 Cl
ENDBRANCH   4   5
ENDBRANCH   3   4
TORSDOF 2
