REMARK  1 active torsions:
REMARK  status: ('A' for Active; 'I' for Inactive)
REMARK    1  A    between atoms: C4_4  and  C7_7 
ROOT
HETATM    1  C1  UNL     1     -34.309   6.198   6.107  1.00 20.00     0.063 C 
HETATM    2  C7  UNL     1     -34.461   5.436   4.857  1.00 20.00     0.165 C 
HETATM    3  N8  UNL     1     -34.189   6.798   7.092  1.00 20.00    -0.197 NA
ENDROOT
BRANCH   2   4
HETATM    4  C4  UNL     1     -33.701   6.085   3.751  1.00 20.00    -0.006 A 
HETATM    5  C3  UNL     1     -33.227   7.376   3.916  1.00 20.00     0.128 A 
HETATM    6  N9  UNL     1     -32.529   8.052   2.975  1.00 20.00    -0.248 NA
HETATM    7  C6  UNL     1     -32.299   7.399   1.814  1.00 20.00     0.127 A 
HETATM    8  C2  UNL     1     -32.730   6.109   1.551  1.00 20.00     0.068 A 
HETATM    9 CL11 UNL     1     -31.411   8.294   0.650  1.00 20.00    -0.062 Cl
HETATM   10  C5  UNL     1     -33.444   5.446   2.543  1.00 20.00     0.045 A 
HETATM   11 CL10 UNL     1     -33.993   3.839   2.241  1.00 20.00    -0.084 Cl
ENDBRANCH   2   4
TORSDOF 1
