REMARK  4 active torsions:
REMARK  status: ('A' for Active; 'I' for Inactive)
REMARK    1  A    between atoms: C4_4  and  C7_7 
REMARK    2  A    between atoms: C5_5  and  C8_8 
REMARK    3  A    between atoms: C6_6  and  C8_8 
REMARK    4  A    between atoms: C7_7  and  C8_8 
ROOT
HETATM    1  C8  UNL     1     -33.178   6.629   3.640  1.00 20.00     0.036 C 
HETATM    2 CL9  UNL     1     -32.534   4.988   3.203  1.00 20.00    -0.119 Cl
ENDROOT
BRANCH   1   3
HETATM    3  C5  UNL     1     -34.448   6.402   4.496  1.00 20.00     0.021 C 
HETATM    4  C2  UNL     1     -34.230   5.593   5.770  1.00 20.00     0.007 C 
ENDBRANCH   1   3
BRANCH   1   5
HETATM    5  C6  UNL     1     -32.062   7.392   4.405  1.00 20.00     0.021 C 
HETATM    6  C3  UNL     1     -32.422   8.787   4.907  1.00 20.00     0.007 C 
ENDBRANCH   1   5
BRANCH   1   7
HETATM    7  C7  UNL     1     -33.464   7.400   2.321  1.00 20.00     0.025 C 
BRANCH   7   8
HETATM    8  C4  UNL     1     -32.254   7.664   1.416  1.00 20.00    -0.003 C 
HETATM    9  C1  UNL     1     -32.647   8.489   0.199  1.00 20.00     0.005 C 
ENDBRANCH   7   8
ENDBRANCH   1   7
TORSDOF 4
