REMARK  0 active torsions:
REMARK  status: ('A' for Active; 'I' for Inactive)
ROOT
HETATM    1  C1  UNL     1     -32.605   5.726   2.320  1.00 20.00     0.031 A 
HETATM    2  C2  UNL     1     -32.702   7.953   3.291  1.00 20.00     0.043 A 
HETATM    3  C3  UNL     1     -33.542   6.045   4.492  1.00 20.00     0.033 A 
HETATM    4  C4  UNL     1     -33.205   5.185   3.457  1.00 20.00    -0.045 A 
HETATM    5  C5  UNL     1     -33.299   7.412   4.421  1.00 20.00     0.017 A 
HETATM    6  C6  UNL     1     -32.354   7.103   2.237  1.00 20.00     0.035 A 
HETATM    7  C7  UNL     1     -34.177   5.647   5.753  1.00 20.00     0.171 A 
HETATM    8  C8  UNL     1     -34.426   6.803   6.693  1.00 20.00     0.163 A 
HETATM    9  C9  UNL     1     -33.457   3.716   3.505  1.00 20.00     0.049 C 
HETATM   10  O10 UNL     1     -34.477   4.493   6.020  1.00 20.00    -0.291 OA
HETATM   11  S11 UNL     1     -33.816   8.298   5.858  1.00 20.00    -0.121 SA
HETATM   12 CL12 UNL     1     -31.612   7.753   0.826  1.00 20.00    -0.084 Cl
ENDROOT
TORSDOF 0
