REMARK  2 active torsions:
REMARK  status: ('A' for Active; 'I' for Inactive)
REMARK    1  A    between atoms: C1_1  and  C2_2 
REMARK    2  A    between atoms: C1_1  and  C3_3 
ROOT
HETATM    1  C1  UNL     1     -33.691   6.620   4.300  1.00 20.00     0.341 C 
HETATM    2  F4  UNL     1     -32.542   7.337   4.144  1.00 20.00    -0.234 F 
ENDROOT
BRANCH   1   3
HETATM    3  C2  UNL     1     -33.948   6.464   5.782  1.00 20.00     0.395 C 
HETATM    4  F5  UNL     1     -35.094   5.762   5.968  1.00 20.00    -0.211 F 
HETATM    5  F6  UNL     1     -34.134   7.678   6.355  1.00 20.00    -0.211 F 
ENDBRANCH   1   3
BRANCH   1   6
HETATM    6  C3  UNL     1     -33.520   5.299   3.590  1.00 20.00     0.423 C 
HETATM    7  F7  UNL     1     -33.213   5.495   2.289  1.00 20.00    -0.168 F 
HETATM    8  F8  UNL     1     -34.656   4.571   3.636  1.00 20.00    -0.168 F 
HETATM    9  F9  UNL     1     -32.532   4.564   4.141  1.00 20.00    -0.168 F 
ENDBRANCH   1   6
TORSDOF 2
