REMARK  2 active torsions:
REMARK  status: ('A' for Active; 'I' for Inactive)
REMARK    1  A    between atoms: C2_2  and  C3_3 
REMARK    2  A    between atoms: C3_3  and  O9_9 
ROOT
HETATM    1  C1  UNL     1     -33.614   7.661   5.458  1.00 20.00    -0.013 C 
HETATM    2  C2  UNL     1     -33.524   6.495   4.808  1.00 20.00     0.013 C 
HETATM    3  C4  UNL     1     -34.169   7.485   6.832  1.00 20.00     0.028 C 
HETATM    4  C5  UNL     1     -34.007   5.354   5.645  1.00 20.00     0.045 C 
HETATM    5  C6  UNL     1     -34.727   6.063   6.793  1.00 20.00     0.009 C 
ENDROOT
BRANCH   2   6
HETATM    6  C3  UNL     1     -33.020   6.301   3.485  1.00 20.00     0.288 C 
HETATM    7  O8  UNL     1     -32.956   5.209   2.924  1.00 20.00    -0.260 OA
BRANCH   6   8
HETATM    8  O9  UNL     1     -32.636   7.502   2.970  1.00 20.00    -0.323 OA
HETATM    9  C7  UNL     1     -32.106   7.472   1.641  1.00 20.00     0.213 C 
ENDBRANCH   6   8
ENDBRANCH   2   6
TORSDOF 2
