REMARK  2 active torsions:
REMARK  status: ('A' for Active; 'I' for Inactive)
REMARK    1  A    between atoms: C7_7  and  C10_10 
REMARK    2  A    between atoms: C8_8  and  C9_9 
ROOT
HETATM    1  C1  UNL     1     -32.903   6.575   1.893  1.00 20.00    -0.019 A 
HETATM    2  C3  UNL     1     -32.331   7.742   1.577  1.00 20.00    -0.087 A 
HETATM    3  C5  UNL     1     -31.778   8.455   2.773  1.00 20.00     0.039 A 
HETATM    4  C8  UNL     1     -32.824   6.275   3.354  1.00 20.00     0.021 A 
HETATM    5  C10 UNL     1     -32.088   7.523   3.953  1.00 20.00     0.005 A 
HETATM    6  C11 UNL     1     -32.227   8.338   0.220  1.00 20.00     0.043 C 
ENDROOT
BRANCH   4   7
HETATM    7  C9  UNL     1     -34.179   6.286   4.107  1.00 20.00     0.022 C 
HETATM    8  C4  UNL     1     -33.879   5.978   5.560  1.00 20.00    -0.082 C 
HETATM    9  C2  UNL     1     -33.253   7.049   6.075  1.00 20.00    -0.019 C 
HETATM   10  C12 UNL     1     -34.203   4.683   6.200  1.00 20.00     0.043 C 
HETATM   11  C7  UNL     1     -33.132   8.071   4.964  1.00 20.00     0.014 C 
HETATM   12  C6  UNL     1     -34.463   7.788   4.258  1.00 20.00     0.018 C 
ENDBRANCH   4   7
TORSDOF 2
