REMARK  1 active torsions:
REMARK  status: ('A' for Active; 'I' for Inactive)
REMARK    1  A    between atoms: C2_2  and  C7_7 
ROOT
HETATM    1  C1  UNL     1     -32.827   6.629   3.122  1.00 20.00     0.127 C 
HETATM    2  C3  UNL     1     -32.403   7.418   4.338  1.00 20.00     0.079 C 
HETATM    3  C4  UNL     1     -33.826   5.521   3.354  1.00 20.00     0.079 C 
HETATM    4  C5  UNL     1     -33.619   7.903   5.120  1.00 20.00     0.019 C 
HETATM    5  C6  UNL     1     -35.031   6.041   4.128  1.00 20.00     0.019 C 
HETATM    6  C7  UNL     1     -34.650   6.806   5.397  1.00 20.00     0.048 C 
HETATM    7  O8  UNL     1     -32.310   6.813   2.021  1.00 20.00    -0.298 OA
ENDROOT
BRANCH   6   8
HETATM    8  C2  UNL     1     -34.170   5.858   6.458  1.00 20.00     0.235 C 
HETATM    9  O9  UNL     1     -34.523   4.685   6.525  1.00 20.00    -0.306 OA
ENDBRANCH   6   8
TORSDOF 1
