REMARK  1 active torsions:
REMARK  status: ('A' for Active; 'I' for Inactive)
REMARK    1  A    between atoms: C4_4  and  C5_5 
ROOT
HETATM    1  C1  UNL     1     -33.994   5.424   3.478  1.00 20.00     0.059 C 
HETATM    2  C5  UNL     1     -34.935   5.924   4.485  1.00 20.00     0.128 C 
HETATM    3  N6  UNL     1     -33.251   5.030   2.678  1.00 20.00    -0.197 NA
ENDROOT
BRANCH   2   4
HETATM    4  C4  UNL     1     -34.151   6.037   5.746  1.00 20.00    -0.002 A 
HETATM    5  C2  UNL     1     -33.426   7.313   6.076  1.00 20.00     0.006 A 
HETATM    6  C3  UNL     1     -34.641   6.912   6.866  1.00 20.00     0.006 A 
ENDBRANCH   2   4
TORSDOF 1
