REMARK  1 active torsions:
REMARK  status: ('A' for Active; 'I' for Inactive)
REMARK    1  A    between atoms: C1_1  and  C6_6 
ROOT
HETATM    1  C2  UNL     1     -34.660   6.323   6.982  1.00 20.00     0.005 C 
HETATM    2  C3  UNL     1     -34.312   4.940   6.410  1.00 20.00     0.006 C 
HETATM    3  C4  UNL     1     -33.470   7.441   5.077  1.00 20.00     0.020 C 
HETATM    4  C5  UNL     1     -35.463   6.182   4.747  1.00 20.00     0.010 C 
HETATM    5  C6  UNL     1     -33.075   6.052   4.547  1.00 20.00     0.091 C 
HETATM    6  C7  UNL     1     -34.847   7.185   5.719  1.00 20.00    -0.013 C 
HETATM    7  C8  UNL     1     -34.307   5.188   4.891  1.00 20.00     0.000 C 
ENDROOT
BRANCH   5   8
HETATM    8  C1  UNL     1     -32.862   6.063   3.045  1.00 20.00     0.177 C 
HETATM    9  O9  UNL     1     -32.383   7.133   2.577  1.00 20.00    -0.648 OA
HETATM   10  O10 UNL     1     -33.194   4.997   2.455  1.00 20.00    -0.648 OA
ENDBRANCH   5   8
TORSDOF 1
