REMARK  3 active torsions:
REMARK  status: ('A' for Active; 'I' for Inactive)
REMARK    1  A    between atoms: C3_3  and  C4_4 
REMARK    2  A    between atoms: C4_4  and  O10_10 
REMARK    3  A    between atoms: C7_7  and  O10_10 
ROOT
HETATM    1  C1  UNL     1     -32.437   6.960   2.424  1.00 20.00     0.105 C 
HETATM    2  C2  UNL     1     -32.825   4.616   2.107  1.00 20.00     0.042 C 
HETATM    3  C3  UNL     1     -33.034   5.729   2.823  1.00 20.00     0.110 C 
HETATM    4  N8  UNL     1     -31.950   7.962   2.101  1.00 20.00    -0.191 NA
ENDROOT
BRANCH   3   5
HETATM    5  C4  UNL     1     -33.899   5.625   4.031  1.00 20.00     0.303 C 
HETATM    6  O9  UNL     1     -34.433   4.594   4.414  1.00 20.00    -0.258 OA
BRANCH   5   7
HETATM    7  O10 UNL     1     -33.995   6.844   4.630  1.00 20.00    -0.312 OA
BRANCH   7   8
HETATM    8  C7  UNL     1     -33.522   6.911   5.979  1.00 20.00     0.124 C 
HETATM    9  C5  UNL     1     -32.965   8.302   6.246  1.00 20.00     0.040 C 
HETATM   10  C6  UNL     1     -34.660   6.565   6.927  1.00 20.00     0.040 C 
ENDBRANCH   7   8
ENDBRANCH   5   7
ENDBRANCH   3   5
TORSDOF 3
