REMARK  1 active torsions:
REMARK  status: ('A' for Active; 'I' for Inactive)
REMARK    1  A    between atoms: C5_5  and  C10_10 
ROOT
HETATM    1  C1  UNL     1     -34.555   6.742   3.237  1.00 20.00     0.011 C 
HETATM    2  C2  UNL     1     -33.225   7.624   5.202  1.00 20.00     0.011 C 
HETATM    3  C3  UNL     1     -35.229   5.659   4.085  1.00 20.00     0.079 C 
HETATM    4  C4  UNL     1     -34.291   6.934   6.058  1.00 20.00     0.079 C 
HETATM    5  C5  UNL     1     -33.161   7.109   3.753  1.00 20.00    -0.007 C 
HETATM    6  C6  UNL     1     -34.686   5.580   5.504  1.00 20.00     0.243 C 
HETATM    7  F11 UNL     1     -35.612   5.004   6.310  1.00 20.00    -0.206 F 
HETATM    8  F12 UNL     1     -33.601   4.760   5.527  1.00 20.00    -0.206 F 
ENDROOT
BRANCH   5   9
HETATM    9  C10 UNL     1     -32.488   8.136   2.844  1.00 20.00    -0.048 C 
HETATM   10  C7  UNL     1     -32.383   7.576   1.415  1.00 20.00     0.015 C 
HETATM   11  C8  UNL     1     -31.077   8.449   3.369  1.00 20.00     0.015 C 
HETATM   12  C9  UNL     1     -33.318   9.431   2.819  1.00 20.00     0.015 C 
ENDBRANCH   5   9
TORSDOF 1
