REMARK  2 active torsions:
REMARK  status: ('A' for Active; 'I' for Inactive)
REMARK    1  A    between atoms: C1_1  and  C4_4 
REMARK    2  A    between atoms: C3_3  and  C4_4 
ROOT
HETATM    1  C4  UNL     1     -34.220   5.436   4.728  1.00 20.00     0.359 C 
HETATM    2  F10 UNL     1     -34.002   4.148   5.113  1.00 20.00    -0.192 F 
HETATM    3  F11 UNL     1     -35.565   5.556   4.565  1.00 20.00    -0.192 F 
ENDROOT
BRANCH   1   4
HETATM    4  C1  UNL     1     -33.468   5.721   3.466  1.00 20.00     0.238 C 
HETATM    5  C2  UNL     1     -32.529   6.661   3.324  1.00 20.00     0.307 C 
HETATM    6  F6  UNL     1     -31.904   6.844   2.142  1.00 20.00    -0.170 F 
HETATM    7  F7  UNL     1     -32.203   7.441   4.376  1.00 20.00    -0.170 F 
HETATM    8  F5  UNL     1     -33.776   4.977   2.377  1.00 20.00    -0.198 F 
ENDBRANCH   1   4
BRANCH   1   9
HETATM    9  C3  UNL     1     -33.795   6.347   5.860  1.00 20.00     0.432 C 
HETATM   10  F8  UNL     1     -34.073   7.637   5.552  1.00 20.00    -0.207 F 
HETATM   11  F9  UNL     1     -34.519   6.048   6.968  1.00 20.00    -0.207 F 
ENDBRANCH   1   9
TORSDOF 2
