REMARK  1 active torsions:
REMARK  status: ('A' for Active; 'I' for Inactive)
REMARK    1  A    between atoms: C2_2  and  C3_3 
ROOT
HETATM    1  C1  UNL     1     -33.724   6.989   5.163  1.00 20.00    -0.019 C 
HETATM    2  C2  UNL     1     -33.701   5.804   4.525  1.00 20.00    -0.004 C 
HETATM    3  C4  UNL     1     -34.320   7.291   6.503  1.00 20.00     0.036 C 
HETATM    4  C5  UNL     1     -34.319   4.534   5.045  1.00 20.00     0.053 C 
ENDROOT
BRANCH   2   5
HETATM    5  C3  UNL     1     -33.023   5.669   3.175  1.00 20.00     0.247 C 
HETATM    6  O6  UNL     1     -33.032   4.562   2.635  1.00 20.00    -0.274 OA
HETATM    7 CL7  UNL     1     -32.265   7.061   2.419  1.00 20.00    -0.039 Cl
ENDBRANCH   2   5
TORSDOF 1
