REMARK  3 active torsions:
REMARK  status: ('A' for Active; 'I' for Inactive)
REMARK    1  A    between atoms: C1_1  and  C3_3 
REMARK    2  A    between atoms: C1_1  and  N4_4 
REMARK    3  A    between atoms: C2_2  and  C3_3 
ROOT
HETATM    1  C1  UNL     1     -35.040   6.342   4.392  1.00 20.00     0.222 C 
ENDROOT
BRANCH   1   2
HETATM    2  C3  UNL     1     -34.040   5.526   3.580  1.00 20.00     0.120 C 
HETATM    3 CL8  UNL     1     -33.993   3.825   4.158  1.00 20.00    -0.122 Cl
BRANCH   2   4
HETATM    4  C2  UNL     1     -32.632   6.128   3.597  1.00 20.00     0.136 C 
HETATM    5 CL7  UNL     1     -32.549   7.767   2.904  1.00 20.00    -0.129 Cl
ENDBRANCH   2   4
ENDBRANCH   1   2
BRANCH   1   6
HETATM    6  N4  UNL     1     -34.563   6.429   5.786  1.00 20.00    -0.154 N 
HETATM    7  O5  UNL     1     -33.875   7.417   6.093  1.00 20.00    -0.536 OA
HETATM    8  O6  UNL     1     -34.891   5.521   6.566  1.00 20.00    -0.536 OA
ENDBRANCH   1   6
TORSDOF 3
