REMARK  0 active torsions:
REMARK  status: ('A' for Active; 'I' for Inactive)
ROOT
HETATM    1  C1  UNL     1     -32.828   7.054   3.739  1.00 20.00     0.064 C 
HETATM    2  C2  UNL     1     -33.744   4.206   5.792  1.00 20.00     0.005 C 
HETATM    3  C3  UNL     1     -34.010   4.351   4.287  1.00 20.00     0.006 C 
HETATM    4  C4  UNL     1     -33.739   6.694   6.052  1.00 20.00     0.024 C 
HETATM    5  C5  UNL     1     -35.720   5.493   5.467  1.00 20.00     0.010 C 
HETATM    6  C6  UNL     1     -34.036   6.890   4.552  1.00 20.00     0.097 C 
HETATM    7  C7  UNL     1     -34.505   5.400   6.391  1.00 20.00    -0.013 C 
HETATM    8  C8  UNL     1     -34.864   5.632   4.204  1.00 20.00     0.003 C 
HETATM    9  N9  UNL     1     -31.872   7.184   3.095  1.00 20.00    -0.197 NA
ENDROOT
TORSDOF 0
