REMARK  0 active torsions:
REMARK  status: ('A' for Active; 'I' for Inactive)
ROOT
HETATM    1  C1  UNL     1     -33.136   6.842   5.111  1.00 20.00     0.018 A 
HETATM    2  C2  UNL     1     -33.446   7.562   3.823  1.00 20.00     0.018 A 
HETATM    3  C3  UNL     1     -34.004   6.175   4.064  1.00 20.00     0.083 A 
HETATM    4  C4  UNL     1     -33.667   7.370   6.400  1.00 20.00     0.012 C 
HETATM    5  C5  UNL     1     -32.351   7.846   2.851  1.00 20.00     0.012 C 
HETATM    6 BR6  UNL     1     -33.286   4.656   3.153  1.00 20.00    -0.072 Br
HETATM    7 BR7  UNL     1     -35.893   6.010   4.316  1.00 20.00    -0.072 Br
ENDROOT
TORSDOF 0
