REMARK  0 active torsions:
REMARK  status: ('A' for Active; 'I' for Inactive)
ROOT
HETATM    1  C1  UNL     1     -35.187   6.635   6.369  1.00 20.00     0.009 C 
HETATM    2  C2  UNL     1     -35.265   4.818   4.643  1.00 20.00     0.012 C 
HETATM    3  C3  UNL     1     -33.396   4.877   6.315  1.00 20.00     0.012 C 
HETATM    4  C4  UNL     1     -34.734   7.173   3.961  1.00 20.00     0.051 C 
HETATM    5  C5  UNL     1     -32.867   7.233   5.633  1.00 20.00     0.051 C 
HETATM    6  C6  UNL     1     -35.570   6.302   4.915  1.00 20.00    -0.010 C 
HETATM    7  C7  UNL     1     -33.689   6.363   6.599  1.00 20.00    -0.010 C 
HETATM    8  C8  UNL     1     -33.765   4.534   4.862  1.00 20.00     0.024 C 
HETATM    9  C9  UNL     1     -32.938   5.418   3.915  1.00 20.00     0.213 C 
HETATM   10  C10 UNL     1     -33.242   6.895   4.184  1.00 20.00     0.135 C 
HETATM   11  F11 UNL     1     -33.270   5.120   2.628  1.00 20.00    -0.246 F 
HETATM   12  F12 UNL     1     -32.508   7.665   3.342  1.00 20.00    -0.240 F 
ENDROOT
TORSDOF 0
