REMARK  1 active torsions:
REMARK  status: ('A' for Active; 'I' for Inactive)
REMARK    1  A    between atoms: C1_1  and  C3_3 
ROOT
HETATM    1  C1  UNL     1     -33.271   6.788   4.020  1.00 20.00     0.038 A 
HETATM    2  C2  UNL     1     -33.827   5.489   3.522  1.00 20.00     0.160 A 
HETATM    3  C4  UNL     1     -34.946   5.058   4.451  1.00 20.00     0.090 A 
HETATM    4  C5  UNL     1     -34.008   7.236   5.211  1.00 20.00     0.039 A 
HETATM    5  C6  UNL     1     -35.053   6.161   5.481  1.00 20.00     0.011 A 
HETATM    6  C7  UNL     1     -33.987   6.471   6.519  1.00 20.00    -0.035 A 
HETATM    7  C9  UNL     1     -32.891   5.474   6.805  1.00 20.00     0.016 C 
HETATM    8  C10 UNL     1     -34.434   7.222   7.751  1.00 20.00     0.016 C 
HETATM    9  O12 UNL     1     -33.443   4.875   2.541  1.00 20.00    -0.293 OA
ENDROOT
BRANCH   1  10
HETATM   10  C3  UNL     1     -32.241   7.373   3.403  1.00 20.00     0.155 C 
HETATM   11  C8  UNL     1     -31.652   6.683   2.183  1.00 20.00     0.096 C 
HETATM   12  O11 UNL     1     -31.628   8.455   3.656  1.00 20.00    -0.293 OA
ENDBRANCH   1  10
TORSDOF 1
