REMARK  1 active torsions:
REMARK  status: ('A' for Active; 'I' for Inactive)
REMARK    1  A    between atoms: C6_6  and  C7_7 
ROOT
HETATM    1  C1  UNL     1     -33.667   6.801   5.268  1.00 20.00     0.051 A 
HETATM    2  C2  UNL     1     -33.517   5.055   3.434  1.00 20.00     0.051 A 
HETATM    3  C3  UNL     1     -32.946   7.636   4.512  1.00 20.00    -0.013 A 
HETATM    4  C4  UNL     1     -32.797   5.910   2.700  1.00 20.00    -0.013 A 
HETATM    5  C5  UNL     1     -34.016   5.451   4.770  1.00 20.00     0.171 A 
HETATM    6  C6  UNL     1     -32.438   7.306   3.134  1.00 20.00     0.044 A 
HETATM    7  O8  UNL     1     -34.691   4.682   5.447  1.00 20.00    -0.289 OA
ENDROOT
BRANCH   6   8
HETATM    8  C7  UNL     1     -32.967   8.324   2.122  1.00 20.00     0.127 C 
HETATM    9 CL9  UNL     1     -31.955   8.317   0.668  1.00 20.00    -0.130 Cl
ENDBRANCH   6   8
TORSDOF 1
