REMARK  5 active torsions:
REMARK  status: ('A' for Active; 'I' for Inactive)
REMARK    1  A    between atoms: C1_1  and  C2_2 
REMARK    2  A    between atoms: C1_1  and  C3_3 
REMARK    3  A    between atoms: C2_2  and  C7_7 
REMARK    4  A    between atoms: C7_7  and  C8_8 
REMARK    5  A    between atoms: C8_8  and  O9_9 
ROOT
HETATM    1  C2  UNL     1     -32.837   7.558   4.594  1.00 20.00     0.070 C 
ENDROOT
BRANCH   1   2
HETATM    2  C1  UNL     1     -32.683   7.011   3.422  1.00 20.00    -0.166 C 
BRANCH   2   3
HETATM    3  C3  UNL     1     -32.526   6.470   2.245  1.00 20.00     0.022 C 
HETATM    4  C4  UNL     1     -32.864   5.032   1.973  1.00 20.00     0.029 C 
HETATM    5  C5  UNL     1     -31.997   7.241   1.070  1.00 20.00     0.029 C 
ENDBRANCH   2   3
ENDBRANCH   1   2
BRANCH   1   6
HETATM    6  C7  UNL     1     -33.361   6.846   5.809  1.00 20.00     0.048 C 
BRANCH   6   7
HETATM    7  C8  UNL     1     -34.385   5.770   5.438  1.00 20.00     0.115 C 
HETATM    8  C6  UNL     1     -35.602   6.382   4.756  1.00 20.00     0.039 C 
BRANCH   7   9
HETATM    9  O9  UNL     1     -34.817   5.115   6.630  1.00 20.00    -0.396 OA
HETATM   10  H23 UNL     1     -35.449   4.433   6.356  1.00 20.00     0.210 HD
ENDBRANCH   7   9
ENDBRANCH   6   7
ENDBRANCH   1   6
TORSDOF 5
