REMARK  1 active torsions:
REMARK  status: ('A' for Active; 'I' for Inactive)
REMARK    1  A    between atoms: C8_8  and  C12_12 
ROOT
HETATM    1  C1  UNL     1     -33.706   5.903   6.747  1.00 20.00    -0.023 C 
HETATM    2  C2  UNL     1     -33.308   6.940   5.985  1.00 20.00    -0.081 C 
HETATM    3  C3  UNL     1     -34.630   4.823   6.249  1.00 20.00     0.034 C 
HETATM    4  C4  UNL     1     -35.129   6.367   4.356  1.00 20.00     0.018 C 
HETATM    5  C5  UNL     1     -33.660   4.358   3.948  1.00 20.00     0.173 C 
HETATM    6  C6  UNL     1     -33.799   7.110   4.549  1.00 20.00     0.043 C 
HETATM    7  C7  UNL     1     -34.875   4.904   4.729  1.00 20.00     0.014 C 
HETATM    8  C8  UNL     1     -32.752   6.537   3.557  1.00 20.00     0.133 C 
HETATM    9  C9  UNL     1     -32.373   7.993   6.504  1.00 20.00     0.043 C 
HETATM   10  O13 UNL     1     -33.188   5.295   2.980  1.00 20.00    -0.384 OA
ENDROOT
BRANCH   8  11
HETATM   11  C12 UNL     1     -32.519   7.496   2.394  1.00 20.00     0.007 C 
HETATM   12  C10 UNL     1     -31.600   8.639   2.818  1.00 20.00     0.012 C 
HETATM   13  C11 UNL     1     -31.935   6.753   1.195  1.00 20.00     0.012 C 
ENDBRANCH   8  11
TORSDOF 1
