REMARK  0 active torsions:
REMARK  status: ('A' for Active; 'I' for Inactive)
ROOT
HETATM    1  C1  UNL     1     -34.293   5.077   6.731  1.00 20.00     0.028 C 
HETATM    2  C2  UNL     1     -34.528   6.555   6.911  1.00 20.00     0.028 C 
HETATM    3  C3  UNL     1     -34.730   4.864   5.298  1.00 20.00     0.167 C 
HETATM    4  C4  UNL     1     -34.135   7.100   5.556  1.00 20.00     0.167 C 
HETATM    5  O5  UNL     1     -34.445   6.082   4.595  1.00 20.00    -0.391 OA
ENDROOT
TORSDOF 0
