REMARK  0 active torsions:
REMARK  status: ('A' for Active; 'I' for Inactive)
ROOT
HETATM    1  C1  UNL     1     -33.259   6.822   3.831  1.00 20.00     0.201 C 
HETATM    2  C2  UNL     1     -35.265   5.644   4.781  1.00 20.00     0.099 C 
HETATM    3  C3  UNL     1     -34.345   6.864   4.897  1.00 20.00     0.074 C 
HETATM    4  C4  UNL     1     -33.704   6.997   6.278  1.00 20.00     0.020 C 
HETATM    5  O5  UNL     1     -32.581   7.788   3.507  1.00 20.00    -0.284 OA
HETATM    6  S6  UNL     1     -33.011   5.229   3.117  1.00 20.00    -0.019 SA
HETATM    7  S7  UNL     1     -34.222   4.223   4.416  1.00 20.00    -0.089 SA
ENDROOT
TORSDOF 0
