REMARK  3 active torsions:
REMARK  status: ('A' for Active; 'I' for Inactive)
REMARK    1  A    between atoms: C1_1  and  C7_7 
REMARK    2  A    between atoms: C1_1  and  O9_9 
REMARK    3  A    between atoms: C5_5  and  C7_7 
ROOT
HETATM    1  C2  UNL     1     -33.220   4.705   3.084  1.00 20.00     0.011 A 
HETATM    2  C3  UNL     1     -32.497   5.161   1.812  1.00 20.00     0.011 A 
HETATM    3  C4  UNL     1     -32.108   7.113   3.648  1.00 20.00     0.015 A 
HETATM    4  C5  UNL     1     -33.456   7.412   2.976  1.00 20.00     0.005 A 
HETATM    5  C6  UNL     1     -32.827   6.096   2.883  1.00 20.00    -0.036 A 
ENDROOT
BRANCH   4   6
HETATM    6  C7  UNL     1     -34.675   7.610   3.808  1.00 20.00     0.115 C 
BRANCH   6   7
HETATM    7  C1  UNL     1     -34.958   6.442   4.736  1.00 20.00     0.139 C 
HETATM    8  O8  UNL     1     -34.221   6.063   5.635  1.00 20.00    -0.650 OA
BRANCH   7   9
HETATM    9  O9  UNL     1     -36.148   5.860   4.441  1.00 20.00    -0.776 OA
HETATM   10  H19 UNL     1     -36.343   5.104   5.035  1.00 20.00     0.167 HD
ENDBRANCH   7   9
ENDBRANCH   6   7
ENDBRANCH   4   6
TORSDOF 3
