REMARK  0 active torsions:
REMARK  status: ('A' for Active; 'I' for Inactive)
ROOT
HETATM    1  C1  UNL     1     -33.254   6.273   3.460  1.00 20.00     0.260 C 
HETATM    2  C2  UNL     1     -33.856   7.425   4.222  1.00 20.00     0.137 C 
HETATM    3  C3  UNL     1     -33.643   7.282   5.719  1.00 20.00     0.177 C 
HETATM    4  C4  UNL     1     -34.916   4.837   4.552  1.00 20.00     0.205 C 
HETATM    5  C5  UNL     1     -34.573   5.103   6.007  1.00 20.00     0.194 C 
HETATM    6  O6  UNL     1     -32.342   6.438   2.654  1.00 20.00    -0.265 OA
HETATM    7  O7  UNL     1     -33.768   5.043   3.702  1.00 20.00    -0.319 OA
HETATM    8  O8  UNL     1     -34.664   6.491   6.318  1.00 20.00    -0.389 OA
ENDROOT
TORSDOF 0
