REMARK  2 active torsions:
REMARK  status: ('A' for Active; 'I' for Inactive)
REMARK    1  A    between atoms: C1_1  and  C3_3 
REMARK    2  A    between atoms: C3_3  and  O6_6 
ROOT
HETATM    1  C1  UNL     1     -33.597   7.112   5.020  1.00 20.00     0.156 C 
HETATM    2  C2  UNL     1     -34.208   6.410   5.977  1.00 20.00     0.273 C 
HETATM    3  F7  UNL     1     -34.772   7.063   7.016  1.00 20.00    -0.173 F 
HETATM    4  F8  UNL     1     -34.276   5.063   5.929  1.00 20.00    -0.173 F 
ENDROOT
BRANCH   1   5
HETATM    5  C3  UNL     1     -32.965   6.444   3.862  1.00 20.00     0.287 C 
HETATM    6  O5  UNL     1     -31.997   6.857   3.245  1.00 20.00    -0.260 OA
BRANCH   5   7
HETATM    7  O6  UNL     1     -33.659   5.299   3.622  1.00 20.00    -0.323 OA
HETATM    8  C4  UNL     1     -33.186   4.512   2.523  1.00 20.00     0.213 C 
ENDBRANCH   5   7
ENDBRANCH   1   5
TORSDOF 2
