REMARK  0 active torsions:
REMARK  status: ('A' for Active; 'I' for Inactive)
ROOT
HETATM    1  C1  UNL     1     -34.383   4.825   6.182  1.00 20.00     0.020 C 
HETATM    2  C2  UNL     1     -34.714   4.726   4.695  1.00 20.00     0.075 C 
HETATM    3  C3  UNL     1     -34.665   6.190   6.802  1.00 20.00     0.075 C 
HETATM    4  C4  UNL     1     -34.085   7.391   4.391  1.00 20.00     0.147 C 
HETATM    5  S5  UNL     1     -33.663   5.791   3.663  1.00 20.00    -0.159 SA
HETATM    6  S6  UNL     1     -33.607   7.506   6.130  1.00 20.00    -0.159 SA
ENDROOT
TORSDOF 0
