REMARK  0 active torsions:
REMARK  status: ('A' for Active; 'I' for Inactive)
ROOT
HETATM    1  C1  UNL     1     -32.577   8.094   3.137  1.00 20.00     0.008 C 
HETATM    2  C2  UNL     1     -32.987   7.907   4.506  1.00 20.00     0.028 C 
HETATM    3  C3  UNL     1     -32.461   5.720   2.431  1.00 20.00     0.034 C 
HETATM    4  C4  UNL     1     -32.342   7.149   2.213  1.00 20.00    -0.060 C 
HETATM    5  C5  UNL     1     -33.722   6.909   5.010  1.00 20.00     0.085 C 
HETATM    6  C6  UNL     1     -33.273   5.081   3.284  1.00 20.00     0.086 C 
HETATM    7  C7  UNL     1     -34.196   5.712   4.265  1.00 20.00     0.215 C 
HETATM    8  C8  UNL     1     -31.879   7.533   0.831  1.00 20.00     0.048 C 
HETATM    9  O9  UNL     1     -35.283   5.200   4.524  1.00 20.00    -0.285 OA
HETATM   10 CL10 UNL     1     -34.216   6.974   6.673  1.00 20.00    -0.080 Cl
HETATM   11 CL11 UNL     1     -33.316   3.345   3.266  1.00 20.00    -0.080 Cl
ENDROOT
TORSDOF 0
