REMARK  0 active torsions:
REMARK  status: ('A' for Active; 'I' for Inactive)
ROOT
HETATM    1  C1  UNL     1     -32.975   6.895   3.854  1.00 20.00     0.127 C 
HETATM    2  C2  UNL     1     -33.250   5.498   3.341  1.00 20.00     0.078 C 
HETATM    3  C3  UNL     1     -34.104   7.611   4.562  1.00 20.00     0.078 C 
HETATM    4  C4  UNL     1     -33.277   4.438   4.439  1.00 20.00     0.007 C 
HETATM    5  C5  UNL     1     -33.874   7.721   6.063  1.00 20.00     0.007 C 
HETATM    6  C6  UNL     1     -34.470   4.558   5.392  1.00 20.00     0.000 C 
HETATM    7  C7  UNL     1     -33.307   6.483   6.758  1.00 20.00     0.000 C 
HETATM    8  C8  UNL     1     -34.181   5.229   6.740  1.00 20.00     0.000 C 
HETATM    9  O9  UNL     1     -31.868   7.418   3.725  1.00 20.00    -0.298 OA
ENDROOT
TORSDOF 0
