REMARK  0 active torsions:
REMARK  status: ('A' for Active; 'I' for Inactive)
ROOT
HETATM    1  C1  UNL     1     -32.762   6.898   3.814  1.00 20.00     0.270 A 
HETATM    2  C2  UNL     1     -33.453   5.832   2.914  1.00 20.00     0.072 A 
HETATM    3  C3  UNL     1     -34.199   5.488   4.261  1.00 20.00     0.079 A 
HETATM    4  C4  UNL     1     -32.478   4.794   2.357  1.00 20.00     0.029 C 
HETATM    5  C5  UNL     1     -34.278   6.447   1.782  1.00 20.00     0.029 C 
HETATM    6  C6  UNL     1     -33.891   4.143   4.919  1.00 20.00     0.047 C 
HETATM    7  C7  UNL     1     -35.694   5.798   4.343  1.00 20.00     0.047 C 
HETATM    8  O8  UNL     1     -31.926   7.764   3.686  1.00 20.00    -0.264 OA
HETATM    9  O9  UNL     1     -33.444   6.545   4.935  1.00 20.00    -0.309 OA
ENDROOT
TORSDOF 0
