REMARK  1 active torsions:
REMARK  status: ('A' for Active; 'I' for Inactive)
REMARK    1  A    between atoms: C3_3  and  C8_8 
ROOT
HETATM    1  C1  UNL     1     -33.288   5.130   6.582  1.00 20.00    -0.026 C 
HETATM    2  C2  UNL     1     -33.977   4.735   5.502  1.00 20.00    -0.025 C 
HETATM    3  C4  UNL     1     -35.177   6.457   6.464  1.00 20.00     0.017 C 
HETATM    4  C5  UNL     1     -33.129   7.458   5.773  1.00 20.00     0.021 C 
HETATM    5  C6  UNL     1     -33.705   6.549   6.883  1.00 20.00     0.009 C 
HETATM    6  C7  UNL     1     -34.847   5.898   5.075  1.00 20.00     0.019 C 
HETATM    7  C8  UNL     1     -33.952   7.033   4.523  1.00 20.00     0.063 C 
ENDROOT
BRANCH   7   8
HETATM    8  C3  UNL     1     -33.094   6.609   3.371  1.00 20.00     0.128 C 
HETATM    9  C9  UNL     1     -32.152   7.641   2.813  1.00 20.00     0.091 C 
HETATM   10  O10 UNL     1     -33.154   5.472   2.906  1.00 20.00    -0.298 OA
ENDBRANCH   7   8
TORSDOF 1
