REMARK  3 active torsions:
REMARK  status: ('A' for Active; 'I' for Inactive)
REMARK    1  A    between atoms: C1_1  and  C3_3 
REMARK    2  A    between atoms: C1_1  and  O4_4 
REMARK    3  A    between atoms: C2_2  and  O4_4 
ROOT
HETATM    1  C1  UNL     1     -33.367   6.409   5.065  1.00 20.00     0.330 C 
HETATM    2 CL10 UNL     1     -33.704   7.328   6.555  1.00 20.00    -0.086 Cl
ENDROOT
BRANCH   1   3
HETATM    3  C3  UNL     1     -34.550   5.524   4.734  1.00 20.00     0.427 C 
HETATM    4  F7  UNL     1     -34.825   4.657   5.732  1.00 20.00    -0.167 F 
HETATM    5  F8  UNL     1     -34.306   4.801   3.618  1.00 20.00    -0.167 F 
HETATM    6  F9  UNL     1     -35.661   6.258   4.502  1.00 20.00    -0.167 F 
ENDBRANCH   1   3
BRANCH   1   7
HETATM    7  O4  UNL     1     -33.171   7.310   3.977  1.00 20.00    -0.302 OA
BRANCH   7   8
HETATM    8  C2  UNL     1     -32.285   6.805   2.993  1.00 20.00     0.501 C 
HETATM    9  F5  UNL     1     -32.830   5.667   2.496  1.00 20.00    -0.184 F 
HETATM   10  F6  UNL     1     -32.219   7.690   1.970  1.00 20.00    -0.184 F 
ENDBRANCH   7   8
ENDBRANCH   1   7
TORSDOF 3
