REMARK  0 active torsions:
REMARK  status: ('A' for Active; 'I' for Inactive)
ROOT
HETATM    1  C1  UNL     1     -34.147   5.632   6.635  1.00 20.00     0.177 C 
HETATM    2  C2  UNL     1     -33.255   7.602   5.660  1.00 20.00     0.177 C 
HETATM    3  C3  UNL     1     -34.698   5.030   5.352  1.00 20.00     0.100 C 
HETATM    4  C4  UNL     1     -33.671   7.298   4.229  1.00 20.00     0.100 C 
HETATM    5  O5  UNL     1     -34.179   7.059   6.602  1.00 20.00    -0.390 OA
HETATM    6  S6  UNL     1     -33.669   5.506   3.934  1.00 20.00    -0.165 SA
ENDROOT
TORSDOF 0
