REMARK  0 active torsions:
REMARK  status: ('A' for Active; 'I' for Inactive)
ROOT
HETATM    1  C1  UNL     1     -33.462   7.641   5.758  1.00 20.00     0.016 C 
HETATM    2  C2  UNL     1     -33.738   6.734   6.955  1.00 20.00     0.016 C 
HETATM    3  C3  UNL     1     -33.377   6.723   4.544  1.00 20.00     0.140 C 
HETATM    4  C4  UNL     1     -34.896   5.832   6.544  1.00 20.00     0.140 C 
HETATM    5  O5  UNL     1     -33.986   4.165   4.713  1.00 20.00    -0.228 OA
HETATM    6  O6  UNL     1     -35.808   5.811   4.072  1.00 20.00    -0.228 OA
HETATM    7  S7  UNL     1     -34.616   5.465   4.818  1.00 20.00     0.144 S 
ENDROOT
TORSDOF 0
