REMARK  0 active torsions:
REMARK  status: ('A' for Active; 'I' for Inactive)
ROOT
HETATM    1  C1  UNL     1     -35.003   5.032   4.879  1.00 20.00     0.149 C 
HETATM    2  C2  UNL     1     -33.363   6.936   3.731  1.00 20.00     0.149 C 
HETATM    3  C3  UNL     1     -34.209   7.236   6.344  1.00 20.00     0.149 C 
HETATM    4  S4  UNL     1     -33.616   5.142   3.718  1.00 20.00    -0.149 SA
HETATM    5  S5  UNL     1     -34.542   5.470   6.576  1.00 20.00    -0.149 SA
HETATM    6  S6  UNL     1     -32.748   7.552   5.320  1.00 20.00    -0.149 SA
ENDROOT
TORSDOF 0
