REMARK  2 active torsions:
REMARK  status: ('A' for Active; 'I' for Inactive)
REMARK    1  A    between atoms: C1_1  and  C2_2 
REMARK    2  A    between atoms: C1_1  and  C3_3 
ROOT
HETATM    1  C1  UNL     1     -33.469   6.936   5.085  1.00 20.00     0.374 C 
HETATM    2  O4  UNL     1     -34.074   8.050   5.458  1.00 20.00    -0.216 OA
ENDROOT
BRANCH   1   3
HETATM    3  C2  UNL     1     -32.917   7.145   3.669  1.00 20.00     0.424 C 
HETATM    4  F5  UNL     1     -32.454   5.977   3.163  1.00 20.00    -0.168 F 
HETATM    5  F6  UNL     1     -33.848   7.614   2.809  1.00 20.00    -0.168 F 
HETATM    6  F7  UNL     1     -31.877   8.011   3.666  1.00 20.00    -0.168 F 
ENDBRANCH   1   3
BRANCH   1   7
HETATM    7  C3  UNL     1     -34.507   5.806   5.088  1.00 20.00     0.424 C 
HETATM    8  F8  UNL     1     -34.905   5.503   6.346  1.00 20.00    -0.168 F 
HETATM    9  F9  UNL     1     -33.979   4.675   4.561  1.00 20.00    -0.168 F 
HETATM   10  F10 UNL     1     -35.610   6.108   4.368  1.00 20.00    -0.168 F 
ENDBRANCH   1   7
TORSDOF 2
