REMARK  0 active torsions:
REMARK  status: ('A' for Active; 'I' for Inactive)
ROOT
HETATM    1  C1  UNL     1     -34.134   4.855   5.385  1.00 20.00     0.090 A 
HETATM    2  C2  UNL     1     -34.370   7.217   5.795  1.00 20.00     0.167 A 
HETATM    3  C3  UNL     1     -33.803   5.684   4.333  1.00 20.00     0.109 A 
HETATM    4  N4  UNL     1     -33.938   7.038   4.567  1.00 20.00    -0.246 NA
HETATM    5  S5  UNL     1     -34.634   5.799   6.726  1.00 20.00    -0.092 SA
HETATM    6 BR6  UNL     1     -33.199   5.044   2.655  1.00 20.00    -0.029 Br
ENDROOT
TORSDOF 0
