REMARK  3 active torsions:
REMARK  status: ('A' for Active; 'I' for Inactive)
REMARK    1  A    between atoms: C7_7  and  C8_8 
REMARK    2  A    between atoms: C7_7  and  N9_9 
REMARK    3  A    between atoms: C8_8  and  N10_10 
ROOT
HETATM    1  C1  UNL     1     -32.278   7.728   1.310  1.00 20.00     0.157 C 
HETATM    2  N9  UNL     1     -31.991   7.000   2.185  1.00 20.00    -0.274 NA
HETATM    3  S11 UNL     1     -32.653   8.739   0.137  1.00 20.00    -0.055 SA
ENDROOT
BRANCH   2   4
HETATM    4  C7  UNL     1     -32.456   5.621   2.017  1.00 20.00     0.178 C 
BRANCH   4   5
HETATM    5  C8  UNL     1     -33.835   5.467   2.629  1.00 20.00     0.256 C 
BRANCH   5   6
HETATM    6  N10 UNL     1     -33.784   5.828   4.089  1.00 20.00    -0.070 N 
HETATM    7  C5  UNL     1     -33.861   7.322   4.296  1.00 20.00     0.235 C 
HETATM    8  C3  UNL     1     -33.681   7.637   5.774  1.00 20.00     0.028 C 
HETATM    9  C2  UNL     1     -34.694   6.893   6.637  1.00 20.00     0.003 C 
HETATM   10  C4  UNL     1     -34.657   5.393   6.363  1.00 20.00     0.028 C 
HETATM   11  C6  UNL     1     -34.833   5.086   4.883  1.00 20.00     0.235 C 
HETATM   12  H26 UNL     1     -32.864   5.518   4.432  1.00 20.00     0.279 HD
ENDBRANCH   5   6
ENDBRANCH   4   5
ENDBRANCH   2   4
TORSDOF 3
