REMARK  0 active torsions:
REMARK  status: ('A' for Active; 'I' for Inactive)
ROOT
HETATM    1  C1  UNL     1     -32.884   4.890   2.966  1.00 20.00     0.009 A 
HETATM    2  C2  UNL     1     -32.302   5.814   2.098  1.00 20.00     0.019 A 
HETATM    3  C3  UNL     1     -32.855   7.601   3.625  1.00 20.00     0.034 A 
HETATM    4  C4  UNL     1     -33.441   6.675   4.496  1.00 20.00     0.017 A 
HETATM    5  C5  UNL     1     -33.448   5.308   4.179  1.00 20.00    -0.044 A 
HETATM    6  C6  UNL     1     -32.285   7.167   2.429  1.00 20.00     0.011 A 
HETATM    7  C7  UNL     1     -34.065   7.153   5.757  1.00 20.00     0.160 C 
HETATM    8  C8  UNL     1     -34.089   4.293   5.088  1.00 20.00     0.040 C 
HETATM    9  C9  UNL     1     -34.716   6.132   6.665  1.00 20.00     0.084 C 
HETATM   10  C10 UNL     1     -34.067   4.764   6.536  1.00 20.00     0.012 C 
HETATM   11  O11 UNL     1     -34.096   8.351   6.022  1.00 20.00    -0.292 OA
HETATM   12 BR12 UNL     1     -31.497   8.417   1.249  1.00 20.00    -0.051 Br
ENDROOT
TORSDOF 0
