REMARK  2 active torsions:
REMARK  status: ('A' for Active; 'I' for Inactive)
REMARK    1  A    between atoms: P5_5  and  P6_6 
REMARK    2  A    between atoms: P5_5  and  S8_8 
ROOT
HETATM    1  C1  UNL     1     -33.241   5.168   2.445  1.00 20.00     0.061 C 
HETATM    2  P5  UNL     1     -32.840   6.475   3.661  1.00 20.00    -0.021 P 
ENDROOT
BRANCH   2   3
HETATM    3  P6  UNL     1     -34.421   6.272   5.107  1.00 20.00    -0.027 P 
HETATM    4  C2  UNL     1     -34.049   4.910   6.214  1.00 20.00     0.060 C 
HETATM    5  C3  UNL     1     -34.289   7.706   6.187  1.00 20.00     0.060 C 
HETATM    6  S7  UNL     1     -36.134   6.135   4.192  1.00 20.00    -0.092 SA
ENDBRANCH   2   3
BRANCH   2   7
HETATM    7  S8  UNL     1     -33.416   8.225   2.636  1.00 20.00    -0.137 SA
HETATM    8  C4  UNL     1     -32.072   8.612   1.496  1.00 20.00     0.095 C 
ENDBRANCH   2   7
TORSDOF 2
