REMARK  1 active torsions:
REMARK  status: ('A' for Active; 'I' for Inactive)
REMARK    1  A    between atoms: C4_4  and  C7_7 
ROOT
HETATM    1  C1  UNL     1     -32.672   5.723   2.163  1.00 20.00     0.015 A 
HETATM    2  C2  UNL     1     -33.183   4.911   3.174  1.00 20.00     0.008 A 
HETATM    3  C3  UNL     1     -33.176   7.678   3.482  1.00 20.00     0.022 A 
HETATM    4  C4  UNL     1     -32.670   7.106   2.316  1.00 20.00     0.002 A 
HETATM    5  C5  UNL     1     -33.705   5.474   4.349  1.00 20.00    -0.052 A 
HETATM    6  C6  UNL     1     -33.684   6.872   4.512  1.00 20.00    -0.051 A 
HETATM    7  C8  UNL     1     -34.218   4.561   5.434  1.00 20.00     0.039 C 
HETATM    8  C9  UNL     1     -34.253   7.530   5.744  1.00 20.00     0.039 C 
HETATM    9  C10 UNL     1     -35.086   5.279   6.465  1.00 20.00     0.005 C 
HETATM   10  C11 UNL     1     -34.416   6.569   6.920  1.00 20.00     0.005 C 
ENDROOT
BRANCH   4  11
HETATM   11  C7  UNL     1     -32.143   7.955   1.259  1.00 20.00     0.269 C 
HETATM   12  O12 UNL     1     -31.682   7.510   0.204  1.00 20.00    -0.301 OA
ENDBRANCH   4  11
TORSDOF 1
