REMARK  1 active torsions:
REMARK  status: ('A' for Active; 'I' for Inactive)
REMARK    1  A    between atoms: C8_8  and  O9_9 
ROOT
HETATM    1  C1  UNL     1     -34.724   7.000   6.808  1.00 20.00     0.010 C 
HETATM    2  C2  UNL     1     -33.150   7.592   5.137  1.00 20.00     0.012 C 
HETATM    3  C3  UNL     1     -33.096   5.365   6.262  1.00 20.00     0.012 C 
HETATM    4  C4  UNL     1     -33.233   6.879   6.498  1.00 20.00    -0.013 C 
HETATM    5  C5  UNL     1     -35.199   6.340   5.525  1.00 20.00    -0.001 C 
HETATM    6  C6  UNL     1     -34.341   6.974   4.380  1.00 20.00     0.019 C 
HETATM    7  C7  UNL     1     -34.296   5.077   5.340  1.00 20.00     0.019 C 
HETATM    8  C8  UNL     1     -34.143   5.523   3.858  1.00 20.00     0.127 C 
ENDROOT
BRANCH   8   9
HETATM    9  O9  UNL     1     -32.891   5.232   3.214  1.00 20.00    -0.395 OA
HETATM   10  H21 UNL     1     -32.937   4.302   2.956  1.00 20.00     0.210 HD
ENDBRANCH   8   9
TORSDOF 1
