REMARK  0 active torsions:
REMARK  status: ('A' for Active; 'I' for Inactive)
ROOT
HETATM    1  C1  UNL     1     -34.765   7.140   6.639  1.00 20.00    -0.024 C 
HETATM    2  C2  UNL     1     -35.228   5.887   6.750  1.00 20.00    -0.024 C 
HETATM    3  C3  UNL     1     -34.334   6.016   3.843  1.00 20.00     0.164 C 
HETATM    4  C4  UNL     1     -32.940   5.726   6.384  1.00 20.00     0.021 C 
HETATM    5  C5  UNL     1     -33.412   7.123   5.973  1.00 20.00     0.034 C 
HETATM    6  C6  UNL     1     -34.225   4.923   6.168  1.00 20.00     0.034 C 
HETATM    7  C7  UNL     1     -33.583   7.209   4.450  1.00 20.00     0.161 C 
HETATM    8  C8  UNL     1     -34.498   4.734   4.669  1.00 20.00     0.161 C 
HETATM    9  O9  UNL     1     -34.746   6.066   2.681  1.00 20.00    -0.295 OA
HETATM   10 CL10 UNL     1     -31.999   7.280   3.632  1.00 20.00    -0.116 Cl
HETATM   11 CL11 UNL     1     -33.385   3.531   3.964  1.00 20.00    -0.116 Cl
ENDROOT
TORSDOF 0
