REMARK  0 active torsions:
REMARK  status: ('A' for Active; 'I' for Inactive)
ROOT
HETATM    1  C1  UNL     1     -33.849   5.439   4.092  1.00 20.00     0.056 C 
HETATM    2  C2  UNL     1     -32.682   6.921   2.942  1.00 20.00     0.264 C 
HETATM    3  C3  UNL     1     -34.251   4.209   4.433  1.00 20.00     0.047 C 
HETATM    4  C4  UNL     1     -32.936   7.559   4.274  1.00 20.00     0.127 C 
HETATM    5  C5  UNL     1     -34.027   6.698   4.889  1.00 20.00     0.010 C 
HETATM    6  C6  UNL     1     -33.801   6.535   6.397  1.00 20.00     0.022 C 
HETATM    7  C7  UNL     1     -35.415   7.300   4.629  1.00 20.00     0.022 C 
HETATM    8  O8  UNL     1     -32.066   7.451   2.027  1.00 20.00    -0.265 OA
HETATM    9  O9  UNL     1     -33.167   5.646   2.893  1.00 20.00    -0.283 OA
ENDROOT
TORSDOF 0
