REMARK  0 active torsions:
REMARK  status: ('A' for Active; 'I' for Inactive)
ROOT
HETATM    1  C1  UNL     1     -33.536   6.786   4.817  1.00 20.00     0.142 C 
HETATM    2  C2  UNL     1     -33.727   4.507   2.967  1.00 20.00     0.002 C 
HETATM    3  C3  UNL     1     -32.544   5.460   2.877  1.00 20.00     0.016 C 
HETATM    4  C4  UNL     1     -34.145   4.341   4.420  1.00 20.00     0.016 C 
HETATM    5  C5  UNL     1     -32.838   6.859   3.444  1.00 20.00     0.014 C 
HETATM    6  C6  UNL     1     -34.553   5.661   5.096  1.00 20.00     0.014 C 
HETATM    7  C7  UNL     1     -31.492   7.594   3.614  1.00 20.00     0.023 C 
HETATM    8  C8  UNL     1     -33.704   7.682   2.478  1.00 20.00     0.023 C 
HETATM    9  C9  UNL     1     -35.948   6.114   4.640  1.00 20.00     0.023 C 
HETATM   10  C10 UNL     1     -34.611   5.414   6.619  1.00 20.00     0.023 C 
HETATM   11  O11 UNL     1     -33.356   7.679   5.652  1.00 20.00    -0.296 OA
ENDROOT
TORSDOF 0
