REMARK  2 active torsions:
REMARK  status: ('A' for Active; 'I' for Inactive)
REMARK    1  A    between atoms: C1_1  and  C3_3 
REMARK    2  A    between atoms: C2_2  and  C8_8 
ROOT
HETATM    1  C1  UNL     1     -33.520   6.703   4.521  1.00 20.00     0.052 C 
HETATM    2  C2  UNL     1     -32.950   6.429   3.332  1.00 20.00    -0.077 C 
HETATM    3  C4  UNL     1     -33.249   5.203   2.507  1.00 20.00     0.044 C 
ENDROOT
BRANCH   2   4
HETATM    4  C8  UNL     1     -31.937   7.416   2.753  1.00 20.00     0.006 C 
HETATM    5  C6  UNL     1     -32.346   7.917   1.366  1.00 20.00     0.014 C 
HETATM    6  C7  UNL     1     -31.678   8.591   3.701  1.00 20.00     0.014 C 
ENDBRANCH   2   4
BRANCH   1   7
HETATM    7  C3  UNL     1     -34.530   5.852   5.212  1.00 20.00     0.145 C 
HETATM    8  C5  UNL     1     -34.531   5.904   6.717  1.00 20.00     0.096 C 
HETATM    9  O9  UNL     1     -35.292   5.109   4.600  1.00 20.00    -0.294 OA
ENDBRANCH   1   7
TORSDOF 2
