REMARK  1 active torsions:
REMARK  status: ('A' for Active; 'I' for Inactive)
REMARK    1  A    between atoms: C2_2  and  C4_4 
ROOT
HETATM    1  C1  UNL     1     -33.882   4.797   6.416  1.00 20.00     0.207 A 
HETATM    2  C2  UNL     1     -34.133   6.038   5.592  1.00 20.00     0.091 A 
HETATM    3  C3  UNL     1     -33.456   7.317   5.962  1.00 20.00     0.049 C 
HETATM    4  O5  UNL     1     -35.077   5.579   6.570  1.00 20.00    -0.374 OA
ENDROOT
BRANCH   2   5
HETATM    5  C4  UNL     1     -34.612   5.902   4.183  1.00 20.00     0.154 C 
HETATM    6 CL6  UNL     1     -33.262   5.532   3.078  1.00 20.00    -0.127 Cl
ENDBRANCH   2   5
TORSDOF 1
