REMARK  0 active torsions:
REMARK  status: ('A' for Active; 'I' for Inactive)
ROOT
HETATM    1  C1  UNL     1     -33.680   6.007   3.824  1.00 20.00     0.086 C 
HETATM    2  C2  UNL     1     -34.354   6.513   5.016  1.00 20.00     0.235 C 
HETATM    3  N3  UNL     1     -33.148   5.607   2.873  1.00 20.00    -0.195 NA
HETATM    4 BR4  UNL     1     -33.208   7.773   5.962  1.00 20.00    -0.063 Br
HETATM    5 BR5  UNL     1     -34.908   5.039   6.162  1.00 20.00    -0.063 Br
ENDROOT
TORSDOF 0
