REMARK  1 active torsions:
REMARK  status: ('A' for Active; 'I' for Inactive)
REMARK    1  A    between atoms: C3_3  and  C6_6 
ROOT
HETATM    1  C1  UNL     1     -32.685   7.548   4.642  1.00 20.00     0.272 C 
HETATM    2  C2  UNL     1     -32.912   6.234   2.716  1.00 20.00     0.055 C 
HETATM    3  C3  UNL     1     -32.846   6.107   4.226  1.00 20.00     0.195 C 
HETATM    4  C4  UNL     1     -31.995   7.411   2.462  1.00 20.00     0.129 C 
HETATM    5  C5  UNL     1     -32.307   8.147   1.173  1.00 20.00     0.040 C 
HETATM    6  O7  UNL     1     -32.908   8.006   5.751  1.00 20.00    -0.265 OA
HETATM    7  O8  UNL     1     -32.214   8.279   3.583  1.00 20.00    -0.316 OA
ENDROOT
BRANCH   3   8
HETATM    8  C6  UNL     1     -34.084   5.459   4.815  1.00 20.00     0.400 C 
HETATM    9  F9  UNL     1     -34.021   5.459   6.159  1.00 20.00    -0.170 F 
HETATM   10  F10 UNL     1     -35.189   6.128   4.440  1.00 20.00    -0.170 F 
HETATM   11  F11 UNL     1     -34.194   4.186   4.394  1.00 20.00    -0.170 F 
ENDBRANCH   3   8
TORSDOF 1
