REMARK  1 active torsions:
REMARK  status: ('A' for Active; 'I' for Inactive)
REMARK    1  A    between atoms: C1_1  and  C3_3 
ROOT
HETATM    1  C2  UNL     1     -34.579   7.608   4.021  1.00 20.00     0.065 A 
HETATM    2  C3  UNL     1     -33.183   7.034   3.886  1.00 20.00     0.070 A 
HETATM    3  C4  UNL     1     -34.170   6.460   4.903  1.00 20.00     0.130 A 
HETATM    4  C5  UNL     1     -32.041   7.902   4.362  1.00 20.00     0.028 C 
HETATM    5 CL8  UNL     1     -34.938   4.896   4.599  1.00 20.00    -0.100 Cl
HETATM    6 CL9  UNL     1     -33.962   6.777   6.625  1.00 20.00    -0.100 Cl
ENDROOT
BRANCH   2   7
HETATM    7  C1  UNL     1     -32.902   6.234   2.667  1.00 20.00     0.230 C 
HETATM    8  O6  UNL     1     -32.558   5.058   2.732  1.00 20.00    -0.279 OA
HETATM    9 CL7  UNL     1     -33.122   7.160   1.213  1.00 20.00    -0.043 Cl
ENDBRANCH   2   7
TORSDOF 1
