REMARK  1 active torsions:
REMARK  status: ('A' for Active; 'I' for Inactive)
REMARK    1  A    between atoms: C5_5  and  C6_6 
ROOT
HETATM    1  C1  UNL     1     -33.514   4.622   3.262  1.00 20.00     0.061 C 
HETATM    2  C6  UNL     1     -33.904   4.320   4.635  1.00 20.00     0.155 C 
HETATM    3  N7  UNL     1     -33.190   4.842   2.169  1.00 20.00    -0.197 NA
ENDROOT
BRANCH   2   4
HETATM    4  C5  UNL     1     -34.837   5.457   5.029  1.00 20.00     0.134 C 
HETATM    5  C3  UNL     1     -34.893   5.685   6.532  1.00 20.00     0.035 C 
HETATM    6  C2  UNL     1     -33.824   6.727   6.751  1.00 20.00     0.029 C 
HETATM    7  C4  UNL     1     -33.944   7.564   5.498  1.00 20.00     0.168 C 
HETATM    8  O8  UNL     1     -34.338   6.674   4.445  1.00 20.00    -0.385 OA
ENDBRANCH   2   4
TORSDOF 1
