REMARK  1 active torsions:
REMARK  status: ('A' for Active; 'I' for Inactive)
REMARK    1  A    between atoms: C2_2  and  O3_3 
ROOT
HETATM    1  C2  UNL     1     -34.491   5.859   4.631  1.00 20.00     0.314 C 
HETATM    2 CL4  UNL     1     -33.472   4.955   3.487  1.00 20.00    -0.078 Cl
HETATM    3 CL5  UNL     1     -34.266   5.217   6.270  1.00 20.00    -0.078 Cl
ENDROOT
BRANCH   1   4
HETATM    4  O3  UNL     1     -34.107   7.229   4.587  1.00 20.00    -0.362 OA
HETATM    5  C1  UNL     1     -32.756   7.431   4.979  1.00 20.00     0.204 C 
ENDBRANCH   1   4
TORSDOF 1
