REMARK  1 active torsions:
REMARK  status: ('A' for Active; 'I' for Inactive)
REMARK    1  A    between atoms: C7_7  and  C11_11 
ROOT
HETATM    1  C1  UNL     1     -35.088   5.955   4.754  1.00 20.00    -0.018 C 
HETATM    2  C2  UNL     1     -33.996   6.096   3.744  1.00 20.00     0.159 C 
HETATM    3  C3  UNL     1     -36.278   5.512   4.327  1.00 20.00     0.023 C 
HETATM    4  C4  UNL     1     -33.989   7.664   6.219  1.00 20.00     0.010 C 
HETATM    5  C5  UNL     1     -32.758   7.634   5.313  1.00 20.00     0.013 C 
HETATM    6  C6  UNL     1     -34.789   6.353   6.174  1.00 20.00     0.017 C 
HETATM    7  C7  UNL     1     -33.136   7.351   3.856  1.00 20.00     0.063 C 
HETATM    8  C8  UNL     1     -34.065   5.218   6.905  1.00 20.00     0.015 C 
HETATM    9  O12 UNL     1     -33.860   5.273   2.842  1.00 20.00    -0.292 OA
ENDROOT
BRANCH   7  10
HETATM   10  C11 UNL     1     -31.880   7.242   2.994  1.00 20.00    -0.011 C 
HETATM   11  C9  UNL     1     -32.210   7.516   1.528  1.00 20.00     0.010 C 
HETATM   12  C10 UNL     1     -30.802   8.203   3.490  1.00 20.00     0.010 C 
ENDBRANCH   7  10
TORSDOF 1
