REMARK  1 active torsions:
REMARK  status: ('A' for Active; 'I' for Inactive)
REMARK    1  A    between atoms: C1_1  and  C2_2 
ROOT
HETATM    1  C2  UNL     1     -34.293   5.613   5.072  1.00 20.00     0.395 C 
HETATM    2  F4  UNL     1     -34.172   4.269   4.913  1.00 20.00    -0.178 F 
HETATM    3  F5  UNL     1     -35.567   5.925   4.714  1.00 20.00    -0.178 F 
HETATM    4 CL7  UNL     1     -34.049   6.035   6.774  1.00 20.00    -0.038 Cl
ENDROOT
BRANCH   1   5
HETATM    5  C1  UNL     1     -33.295   6.391   4.256  1.00 20.00     0.307 C 
HETATM    6  O3  UNL     1     -32.876   7.482   4.635  1.00 20.00    -0.272 OA
HETATM    7 CL6  UNL     1     -32.804   5.567   2.805  1.00 20.00    -0.036 Cl
ENDBRANCH   1   5
TORSDOF 1
