REMARK  1 active torsions:
REMARK  status: ('A' for Active; 'I' for Inactive)
REMARK    1  A    between atoms: C1_1  and  C6_6 
ROOT
HETATM    1  C2  UNL     1     -34.593   6.018   6.937  1.00 20.00     0.005 C 
HETATM    2  C3  UNL     1     -34.745   7.344   6.174  1.00 20.00     0.006 C 
HETATM    3  C4  UNL     1     -32.984   5.176   5.205  1.00 20.00     0.017 C 
HETATM    4  C5  UNL     1     -35.280   5.556   4.707  1.00 20.00     0.010 C 
HETATM    5  C6  UNL     1     -33.097   6.530   4.484  1.00 20.00     0.059 C 
HETATM    6  C7  UNL     1     -34.389   4.990   5.810  1.00 20.00    -0.013 C 
HETATM    7  C8  UNL     1     -34.575   6.916   4.706  1.00 20.00    -0.003 C 
ENDROOT
BRANCH   5   8
HETATM    8  C1  UNL     1     -32.768   6.408   3.028  1.00 20.00     0.127 C 
HETATM    9  C9  UNL     1     -32.213   7.634   2.355  1.00 20.00     0.091 C 
HETATM   10  O10 UNL     1     -32.940   5.356   2.414  1.00 20.00    -0.298 OA
ENDBRANCH   5   8
TORSDOF 1
