REMARK  1 active torsions:
REMARK  status: ('A' for Active; 'I' for Inactive)
REMARK    1  A    between atoms: C5_5  and  C8_8 
ROOT
HETATM    1  C1  UNL     1     -34.287   5.516   3.689  1.00 20.00     0.010 C 
HETATM    2  C2  UNL     1     -33.686   5.760   2.306  1.00 20.00     0.035 C 
HETATM    3  C3  UNL     1     -32.896   7.302   4.803  1.00 20.00     0.041 C 
HETATM    4  C5  UNL     1     -34.325   6.806   4.524  1.00 20.00     0.019 C 
HETATM    5  C6  UNL     1     -32.398   6.517   2.370  1.00 20.00     0.151 A 
HETATM    6  C7  UNL     1     -32.022   7.313   3.591  1.00 20.00     0.151 A 
HETATM    7  O10 UNL     1     -32.575   7.946   2.436  1.00 20.00    -0.375 OA
ENDROOT
BRANCH   4   8
HETATM    8  C8  UNL     1     -35.076   6.593   5.813  1.00 20.00     0.149 A 
HETATM    9  C4  UNL     1     -34.549   7.144   7.094  1.00 20.00     0.200 A 
HETATM   10  O9  UNL     1     -34.393   5.761   6.741  1.00 20.00    -0.381 OA
ENDBRANCH   4   8
TORSDOF 1
