REMARK  2 active torsions:
REMARK  status: ('A' for Active; 'I' for Inactive)
REMARK    1  A    between atoms: C1_1  and  O5_5 
REMARK    2  A    between atoms: C3_3  and  O5_5 
ROOT
HETATM    1  O5  UNL     1     -33.517   6.682   3.878  1.00 20.00    -0.288 OA
ENDROOT
BRANCH   1   2
HETATM    2  C1  UNL     1     -32.845   6.175   2.796  1.00 20.00     0.359 C 
HETATM    3  O4  UNL     1     -32.612   4.979   2.644  1.00 20.00    -0.245 OA
HETATM    4 CL6  UNL     1     -32.364   7.419   1.673  1.00 20.00    -0.012 Cl
ENDBRANCH   1   2
BRANCH   1   5
HETATM    5  C3  UNL     1     -33.969   5.755   4.880  1.00 20.00     0.224 C 
HETATM    6  C2  UNL     1     -35.303   5.152   4.472  1.00 20.00     0.057 C 
HETATM    7 CL7  UNL     1     -34.163   6.658   6.408  1.00 20.00    -0.095 Cl
ENDBRANCH   1   5
TORSDOF 2
