REMARK  2 active torsions:
REMARK  status: ('A' for Active; 'I' for Inactive)
REMARK    1  A    between atoms: C3_3  and  C7_7 
REMARK    2  A    between atoms: C4_4  and  C8_8 
ROOT
HETATM    1  C5  UNL     1     -35.299   5.475   4.355  1.00 20.00     0.014 C 
HETATM    2  C6  UNL     1     -34.181   5.454   3.313  1.00 20.00     0.037 C 
HETATM    3  C7  UNL     1     -34.787   5.920   5.732  1.00 20.00     0.036 C 
HETATM    4  C8  UNL     1     -33.415   6.777   3.316  1.00 20.00     0.144 C 
HETATM    5  C9  UNL     1     -33.975   7.224   5.588  1.00 20.00     0.126 C 
HETATM    6  C10 UNL     1     -33.353   7.703   6.895  1.00 20.00     0.040 C 
HETATM    7  O11 UNL     1     -32.924   7.068   4.627  1.00 20.00    -0.377 OA
ENDROOT
BRANCH   3   8
HETATM    8  C3  UNL     1     -34.014   4.806   6.381  1.00 20.00    -0.030 C 
HETATM    9  C1  UNL     1     -32.690   4.653   6.275  1.00 20.00     0.007 C 
ENDBRANCH   3   8
BRANCH   4  10
HETATM   10  C4  UNL     1     -32.249   6.720   2.386  1.00 20.00    -0.005 C 
HETATM   11  C2  UNL     1     -32.076   7.548   1.350  1.00 20.00     0.009 C 
ENDBRANCH   4  10
TORSDOF 2
