REMARK  0 active torsions:
REMARK  status: ('A' for Active; 'I' for Inactive)
ROOT
HETATM    1  C1  UNL     1     -32.852   6.307   2.864  1.00 20.00     0.025 C 
HETATM    2  C2  UNL     1     -33.231   6.686   4.262  1.00 20.00     0.081 C 
HETATM    3  C3  UNL     1     -34.194   5.544   4.581  1.00 20.00     0.029 C 
HETATM    4  C4  UNL     1     -32.106   7.251   1.983  1.00 20.00     0.067 C 
HETATM    5  C5  UNL     1     -33.969   4.974   5.979  1.00 20.00     0.034 C 
HETATM    6  C6  UNL     1     -35.655   5.967   4.397  1.00 20.00     0.034 C 
HETATM    7  N7  UNL     1     -33.205   5.118   2.491  1.00 20.00    -0.210 NA
HETATM    8  N8  UNL     1     -33.810   4.557   3.565  1.00 20.00    -0.208 NA
HETATM    9  H20 UNL     1     -33.196   3.842   3.953  1.00 20.00     0.149 HD
ENDROOT
TORSDOF 0
