REMARK  1 active torsions:
REMARK  status: ('A' for Active; 'I' for Inactive)
REMARK    1  A    between atoms: C1_1  and  C5_5 
ROOT
HETATM    1  C2  UNL     1     -32.811   6.410   7.036  1.00 20.00     0.006 C 
HETATM    2  C3  UNL     1     -33.582   5.085   6.966  1.00 20.00     0.006 C 
HETATM    3  C4  UNL     1     -35.141   6.846   7.006  1.00 20.00     0.011 C 
HETATM    4  C5  UNL     1     -34.032   7.316   4.969  1.00 20.00     0.067 C 
HETATM    5  C6  UNL     1     -33.824   7.439   6.496  1.00 20.00    -0.002 C 
HETATM    6  C7  UNL     1     -34.909   5.498   6.305  1.00 20.00    -0.006 C 
HETATM    7  C8  UNL     1     -34.703   5.917   4.809  1.00 20.00    -0.033 C 
HETATM    8  C10 UNL     1     -36.071   6.063   4.109  1.00 20.00     0.016 C 
HETATM    9  C11 UNL     1     -33.890   4.890   4.004  1.00 20.00     0.016 C 
ENDROOT
BRANCH   4  10
HETATM   10  C1  UNL     1     -32.775   7.557   4.189  1.00 20.00     0.128 C 
HETATM   11  C9  UNL     1     -31.751   8.462   4.819  1.00 20.00     0.091 C 
HETATM   12  O12 UNL     1     -32.589   7.040   3.089  1.00 20.00    -0.298 OA
ENDBRANCH   4  10
TORSDOF 1
