REMARK  1 active torsions:
REMARK  status: ('A' for Active; 'I' for Inactive)
REMARK    1  A    between atoms: C3_3  and  C7_7 
ROOT
HETATM    1  C1  UNL     1     -33.784   6.888   5.123  1.00 20.00    -0.019 C 
HETATM    2  C2  UNL     1     -34.081   5.581   5.013  1.00 20.00    -0.087 C 
HETATM    3  C4  UNL     1     -33.656   4.764   3.821  1.00 20.00     0.034 C 
HETATM    4  C5  UNL     1     -33.219   5.620   2.632  1.00 20.00     0.016 C 
HETATM    5  C6  UNL     1     -32.972   7.663   4.112  1.00 20.00     0.015 C 
HETATM    6  C7  UNL     1     -32.287   6.747   3.076  1.00 20.00     0.054 C 
HETATM    7  C8  UNL     1     -34.858   4.852   6.070  1.00 20.00     0.043 C 
HETATM    8  C9  UNL     1     -31.933   8.527   4.836  1.00 20.00     0.015 C 
ENDROOT
BRANCH   6   9
HETATM    9  C3  UNL     1     -31.883   7.544   1.871  1.00 20.00     0.236 C 
HETATM   10  O10 UNL     1     -32.679   8.162   1.171  1.00 20.00    -0.306 OA
ENDBRANCH   6   9
TORSDOF 1
