REMARK  2 active torsions:
REMARK  status: ('A' for Active; 'I' for Inactive)
REMARK    1  A    between atoms: C3_3  and  C7_7 
REMARK    2  A    between atoms: C4_4  and  C8_8 
ROOT
HETATM    1  C5  UNL     1     -32.427   8.084   3.782  1.00 20.00     0.014 C 
HETATM    2  C6  UNL     1     -33.222   7.399   4.892  1.00 20.00     0.037 C 
HETATM    3  C7  UNL     1     -32.161   7.153   2.585  1.00 20.00     0.036 C 
HETATM    4  C8  UNL     1     -34.320   6.509   4.311  1.00 20.00     0.144 C 
HETATM    5  C9  UNL     1     -32.488   5.692   2.948  1.00 20.00     0.126 C 
HETATM    6  C10 UNL     1     -32.246   4.711   1.804  1.00 20.00     0.040 C 
HETATM    7  O11 UNL     1     -33.846   5.541   3.370  1.00 20.00    -0.377 OA
ENDROOT
BRANCH   3   8
HETATM    8  C3  UNL     1     -32.914   7.627   1.373  1.00 20.00    -0.030 C 
HETATM    9  C1  UNL     1     -32.440   8.525   0.502  1.00 20.00     0.007 C 
ENDBRANCH   3   8
BRANCH   4  10
HETATM   10  C4  UNL     1     -35.044   5.781   5.396  1.00 20.00    -0.005 C 
HETATM   11  C2  UNL     1     -34.461   4.920   6.237  1.00 20.00     0.009 C 
ENDBRANCH   4  10
TORSDOF 2
