REMARK  1 active torsions:
REMARK  status: ('A' for Active; 'I' for Inactive)
REMARK    1  A    between atoms: C3_3  and  C6_6 
ROOT
HETATM    1  C1  UNL     1     -34.102   4.900   5.083  1.00 20.00    -0.024 C 
HETATM    2  C2  UNL     1     -33.965   6.158   5.532  1.00 20.00    -0.087 C 
HETATM    3  C4  UNL     1     -33.669   4.451   3.720  1.00 20.00     0.032 C 
HETATM    4  C5  UNL     1     -33.326   7.237   4.696  1.00 20.00     0.045 C 
HETATM    5  C6  UNL     1     -32.583   6.715   3.455  1.00 20.00     0.055 C 
HETATM    6  C7  UNL     1     -33.387   5.611   2.747  1.00 20.00    -0.004 C 
HETATM    7  C8  UNL     1     -34.442   6.570   6.893  1.00 20.00     0.043 C 
HETATM    8  C9  UNL     1     -32.670   5.073   1.504  1.00 20.00     0.011 C 
ENDROOT
BRANCH   5   9
HETATM    9  C3  UNL     1     -32.335   7.881   2.544  1.00 20.00     0.236 C 
HETATM   10  O10 UNL     1     -31.213   8.271   2.236  1.00 20.00    -0.306 OA
ENDBRANCH   5   9
TORSDOF 1
