REMARK  1 active torsions:
REMARK  status: ('A' for Active; 'I' for Inactive)
REMARK    1  A    between atoms: C3_3  and  C7_7 
ROOT
HETATM    1  C1  UNL     1     -34.027   5.584   4.479  1.00 20.00    -0.019 C 
HETATM    2  C2  UNL     1     -33.749   6.301   5.582  1.00 20.00    -0.087 C 
HETATM    3  C4  UNL     1     -32.807   7.477   5.553  1.00 20.00     0.034 C 
HETATM    4  C5  UNL     1     -32.518   7.982   4.139  1.00 20.00     0.016 C 
HETATM    5  C6  UNL     1     -33.411   5.838   3.123  1.00 20.00     0.015 C 
HETATM    6  C7  UNL     1     -32.223   6.821   3.189  1.00 20.00     0.054 C 
HETATM    7  C8  UNL     1     -34.362   5.979   6.913  1.00 20.00     0.043 C 
HETATM    8  C9  UNL     1     -32.973   4.510   2.496  1.00 20.00     0.015 C 
ENDROOT
BRANCH   6   9
HETATM    9  C3  UNL     1     -31.930   7.385   1.830  1.00 20.00     0.236 C 
HETATM   10  O10 UNL     1     -32.744   8.025   1.173  1.00 20.00    -0.306 OA
ENDBRANCH   6   9
TORSDOF 1
