REMARK  2 active torsions:
REMARK  status: ('A' for Active; 'I' for Inactive)
REMARK    1  A    between atoms: C6_6  and  C8_8 
REMARK    2  A    between atoms: C8_8  and  O9_9 
ROOT
HETATM    1  C1  UNL     1     -31.745   7.790   4.155  1.00 20.00    -0.030 C 
HETATM    2  C2  UNL     1     -32.304   7.632   5.363  1.00 20.00    -0.030 C 
HETATM    3  C3  UNL     1     -32.427   7.398   2.877  1.00 20.00     0.031 C 
HETATM    4  C4  UNL     1     -33.681   7.073   5.564  1.00 20.00     0.034 C 
HETATM    5  C5  UNL     1     -33.647   6.474   3.078  1.00 20.00    -0.009 C 
HETATM    6  C6  UNL     1     -34.500   6.993   4.261  1.00 20.00     0.016 C 
HETATM    7  C7  UNL     1     -33.202   5.014   3.237  1.00 20.00     0.011 C 
ENDROOT
BRANCH   6   8
HETATM    8  C8  UNL     1     -35.781   6.189   4.478  1.00 20.00     0.169 C 
BRANCH   8   9
HETATM    9  O9  UNL     1     -35.478   5.077   5.299  1.00 20.00    -0.400 OA
HETATM   10  H23 UNL     1     -36.305   4.580   5.425  1.00 20.00     0.209 HD
ENDBRANCH   8   9
ENDBRANCH   6   8
TORSDOF 2
