REMARK  2 active torsions:
REMARK  status: ('A' for Active; 'I' for Inactive)
REMARK    1  A    between atoms: C6_6  and  C8_8 
REMARK    2  A    between atoms: C8_8  and  O9_9 
ROOT
HETATM    1  C1  UNL     1     -31.682   7.227   3.144  1.00 20.00    -0.030 C 
HETATM    2  C2  UNL     1     -32.346   6.186   2.626  1.00 20.00    -0.030 C 
HETATM    3  C3  UNL     1     -32.038   7.851   4.459  1.00 20.00     0.031 C 
HETATM    4  C4  UNL     1     -33.530   5.557   3.294  1.00 20.00     0.034 C 
HETATM    5  C5  UNL     1     -32.992   6.990   5.314  1.00 20.00    -0.009 C 
HETATM    6  C6  UNL     1     -34.125   6.412   4.432  1.00 20.00     0.016 C 
HETATM    7  C7  UNL     1     -33.507   7.819   6.493  1.00 20.00     0.011 C 
ENDROOT
BRANCH   6   8
HETATM    8  C8  UNL     1     -35.138   5.578   5.220  1.00 20.00     0.169 C 
BRANCH   8   9
HETATM    9  O9  UNL     1     -36.168   5.179   4.338  1.00 20.00    -0.400 OA
HETATM   10  H23 UNL     1     -36.801   4.651   4.856  1.00 20.00     0.209 HD
ENDBRANCH   8   9
ENDBRANCH   6   8
TORSDOF 2
