REMARK  1 active torsions:
REMARK  status: ('A' for Active; 'I' for Inactive)
REMARK    1  A    between atoms: C2_2  and  C5_5 
ROOT
HETATM    1  C3  UNL     1     -33.105   5.231   3.236  1.00 20.00     0.039 C 
HETATM    2  C4  UNL     1     -33.789   4.560   4.404  1.00 20.00     0.040 C 
HETATM    3  C5  UNL     1     -32.661   6.548   3.851  1.00 20.00     0.151 C 
HETATM    4  C6  UNL     1     -34.464   5.734   5.113  1.00 20.00     0.054 C 
HETATM    5  C9  UNL     1     -34.540   5.520   6.622  1.00 20.00     0.045 C 
HETATM    6  C10 UNL     1     -35.857   6.022   4.549  1.00 20.00     0.045 C 
HETATM    7  O11 UNL     1     -33.637   6.886   4.852  1.00 20.00    -0.371 OA
ENDROOT
BRANCH   3   8
HETATM    8  C2  UNL     1     -32.550   7.662   2.871  1.00 20.00    -0.059 C 
HETATM    9  C1  UNL     1     -32.158   7.437   1.602  1.00 20.00    -0.026 C 
HETATM   10  C7  UNL     1     -31.998   8.425   0.518  1.00 20.00     0.036 C 
HETATM   11  C8  UNL     1     -32.904   9.020   3.408  1.00 20.00     0.046 C 
ENDBRANCH   3   8
TORSDOF 1
