REMARK  0 active torsions:
REMARK  status: ('A' for Active; 'I' for Inactive)
ROOT
HETATM    1  C1  UNL     1     -33.276   5.304   2.874  1.00 20.00     0.000 C 
HETATM    2  C2  UNL     1     -33.743   4.423   4.036  1.00 20.00     0.003 C 
HETATM    3  C3  UNL     1     -32.550   6.556   3.372  1.00 20.00     0.003 C 
HETATM    4  C4  UNL     1     -34.611   5.208   5.019  1.00 20.00     0.040 C 
HETATM    5  C5  UNL     1     -33.413   7.350   4.353  1.00 20.00     0.040 C 
HETATM    6  C6  UNL     1     -33.278   6.536   6.830  1.00 20.00     0.207 A 
HETATM    7  C7  UNL     1     -33.896   6.453   5.454  1.00 20.00     0.082 A 
HETATM    8  O8  UNL     1     -34.541   7.149   6.530  1.00 20.00    -0.375 OA
ENDROOT
TORSDOF 0
