REMARK  1 active torsions:
REMARK  status: ('A' for Active; 'I' for Inactive)
REMARK    1  A    between atoms: C1_1  and  C3_3 
ROOT
HETATM    1  C1  UNL     1     -34.581   5.010   5.896  1.00 20.00     0.037 C 
HETATM    2  C2  UNL     1     -34.058   5.948   6.695  1.00 20.00    -0.028 C 
HETATM    3  C4  UNL     1     -33.584   7.275   6.202  1.00 20.00     0.036 C 
ENDROOT
BRANCH   1   4
HETATM    4  C3  UNL     1     -34.702   5.283   4.451  1.00 20.00     0.258 C 
HETATM    5  O5  UNL     1     -33.726   5.531   3.754  1.00 20.00    -0.302 OA
ENDBRANCH   1   4
TORSDOF 1
