REMARK  2 active torsions:
REMARK  status: ('A' for Active; 'I' for Inactive)
REMARK    1  A    between atoms: C1_1  and  S11_11 
REMARK    2  A    between atoms: C8_8  and  S11_11 
ROOT
HETATM    1  C2  UNL     1     -34.669   5.726   6.640  1.00 20.00     0.005 C 
HETATM    2  C3  UNL     1     -33.805   6.917   6.196  1.00 20.00     0.006 C 
HETATM    3  C4  UNL     1     -35.346   6.413   4.464  1.00 20.00     0.010 C 
HETATM    4  C5  UNL     1     -34.008   4.446   4.585  1.00 20.00     0.020 C 
HETATM    5  C6  UNL     1     -35.175   5.150   5.306  1.00 20.00    -0.013 C 
HETATM    6  C7  UNL     1     -33.892   6.853   4.659  1.00 20.00     0.000 C 
HETATM    7  C8  UNL     1     -33.090   5.619   4.187  1.00 20.00     0.059 C 
ENDROOT
BRANCH   7   8
HETATM    8  S11 UNL     1     -32.768   5.659   2.395  1.00 20.00    -0.088 SA
BRANCH   8   9
HETATM    9  C1  UNL     1     -32.325   7.352   2.202  1.00 20.00     0.182 C 
HETATM   10  C9  UNL     1     -33.228   8.097   1.260  1.00 20.00     0.104 C 
HETATM   11  O10 UNL     1     -31.378   7.877   2.774  1.00 20.00    -0.286 OA
ENDBRANCH   8   9
ENDBRANCH   7   8
TORSDOF 2
