REMARK  1 active torsions:
REMARK  status: ('A' for Active; 'I' for Inactive)
REMARK    1  A    between atoms: C3_3  and  C7_7 
ROOT
HETATM    1  C1  UNL     1     -34.576   5.444   5.560  1.00 20.00    -0.020 C 
HETATM    2  C2  UNL     1     -34.163   6.722   5.622  1.00 20.00    -0.086 C 
HETATM    3  C4  UNL     1     -33.318   7.348   4.540  1.00 20.00     0.045 C 
HETATM    4  C5  UNL     1     -33.746   5.264   3.178  1.00 20.00     0.020 C 
HETATM    5  C6  UNL     1     -34.277   4.514   4.412  1.00 20.00     0.005 C 
HETATM    6  C7  UNL     1     -32.720   6.331   3.560  1.00 20.00     0.051 C 
HETATM    7  C8  UNL     1     -34.524   7.614   6.773  1.00 20.00     0.043 C 
HETATM    8  C9  UNL     1     -33.308   3.421   4.868  1.00 20.00     0.014 C 
ENDROOT
BRANCH   6   9
HETATM    9  C3  UNL     1     -32.244   7.047   2.332  1.00 20.00     0.236 C 
HETATM   10  O10 UNL     1     -31.864   8.213   2.334  1.00 20.00    -0.306 OA
ENDBRANCH   6   9
TORSDOF 1
