REMARK  2 active torsions:
REMARK  status: ('A' for Active; 'I' for Inactive)
REMARK    1  A    between atoms: C1_1  and  S6_6 
REMARK    2  A    between atoms: N4_4  and  O5_5 
ROOT
HETATM    1  C1  UNL     1     -33.888   5.505   3.906  1.00 20.00     0.093 C 
HETATM    2  C2  UNL     1     -32.824   4.915   3.014  1.00 20.00     0.081 C 
HETATM    3  N4  UNL     1     -34.777   4.816   4.548  1.00 20.00    -0.134 NA
ENDROOT
BRANCH   1   4
HETATM    4  S6  UNL     1     -33.843   7.261   4.039  1.00 20.00    -0.117 SA
HETATM    5  C3  UNL     1     -32.744   7.497   5.452  1.00 20.00     0.097 C 
ENDBRANCH   1   4
BRANCH   3   6
HETATM    6  O5  UNL     1     -35.618   5.651   5.286  1.00 20.00    -0.266 OA
HETATM    7  H13 UNL     1     -36.217   5.008   5.702  1.00 20.00     0.247 HD
ENDBRANCH   3   6
TORSDOF 2
