REMARK  3 active torsions:
REMARK  status: ('A' for Active; 'I' for Inactive)
REMARK    1  A    between atoms: C3_3  and  C8_8 
REMARK    2  A    between atoms: C4_4  and  C10_10 
REMARK    3  A    between atoms: C10_10  and  O11_11 
ROOT
HETATM    1  C1  UNL     1     -34.501   5.088   5.410  1.00 20.00    -0.031 C 
HETATM    2  C2  UNL     1     -34.345   6.405   5.599  1.00 20.00    -0.030 C 
HETATM    3  C5  UNL     1     -33.866   4.341   4.275  1.00 20.00     0.027 C 
HETATM    4  C6  UNL     1     -33.491   7.267   4.715  1.00 20.00     0.035 C 
HETATM    5  C7  UNL     1     -33.314   5.264   3.185  1.00 20.00     0.012 C 
HETATM    6  C8  UNL     1     -32.579   6.452   3.797  1.00 20.00     0.011 C 
ENDROOT
BRANCH   6   7
HETATM    7  C3  UNL     1     -32.129   7.354   2.663  1.00 20.00    -0.023 C 
HETATM    8  C4  UNL     1     -32.969   7.938   1.796  1.00 20.00     0.000 C 
BRANCH   8   9
HETATM    9  C10 UNL     1     -32.521   8.831   0.676  1.00 20.00     0.136 C 
HETATM   10  C9  UNL     1     -32.994   8.304  -0.672  1.00 20.00     0.043 C 
BRANCH   9  11
HETATM   11  O11 UNL     1     -33.078  10.124   0.895  1.00 20.00    -0.392 OA
HETATM   12  H27 UNL     1     -32.776  10.682   0.162  1.00 20.00     0.210 HD
ENDBRANCH   9  11
ENDBRANCH   8   9
ENDBRANCH   6   7
TORSDOF 3
