REMARK  1 active torsions:
REMARK  status: ('A' for Active; 'I' for Inactive)
REMARK    1  A    between atoms: C2_2  and  C3_3 
ROOT
HETATM    1  C1  UNL     1     -33.533   6.912   4.523  1.00 20.00    -0.061 C 
HETATM    2  C2  UNL     1     -32.559   7.612   3.931  1.00 20.00     0.088 C 
HETATM    3  C4  UNL     1     -34.082   4.516   4.290  1.00 20.00     0.009 C 
HETATM    4  C5  UNL     1     -34.607   4.485   5.737  1.00 20.00     0.006 C 
HETATM    5  C6  UNL     1     -35.757   6.182   4.575  1.00 20.00     0.014 C 
HETATM    6  C7  UNL     1     -34.454   5.932   3.819  1.00 20.00     0.016 C 
HETATM    7  C8  UNL     1     -35.122   5.927   5.951  1.00 20.00    -0.002 C 
HETATM    8  C9  UNL     1     -33.958   6.973   5.986  1.00 20.00    -0.020 C 
HETATM    9  C10 UNL     1     -34.483   8.367   6.375  1.00 20.00     0.020 C 
HETATM   10  C11 UNL     1     -32.825   6.591   6.949  1.00 20.00     0.020 C 
ENDROOT
BRANCH   2  11
HETATM   11  C3  UNL     1     -32.267   7.487   2.431  1.00 20.00     0.198 C 
HETATM   12  O12 UNL     1     -31.951   6.317   2.065  1.00 20.00    -0.644 OA
HETATM   13  O13 UNL     1     -32.369   8.538   1.737  1.00 20.00    -0.644 OA
ENDBRANCH   2  11
TORSDOF 1
