REMARK  1 active torsions:
REMARK  status: ('A' for Active; 'I' for Inactive)
REMARK    1  A    between atoms: C3_3  and  C6_6 
ROOT
HETATM    1  C1  UNL     1     -32.727   5.275   2.692  1.00 20.00    -0.030 C 
HETATM    2  C2  UNL     1     -32.342   6.554   2.605  1.00 20.00    -0.030 C 
HETATM    3  C4  UNL     1     -33.657   4.768   3.752  1.00 20.00     0.038 C 
HETATM    4  C5  UNL     1     -32.780   7.609   3.575  1.00 20.00     0.031 C 
HETATM    5  C6  UNL     1     -34.366   5.884   4.537  1.00 20.00     0.054 C 
HETATM    6  C7  UNL     1     -33.403   7.040   4.866  1.00 20.00    -0.004 C 
HETATM    7  C8  UNL     1     -34.090   8.168   5.642  1.00 20.00     0.011 C 
ENDROOT
BRANCH   5   8
HETATM    8  C3  UNL     1     -34.937   5.277   5.784  1.00 20.00     0.236 C 
HETATM    9  O9  UNL     1     -34.250   4.761   6.660  1.00 20.00    -0.306 OA
ENDBRANCH   5   8
TORSDOF 1
