REMARK  2 active torsions:
REMARK  status: ('A' for Active; 'I' for Inactive)
REMARK    1  A    between atoms: C1_1  and  C10_10 
REMARK    2  A    between atoms: C8_8  and  C10_10 
ROOT
HETATM    1  C2  UNL     1     -35.077   5.278   6.545  1.00 20.00     0.005 C 
HETATM    2  C3  UNL     1     -34.343   6.621   6.412  1.00 20.00     0.005 C 
HETATM    3  C4  UNL     1     -35.478   6.176   4.377  1.00 20.00     0.009 C 
HETATM    4  C5  UNL     1     -33.901   4.400   4.511  1.00 20.00     0.010 C 
HETATM    5  C6  UNL     1     -35.261   4.839   5.082  1.00 20.00    -0.014 C 
HETATM    6  C7  UNL     1     -34.162   6.766   4.890  1.00 20.00    -0.010 C 
HETATM    7  C8  UNL     1     -33.115   5.727   4.424  1.00 20.00    -0.003 C 
ENDROOT
BRANCH   7   8
HETATM    8  C10 UNL     1     -32.595   6.000   3.017  1.00 20.00     0.082 C 
BRANCH   8   9
HETATM    9  C1  UNL     1     -32.308   7.468   2.782  1.00 20.00     0.123 C 
HETATM   10  C9  UNL     1     -31.294   8.096   3.703  1.00 20.00     0.091 C 
HETATM   11  O11 UNL     1     -32.857   8.127   1.900  1.00 20.00    -0.298 OA
ENDBRANCH   8   9
ENDBRANCH   7   8
TORSDOF 2
