REMARK  1 active torsions:
REMARK  status: ('A' for Active; 'I' for Inactive)
REMARK    1  A    between atoms: C8_8  and  C9_9 
ROOT
HETATM    1  C1  UNL     1     -32.431   8.107   2.542  1.00 20.00     0.059 C 
HETATM    2  C9  UNL     1     -33.219   8.172   3.766  1.00 20.00     0.129 C 
HETATM    3  N10 UNL     1     -31.808   8.085   1.563  1.00 20.00    -0.197 NA
ENDROOT
BRANCH   2   4
HETATM    4  C8  UNL     1     -33.167   6.754   4.323  1.00 20.00     0.003 C 
HETATM    5  C5  UNL     1     -33.554   6.697   5.816  1.00 20.00     0.010 C 
HETATM    6  C6  UNL     1     -34.711   5.682   5.838  1.00 20.00    -0.014 C 
HETATM    7  C2  UNL     1     -34.160   4.280   5.525  1.00 20.00     0.005 C 
HETATM    8  C4  UNL     1     -35.450   6.025   4.546  1.00 20.00     0.009 C 
HETATM    9  C3  UNL     1     -33.841   4.362   4.025  1.00 20.00     0.005 C 
HETATM   10  C7  UNL     1     -34.211   5.815   3.672  1.00 20.00    -0.009 C 
ENDBRANCH   2   4
TORSDOF 1
