REMARK  1 active torsions:
REMARK  status: ('A' for Active; 'I' for Inactive)
REMARK    1  A    between atoms: C2_2  and  C3_3 
ROOT
HETATM    1  C3  UNL     1     -33.986   5.887   4.455  1.00 20.00     0.216 C 
HETATM    2 CL5  UNL     1     -33.638   4.191   3.967  1.00 20.00    -0.081 Cl
HETATM    3 CL6  UNL     1     -35.656   6.290   3.923  1.00 20.00    -0.081 Cl
HETATM    4 CL7  UNL     1     -32.846   6.964   3.575  1.00 20.00    -0.081 Cl
ENDROOT
BRANCH   1   5
HETATM    5  C2  UNL     1     -33.844   6.054   5.924  1.00 20.00     0.199 A 
HETATM    6  C1  UNL     1     -34.704   7.025   6.684  1.00 20.00     0.204 A 
HETATM    7  O4  UNL     1     -34.974   5.614   6.685  1.00 20.00    -0.377 OA
ENDBRANCH   1   5
TORSDOF 1
