REMARK  1 active torsions:
REMARK  status: ('A' for Active; 'I' for Inactive)
REMARK    1  A    between atoms: C8_8  and  C9_9 
ROOT
HETATM    1  C1  UNL     1     -32.162   7.568   2.770  1.00 20.00     0.059 C 
HETATM    2  C9  UNL     1     -32.623   7.370   4.140  1.00 20.00     0.129 C 
HETATM    3  N10 UNL     1     -31.773   7.736   1.690  1.00 20.00    -0.197 NA
ENDROOT
BRANCH   2   4
HETATM    4  C8  UNL     1     -33.967   6.675   3.992  1.00 20.00     0.003 C 
HETATM    5  C5  UNL     1     -33.851   5.160   3.726  1.00 20.00     0.010 C 
HETATM    6  C6  UNL     1     -34.785   4.551   4.790  1.00 20.00    -0.014 C 
HETATM    7  C2  UNL     1     -34.103   4.662   6.164  1.00 20.00     0.005 C 
HETATM    8  C4  UNL     1     -35.882   5.609   4.899  1.00 20.00     0.009 C 
HETATM    9  C3  UNL     1     -34.208   6.160   6.482  1.00 20.00     0.005 C 
HETATM   10  C7  UNL     1     -34.894   6.732   5.229  1.00 20.00    -0.009 C 
ENDBRANCH   2   4
TORSDOF 1
