REMARK  0 active torsions:
REMARK  status: ('A' for Active; 'I' for Inactive)
ROOT
HETATM    1  C1  UNL     1     -32.981   6.441   3.012  1.00 20.00     0.086 C 
HETATM    2  C2  UNL     1     -34.930   6.209   6.863  1.00 20.00     0.005 C 
HETATM    3  C3  UNL     1     -33.595   5.470   6.699  1.00 20.00     0.008 C 
HETATM    4  C4  UNL     1     -33.357   7.637   5.793  1.00 20.00     0.012 C 
HETATM    5  C5  UNL     1     -35.045   6.666   4.400  1.00 20.00     0.046 C 
HETATM    6  C6  UNL     1     -34.849   7.308   5.791  1.00 20.00    -0.011 C 
HETATM    7  C7  UNL     1     -32.945   6.186   5.497  1.00 20.00     0.024 C 
HETATM    8  C8  UNL     1     -33.714   5.912   4.175  1.00 20.00     0.129 C 
HETATM    9  N9  UNL     1     -32.403   6.857   2.096  1.00 20.00    -0.195 NA
HETATM   10 CL10 UNL     1     -33.973   4.181   3.846  1.00 20.00    -0.102 Cl
ENDROOT
TORSDOF 0
