REMARK  0 active torsions:
REMARK  status: ('A' for Active; 'I' for Inactive)
ROOT
HETATM    1  C1  UNL     1     -32.448   4.798   2.804  1.00 20.00     0.018 C 
HETATM    2  C2  UNL     1     -33.818   7.406   5.006  1.00 20.00     0.018 C 
HETATM    3  C3  UNL     1     -32.772   4.400   4.247  1.00 20.00     0.022 C 
HETATM    4  C4  UNL     1     -32.342   7.499   4.609  1.00 20.00     0.022 C 
HETATM    5  C5  UNL     1     -32.822   6.226   2.376  1.00 20.00     0.066 C 
HETATM    6  C6  UNL     1     -34.622   6.246   4.399  1.00 20.00     0.066 C 
HETATM    7  C7  UNL     1     -34.166   4.813   4.732  1.00 20.00     0.096 C 
HETATM    8  C8  UNL     1     -32.043   7.333   3.114  1.00 20.00     0.096 C 
HETATM    9  S9  UNL     1     -34.617   6.431   2.591  1.00 20.00    -0.156 SA
HETATM   10 CL10 UNL     1     -34.282   4.514   6.499  1.00 20.00    -0.124 Cl
HETATM   11 CL11 UNL     1     -32.312   8.917   2.286  1.00 20.00    -0.124 Cl
ENDROOT
TORSDOF 0
