REMARK  1 active torsions:
REMARK  status: ('A' for Active; 'I' for Inactive)
REMARK    1  A    between atoms: C9_9  and  O11_11 
ROOT
HETATM    1  C1  UNL     1     -34.075   4.664   6.165  1.00 20.00    -0.025 C 
HETATM    2  C2  UNL     1     -34.018   4.101   4.943  1.00 20.00    -0.025 C 
HETATM    3  C3  UNL     1     -32.405   7.786   5.464  1.00 20.00    -0.022 C 
HETATM    4  C4  UNL     1     -31.876   8.001   4.237  1.00 20.00     0.001 C 
HETATM    5  C5  UNL     1     -35.519   5.782   4.767  1.00 20.00     0.018 C 
HETATM    6  C6  UNL     1     -34.606   6.069   6.001  1.00 20.00     0.017 C 
HETATM    7  C7  UNL     1     -34.385   5.180   3.924  1.00 20.00     0.016 C 
HETATM    8  C8  UNL     1     -33.670   7.040   5.263  1.00 20.00     0.023 C 
HETATM    9  C9  UNL     1     -32.615   7.218   3.147  1.00 20.00     0.146 C 
HETATM   10  C10 UNL     1     -33.210   6.169   4.060  1.00 20.00     0.034 C 
ENDROOT
BRANCH   9  11
HETATM   11  O11 UNL     1     -33.575   8.025   2.500  1.00 20.00    -0.391 OA
HETATM   12  H23 UNL     1     -33.102   8.776   2.101  1.00 20.00     0.210 HD
ENDBRANCH   9  11
TORSDOF 1
