REMARK  2 active torsions:
REMARK  status: ('A' for Active; 'I' for Inactive)
REMARK    1  A    between atoms: C2_2  and  C6_6 
REMARK    2  A    between atoms: C6_6  and  O7_7 
ROOT
HETATM    1  C4  UNL     1     -34.726   6.394   6.700  1.00 20.00     0.050 C 
HETATM    2  C5  UNL     1     -36.100   6.433   4.592  1.00 20.00     0.050 C 
HETATM    3  C6  UNL     1     -34.879   5.826   5.287  1.00 20.00     0.068 C 
ENDROOT
BRANCH   3   4
HETATM    4  C2  UNL     1     -33.632   6.119   4.480  1.00 20.00     0.005 C 
HETATM    5  C1  UNL     1     -33.132   7.332   4.196  1.00 20.00    -0.032 C 
HETATM    6  C3  UNL     1     -31.893   7.550   3.391  1.00 20.00     0.036 C 
ENDBRANCH   3   4
BRANCH   3   7
HETATM    7  O7  UNL     1     -35.090   4.418   5.398  1.00 20.00    -0.387 OA
HETATM    8  H19 UNL     1     -35.897   4.304   5.922  1.00 20.00     0.211 HD
ENDBRANCH   3   7
TORSDOF 2
