REMARK  3 active torsions:
REMARK  status: ('A' for Active; 'I' for Inactive)
REMARK    1  A    between atoms: C1_1  and  C2_2 
REMARK    2  A    between atoms: C1_1  and  C3_3 
REMARK    3  A    between atoms: C2_2  and  S8_8 
ROOT
HETATM    1  C1  UNL     1     -33.652   5.843   4.260  1.00 20.00     0.241 C 
HETATM    2  O4  UNL     1     -33.593   4.889   3.487  1.00 20.00    -0.287 OA
ENDROOT
BRANCH   1   3
HETATM    3  C2  UNL     1     -33.019   7.191   3.988  1.00 20.00     0.158 C 
BRANCH   3   4
HETATM    4  S8  UNL     1     -32.157   7.226   2.400  1.00 20.00    -0.174 SA
HETATM    5  H11 UNL     1     -31.742   8.498   2.483  1.00 20.00     0.102 HD
ENDBRANCH   3   4
ENDBRANCH   1   3
BRANCH   1   6
HETATM    6  C3  UNL     1     -34.383   5.718   5.568  1.00 20.00     0.451 C 
HETATM    7  F5  UNL     1     -34.339   6.871   6.282  1.00 20.00    -0.163 F 
HETATM    8  F6  UNL     1     -35.693   5.415   5.385  1.00 20.00    -0.163 F 
HETATM    9  F7  UNL     1     -33.861   4.746   6.357  1.00 20.00    -0.163 F 
ENDBRANCH   1   6
TORSDOF 3
