REMARK  2 active torsions:
REMARK  status: ('A' for Active; 'I' for Inactive)
REMARK    1  A    between atoms: C2_2  and  C5_5 
REMARK    2  A    between atoms: C3_3  and  C5_5 
ROOT
HETATM    1  C5  UNL     1     -32.890   7.748   3.751  1.00 20.00     0.123 C 
ENDROOT
BRANCH   1   2
HETATM    2  C2  UNL     1     -33.202   6.923   4.961  1.00 20.00    -0.022 C 
HETATM    3  C1  UNL     1     -34.367   6.982   5.623  1.00 20.00    -0.034 C 
HETATM    4  C4  UNL     1     -34.678   6.164   6.832  1.00 20.00     0.036 C 
ENDBRANCH   1   2
BRANCH   1   5
HETATM    5  C3  UNL     1     -32.573   6.862   2.556  1.00 20.00     0.222 C 
HETATM    6  O6  UNL     1     -32.621   5.636   2.592  1.00 20.00    -0.280 OA
HETATM    7 CL7  UNL     1     -32.169   7.812   1.151  1.00 20.00    -0.043 Cl
ENDBRANCH   1   5
TORSDOF 2
