REMARK  2 active torsions:
REMARK  status: ('A' for Active; 'I' for Inactive)
REMARK    1  A    between atoms: C8_8  and  C9_9 
REMARK    2  A    between atoms: C8_8  and  O10_10 
ROOT
HETATM    1  C1  UNL     1     -32.311   7.793   1.192  1.00 20.00     0.012 C 
HETATM    2  C2  UNL     1     -32.147   7.751   2.381  1.00 20.00    -0.115 C 
HETATM    3  C9  UNL     1     -31.933   7.702   3.829  1.00 20.00     0.130 C 
ENDROOT
BRANCH   3   4
HETATM    4  C8  UNL     1     -33.234   7.370   4.562  1.00 20.00     0.068 C 
HETATM    5  C6  UNL     1     -32.996   7.322   6.080  1.00 20.00     0.038 C 
HETATM    6  C4  UNL     1     -34.249   6.903   6.851  1.00 20.00     0.003 C 
HETATM    7  C3  UNL     1     -34.810   5.581   6.336  1.00 20.00     0.000 C 
HETATM    8  C5  UNL     1     -35.071   5.628   4.833  1.00 20.00     0.003 C 
HETATM    9  C7  UNL     1     -33.819   6.041   4.058  1.00 20.00     0.038 C 
BRANCH   4  10
HETATM   10  O10 UNL     1     -34.166   8.422   4.295  1.00 20.00    -0.389 OA
HETATM   11  H24 UNL     1     -34.297   8.430   3.336  1.00 20.00     0.210 HD
ENDBRANCH   4  10
ENDBRANCH   3   4
TORSDOF 2
