REMARK  3 active torsions:
REMARK  status: ('A' for Active; 'I' for Inactive)
REMARK    1  A    between atoms: C2_2  and  C6_6 
REMARK    2  A    between atoms: C6_6  and  C7_7 
REMARK    3  A    between atoms: C6_6  and  O8_8 
ROOT
HETATM    1  C6  UNL     1     -33.381   6.802   5.191  1.00 20.00     0.144 C 
ENDROOT
BRANCH   1   2
HETATM    2  C2  UNL     1     -33.261   7.884   4.153  1.00 20.00     0.000 C 
HETATM    3  C1  UNL     1     -32.444   7.810   3.092  1.00 20.00    -0.033 C 
HETATM    4  C3  UNL     1     -32.326   8.880   2.058  1.00 20.00     0.036 C 
ENDBRANCH   1   2
BRANCH   1   5
HETATM    5  C7  UNL     1     -34.811   6.246   5.386  1.00 20.00     0.010 C 
HETATM    6  C4  UNL     1     -34.909   5.199   6.501  1.00 20.00     0.012 C 
HETATM    7  C5  UNL     1     -35.387   5.686   4.083  1.00 20.00     0.012 C 
ENDBRANCH   1   5
BRANCH   1   8
HETATM    8  O8  UNL     1     -32.911   7.344   6.427  1.00 20.00    -0.391 OA
HETATM    9  H22 UNL     1     -31.990   7.604   6.278  1.00 20.00     0.210 HD
ENDBRANCH   1   8
TORSDOF 3
