REMARK  0 active torsions:
REMARK  status: ('A' for Active; 'I' for Inactive)
ROOT
HETATM    1  C1  UNL     1     -33.337   5.074   2.721  1.00 20.00     0.029 C 
HETATM    2  C2  UNL     1     -34.499   5.271   3.692  1.00 20.00     0.044 C 
HETATM    3  C3  UNL     1     -32.700   6.416   2.369  1.00 20.00     0.167 C 
HETATM    4  C4  UNL     1     -33.340   7.395   4.438  1.00 20.00     0.207 C 
HETATM    5  C5  UNL     1     -33.866   5.553   6.210  1.00 20.00     0.209 A 
HETATM    6  C6  UNL     1     -34.046   6.136   4.828  1.00 20.00     0.103 A 
HETATM    7  O7  UNL     1     -32.257   7.089   3.551  1.00 20.00    -0.388 OA
HETATM    8  O8  UNL     1     -35.030   6.312   5.856  1.00 20.00    -0.373 OA
ENDROOT
TORSDOF 0
