REMARK  0 active torsions:
REMARK  status: ('A' for Active; 'I' for Inactive)
ROOT
HETATM    1  C1  UNL     1     -34.359   4.451   4.502  1.00 20.00     0.066 C 
HETATM    2  C2  UNL     1     -34.011   6.946   4.680  1.00 20.00     0.066 C 
HETATM    3  C3  UNL     1     -33.255   4.450   3.449  1.00 20.00     0.170 C 
HETATM    4  C4  UNL     1     -32.928   6.793   3.616  1.00 20.00     0.170 C 
HETATM    5  C5  UNL     1     -33.709   5.473   6.821  1.00 20.00     0.207 A 
HETATM    6  C6  UNL     1     -34.180   5.640   5.396  1.00 20.00     0.086 A 
HETATM    7  O7  UNL     1     -33.234   5.698   2.745  1.00 20.00    -0.391 OA
HETATM    8  O8  UNL     1     -35.092   5.688   6.501  1.00 20.00    -0.375 OA
ENDROOT
TORSDOF 0
