REMARK  2 active torsions:
REMARK  status: ('A' for Active; 'I' for Inactive)
REMARK    1  A    between atoms: C3_3  and  C5_5 
REMARK    2  A    between atoms: C4_4  and  C10_10 
ROOT
HETATM    1  C1  UNL     1     -35.225   6.093   4.695  1.00 20.00    -0.026 C 
HETATM    2  C2  UNL     1     -34.815   5.829   3.447  1.00 20.00    -0.025 C 
HETATM    3  C6  UNL     1     -33.311   4.810   4.871  1.00 20.00     0.017 C 
HETATM    4  C7  UNL     1     -33.072   7.139   5.305  1.00 20.00     0.017 C 
HETATM    5  C8  UNL     1     -34.023   5.956   5.598  1.00 20.00     0.009 C 
HETATM    6  C9  UNL     1     -33.334   5.526   3.515  1.00 20.00     0.016 C 
HETATM    7  C10 UNL     1     -32.561   6.819   3.870  1.00 20.00     0.017 C 
ENDROOT
BRANCH   7   8
HETATM    8  C4  UNL     1     -32.725   7.938   2.895  1.00 20.00    -0.015 C 
HETATM    9  C3  UNL     1     -32.920   7.753   1.583  1.00 20.00     0.081 C 
BRANCH   9  10
HETATM   10  C5  UNL     1     -33.085   8.932   0.613  1.00 20.00     0.198 C 
HETATM   11  O11 UNL     1     -33.021  10.068   1.169  1.00 20.00    -0.645 OA
HETATM   12  O12 UNL     1     -33.264   8.652  -0.606  1.00 20.00    -0.645 OA
ENDBRANCH   9  10
ENDBRANCH   7   8
TORSDOF 2
