REMARK  0 active torsions:
REMARK  status: ('A' for Active; 'I' for Inactive)
ROOT
HETATM    1  C1  UNL     1     -33.927   6.681   6.906  1.00 20.00    -0.025 A 
HETATM    2  C2  UNL     1     -34.220   5.422   6.540  1.00 20.00     0.003 A 
HETATM    3  C3  UNL     1     -33.894   7.571   5.686  1.00 20.00     0.061 A 
HETATM    4  C4  UNL     1     -34.441   5.277   5.093  1.00 20.00     0.173 A 
HETATM    5  C5  UNL     1     -34.132   6.645   4.516  1.00 20.00     0.158 A 
HETATM    6  O6  UNL     1     -35.424   6.055   4.389  1.00 20.00    -0.371 OA
ENDROOT
TORSDOF 0
