REMARK  0 active torsions:
REMARK  status: ('A' for Active; 'I' for Inactive)
ROOT
HETATM    1  C1  UNL     1     -33.205   7.279   5.191  1.00 20.00     0.127 C 
HETATM    2  C2  UNL     1     -34.408   7.191   6.113  1.00 20.00     0.082 C 
HETATM    3  C3  UNL     1     -33.357   6.744   3.779  1.00 20.00     0.082 C 
HETATM    4  C4  UNL     1     -34.458   4.658   5.985  1.00 20.00     0.005 C 
HETATM    5  C5  UNL     1     -33.836   4.393   4.608  1.00 20.00     0.005 C 
HETATM    6  C6  UNL     1     -35.653   5.926   4.348  1.00 20.00     0.010 C 
HETATM    7  C7  UNL     1     -35.267   5.954   5.825  1.00 20.00    -0.007 C 
HETATM    8  C8  UNL     1     -34.317   5.549   3.716  1.00 20.00    -0.007 C 
HETATM    9  O9  UNL     1     -32.177   7.860   5.542  1.00 20.00    -0.298 OA
ENDROOT
TORSDOF 0
