REMARK  0 active torsions:
REMARK  status: ('A' for Active; 'I' for Inactive)
ROOT
HETATM    1  C1  UNL     1     -32.581   7.406   2.782  1.00 20.00     0.064 C 
HETATM    2  C2  UNL     1     -33.626   5.244   3.365  1.00 20.00     0.022 C 
HETATM    3  C3  UNL     1     -34.016   4.309   4.511  1.00 20.00     0.036 C 
HETATM    4  C4  UNL     1     -34.193   7.340   4.649  1.00 20.00     0.053 C 
HETATM    5  C5  UNL     1     -33.091   6.583   3.892  1.00 20.00     0.095 C 
HETATM    6  C6  UNL     1     -34.872   4.985   5.533  1.00 20.00     0.151 A 
HETATM    7  C7  UNL     1     -34.932   6.486   5.629  1.00 20.00     0.152 A 
HETATM    8  N8  UNL     1     -32.178   8.054   1.908  1.00 20.00    -0.197 NA
HETATM    9  O9  UNL     1     -34.119   5.719   6.518  1.00 20.00    -0.375 OA
ENDROOT
TORSDOF 0
