REMARK  0 active torsions:
REMARK  status: ('A' for Active; 'I' for Inactive)
ROOT
HETATM    1  C1  UNL     1     -33.258   7.211   5.629  1.00 20.00     0.178 C 
HETATM    2  C2  UNL     1     -33.919   6.854   6.949  1.00 20.00     0.102 C 
HETATM    3  C3  UNL     1     -34.864   5.783   4.780  1.00 20.00     0.241 C 
HETATM    4  O4  UNL     1     -34.231   7.052   4.590  1.00 20.00    -0.381 OA
HETATM    5  S5  UNL     1     -34.862   5.376   6.537  1.00 20.00    -0.141 SA
ENDROOT
TORSDOF 0
