REMARK  2 active torsions:
REMARK  status: ('A' for Active; 'I' for Inactive)
REMARK    1  A    between atoms: C5_5  and  C6_6 
REMARK    2  A    between atoms: C6_6  and  O7_7 
ROOT
HETATM    1  C1  UNL     1     -32.473   7.648   2.957  1.00 20.00    -0.004 A 
HETATM    2  C2  UNL     1     -32.592   6.359   2.327  1.00 20.00    -0.004 A 
HETATM    3  C3  UNL     1     -32.988   7.594   4.193  1.00 20.00    -0.016 A 
HETATM    4  C4  UNL     1     -33.182   5.500   3.170  1.00 20.00    -0.016 A 
HETATM    5  C5  UNL     1     -33.501   6.202   4.466  1.00 20.00     0.054 A 
ENDROOT
BRANCH   5   6
HETATM    6  C6  UNL     1     -34.991   6.188   4.779  1.00 20.00     0.176 C 
BRANCH   6   7
HETATM    7  O7  UNL     1     -35.393   4.849   5.010  1.00 20.00    -0.400 OA
HETATM    8  H15 UNL     1     -36.345   4.867   5.207  1.00 20.00     0.209 HD
ENDBRANCH   6   7
ENDBRANCH   5   6
TORSDOF 2
