REMARK  1 active torsions:
REMARK  status: ('A' for Active; 'I' for Inactive)
REMARK    1  A    between atoms: C1_1  and  C6_6 
ROOT
HETATM    1  C2  UNL     1     -32.829   5.072   3.320  1.00 20.00     0.002 C 
HETATM    2  C3  UNL     1     -34.289   5.107   3.762  1.00 20.00     0.012 C 
HETATM    3  C4  UNL     1     -32.518   6.175   2.313  1.00 20.00     0.009 C 
HETATM    4  C5  UNL     1     -34.321   7.629   3.349  1.00 20.00     0.021 C 
HETATM    5  C6  UNL     1     -34.734   6.476   4.272  1.00 20.00     0.055 C 
HETATM    6  C7  UNL     1     -32.863   7.588   2.829  1.00 20.00    -0.047 C 
HETATM    7  C9  UNL     1     -31.867   8.024   3.921  1.00 20.00     0.015 C 
HETATM    8  C10 UNL     1     -32.730   8.588   1.661  1.00 20.00     0.015 C 
ENDROOT
BRANCH   5   9
HETATM    9  C1  UNL     1     -34.287   6.715   5.684  1.00 20.00     0.127 C 
HETATM   10  C8  UNL     1     -34.708   5.698   6.709  1.00 20.00     0.091 C 
HETATM   11  O11 UNL     1     -33.607   7.695   5.988  1.00 20.00    -0.298 OA
ENDBRANCH   5   9
TORSDOF 1
