REMARK  1 active torsions:
REMARK  status: ('A' for Active; 'I' for Inactive)
REMARK    1  A    between atoms: C2_2  and  C3_3 
ROOT
HETATM    1  C1  UNL     1     -33.313   7.379   4.791  1.00 20.00    -0.012 C 
HETATM    2  C2  UNL     1     -33.506   6.162   4.263  1.00 20.00    -0.001 C 
HETATM    3  C4  UNL     1     -33.931   7.745   6.108  1.00 20.00     0.054 C 
HETATM    4  C5  UNL     1     -34.359   5.124   4.924  1.00 20.00     0.209 C 
HETATM    5  C6  UNL     1     -34.439   6.510   6.848  1.00 20.00     0.171 C 
HETATM    6  O8  UNL     1     -35.186   5.682   5.955  1.00 20.00    -0.386 OA
ENDROOT
BRANCH   2   7
HETATM    7  C3  UNL     1     -32.874   5.852   2.981  1.00 20.00     0.267 C 
HETATM    8  O7  UNL     1     -32.997   4.765   2.428  1.00 20.00    -0.302 OA
ENDBRANCH   2   7
TORSDOF 1
