REMARK  2 active torsions:
REMARK  status: ('A' for Active; 'I' for Inactive)
REMARK    1  A    between atoms: C1_1  and  C2_2 
REMARK    2  A    between atoms: C2_2  and  C3_3 
ROOT
HETATM    1  C2  UNL     1     -33.445   7.123   4.716  1.00 20.00     0.428 C 
HETATM    2  F6  UNL     1     -34.196   8.202   4.372  1.00 20.00    -0.184 F 
HETATM    3  F7  UNL     1     -32.354   7.602   5.368  1.00 20.00    -0.184 F 
ENDROOT
BRANCH   1   4
HETATM    4  C1  UNL     1     -33.048   6.347   3.499  1.00 20.00     0.379 C 
HETATM    5  O4  UNL     1     -32.398   6.789   2.564  1.00 20.00    -0.253 OA
HETATM    6  F5  UNL     1     -33.404   5.056   3.444  1.00 20.00    -0.157 F 
ENDBRANCH   1   4
BRANCH   1   7
HETATM    7  C3  UNL     1     -34.242   6.261   5.662  1.00 20.00     0.465 C 
HETATM    8  F8  UNL     1     -33.515   5.193   6.059  1.00 20.00    -0.165 F 
HETATM    9  F9  UNL     1     -35.366   5.797   5.076  1.00 20.00    -0.165 F 
HETATM   10  F10 UNL     1     -34.601   6.947   6.768  1.00 20.00    -0.165 F 
ENDBRANCH   1   7
TORSDOF 2
