REMARK  2 active torsions:
REMARK  status: ('A' for Active; 'I' for Inactive)
REMARK    1  A    between atoms: C4_4  and  C7_7 
REMARK    2  A    between atoms: C8_8  and  O11_11 
ROOT
HETATM    1  C1  UNL     1     -32.465   5.465   2.657  1.00 20.00    -0.019 C 
HETATM    2  C2  UNL     1     -33.509   4.900   3.280  1.00 20.00     0.007 C 
HETATM    3  C5  UNL     1     -32.578   7.422   4.240  1.00 20.00     0.016 C 
HETATM    4  C6  UNL     1     -34.077   7.126   4.353  1.00 20.00     0.042 C 
HETATM    5  C7  UNL     1     -31.983   6.865   2.932  1.00 20.00     0.036 C 
HETATM    6  C8  UNL     1     -34.355   5.610   4.305  1.00 20.00     0.072 C 
HETATM    7  C10 UNL     1     -35.843   5.357   4.045  1.00 20.00     0.050 C 
ENDROOT
BRANCH   5   8
HETATM    8  C4  UNL     1     -32.271   7.764   1.764  1.00 20.00    -0.085 C 
HETATM    9  C3  UNL     1     -33.009   8.877   1.890  1.00 20.00     0.014 C 
HETATM   10  C9  UNL     1     -31.686   7.346   0.448  1.00 20.00     0.043 C 
ENDBRANCH   5   8
BRANCH   6  11
HETATM   11  O11 UNL     1     -34.028   5.038   5.575  1.00 20.00    -0.386 OA
HETATM   12  H27 UNL     1     -34.242   4.096   5.510  1.00 20.00     0.211 HD
ENDBRANCH   6  11
TORSDOF 2
