REMARK  1 active torsions:
REMARK  status: ('A' for Active; 'I' for Inactive)
REMARK    1  A    between atoms: C1_1  and  C3_3 
ROOT
HETATM    1  C1  UNL     1     -34.258   5.663   4.388  1.00 20.00     0.181 A 
HETATM    2  C2  UNL     1     -33.925   5.672   5.852  1.00 20.00     0.247 A 
HETATM    3  O4  UNL     1     -34.617   4.573   5.246  1.00 20.00    -0.358 OA
HETATM    4 CL5  UNL     1     -34.797   6.723   6.934  1.00 20.00    -0.092 Cl
ENDROOT
BRANCH   1   5
HETATM    5  C3  UNL     1     -33.226   5.331   3.371  1.00 20.00     0.150 C 
HETATM    6 CL6  UNL     1     -32.177   6.735   3.025  1.00 20.00    -0.128 Cl
ENDBRANCH   1   5
TORSDOF 1
