REMARK  0 active torsions:
REMARK  status: ('A' for Active; 'I' for Inactive)
ROOT
HETATM    1  C1  UNL     1     -34.544   6.501   4.339  1.00 20.00     0.374 C 
HETATM    2  C2  UNL     1     -33.869   5.943   5.596  1.00 20.00     0.398 C 
HETATM    3  C3  UNL     1     -33.284   6.003   3.625  1.00 20.00     0.398 C 
HETATM    4  O4  UNL     1     -32.896   5.232   4.790  1.00 20.00    -0.252 OA
HETATM    5  F5  UNL     1     -35.701   5.901   3.978  1.00 20.00    -0.231 F 
HETATM    6  F6  UNL     1     -34.615   5.119   6.361  1.00 20.00    -0.172 F 
HETATM    7  F7  UNL     1     -33.297   6.850   6.418  1.00 20.00    -0.172 F 
HETATM    8  F8  UNL     1     -32.372   6.945   3.300  1.00 20.00    -0.172 F 
HETATM    9  F9  UNL     1     -33.480   5.235   2.532  1.00 20.00    -0.172 F 
ENDROOT
TORSDOF 0
