REMARK  1 active torsions:
REMARK  status: ('A' for Active; 'I' for Inactive)
REMARK    1  A    between atoms: C1_1  and  S5_5 
ROOT
HETATM    1  C1  UNL     1     -33.528   6.047   4.150  1.00 20.00     0.041 C 
HETATM    2  C2  UNL     1     -33.332   7.235   5.056  1.00 20.00     0.069 C 
HETATM    3  S4  UNL     1     -32.744   5.940   2.674  1.00 20.00    -0.078 SA
ENDROOT
BRANCH   1   4
HETATM    4  S5  UNL     1     -34.634   4.804   4.721  1.00 20.00    -0.128 SA
HETATM    5  C3  UNL     1     -34.411   4.983   6.505  1.00 20.00     0.096 C 
ENDBRANCH   1   4
TORSDOF 1
