REMARK  0 active torsions:
REMARK  status: ('A' for Active; 'I' for Inactive)
ROOT
HETATM    1  C1  UNL     1     -33.514   6.216   4.341  1.00 20.00     0.223 C 
HETATM    2  C2  UNL     1     -34.005   6.233   5.550  1.00 20.00    -0.033 C 
HETATM    3  C3  UNL     1     -33.990   7.468   6.403  1.00 20.00     0.047 C 
HETATM    4  C4  UNL     1     -34.624   5.019   6.181  1.00 20.00     0.047 C 
HETATM    5  O5  UNL     1     -33.071   6.200   3.251  1.00 20.00    -0.284 OA
ENDROOT
TORSDOF 0
