REMARK  1 active torsions:
REMARK  status: ('A' for Active; 'I' for Inactive)
REMARK    1  A    between atoms: C1_1  and  C3_3 
ROOT
HETATM    1  C1  UNL     1     -34.343   7.202   4.734  1.00 20.00     0.181 A 
HETATM    2  C2  UNL     1     -34.835   6.455   5.942  1.00 20.00     0.247 A 
HETATM    3  O4  UNL     1     -34.187   7.728   6.058  1.00 20.00    -0.358 OA
HETATM    4 CL5  UNL     1     -34.028   5.034   6.539  1.00 20.00    -0.092 Cl
ENDROOT
BRANCH   1   5
HETATM    5  C3  UNL     1     -33.062   6.896   4.043  1.00 20.00     0.150 C 
HETATM    6 CL6  UNL     1     -33.229   5.482   2.964  1.00 20.00    -0.128 Cl
ENDBRANCH   1   5
TORSDOF 1
