REMARK  0 active torsions:
REMARK  status: ('A' for Active; 'I' for Inactive)
ROOT
HETATM    1  C1  UNL     1     -32.020   6.935   3.464  1.00 20.00     0.029 C 
HETATM    2  C2  UNL     1     -32.911   7.698   4.442  1.00 20.00     0.044 C 
HETATM    3  C3  UNL     1     -32.827   5.871   2.722  1.00 20.00     0.167 C 
HETATM    4  C4  UNL     1     -34.378   5.635   4.507  1.00 20.00     0.207 C 
HETATM    5  C5  UNL     1     -33.369   6.541   6.738  1.00 20.00     0.209 A 
HETATM    6  C6  UNL     1     -33.682   6.717   5.271  1.00 20.00     0.103 A 
HETATM    7  O7  UNL     1     -33.445   4.971   3.647  1.00 20.00    -0.388 OA
HETATM    8  O8  UNL     1     -34.487   7.321   6.292  1.00 20.00    -0.373 OA
ENDROOT
TORSDOF 0
