REMARK  0 active torsions:
REMARK  status: ('A' for Active; 'I' for Inactive)
ROOT
HETATM    1  C1  UNL     1     -32.845   6.830   3.803  1.00 20.00     0.229 C 
HETATM    2  C2  UNL     1     -33.486   7.566   4.962  1.00 20.00     0.104 C 
HETATM    3  C3  UNL     1     -33.356   6.794   6.271  1.00 20.00     0.009 C 
HETATM    4  C4  UNL     1     -34.455   5.755   6.479  1.00 20.00     0.002 C 
HETATM    5  C5  UNL     1     -34.455   4.617   5.459  1.00 20.00     0.021 C 
HETATM    6  C6  UNL     1     -34.667   5.090   4.025  1.00 20.00     0.140 C 
HETATM    7  N7  UNL     1     -33.445   5.634   3.437  1.00 20.00    -0.284 N 
HETATM    8  O8  UNL     1     -31.845   7.302   3.256  1.00 20.00    -0.273 OA
HETATM    9 BR9  UNL     1     -32.629   4.597   2.060  1.00 20.00     0.052 Br
ENDROOT
TORSDOF 0
