REMARK  1 active torsions:
REMARK  status: ('A' for Active; 'I' for Inactive)
REMARK    1  A    between atoms: C2_2  and  C4_4 
ROOT
HETATM    1  C3  UNL     1     -34.051   5.424   3.877  1.00 20.00     0.204 A 
HETATM    2  C4  UNL     1     -34.965   5.302   5.047  1.00 20.00     0.167 A 
HETATM    3  O5  UNL     1     -34.434   4.152   4.412  1.00 20.00    -0.377 OA
ENDROOT
BRANCH   2   4
HETATM    4  C2  UNL     1     -34.451   5.760   6.370  1.00 20.00    -0.003 C 
HETATM    5  C1  UNL     1     -34.471   7.032   6.781  1.00 20.00     0.009 C 
ENDBRANCH   2   4
TORSDOF 1
