REMARK  4 active torsions:
REMARK  status: ('A' for Active; 'I' for Inactive)
REMARK    1  A    between atoms: C5_5  and  C7_7 
REMARK    2  A    between atoms: C5_5  and  C8_8 
REMARK    3  A    between atoms: C6_6  and  C7_7 
REMARK    4  A    between atoms: C6_6  and  S9_9 
ROOT
HETATM    1  C5  UNL     1     -34.009   6.785   3.196  1.00 20.00     0.013 C 
ENDROOT
BRANCH   1   2
HETATM    2  C7  UNL     1     -32.492   7.078   3.068  1.00 20.00    -0.009 C 
HETATM    3  C1  UNL     1     -31.986   8.159   4.023  1.00 20.00     0.011 C 
BRANCH   2   4
HETATM    4  C6  UNL     1     -32.105   7.403   1.605  1.00 20.00     0.075 C 
BRANCH   4   5
HETATM    5  S9  UNL     1     -32.700   9.001   0.967  1.00 20.00    -0.182 SA
HETATM    6  H27 UNL     1     -32.165   8.869  -0.254  1.00 20.00     0.101 HD
ENDBRANCH   4   5
ENDBRANCH   2   4
ENDBRANCH   1   2
BRANCH   1   7
HETATM    7  C8  UNL     1     -34.517   5.895   4.370  1.00 20.00    -0.051 C 
HETATM    8  C2  UNL     1     -33.922   4.480   4.325  1.00 20.00     0.014 C 
HETATM    9  C3  UNL     1     -34.233   6.532   5.741  1.00 20.00     0.014 C 
HETATM   10  C4  UNL     1     -36.053   5.776   4.232  1.00 20.00     0.014 C 
ENDBRANCH   1   7
TORSDOF 4
