REMARK  2 active torsions:
REMARK  status: ('A' for Active; 'I' for Inactive)
REMARK    1  A    between atoms: C2_2  and  C3_3 
REMARK    2  A    between atoms: N7_7  and  N8_8 
ROOT
HETATM    1  C2  UNL     1     -32.741   7.378   3.100  1.00 20.00     0.138 C 
HETATM    2  N7  UNL     1     -32.333   7.180   1.888  1.00 20.00    -0.214 NA
ENDROOT
BRANCH   1   3
HETATM    3  C3  UNL     1     -33.384   6.314   3.926  1.00 20.00    -0.047 C 
HETATM    4  C1  UNL     1     -33.755   6.686   5.163  1.00 20.00    -0.023 C 
HETATM    5  C4  UNL     1     -34.417   5.842   6.205  1.00 20.00     0.036 C 
HETATM    6  C5  UNL     1     -33.544   4.966   3.296  1.00 20.00     0.049 C 
ENDBRANCH   1   3
BRANCH   2   7
HETATM    7  N8  UNL     1     -31.778   8.276   1.329  1.00 20.00    -0.222 NA
HETATM    8  C6  UNL     1     -32.712   9.226   0.748  1.00 20.00     0.135 C 
HETATM    9  H20 UNL     1     -31.062   8.024   0.647  1.00 20.00     0.148 HD
ENDBRANCH   2   7
TORSDOF 2
