REMARK  2 active torsions:
REMARK  status: ('A' for Active; 'I' for Inactive)
REMARK    1  A    between atoms: C6_6  and  C8_8 
REMARK    2  A    between atoms: C7_7  and  C8_8 
ROOT
HETATM    1  C1  UNL     1     -32.915   4.792   2.545  1.00 20.00     0.075 C 
HETATM    2  C8  UNL     1     -33.213   6.114   3.145  1.00 20.00     0.186 C 
HETATM    3  N9  UNL     1     -32.691   3.750   2.086  1.00 20.00    -0.196 NA
ENDROOT
BRANCH   2   4
HETATM    4  C6  UNL     1     -33.819   6.001   4.503  1.00 20.00    -0.031 A 
HETATM    5  C2  UNL     1     -34.177   7.146   5.206  1.00 20.00     0.028 A 
HETATM    6  C4  UNL     1     -34.736   6.986   6.463  1.00 20.00     0.116 A 
HETATM    7  N10 UNL     1     -34.955   5.787   7.048  1.00 20.00    -0.273 NA
HETATM    8  C5  UNL     1     -34.595   4.697   6.334  1.00 20.00     0.116 A 
HETATM    9  C3  UNL     1     -34.029   4.749   5.071  1.00 20.00     0.028 A 
ENDBRANCH   2   4
BRANCH   2  10
HETATM   10  C7  UNL     1     -31.974   7.003   3.151  1.00 20.00     0.255 C 
HETATM   11  O11 UNL     1     -31.772   7.936   3.922  1.00 20.00    -0.305 OA
ENDBRANCH   2  10
TORSDOF 2
