REMARK  2 active torsions:
REMARK  status: ('A' for Active; 'I' for Inactive)
REMARK    1  A    between atoms: C4_4  and  C5_5 
REMARK    2  A    between atoms: C4_4  and  N6_6 
ROOT
HETATM    1  C1  UNL     1     -34.434   4.798   6.423  1.00 20.00     0.016 C 
HETATM    2  C2  UNL     1     -35.602   6.110   4.643  1.00 20.00     0.016 C 
HETATM    3  C3  UNL     1     -34.274   7.303   6.394  1.00 20.00     0.016 C 
HETATM    4  C5  UNL     1     -34.339   6.039   5.520  1.00 20.00    -0.036 C 
ENDROOT
BRANCH   4   5
HETATM    5  C4  UNL     1     -33.106   5.950   4.597  1.00 20.00     0.154 C 
BRANCH   5   6
HETATM    6  N6  UNL     1     -33.000   7.137   3.742  1.00 20.00    -0.063 NA
HETATM    7  O7  UNL     1     -31.956   7.780   3.941  1.00 20.00    -0.101 OA
ENDBRANCH   5   6
ENDBRANCH   4   5
TORSDOF 2
