REMARK  3 active torsions:
REMARK  status: ('A' for Active; 'I' for Inactive)
REMARK    1  A    between atoms: C3_3  and  C9_9 
REMARK    2  A    between atoms: C8_8  and  C10_10 
REMARK    3  A    between atoms: C9_9  and  C10_10 
ROOT
HETATM    1  C1  UNL     1     -34.502   4.937   5.969  1.00 20.00    -0.026 C 
HETATM    2  C2  UNL     1     -34.441   6.251   6.234  1.00 20.00    -0.025 C 
HETATM    3  C4  UNL     1     -35.908   5.992   4.469  1.00 20.00     0.017 C 
HETATM    4  C5  UNL     1     -33.802   5.258   3.625  1.00 20.00     0.013 C 
HETATM    5  C6  UNL     1     -34.959   4.791   4.537  1.00 20.00     0.009 C 
HETATM    6  C7  UNL     1     -34.848   6.980   4.974  1.00 20.00     0.012 C 
HETATM    7  C8  UNL     1     -33.759   6.797   3.884  1.00 20.00    -0.006 C 
ENDROOT
BRANCH   7   8
HETATM    8  C10 UNL     1     -32.378   7.312   4.258  1.00 20.00     0.012 C 
BRANCH   8   9
HETATM    9  C9  UNL     1     -31.485   7.451   3.031  1.00 20.00     0.070 C 
BRANCH   9  10
HETATM   10  C3  UNL     1     -32.032   8.434   2.024  1.00 20.00     0.231 C 
HETATM   11  O11 UNL     1     -32.359   8.150   0.877  1.00 20.00    -0.307 OA
ENDBRANCH   9  10
ENDBRANCH   8   9
ENDBRANCH   7   8
TORSDOF 3
