REMARK  2 active torsions:
REMARK  status: ('A' for Active; 'I' for Inactive)
REMARK    1  A    between atoms: C6_6  and  O8_8 
REMARK    2  A    between atoms: N7_7  and  O8_8 
ROOT
HETATM    1  C1  UNL     1     -32.281   8.177   1.174  1.00 20.00     0.014 C 
HETATM    2  C2  UNL     1     -32.287   7.313   2.007  1.00 20.00    -0.089 C 
HETATM    3  C6  UNL     1     -32.291   6.259   3.022  1.00 20.00     0.296 C 
ENDROOT
BRANCH   3   4
HETATM    4  O8  UNL     1     -33.618   5.975   3.438  1.00 20.00    -0.244 OA
BRANCH   4   5
HETATM    5  N7  UNL     1     -34.004   6.955   4.362  1.00 20.00    -0.143 NA
HETATM    6  C3  UNL     1     -34.301   6.424   5.508  1.00 20.00     0.032 C 
HETATM    7  C4  UNL     1     -34.754   7.209   6.714  1.00 20.00     0.067 C 
HETATM    8  C5  UNL     1     -34.196   4.928   5.650  1.00 20.00     0.067 C 
ENDBRANCH   4   5
ENDBRANCH   3   4
TORSDOF 2
