REMARK  4 active torsions:
REMARK  status: ('A' for Active; 'I' for Inactive)
REMARK    1  A    between atoms: C1_1  and  C6_6 
REMARK    2  A    between atoms: C2_2  and  C8_8 
REMARK    3  A    between atoms: C8_8  and  C10_10 
REMARK    4  A    between atoms: C9_9  and  C10_10 
ROOT
HETATM    1  C1  UNL     1     -33.581   6.316   3.951  1.00 20.00    -0.074 C 
HETATM    2  C2  UNL     1     -32.621   6.698   3.341  1.00 20.00    -0.104 C 
ENDROOT
BRANCH   1   3
HETATM    3  C6  UNL     1     -34.757   5.847   4.697  1.00 20.00     0.200 C 
HETATM    4  C4  UNL     1     -34.494   4.532   5.414  1.00 20.00     0.047 C 
HETATM    5  C3  UNL     1     -34.041   4.983   6.782  1.00 20.00     0.030 C 
HETATM    6  C5  UNL     1     -34.894   6.212   7.001  1.00 20.00     0.169 C 
HETATM    7  O11 UNL     1     -35.088   6.810   5.712  1.00 20.00    -0.374 OA
ENDBRANCH   1   3
BRANCH   2   8
HETATM    8  C8  UNL     1     -31.443   7.165   2.596  1.00 20.00     0.094 C 
BRANCH   8   9
HETATM    9  C10 UNL     1     -31.831   7.650   1.200  1.00 20.00     0.012 C 
BRANCH   9  10
HETATM   10  C9  UNL     1     -32.796   8.834   1.270  1.00 20.00    -0.004 C 
HETATM   11  C7  UNL     1     -33.153   9.345  -0.117  1.00 20.00     0.005 C 
ENDBRANCH   9  10
ENDBRANCH   8   9
ENDBRANCH   2   8
TORSDOF 4
