REMARK  0 active torsions:
REMARK  status: ('A' for Active; 'I' for Inactive)
ROOT
HETATM    1  C1  UNL     1     -33.735   5.287   3.079  1.00 20.00     0.145 C 
HETATM    2  C2  UNL     1     -34.204   6.109   5.462  1.00 20.00     0.061 C 
HETATM    3  C3  UNL     1     -32.922   7.583   3.681  1.00 20.00     0.061 C 
HETATM    4  C4  UNL     1     -34.085   4.923   4.515  1.00 20.00     0.103 C 
HETATM    5  C5  UNL     1     -32.631   6.323   2.872  1.00 20.00     0.103 C 
HETATM    6  C6  UNL     1     -33.083   3.898   5.045  1.00 20.00     0.024 C 
HETATM    7  C7  UNL     1     -32.353   6.531   1.382  1.00 20.00     0.024 C 
HETATM    8  O8  UNL     1     -34.277   4.704   2.139  1.00 20.00    -0.296 OA
HETATM    9  S9  UNL     1     -35.478   6.231   6.550  1.00 20.00    -0.076 SA
HETATM   10  S10 UNL     1     -33.252   9.096   3.043  1.00 20.00    -0.076 SA
HETATM   11  S11 UNL     1     -32.921   7.316   5.426  1.00 20.00    -0.074 SA
ENDROOT
TORSDOF 0
