REMARK  1 active torsions:
REMARK  status: ('A' for Active; 'I' for Inactive)
REMARK    1  A    between atoms: C3_3  and  C8_8 
ROOT
HETATM    1  C1  UNL     1     -32.648   7.739   5.605  1.00 20.00     0.048 A 
HETATM    2  C2  UNL     1     -31.755   8.185   4.613  1.00 20.00     0.141 A 
HETATM    3  C3  UNL     1     -33.418   6.793   4.973  1.00 20.00     0.039 A 
HETATM    4  C7  UNL     1     -33.448   5.883   2.632  1.00 20.00     0.179 C 
HETATM    5  N9  UNL     1     -31.940   7.574   3.440  1.00 20.00    -0.185 NA
HETATM    6  N10 UNL     1     -32.958   6.733   3.691  1.00 20.00    -0.278 N 
ENDROOT
BRANCH   3   7
HETATM    7  C8  UNL     1     -34.577   5.924   5.490  1.00 20.00    -0.007 C 
HETATM    8  C4  UNL     1     -34.841   6.242   6.978  1.00 20.00     0.021 C 
HETATM    9  C5  UNL     1     -34.210   4.431   5.348  1.00 20.00     0.021 C 
HETATM   10  C6  UNL     1     -35.907   6.141   4.734  1.00 20.00     0.021 C 
ENDBRANCH   3   7
TORSDOF 1
