REMARK  3 active torsions:
REMARK  status: ('A' for Active; 'I' for Inactive)
REMARK    1  A    between atoms: C1_1  and  C3_3 
REMARK    2  A    between atoms: C2_2  and  C7_7 
REMARK    3  A    between atoms: C7_7  and  C8_8 
ROOT
HETATM    1  C1  UNL     1     -33.803   6.680   4.423  1.00 20.00     0.045 C 
HETATM    2  C2  UNL     1     -33.150   5.879   3.570  1.00 20.00    -0.023 C 
ENDROOT
BRANCH   2   3
HETATM    3  C7  UNL     1     -32.728   6.309   2.192  1.00 20.00     0.031 C 
BRANCH   3   4
HETATM    4  C8  UNL     1     -32.346   7.799   2.116  1.00 20.00    -0.019 C 
HETATM    5  C5  UNL     1     -31.179   8.087   3.064  1.00 20.00     0.010 C 
HETATM    6  C6  UNL     1     -31.975   8.227   0.694  1.00 20.00     0.010 C 
ENDBRANCH   3   4
ENDBRANCH   2   3
BRANCH   1   7
HETATM    7  C3  UNL     1     -34.197   6.192   5.773  1.00 20.00     0.145 C 
HETATM    8  C4  UNL     1     -34.266   7.220   6.871  1.00 20.00     0.096 C 
HETATM    9  O9  UNL     1     -34.434   5.007   5.997  1.00 20.00    -0.294 OA
ENDBRANCH   1   7
TORSDOF 3
