REMARK  2 active torsions:
REMARK  status: ('A' for Active; 'I' for Inactive)
REMARK    1  A    between atoms: C3_3  and  C7_7 
REMARK    2  A    between atoms: C7_7  and  C8_8 
ROOT
HETATM    1  C1  UNL     1     -32.469   8.248   1.408  1.00 20.00     0.088 C 
HETATM    2  C2  UNL     1     -32.939   8.063   2.736  1.00 20.00     0.096 C 
HETATM    3  C3  UNL     1     -32.887   6.893   3.401  1.00 20.00    -0.073 C 
HETATM    4  C4  UNL     1     -32.302   5.675   2.734  1.00 20.00     0.044 C 
HETATM    5  N9  UNL     1     -32.086   8.407   0.324  1.00 20.00    -0.192 NA
ENDROOT
BRANCH   3   6
HETATM    6  C7  UNL     1     -33.351   6.693   4.832  1.00 20.00     0.038 C 
BRANCH   6   7
HETATM    7  C8  UNL     1     -34.508   5.686   4.997  1.00 20.00    -0.019 C 
HETATM    8  C5  UNL     1     -35.759   6.108   4.223  1.00 20.00     0.010 C 
HETATM    9  C6  UNL     1     -34.848   5.526   6.482  1.00 20.00     0.010 C 
ENDBRANCH   6   7
ENDBRANCH   3   6
TORSDOF 2
