REMARK  4 active torsions:
REMARK  status: ('A' for Active; 'I' for Inactive)
REMARK    1  A    between atoms: C2_2  and  C6_6 
REMARK    2  A    between atoms: C2_2  and  C7_7 
REMARK    3  A    between atoms: C6_6  and  C8_8 
REMARK    4  A    between atoms: C7_7  and  O10_10 
ROOT
HETATM    1  C1  UNL     1     -32.954   6.293   6.378  1.00 20.00     0.209 A 
HETATM    2  C2  UNL     1     -33.913   6.777   5.317  1.00 20.00     0.104 A 
HETATM    3  O9  UNL     1     -33.631   7.554   6.489  1.00 20.00    -0.373 OA
ENDROOT
BRANCH   2   4
HETATM    4  C6  UNL     1     -33.366   7.385   4.031  1.00 20.00     0.051 C 
BRANCH   4   5
HETATM    5  C8  UNL     1     -32.978   6.377   2.920  1.00 20.00    -0.049 C 
HETATM    6  C3  UNL     1     -31.491   6.591   2.573  1.00 20.00     0.014 C 
HETATM    7  C4  UNL     1     -33.813   6.602   1.648  1.00 20.00     0.014 C 
HETATM    8  C5  UNL     1     -33.163   4.926   3.396  1.00 20.00     0.014 C 
ENDBRANCH   4   5
ENDBRANCH   2   4
BRANCH   2   9
HETATM    9  C7  UNL     1     -35.303   6.231   5.277  1.00 20.00     0.204 C 
BRANCH   9  10
HETATM   10  O10 UNL     1     -35.278   4.830   5.542  1.00 20.00    -0.398 OA
HETATM   11  H26 UNL     1     -36.198   4.526   5.504  1.00 20.00     0.209 HD
ENDBRANCH   9  10
ENDBRANCH   2   9
TORSDOF 4
