REMARK  1 active torsions:
REMARK  status: ('A' for Active; 'I' for Inactive)
REMARK    1  A    between atoms: C3_3  and  C7_7 
ROOT
HETATM    1  C1  UNL     1     -32.627   6.948   3.040  1.00 20.00    -0.082 C 
HETATM    2  C2  UNL     1     -32.600   7.463   4.290  1.00 20.00    -0.081 C 
HETATM    3  C4  UNL     1     -33.261   5.607   2.739  1.00 20.00     0.035 C 
HETATM    4  C5  UNL     1     -33.250   6.759   5.466  1.00 20.00     0.050 C 
HETATM    5  C6  UNL     1     -33.611   4.770   3.971  1.00 20.00     0.021 C 
HETATM    6  C7  UNL     1     -34.217   5.620   5.092  1.00 20.00     0.013 C 
HETATM    7  C8  UNL     1     -32.064   7.626   1.819  1.00 20.00     0.043 C 
HETATM    8  C9  UNL     1     -31.922   8.753   4.671  1.00 20.00     0.043 C 
HETATM    9  C10 UNL     1     -34.511   4.752   6.322  1.00 20.00     0.023 C 
ENDROOT
BRANCH   6  10
HETATM   10  C3  UNL     1     -35.544   6.189   4.647  1.00 20.00     0.240 C 
HETATM   11  O11 UNL     1     -35.783   7.391   4.601  1.00 20.00    -0.306 OA
ENDBRANCH   6  10
TORSDOF 1
