REMARK  1 active torsions:
REMARK  status: ('A' for Active; 'I' for Inactive)
REMARK    1  A    between atoms: C7_7  and  C11_11 
ROOT
HETATM    1  C1  UNL     1     -32.304   7.598   2.113  1.00 20.00     0.127 C 
HETATM    2  C2  UNL     1     -32.333   6.209   1.520  1.00 20.00     0.078 C 
HETATM    3  C3  UNL     1     -31.599   7.738   3.439  1.00 20.00     0.079 C 
HETATM    4  C4  UNL     1     -33.352   5.314   2.206  1.00 20.00     0.008 C 
HETATM    5  C5  UNL     1     -32.529   7.537   4.626  1.00 20.00     0.013 C 
HETATM    6  C6  UNL     1     -33.194   5.196   3.728  1.00 20.00     0.006 C 
HETATM    7  C7  UNL     1     -33.629   6.467   4.483  1.00 20.00    -0.007 C 
HETATM    8  O12 UNL     1     -32.859   8.550   1.569  1.00 20.00    -0.298 OA
ENDROOT
BRANCH   7   9
HETATM    9  C11 UNL     1     -34.151   6.101   5.878  1.00 20.00    -0.048 C 
HETATM   10  C8  UNL     1     -35.311   5.103   5.747  1.00 20.00     0.015 C 
HETATM   11  C9  UNL     1     -34.645   7.369   6.590  1.00 20.00     0.015 C 
HETATM   12  C10 UNL     1     -33.019   5.464   6.698  1.00 20.00     0.015 C 
ENDBRANCH   7   9
TORSDOF 1
