REMARK  1 active torsions:
REMARK  status: ('A' for Active; 'I' for Inactive)
REMARK    1  A    between atoms: C1_1  and  S12_12 
ROOT
HETATM    1  C1  UNL     1     -32.579   6.988   2.200  1.00 20.00     0.066 C 
HETATM    2  C2  UNL     1     -32.539   5.683   2.924  1.00 20.00     0.074 C 
HETATM    3  C3  UNL     1     -34.058   7.787   4.976  1.00 20.00     0.042 A 
HETATM    4  C4  UNL     1     -32.838   6.064   4.365  1.00 20.00     0.029 A 
HETATM    5  C5  UNL     1     -34.309   6.258   4.882  1.00 20.00    -0.039 A 
HETATM    6  C6  UNL     1     -32.662   7.606   4.349  1.00 20.00     0.056 A 
HETATM    7  C7  UNL     1     -34.528   5.607   6.250  1.00 20.00     0.015 C 
HETATM    8  C8  UNL     1     -35.440   5.895   3.922  1.00 20.00     0.015 C 
HETATM    9  C9  UNL     1     -31.488   8.181   5.112  1.00 20.00     0.041 C 
HETATM   10  N11 UNL     1     -32.653   8.045   2.939  1.00 20.00    -0.276 NA
ENDROOT
BRANCH   1  11
HETATM   11  S12 UNL     1     -32.518   7.021   0.472  1.00 20.00    -0.119 SA
HETATM   12  C10 UNL     1     -32.598   8.806   0.199  1.00 20.00     0.097 C 
ENDBRANCH   1  11
TORSDOF 1
