REMARK  0 active torsions:
REMARK  status: ('A' for Active; 'I' for Inactive)
ROOT
HETATM    1  C1  UNL     1     -34.301   6.683   6.139  1.00 20.00     0.009 A 
HETATM    2  C2  UNL     1     -34.500   5.390   5.867  1.00 20.00     0.074 A 
HETATM    3  C3  UNL     1     -33.656   7.547   5.190  1.00 20.00     0.043 A 
HETATM    4  C4  UNL     1     -33.244   7.059   4.012  1.00 20.00     0.108 A 
HETATM    5  C5  UNL     1     -34.048   4.821   4.562  1.00 20.00     0.248 A 
HETATM    6  C6  UNL     1     -32.955   5.234   2.376  1.00 20.00     0.160 C 
HETATM    7  N7  UNL     1     -33.424   5.717   3.674  1.00 20.00    -0.309 N 
HETATM    8  O8  UNL     1     -34.246   3.625   4.349  1.00 20.00    -0.268 OA
HETATM    9 CL9  UNL     1     -32.471   8.104   2.878  1.00 20.00    -0.064 Cl
ENDROOT
TORSDOF 0
