REMARK  1 active torsions:
REMARK  status: ('A' for Active; 'I' for Inactive)
REMARK    1  A    between atoms: C6_6  and  C10_10 
ROOT
HETATM    1  C1  UNL     1     -32.307   6.394   2.820  1.00 20.00     0.052 C 
HETATM    2  C2  UNL     1     -32.694   7.635   3.151  1.00 20.00    -0.080 C 
HETATM    3  C3  UNL     1     -33.102   5.215   3.243  1.00 20.00     0.149 C 
HETATM    4  C4  UNL     1     -33.909   7.915   4.001  1.00 20.00     0.039 C 
HETATM    5  C5  UNL     1     -34.403   5.445   3.980  1.00 20.00     0.088 C 
HETATM    6  C6  UNL     1     -34.368   6.711   4.836  1.00 20.00     0.000 C 
HETATM    7  C7  UNL     1     -31.934   8.841   2.680  1.00 20.00     0.043 C 
HETATM    8  O11 UNL     1     -32.726   4.085   2.937  1.00 20.00    -0.293 OA
ENDROOT
BRANCH   6   9
HETATM    9  C10 UNL     1     -33.490   6.519   6.080  1.00 20.00    -0.018 C 
HETATM   10  C8  UNL     1     -33.519   7.769   6.956  1.00 20.00     0.010 C 
HETATM   11  C9  UNL     1     -33.945   5.296   6.874  1.00 20.00     0.010 C 
ENDBRANCH   6   9
TORSDOF 1
