REMARK  6 active torsions:
REMARK  status: ('A' for Active; 'I' for Inactive)
REMARK    1  A    between atoms: C1_1  and  C5_5 
REMARK    2  A    between atoms: C1_1  and  C8_8 
REMARK    3  A    between atoms: C6_6  and  O10_10 
REMARK    4  A    between atoms: C7_7  and  O11_11 
REMARK    5  A    between atoms: C8_8  and  O10_10 
REMARK    6  A    between atoms: C8_8  and  O11_11 
ROOT
HETATM    1  C8  UNL     1     -33.584   7.202   4.211  1.00 20.00     0.329 C 
ENDROOT
BRANCH   1   2
HETATM    2  C1  UNL     1     -32.692   7.802   3.130  1.00 20.00     0.181 C 
HETATM    3  O9  UNL     1     -31.572   8.243   3.388  1.00 20.00    -0.293 OA
BRANCH   2   4
HETATM    4  C5  UNL     1     -33.271   7.837   1.724  1.00 20.00     0.079 C 
HETATM    5  C2  UNL     1     -32.329   8.478   0.720  1.00 20.00     0.013 C 
ENDBRANCH   2   4
ENDBRANCH   1   2
BRANCH   1   6
HETATM    6  O10 UNL     1     -33.868   5.882   3.748  1.00 20.00    -0.355 OA
BRANCH   6   7
HETATM    7  C6  UNL     1     -32.687   5.109   3.584  1.00 20.00     0.167 C 
HETATM    8  C3  UNL     1     -33.066   3.727   3.094  1.00 20.00     0.033 C 
ENDBRANCH   6   7
ENDBRANCH   1   6
BRANCH   1   9
HETATM    9  O11 UNL     1     -32.894   7.184   5.452  1.00 20.00    -0.355 OA
BRANCH   9  10
HETATM   10  C7  UNL     1     -33.772   7.076   6.565  1.00 20.00     0.167 C 
HETATM   11  C4  UNL     1     -34.561   5.789   6.446  1.00 20.00     0.033 C 
ENDBRANCH   9  10
ENDBRANCH   1   9
TORSDOF 6
