REMARK  0 active torsions:
REMARK  status: ('A' for Active; 'I' for Inactive)
ROOT
HETATM    1  C1  UNL     1     -34.647   5.360   5.136  1.00 20.00     0.028 C 
HETATM    2  C2  UNL     1     -33.829   4.588   4.102  1.00 20.00     0.017 C 
HETATM    3  C3  UNL     1     -33.931   6.634   5.570  1.00 20.00     0.188 C 
HETATM    4  C4  UNL     1     -33.453   5.470   2.920  1.00 20.00     0.140 C 
HETATM    5  O5  UNL     1     -32.343   7.837   2.319  1.00 20.00    -0.229 OA
HETATM    6  O6  UNL     1     -33.639   7.452   4.437  1.00 20.00    -0.296 OA
HETATM    7  S7  UNL     1     -32.465   6.895   3.480  1.00 20.00     0.152 S 
ENDROOT
TORSDOF 0
