REMARK  1 active torsions:
REMARK  status: ('A' for Active; 'I' for Inactive)
REMARK    1  A    between atoms: C3_3  and  C7_7 
ROOT
HETATM    1  C1  UNL     1     -32.463   6.455   2.085  1.00 20.00    -0.082 C 
HETATM    2  C2  UNL     1     -32.355   7.315   3.122  1.00 20.00    -0.081 C 
HETATM    3  C4  UNL     1     -33.158   5.117   2.221  1.00 20.00     0.035 C 
HETATM    4  C5  UNL     1     -32.969   7.022   4.479  1.00 20.00     0.050 C 
HETATM    5  C6  UNL     1     -33.474   4.709   3.660  1.00 20.00     0.021 C 
HETATM    6  C7  UNL     1     -34.005   5.881   4.494  1.00 20.00     0.013 C 
HETATM    7  C8  UNL     1     -31.938   6.714   0.697  1.00 20.00     0.043 C 
HETATM    8  C9  UNL     1     -31.615   8.627   3.076  1.00 20.00     0.043 C 
HETATM    9  C10 UNL     1     -35.374   6.361   3.990  1.00 20.00     0.023 C 
ENDROOT
BRANCH   6  10
HETATM   10  C3  UNL     1     -34.174   5.428   5.922  1.00 20.00     0.240 C 
HETATM   11  O11 UNL     1     -34.558   6.165   6.824  1.00 20.00    -0.306 OA
ENDBRANCH   6  10
TORSDOF 1
