REMARK  0 active torsions:
REMARK  status: ('A' for Active; 'I' for Inactive)
ROOT
HETATM    1  C1  UNL     1     -33.507   5.889   3.554  1.00 20.00     0.084 C 
HETATM    2  C2  UNL     1     -35.907   5.885   4.116  1.00 20.00     0.048 C 
HETATM    3  C3  UNL     1     -34.286   7.296   5.423  1.00 20.00     0.048 C 
HETATM    4  C4  UNL     1     -34.481   5.991   4.653  1.00 20.00     0.118 C 
HETATM    5  N5  UNL     1     -32.740   5.812   2.686  1.00 20.00    -0.195 NA
HETATM    6 CL6  UNL     1     -34.174   4.613   5.759  1.00 20.00    -0.104 Cl
ENDROOT
TORSDOF 0
