REMARK  0 active torsions:
REMARK  status: ('A' for Active; 'I' for Inactive)
ROOT
HETATM    1  C1  UNL     1     -33.315   5.755   3.376  1.00 20.00     0.021 A 
HETATM    2  C2  UNL     1     -32.875   6.979   3.032  1.00 20.00     0.004 A 
HETATM    3  C3  UNL     1     -34.025   6.943   5.282  1.00 20.00     0.145 A 
HETATM    4  C4  UNL     1     -33.176   4.503   2.566  1.00 20.00     0.069 C 
HETATM    5  C5  UNL     1     -32.155   7.418   1.801  1.00 20.00     0.058 C 
HETATM    6  C6  UNL     1     -34.495   4.458   5.143  1.00 20.00     0.157 C 
HETATM    7  N7  UNL     1     -33.956   5.713   4.620  1.00 20.00    -0.340 N 
HETATM    8  S8  UNL     1     -34.695   7.316   6.764  1.00 20.00    -0.052 SA
HETATM    9  S9  UNL     1     -33.242   8.161   4.262  1.00 20.00    -0.063 SA
ENDROOT
TORSDOF 0
