REMARK  0 active torsions:
REMARK  status: ('A' for Active; 'I' for Inactive)
ROOT
HETATM    1  C1  UNL     1     -34.268   6.102   5.500  1.00 20.00     0.061 C 
HETATM    2  C2  UNL     1     -33.439   5.022   3.404  1.00 20.00     0.107 C 
HETATM    3  C3  UNL     1     -33.342   6.543   3.484  1.00 20.00     0.114 C 
HETATM    4  C4  UNL     1     -34.713   6.246   6.915  1.00 20.00     0.078 C 
HETATM    5  C5  UNL     1     -31.986   7.045   3.008  1.00 20.00     0.035 C 
HETATM    6  N6  UNL     1     -33.544   6.980   4.886  1.00 20.00    -0.282 NA
HETATM    7  S7  UNL     1     -34.694   4.645   4.642  1.00 20.00    -0.113 SA
ENDROOT
TORSDOF 0
