REMARK  3 active torsions:
REMARK  status: ('A' for Active; 'I' for Inactive)
REMARK    1  A    between atoms: C3_3  and  C9_9 
REMARK    2  A    between atoms: C8_8  and  O11_11 
REMARK    3  A    between atoms: N10_10  and  O11_11 
ROOT
HETATM    1  C1  UNL     1     -32.017   8.780  -0.754  1.00 20.00     0.014 C 
HETATM    2  C2  UNL     1     -32.577   8.583   0.289  1.00 20.00    -0.089 C 
HETATM    3  C8  UNL     1     -33.262   8.343   1.559  1.00 20.00     0.296 C 
ENDROOT
BRANCH   3   4
HETATM    4  O11 UNL     1     -32.353   7.840   2.527  1.00 20.00    -0.244 OA
BRANCH   4   5
HETATM    5  N10 UNL     1     -33.059   7.629   3.718  1.00 20.00    -0.142 NA
HETATM    6  C3  UNL     1     -33.552   6.427   3.774  1.00 20.00     0.043 C 
HETATM    7  C4  UNL     1     -33.355   5.419   2.657  1.00 20.00     0.069 C 
BRANCH   6   8
HETATM    8  C9  UNL     1     -34.372   6.011   5.018  1.00 20.00    -0.009 C 
HETATM    9  C5  UNL     1     -33.697   4.809   5.694  1.00 20.00     0.021 C 
HETATM   10  C6  UNL     1     -35.802   5.654   4.590  1.00 20.00     0.021 C 
HETATM   11  C7  UNL     1     -34.448   7.160   6.043  1.00 20.00     0.021 C 
ENDBRANCH   6   8
ENDBRANCH   4   5
ENDBRANCH   3   4
TORSDOF 3
