REMARK  2 active torsions:
REMARK  status: ('A' for Active; 'I' for Inactive)
REMARK    1  A    between atoms: C1_1  and  C7_7 
REMARK    2  A    between atoms: C7_7  and  C8_8 
ROOT
HETATM    1  C3  UNL     1     -33.396   7.759   6.055  1.00 20.00     0.018 C 
HETATM    2  C7  UNL     1     -33.928   7.335   4.681  1.00 20.00     0.058 C 
ENDROOT
BRANCH   2   3
HETATM    3  C1  UNL     1     -32.828   7.605   3.651  1.00 20.00     0.127 C 
HETATM    4  C2  UNL     1     -33.271   8.085   2.292  1.00 20.00     0.091 C 
HETATM    5  O9  UNL     1     -31.633   7.463   3.911  1.00 20.00    -0.298 OA
ENDBRANCH   2   3
BRANCH   2   6
HETATM    6  C8  UNL     1     -34.497   5.880   4.610  1.00 20.00    -0.041 C 
HETATM    7  C4  UNL     1     -35.994   5.911   4.235  1.00 20.00     0.015 C 
HETATM    8  C5  UNL     1     -33.759   4.993   3.589  1.00 20.00     0.015 C 
HETATM    9  C6  UNL     1     -34.382   5.207   5.995  1.00 20.00     0.015 C 
ENDBRANCH   2   6
TORSDOF 2
