REMARK  3 active torsions:
REMARK  status: ('A' for Active; 'I' for Inactive)
REMARK    1  A    between atoms: C3_3  and  C8_8 
REMARK    2  A    between atoms: C6_6  and  C7_7 
REMARK    3  A    between atoms: C7_7  and  C8_8 
ROOT
HETATM    1  C1  UNL     1     -34.935   6.268   6.330  1.00 20.00     0.197 C 
HETATM    2  C2  UNL     1     -34.402   4.890   6.611  1.00 20.00     0.197 C 
HETATM    3  C3  UNL     1     -34.728   5.116   4.390  1.00 20.00     0.263 C 
HETATM    4  O9  UNL     1     -35.496   6.149   5.023  1.00 20.00    -0.359 OA
HETATM    5  O10 UNL     1     -33.871   4.486   5.350  1.00 20.00    -0.359 OA
ENDROOT
BRANCH   3   6
HETATM    6  C8  UNL     1     -33.887   5.708   3.276  1.00 20.00     0.037 C 
HETATM    7  C5  UNL     1     -33.081   4.600   2.595  1.00 20.00     0.015 C 
BRANCH   6   8
HETATM    8  C7  UNL     1     -32.991   6.828   3.836  1.00 20.00     0.009 C 
BRANCH   8   9
HETATM    9  C6  UNL     1     -32.151   7.530   2.766  1.00 20.00    -0.004 C 
HETATM   10  C4  UNL     1     -33.027   8.113   1.668  1.00 20.00     0.005 C 
ENDBRANCH   8   9
ENDBRANCH   6   8
ENDBRANCH   3   6
TORSDOF 3
