REMARK  1 active torsions:
REMARK  status: ('A' for Active; 'I' for Inactive)
REMARK    1  A    between atoms: C6_6  and  O11_11 
ROOT
HETATM    1  C1  UNL     1     -33.166   7.501   4.650  1.00 20.00     0.011 A 
HETATM    2  C2  UNL     1     -33.833   6.867   5.701  1.00 20.00     0.037 A 
HETATM    3  C3  UNL     1     -33.950   4.793   4.438  1.00 20.00     0.044 A 
HETATM    4  C4  UNL     1     -32.910   6.776   3.496  1.00 20.00    -0.048 A 
HETATM    5  C5  UNL     1     -33.300   5.433   3.395  1.00 20.00    -0.049 A 
HETATM    6  C6  UNL     1     -34.222   5.523   5.596  1.00 20.00     0.066 A 
HETATM    7  C7  UNL     1     -32.877   4.847   2.085  1.00 20.00     0.040 C 
HETATM    8  C8  UNL     1     -32.640   6.120   1.258  1.00 20.00     0.014 C 
HETATM    9  C9  UNL     1     -32.181   7.206   2.254  1.00 20.00     0.015 C 
HETATM   10  C10 UNL     1     -32.507   8.609   1.765  1.00 20.00     0.015 C 
ENDROOT
BRANCH   6  11
HETATM   11  O11 UNL     1     -34.865   4.925   6.638  1.00 20.00    -0.361 OA
HETATM   12  H23 UNL     1     -34.976   5.553   7.368  1.00 20.00     0.217 HD
ENDBRANCH   6  11
TORSDOF 1
