REMARK  0 active torsions:
REMARK  status: ('A' for Active; 'I' for Inactive)
ROOT
HETATM    1  C1  UNL     1     -33.905   5.911   4.313  1.00 20.00    -0.014 A 
HETATM    2  C2  UNL     1     -33.062   6.007   3.275  1.00 20.00    -0.070 A 
HETATM    3  C3  UNL     1     -33.531   6.999   5.236  1.00 20.00     0.156 A 
HETATM    4  C4  UNL     1     -32.345   7.772   4.741  1.00 20.00     0.092 A 
HETATM    5  C5  UNL     1     -32.073   7.147   3.370  1.00 20.00     0.018 A 
HETATM    6  C6  UNL     1     -35.012   4.973   4.612  1.00 20.00     0.052 C 
HETATM    7  C7  UNL     1     -33.008   5.099   2.089  1.00 20.00     0.044 C 
HETATM    8  C8  UNL     1     -32.240   8.169   2.248  1.00 20.00     0.015 C 
HETATM    9  O9  UNL     1     -34.113   7.226   6.287  1.00 20.00    -0.293 OA
ENDROOT
TORSDOF 0
