REMARK  0 active torsions:
REMARK  status: ('A' for Active; 'I' for Inactive)
ROOT
HETATM    1  C1  UNL     1     -31.838   8.326   3.844  1.00 20.00     0.002 A 
HETATM    2  C2  UNL     1     -31.948   7.156   3.084  1.00 20.00     0.016 A 
HETATM    3  C3  UNL     1     -32.582   8.497   5.030  1.00 20.00     0.007 A 
HETATM    4  C4  UNL     1     -32.840   6.202   3.527  1.00 20.00     0.017 A 
HETATM    5  C5  UNL     1     -33.480   7.512   5.457  1.00 20.00    -0.051 A 
HETATM    6  C6  UNL     1     -33.618   6.391   4.657  1.00 20.00    -0.033 A 
HETATM    7  C7  UNL     1     -33.079   4.837   3.072  1.00 20.00     0.160 C 
HETATM    8  C8  UNL     1     -34.181   7.564   6.788  1.00 20.00     0.039 C 
HETATM    9  C9  UNL     1     -33.945   4.119   4.097  1.00 20.00     0.093 C 
HETATM   10  C10 UNL     1     -35.195   6.421   7.015  1.00 20.00     0.005 C 
HETATM   11  C11 UNL     1     -34.749   5.079   6.403  1.00 20.00     0.010 C 
HETATM   12  C12 UNL     1     -34.572   5.266   4.902  1.00 20.00     0.027 C 
HETATM   13  O13 UNL     1     -32.596   4.354   2.065  1.00 20.00    -0.292 OA
ENDROOT
TORSDOF 0
