REMARK  0 active torsions:
REMARK  status: ('A' for Active; 'I' for Inactive)
ROOT
HETATM    1  C1  UNL     1     -33.111   6.560   4.063  1.00 20.00    -0.002 A 
HETATM    2  C2  UNL     1     -33.327   5.355   3.508  1.00 20.00    -0.064 A 
HETATM    3  C3  UNL     1     -33.736   6.672   5.402  1.00 20.00     0.215 A 
HETATM    4  C4  UNL     1     -34.129   4.363   4.296  1.00 20.00     0.117 A 
HETATM    5  C5  UNL     1     -32.364   7.733   3.530  1.00 20.00     0.053 C 
HETATM    6  C6  UNL     1     -32.844   4.894   2.168  1.00 20.00     0.045 C 
HETATM    7  O7  UNL     1     -33.687   7.661   6.116  1.00 20.00    -0.280 OA
HETATM    8  S8  UNL     1     -34.564   5.195   5.842  1.00 20.00    -0.083 SA
ENDROOT
TORSDOF 0
