REMARK  1 active torsions:
REMARK  status: ('A' for Active; 'I' for Inactive)
REMARK    1  A    between atoms: C4_4  and  C11_11 
ROOT
HETATM    1  C1  UNL     1     -33.312   6.878   6.527  1.00 20.00     0.053 C 
HETATM    2  C2  UNL     1     -34.251   6.044   6.067  1.00 20.00    -0.072 C 
HETATM    3  C3  UNL     1     -32.738   7.541   5.352  1.00 20.00     0.155 C 
HETATM    4  C4  UNL     1     -33.514   7.214   4.100  1.00 20.00     0.075 C 
HETATM    5  C5  UNL     1     -34.385   6.004   4.549  1.00 20.00    -0.013 C 
HETATM    6  C6  UNL     1     -35.085   5.176   6.953  1.00 20.00     0.044 C 
HETATM    7  C7  UNL     1     -35.838   6.222   4.097  1.00 20.00     0.020 C 
HETATM    8  C8  UNL     1     -33.889   4.648   4.019  1.00 20.00     0.020 C 
HETATM    9  O12 UNL     1     -31.780   8.296   5.420  1.00 20.00    -0.293 OA
ENDROOT
BRANCH   4  10
HETATM   10  C11 UNL     1     -32.598   7.008   2.904  1.00 20.00    -0.010 C 
HETATM   11  C9  UNL     1     -33.378   7.136   1.594  1.00 20.00     0.010 C 
HETATM   12  C10 UNL     1     -31.437   8.003   2.930  1.00 20.00     0.010 C 
ENDBRANCH   4  10
TORSDOF 1
