REMARK  2 active torsions:
REMARK  status: ('A' for Active; 'I' for Inactive)
REMARK    1  A    between atoms: C1_1  and  C5_5 
REMARK    2  A    between atoms: C2_2  and  C6_6 
ROOT
HETATM    1  C1  UNL     1     -33.484   6.863   4.824  1.00 20.00    -0.063 C 
HETATM    2  C2  UNL     1     -33.044   7.018   3.717  1.00 20.00    -0.063 C 
ENDROOT
BRANCH   1   3
HETATM    3  C5  UNL     1     -34.008   6.678   6.144  1.00 20.00     0.141 A 
HETATM    4  C3  UNL     1     -33.776   5.361   6.844  1.00 20.00     0.221 A 
HETATM    5  O9  UNL     1     -35.023   5.666   6.206  1.00 20.00    -0.362 OA
HETATM    6  C7  UNL     1     -34.326   7.897   6.946  1.00 20.00     0.063 C 
ENDBRANCH   1   3
BRANCH   2   7
HETATM    7  C6  UNL     1     -32.509   7.207   2.370  1.00 20.00     0.141 A 
HETATM    8  C4  UNL     1     -31.535   8.321   2.154  1.00 20.00     0.221 A 
HETATM    9  O10 UNL     1     -32.920   8.447   1.806  1.00 20.00    -0.362 OA
HETATM   10  C8  UNL     1     -32.574   6.046   1.455  1.00 20.00     0.063 C 
ENDBRANCH   2   7
TORSDOF 2
