REMARK  3 active torsions:
REMARK  status: ('A' for Active; 'I' for Inactive)
REMARK    1  A    between atoms: C3_3  and  C10_10 
REMARK    2  A    between atoms: C7_7  and  C11_11 
REMARK    3  A    between atoms: C10_10  and  C11_11 
ROOT
HETATM    1  C1  UNL     1     -33.373   9.242   2.645  1.00 20.00    -0.024 C 
HETATM    2  C2  UNL     1     -32.913   8.829   1.451  1.00 20.00    -0.087 C 
HETATM    3  C4  UNL     1     -33.165   8.488   3.926  1.00 20.00     0.032 C 
HETATM    4  C5  UNL     1     -32.109   7.562   1.299  1.00 20.00     0.034 C 
HETATM    5  C6  UNL     1     -31.628   6.974   2.630  1.00 20.00     0.009 C 
HETATM    6  C7  UNL     1     -32.698   7.036   3.727  1.00 20.00    -0.007 C 
HETATM    7  C8  UNL     1     -33.173   9.601   0.191  1.00 20.00     0.043 C 
ENDROOT
BRANCH   6   8
HETATM    8  C11 UNL     1     -33.875   6.103   3.422  1.00 20.00    -0.008 C 
HETATM    9  C9  UNL     1     -33.360   4.682   3.175  1.00 20.00     0.011 C 
BRANCH   8  10
HETATM   10  C10 UNL     1     -34.890   6.136   4.574  1.00 20.00     0.074 C 
BRANCH  10  11
HETATM   11  C3  UNL     1     -34.262   6.141   5.950  1.00 20.00     0.231 C 
HETATM   12  O12 UNL     1     -34.456   6.994   6.808  1.00 20.00    -0.307 OA
ENDBRANCH  10  11
ENDBRANCH   8  10
ENDBRANCH   6   8
TORSDOF 3
