REMARK  1 active torsions:
REMARK  status: ('A' for Active; 'I' for Inactive)
REMARK    1  A    between atoms: C2_2  and  O3_3 
ROOT
HETATM    1  C2  UNL     1     -34.347   5.737   4.448  1.00 20.00     0.524 C 
HETATM    2  F4  UNL     1     -33.887   4.636   3.816  1.00 20.00    -0.144 F 
HETATM    3  F5  UNL     1     -35.659   5.877   4.165  1.00 20.00    -0.144 F 
HETATM    4  F6  UNL     1     -33.674   6.810   3.982  1.00 20.00    -0.144 F 
ENDROOT
BRANCH   1   5
HETATM    5  O3  UNL     1     -34.147   5.588   5.843  1.00 20.00    -0.303 OA
HETATM    6  C1  UNL     1     -34.610   6.714   6.575  1.00 20.00     0.211 C 
ENDBRANCH   1   5
TORSDOF 1
