REMARK  3 active torsions:
REMARK  status: ('A' for Active; 'I' for Inactive)
REMARK    1  A    between atoms: C4_4  and  C11_11 
REMARK    2  A    between atoms: C5_5  and  C9_9 
REMARK    3  A    between atoms: C8_8  and  C11_11 
ROOT
HETATM    1  C1  UNL     1     -35.042   4.564   5.326  1.00 20.00    -0.030 C 
HETATM    2  C2  UNL     1     -34.939   5.198   4.150  1.00 20.00    -0.025 C 
HETATM    3  C6  UNL     1     -34.217   4.920   6.525  1.00 20.00     0.027 C 
HETATM    4  C7  UNL     1     -33.533   6.280   6.389  1.00 20.00     0.016 C 
HETATM    5  C8  UNL     1     -33.956   6.312   3.883  1.00 20.00     0.025 C 
HETATM    6  C9  UNL     1     -32.902   6.448   5.004  1.00 20.00     0.055 C 
ENDROOT
BRANCH   5   7
HETATM    7  C11 UNL     1     -33.273   6.088   2.529  1.00 20.00     0.011 C 
HETATM    8  C10 UNL     1     -32.567   4.734   2.505  1.00 20.00     0.015 C 
BRANCH   7   9
HETATM    9  C4  UNL     1     -32.292   7.197   2.256  1.00 20.00    -0.032 C 
HETATM   10  C3  UNL     1     -32.383   8.035   1.217  1.00 20.00     0.007 C 
ENDBRANCH   7   9
ENDBRANCH   5   7
BRANCH   6  11
HETATM   11  C5  UNL     1     -32.242   7.794   4.946  1.00 20.00     0.236 C 
HETATM   12  O12 UNL     1     -32.800   8.803   4.528  1.00 20.00    -0.306 OA
ENDBRANCH   6  11
TORSDOF 3
