REMARK  2 active torsions:
REMARK  status: ('A' for Active; 'I' for Inactive)
REMARK    1  A    between atoms: C1_1  and  C5_5 
REMARK    2  A    between atoms: C2_2  and  C6_6 
ROOT
HETATM    1  C1  UNL     1     -33.431   6.342   3.763  1.00 20.00    -0.063 C 
HETATM    2  C2  UNL     1     -32.900   7.105   3.003  1.00 20.00    -0.063 C 
ENDROOT
BRANCH   1   3
HETATM    3  C5  UNL     1     -34.063   5.433   4.671  1.00 20.00     0.141 A 
HETATM    4  C3  UNL     1     -33.880   3.949   4.463  1.00 20.00     0.221 A 
HETATM    5  O9  UNL     1     -33.126   4.672   5.445  1.00 20.00    -0.362 OA
HETATM    6  C7  UNL     1     -35.229   5.931   5.461  1.00 20.00     0.063 C 
ENDBRANCH   1   3
BRANCH   2   7
HETATM    7  C6  UNL     1     -32.255   8.034   2.076  1.00 20.00     0.141 A 
HETATM    8  C4  UNL     1     -32.817   8.149   0.696  1.00 20.00     0.221 A 
HETATM    9  O10 UNL     1     -33.117   9.109   1.718  1.00 20.00    -0.362 OA
HETATM   10  C8  UNL     1     -30.859   8.420   2.380  1.00 20.00     0.063 C 
ENDBRANCH   2   7
TORSDOF 2
