REMARK  2 active torsions:
REMARK  status: ('A' for Active; 'I' for Inactive)
REMARK    1  A    between atoms: C3_3  and  C6_6 
REMARK    2  A    between atoms: C6_6  and  C7_7 
ROOT
HETATM    1  C1  UNL     1     -32.374   8.296   2.901  1.00 20.00     0.281 C 
HETATM    2  C2  UNL     1     -32.147   7.271   1.801  1.00 20.00     0.106 C 
HETATM    3  C3  UNL     1     -33.100   6.386   4.094  1.00 20.00     0.282 C 
HETATM    4  N8  UNL     1     -32.284   7.605   4.196  1.00 20.00     0.098 N 
HETATM    5  S9  UNL     1     -33.061   5.820   2.366  1.00 20.00    -0.132 SA
HETATM    6  H24 UNL     1     -31.318   7.369   4.409  1.00 20.00     0.317 HD
ENDROOT
BRANCH   3   7
HETATM    7  C6  UNL     1     -34.536   6.652   4.535  1.00 20.00     0.050 C 
BRANCH   7   8
HETATM    8  C7  UNL     1     -34.727   6.621   6.061  1.00 20.00    -0.020 C 
HETATM    9  C4  UNL     1     -34.350   5.269   6.668  1.00 20.00     0.009 C 
HETATM   10  C5  UNL     1     -33.896   7.730   6.711  1.00 20.00     0.009 C 
ENDBRANCH   7   8
ENDBRANCH   3   7
TORSDOF 2
