REMARK  2 active torsions:
REMARK  status: ('A' for Active; 'I' for Inactive)
REMARK    1  A    between atoms: C3_3  and  C6_6 
REMARK    2  A    between atoms: C6_6  and  C7_7 
ROOT
HETATM    1  C1  UNL     1     -34.966   5.300   5.420  1.00 20.00     0.281 C 
HETATM    2  C2  UNL     1     -34.504   5.884   6.746  1.00 20.00     0.106 C 
HETATM    3  C3  UNL     1     -33.667   7.051   4.537  1.00 20.00     0.282 C 
HETATM    4  N8  UNL     1     -33.946   5.613   4.410  1.00 20.00     0.098 N 
HETATM    5  S9  UNL     1     -33.832   7.499   6.294  1.00 20.00    -0.132 SA
HETATM    6  H24 UNL     1     -33.100   5.091   4.640  1.00 20.00     0.317 HD
ENDROOT
BRANCH   3   7
HETATM    7  C6  UNL     1     -32.275   7.389   4.023  1.00 20.00     0.050 C 
BRANCH   7   8
HETATM    8  C7  UNL     1     -32.200   7.523   2.492  1.00 20.00    -0.020 C 
HETATM    9  C4  UNL     1     -32.607   6.236   1.773  1.00 20.00     0.009 C 
HETATM   10  C5  UNL     1     -33.091   8.678   2.027  1.00 20.00     0.009 C 
ENDBRANCH   7   8
ENDBRANCH   3   7
TORSDOF 2
