REMARK  0 active torsions:
REMARK  status: ('A' for Active; 'I' for Inactive)
ROOT
HETATM    1  C1  UNL     1     -32.662   8.360   0.821  1.00 20.00     0.095 C 
HETATM    2  C2  UNL     1     -34.470   5.795   5.649  1.00 20.00     0.095 C 
HETATM    3  C3  UNL     1     -33.045   8.925   3.145  1.00 20.00    -0.007 C 
HETATM    4  C4  UNL     1     -33.914   5.192   3.370  1.00 20.00    -0.007 C 
HETATM    5  C5  UNL     1     -32.669   8.054   2.204  1.00 20.00     0.024 C 
HETATM    6  C6  UNL     1     -33.713   5.939   4.460  1.00 20.00     0.024 C 
HETATM    7  C7  UNL     1     -32.899   8.370   4.522  1.00 20.00     0.039 C 
HETATM    8  C8  UNL     1     -32.941   5.505   2.282  1.00 20.00     0.039 C 
HETATM    9  C9  UNL     1     -32.201   6.751   2.791  1.00 20.00     0.042 C 
HETATM   10  C10 UNL     1     -32.560   6.889   4.293  1.00 20.00     0.042 C 
HETATM   11  N11 UNL     1     -32.657   8.611  -0.312  1.00 20.00    -0.192 NA
HETATM   12  N12 UNL     1     -35.090   5.678   6.622  1.00 20.00    -0.192 NA
ENDROOT
TORSDOF 0
