REMARK  4 active torsions:
REMARK  status: ('A' for Active; 'I' for Inactive)
REMARK    1  A    between atoms: C1_1  and  C3_3 
REMARK    2  A    between atoms: C1_1  and  S4_4 
REMARK    3  A    between atoms: C2_2  and  C3_3 
REMARK    4  A    between atoms: C3_3  and  S5_5 
ROOT
HETATM    1  C3  UNL     1     -34.332   6.993   4.752  1.00 20.00     0.067 C 
ENDROOT
BRANCH   1   2
HETATM    2  C1  UNL     1     -32.884   7.311   4.341  1.00 20.00     0.086 C 
BRANCH   2   3
HETATM    3  S4  UNL     1     -32.578   7.417   2.547  1.00 20.00    -0.181 SA
HETATM    4  H12 UNL     1     -31.272   7.693   2.649  1.00 20.00     0.101 HD
ENDBRANCH   2   3
ENDBRANCH   1   2
BRANCH   1   5
HETATM    5  C2  UNL     1     -34.878   5.636   4.297  1.00 20.00     0.130 C 
HETATM    6 CL6  UNL     1     -33.898   4.285   4.924  1.00 20.00    -0.129 Cl
ENDBRANCH   1   5
BRANCH   1   7
HETATM    7  S5  UNL     1     -34.530   7.115   6.572  1.00 20.00    -0.176 SA
HETATM    8  H13 UNL     1     -35.829   6.796   6.576  1.00 20.00     0.102 HD
ENDBRANCH   1   7
TORSDOF 4
