REMARK  2 active torsions:
REMARK  status: ('A' for Active; 'I' for Inactive)
REMARK    1  A    between atoms: C5_5  and  O12_12 
REMARK    2  A    between atoms: C11_11  and  O12_12 
ROOT
HETATM    1  C1  UNL     1     -32.302   7.693   4.786  1.00 20.00     0.036 C 
HETATM    2  C2  UNL     1     -33.732   5.648   4.397  1.00 20.00     0.013 C 
HETATM    3  C3  UNL     1     -31.824   6.179   2.807  1.00 20.00     0.040 C 
HETATM    4  C4  UNL     1     -33.712   7.098   4.905  1.00 20.00    -0.015 C 
HETATM    5  C5  UNL     1     -31.750   7.603   3.364  1.00 20.00     0.122 C 
HETATM    6  C6  UNL     1     -33.206   5.492   2.951  1.00 20.00    -0.045 C 
HETATM    7  C7  UNL     1     -34.198   7.162   6.353  1.00 20.00     0.010 C 
HETATM    8  C8  UNL     1     -33.039   3.989   2.644  1.00 20.00     0.015 C 
HETATM    9  C9  UNL     1     -34.225   6.056   1.941  1.00 20.00     0.015 C 
ENDROOT
BRANCH   5  10
HETATM   10  O12 UNL     1     -32.453   8.494   2.505  1.00 20.00    -0.386 OA
BRANCH  10  11
HETATM   11  C11 UNL     1     -31.959   8.432   1.175  1.00 20.00     0.163 C 
HETATM   12  C10 UNL     1     -32.743   9.397   0.312  1.00 20.00     0.033 C 
ENDBRANCH  10  11
ENDBRANCH   5  10
TORSDOF 2
