REMARK  2 active torsions:
REMARK  status: ('A' for Active; 'I' for Inactive)
REMARK    1  A    between atoms: C1_1  and  C4_4 
REMARK    2  A    between atoms: C4_4  and  C5_5 
ROOT
HETATM    1  C1  UNL     1     -34.013   5.540   3.397  1.00 20.00     0.244 A 
HETATM    2  C3  UNL     1     -32.596   6.890   1.962  1.00 20.00     0.147 C 
HETATM    3  N6  UNL     1     -32.657   5.953   3.077  1.00 20.00    -0.168 NA
HETATM    4  O7  UNL     1     -33.224   4.744   2.509  1.00 20.00    -0.279 OA
ENDROOT
BRANCH   1   5
HETATM    5  C4  UNL     1     -34.297   4.908   4.710  1.00 20.00     0.051 C 
BRANCH   5   6
HETATM    6  C5  UNL     1     -35.100   5.839   5.617  1.00 20.00    -0.001 C 
HETATM    7  C2  UNL     1     -34.339   7.122   5.912  1.00 20.00     0.005 C 
ENDBRANCH   5   6
ENDBRANCH   1   5
TORSDOF 2
