REMARK  2 active torsions:
REMARK  status: ('A' for Active; 'I' for Inactive)
REMARK    1  A    between atoms: C4_4  and  C8_8 
REMARK    2  A    between atoms: C8_8  and  N9_9 
ROOT
HETATM    1  C1  UNL     1     -35.089   5.995   6.531  1.00 20.00    -0.003 A 
HETATM    2  C2  UNL     1     -35.214   6.187   5.110  1.00 20.00     0.004 A 
HETATM    3  C3  UNL     1     -33.963   6.578   6.966  1.00 20.00    -0.022 A 
HETATM    4  C4  UNL     1     -34.164   6.891   4.659  1.00 20.00    -0.049 A 
HETATM    5  C5  UNL     1     -33.249   7.216   5.809  1.00 20.00     0.063 A 
ENDROOT
BRANCH   4   6
HETATM    6  C8  UNL     1     -33.876   7.321   3.270  1.00 20.00     0.306 C 
BRANCH   6   7
HETATM    7  N9  UNL     1     -32.618   6.743   2.877  1.00 20.00     0.083 N 
HETATM    8  C6  UNL     1     -32.029   7.467   1.740  1.00 20.00     0.309 C 
HETATM    9  C7  UNL     1     -32.769   5.322   2.529  1.00 20.00     0.309 C 
ENDBRANCH   6   7
ENDBRANCH   4   6
TORSDOF 2
