REMARK  2 active torsions:
REMARK  status: ('A' for Active; 'I' for Inactive)
REMARK    1  A    between atoms: C2_2  and  C3_3 
REMARK    2  A    between atoms: C3_3  and  O10_10 
ROOT
HETATM    1  C1  UNL     1     -33.294   6.872   4.850  1.00 20.00    -0.074 C 
HETATM    2  C2  UNL     1     -32.382   7.268   3.955  1.00 20.00     0.085 C 
HETATM    3  C4  UNL     1     -33.380   7.378   6.262  1.00 20.00     0.034 C 
HETATM    4  C5  UNL     1     -34.371   5.860   4.580  1.00 20.00     0.034 C 
HETATM    5  C6  UNL     1     -34.353   6.405   6.916  1.00 20.00     0.005 C 
HETATM    6  C7  UNL     1     -35.293   6.011   5.785  1.00 20.00     0.005 C 
ENDROOT
BRANCH   2   7
HETATM    7  C3  UNL     1     -32.392   6.702   2.591  1.00 20.00     0.282 C 
HETATM    8  O9  UNL     1     -32.019   7.280   1.582  1.00 20.00    -0.260 OA
BRANCH   7   9
HETATM    9  O10 UNL     1     -32.883   5.436   2.674  1.00 20.00    -0.323 OA
HETATM   10  C8  UNL     1     -32.964   4.725   1.435  1.00 20.00     0.213 C 
ENDBRANCH   7   9
ENDBRANCH   2   7
TORSDOF 2
