REMARK  0 active torsions:
REMARK  status: ('A' for Active; 'I' for Inactive)
ROOT
HETATM    1  C1  UNL     1     -32.920   7.298   4.360  1.00 20.00     0.219 C 
HETATM    2  C2  UNL     1     -33.869   7.561   5.516  1.00 20.00     0.103 C 
HETATM    3  C3  UNL     1     -33.567   6.710   6.745  1.00 20.00     0.009 C 
HETATM    4  C4  UNL     1     -34.119   5.282   6.719  1.00 20.00     0.001 C 
HETATM    5  C5  UNL     1     -33.365   4.330   5.790  1.00 20.00     0.002 C 
HETATM    6  C6  UNL     1     -34.035   4.096   4.435  1.00 20.00     0.020 C 
HETATM    7  C7  UNL     1     -34.375   5.356   3.644  1.00 20.00     0.125 C 
HETATM    8  C8  UNL     1     -32.320   5.945   2.390  1.00 20.00     0.152 C 
HETATM    9  N9  UNL     1     -33.228   6.253   3.490  1.00 20.00    -0.356 N 
HETATM   10  O10 UNL     1     -31.914   8.007   4.248  1.00 20.00    -0.273 OA
ENDROOT
TORSDOF 0
