REMARK  1 active torsions:
REMARK  status: ('A' for Active; 'I' for Inactive)
REMARK       I    between atoms: C1_1  and  N3_3 
REMARK    1  A    between atoms: C1_1  and  S5_5 
ROOT
HETATM    1  C1  UNL     1     -34.480   5.799   4.742  1.00 20.00     0.276 C 
HETATM    2  C2  UNL     1     -36.453   6.457   3.384  1.00 20.00     0.150 C 
HETATM    3  N3  UNL     1     -35.821   5.712   4.447  1.00 20.00    -0.356 N 
HETATM    4  O4  UNL     1     -33.636   6.486   4.184  1.00 20.00    -0.261 OA
HETATM    5  H9  UNL     1     -36.396   5.083   4.999  1.00 20.00     0.162 HD
ENDROOT
BRANCH   1   6
HETATM    6  S5  UNL     1     -34.072   4.751   6.091  1.00 20.00    -0.082 SA
HETATM    7  H10 UNL     1     -32.764   5.044   6.133  1.00 20.00     0.112 HD
ENDBRANCH   1   6
TORSDOF 1
