REMARK  1 active torsions:
REMARK  status: ('A' for Active; 'I' for Inactive)
REMARK    1  A    between atoms: C3_3  and  C6_6 
ROOT
HETATM    1  C1  UNL     1     -33.412   5.537   3.464  1.00 20.00     0.202 C 
HETATM    2  C2  UNL     1     -33.142   7.014   3.614  1.00 20.00     0.144 C 
HETATM    3  C3  UNL     1     -34.847   6.431   4.974  1.00 20.00     0.260 C 
HETATM    4  C4  UNL     1     -31.672   7.375   3.598  1.00 20.00     0.042 C 
HETATM    5  O7  UNL     1     -34.731   5.390   3.993  1.00 20.00    -0.359 OA
HETATM    6  O8  UNL     1     -33.721   7.314   4.886  1.00 20.00    -0.354 OA
ENDROOT
BRANCH   3   7
HETATM    7  C6  UNL     1     -34.905   5.828   6.364  1.00 20.00     0.056 C 
HETATM    8  C5  UNL     1     -33.674   5.040   6.687  1.00 20.00     0.010 C 
ENDBRANCH   3   7
TORSDOF 1
