REMARK  2 active torsions:
REMARK  status: ('A' for Active; 'I' for Inactive)
REMARK    1  A    between atoms: C3_3  and  C5_5 
REMARK    2  A    between atoms: C5_5  and  C6_6 
ROOT
HETATM    1  C1  UNL     1     -35.133   5.799   6.187  1.00 20.00     0.202 C 
HETATM    2  C2  UNL     1     -34.324   7.003   5.760  1.00 20.00     0.144 C 
HETATM    3  C3  UNL     1     -34.424   5.457   4.082  1.00 20.00     0.261 C 
HETATM    4  C4  UNL     1     -32.938   7.041   6.392  1.00 20.00     0.042 C 
HETATM    5  O7  UNL     1     -34.680   4.768   5.311  1.00 20.00    -0.359 OA
HETATM    6  O8  UNL     1     -34.187   6.846   4.344  1.00 20.00    -0.354 OA
ENDROOT
BRANCH   3   7
HETATM    7  C5  UNL     1     -33.228   4.842   3.385  1.00 20.00     0.075 C 
BRANCH   7   8
HETATM    8  C6  UNL     1     -32.598   5.752   2.334  1.00 20.00     0.119 C 
HETATM    9 CL9  UNL     1     -32.003   7.272   3.040  1.00 20.00    -0.130 Cl
ENDBRANCH   7   8
ENDBRANCH   3   7
TORSDOF 2
