REMARK  4 active torsions:
REMARK  status: ('A' for Active; 'I' for Inactive)
REMARK    1  A    between atoms: C1_1  and  C4_4 
REMARK    2  A    between atoms: C2_2  and  C7_7 
REMARK    3  A    between atoms: C7_7  and  C8_8 
REMARK    4  A    between atoms: C8_8  and  O9_9 
ROOT
HETATM    1  C1  UNL     1     -32.862   7.322   3.475  1.00 20.00    -0.072 C 
HETATM    2  C2  UNL     1     -33.383   7.358   4.557  1.00 20.00    -0.099 C 
ENDROOT
BRANCH   2   3
HETATM    3  C7  UNL     1     -34.024   7.401   5.881  1.00 20.00     0.125 C 
BRANCH   3   4
HETATM    4  C8  UNL     1     -34.763   6.096   6.184  1.00 20.00     0.125 C 
HETATM    5  C6  UNL     1     -33.819   4.901   6.120  1.00 20.00     0.040 C 
BRANCH   4   6
HETATM    6  O9  UNL     1     -35.791   5.914   5.212  1.00 20.00    -0.395 OA
HETATM    7  H21 UNL     1     -36.247   5.091   5.444  1.00 20.00     0.210 HD
ENDBRANCH   4   6
ENDBRANCH   3   4
ENDBRANCH   2   3
BRANCH   1   8
HETATM    8  C4  UNL     1     -32.240   7.283   2.191  1.00 20.00    -0.018 C 
HETATM    9  C3  UNL     1     -32.513   6.266   1.361  1.00 20.00     0.028 C 
HETATM   10  C5  UNL     1     -31.298   8.385   1.807  1.00 20.00     0.057 C 
ENDBRANCH   1   8
TORSDOF 4
