REMARK  0 active torsions:
REMARK  status: ('A' for Active; 'I' for Inactive)
ROOT
HETATM    1  C1  UNL     1     -32.646   7.225   3.566  1.00 20.00     0.130 C 
HETATM    2  C2  UNL     1     -32.269   7.762   4.928  1.00 20.00     0.079 C 
HETATM    3  C3  UNL     1     -33.455   7.688   5.882  1.00 20.00     0.016 C 
HETATM    4  C4  UNL     1     -34.474   5.818   4.529  1.00 20.00     0.020 C 
HETATM    5  C5  UNL     1     -33.300   5.849   3.541  1.00 20.00     0.052 C 
HETATM    6  C6  UNL     1     -34.101   6.286   5.957  1.00 20.00    -0.047 C 
HETATM    7  C7  UNL     1     -33.775   5.479   2.138  1.00 20.00     0.018 C 
HETATM    8  C8  UNL     1     -33.153   5.280   6.637  1.00 20.00     0.015 C 
HETATM    9  C9  UNL     1     -35.385   6.374   6.803  1.00 20.00     0.015 C 
HETATM   10  O10 UNL     1     -32.347   7.839   2.542  1.00 20.00    -0.298 OA
ENDROOT
TORSDOF 0
