REMARK  1 active torsions:
REMARK  status: ('A' for Active; 'I' for Inactive)
REMARK    1  A    between atoms: C3_3  and  C6_6 
ROOT
HETATM    1  C1  UNL     1     -33.100   7.819   5.785  1.00 20.00    -0.024 C 
HETATM    2  C2  UNL     1     -33.248   7.358   4.530  1.00 20.00    -0.076 C 
HETATM    3  C4  UNL     1     -33.909   7.346   6.956  1.00 20.00     0.028 C 
HETATM    4  C5  UNL     1     -35.125   6.513   6.548  1.00 20.00     0.009 C 
HETATM    5  C6  UNL     1     -34.249   6.266   4.205  1.00 20.00     0.079 C 
HETATM    6  C7  UNL     1     -34.788   5.502   5.441  1.00 20.00    -0.004 C 
HETATM    7  C8  UNL     1     -32.480   7.975   3.393  1.00 20.00     0.044 C 
HETATM    8  C9  UNL     1     -33.840   4.419   5.979  1.00 20.00     0.011 C 
ENDROOT
BRANCH   5   9
HETATM    9  C3  UNL     1     -33.671   5.307   3.201  1.00 20.00     0.240 C 
HETATM   10  O10 UNL     1     -32.477   5.031   3.139  1.00 20.00    -0.306 OA
ENDBRANCH   5   9
TORSDOF 1
