REMARK  0 active torsions:
REMARK  status: ('A' for Active; 'I' for Inactive)
ROOT
HETATM    1  C1  UNL     1     -34.020   7.530   4.418  1.00 20.00     0.006 C 
HETATM    2  C2  UNL     1     -33.026   6.858   3.463  1.00 20.00     0.006 C 
HETATM    3  C3  UNL     1     -35.540   5.556   4.366  1.00 20.00     0.021 C 
HETATM    4  C4  UNL     1     -34.833   6.549   5.296  1.00 20.00     0.005 C 
HETATM    5  C5  UNL     1     -33.594   5.592   2.797  1.00 20.00    -0.005 C 
HETATM    6  C6  UNL     1     -34.406   4.720   3.779  1.00 20.00     0.052 C 
HETATM    7  C7  UNL     1     -34.014   5.678   6.289  1.00 20.00     0.005 C 
HETATM    8  C8  UNL     1     -32.486   4.805   2.093  1.00 20.00     0.011 C 
HETATM    9  C9  UNL     1     -34.916   5.119   7.406  1.00 20.00     0.027 C 
HETATM   10  C10 UNL     1     -32.826   6.389   6.940  1.00 20.00     0.027 C 
HETATM   11  S11 UNL     1     -33.444   4.256   5.269  1.00 20.00    -0.154 SA
ENDROOT
TORSDOF 0
