REMARK  3 active torsions:
REMARK  status: ('A' for Active; 'I' for Inactive)
REMARK    1  A    between atoms: C1_1  and  C4_4 
REMARK    2  A    between atoms: C2_2  and  C7_7 
REMARK    3  A    between atoms: C7_7  and  O8_8 
ROOT
HETATM    1  C1  UNL     1     -33.279   7.251   4.060  1.00 20.00    -0.070 C 
HETATM    2  C2  UNL     1     -34.075   6.708   4.777  1.00 20.00    -0.070 C 
ENDROOT
BRANCH   2   3
HETATM    3  C7  UNL     1     -35.049   6.046   5.654  1.00 20.00     0.193 C 
HETATM    4  C6  UNL     1     -34.362   5.073   6.599  1.00 20.00     0.053 C 
BRANCH   3   5
HETATM    5  O8  UNL     1     -35.990   5.315   4.873  1.00 20.00    -0.384 OA
HETATM    6  H18 UNL     1     -36.605   4.901   5.498  1.00 20.00     0.211 HD
ENDBRANCH   3   5
ENDBRANCH   2   3
BRANCH   1   7
HETATM    7  C4  UNL     1     -32.333   7.891   3.204  1.00 20.00    -0.018 C 
HETATM    8  C3  UNL     1     -31.612   8.920   3.674  1.00 20.00     0.028 C 
HETATM    9  C5  UNL     1     -32.174   7.391   1.798  1.00 20.00     0.057 C 
ENDBRANCH   1   7
TORSDOF 3
