REMARK  1 active torsions:
REMARK  status: ('A' for Active; 'I' for Inactive)
REMARK    1  A    between atoms: C3_3  and  C4_4 
ROOT
HETATM    1  C1  UNL     1     -33.674   6.747   4.742  1.00 20.00     0.086 C 
HETATM    2  C2  UNL     1     -35.924   5.928   4.131  1.00 20.00     0.050 C 
HETATM    3  C4  UNL     1     -34.569   5.576   4.750  1.00 20.00     0.134 C 
HETATM    4  N5  UNL     1     -32.969   7.669   4.731  1.00 20.00    -0.195 NA
HETATM    5 CL7  UNL     1     -34.842   5.171   6.487  1.00 20.00    -0.102 Cl
ENDROOT
BRANCH   3   6
HETATM    6  C3  UNL     1     -33.909   4.358   4.088  1.00 20.00     0.155 C 
HETATM    7 CL6  UNL     1     -33.461   4.641   2.382  1.00 20.00    -0.127 Cl
ENDBRANCH   3   6
TORSDOF 1
