REMARK  0 active torsions:
REMARK  status: ('A' for Active; 'I' for Inactive)
ROOT
HETATM    1  C1  UNL     1     -32.798   7.484   4.765  1.00 20.00     0.047 C 
HETATM    2  C2  UNL     1     -33.846   7.038   5.466  1.00 20.00    -0.014 C 
HETATM    3  C3  UNL     1     -32.406   6.830   3.492  1.00 20.00     0.152 C 
HETATM    4  C4  UNL     1     -33.940   4.942   4.080  1.00 20.00     0.025 C 
HETATM    5  C5  UNL     1     -33.318   5.745   2.932  1.00 20.00     0.056 C 
HETATM    6  C6  UNL     1     -34.685   5.833   5.101  1.00 20.00    -0.029 C 
HETATM    7  C7  UNL     1     -32.551   4.820   1.990  1.00 20.00     0.018 C 
HETATM    8  C8  UNL     1     -34.960   5.000   6.366  1.00 20.00     0.019 C 
HETATM    9  C9  UNL     1     -36.029   6.318   4.530  1.00 20.00     0.019 C 
HETATM   10  O10 UNL     1     -31.402   7.226   2.902  1.00 20.00    -0.293 OA
ENDROOT
TORSDOF 0
