REMARK  1 active torsions:
REMARK  status: ('A' for Active; 'I' for Inactive)
REMARK    1  A    between atoms: C5_5  and  C10_10 
ROOT
HETATM    1  C1  UNL     1     -33.490   7.601   4.275  1.00 20.00    -0.018 C 
HETATM    2  C2  UNL     1     -32.588   7.714   3.290  1.00 20.00    -0.025 C 
HETATM    3  C3  UNL     1     -33.906   5.233   3.613  1.00 20.00     0.135 C 
HETATM    4  C4  UNL     1     -33.465   5.612   2.217  1.00 20.00     0.087 C 
HETATM    5  C5  UNL     1     -34.335   6.382   4.526  1.00 20.00     0.081 C 
HETATM    6  C6  UNL     1     -32.325   6.632   2.277  1.00 20.00     0.010 C 
HETATM    7  C7  UNL     1     -32.091   7.232   0.890  1.00 20.00     0.014 C 
HETATM    8  O11 UNL     1     -33.999   4.052   3.947  1.00 20.00    -0.297 OA
ENDROOT
BRANCH   5   9
HETATM    9  C10 UNL     1     -34.249   5.967   5.993  1.00 20.00    -0.008 C 
HETATM   10  C8  UNL     1     -34.223   7.196   6.901  1.00 20.00     0.010 C 
HETATM   11  C9  UNL     1     -35.415   5.052   6.365  1.00 20.00     0.010 C 
ENDBRANCH   5   9
TORSDOF 1
