REMARK  2 active torsions:
REMARK  status: ('A' for Active; 'I' for Inactive)
REMARK    1  A    between atoms: C3_3  and  C4_4 
REMARK    2  A    between atoms: C4_4  and  S8_8 
ROOT
HETATM    1  C1  UNL     1     -32.489   7.701   5.000  1.00 20.00     0.109 C 
HETATM    2  C3  UNL     1     -33.628   6.883   5.348  1.00 20.00     0.116 C 
HETATM    3  N5  UNL     1     -31.573   8.352   4.710  1.00 20.00    -0.191 NA
HETATM    4  S7  UNL     1     -34.344   7.210   6.821  1.00 20.00    -0.071 SA
ENDROOT
BRANCH   2   5
HETATM    5  C4  UNL     1     -34.110   5.801   4.409  1.00 20.00     0.206 C 
HETATM    6  C2  UNL     1     -33.279   5.731   3.197  1.00 20.00     0.080 C 
HETATM    7  N6  UNL     1     -32.626   5.679   2.239  1.00 20.00    -0.196 NA
BRANCH   5   8
HETATM    8  S8  UNL     1     -34.115   4.210   5.301  1.00 20.00    -0.157 SA
HETATM    9  H10 UNL     1     -34.631   3.494   4.294  1.00 20.00     0.103 HD
ENDBRANCH   5   8
ENDBRANCH   2   5
TORSDOF 2
