REMARK  0 active torsions:
REMARK  status: ('A' for Active; 'I' for Inactive)
ROOT
HETATM    1  C1  UNL     1     -34.721   5.168   6.080  1.00 20.00     0.061 A 
HETATM    2  C2  UNL     1     -34.200   6.139   6.836  1.00 20.00     0.061 A 
HETATM    3  C3  UNL     1     -33.424   6.683   4.420  1.00 20.00     0.254 A 
HETATM    4  O4  UNL     1     -32.918   7.185   3.427  1.00 20.00    -0.272 OA
HETATM    5  S5  UNL     1     -34.398   5.217   4.380  1.00 20.00    -0.052 SA
HETATM    6  S6  UNL     1     -33.254   7.351   6.040  1.00 20.00    -0.052 SA
ENDROOT
TORSDOF 0
