REMARK  2 active torsions:
REMARK  status: ('A' for Active; 'I' for Inactive)
REMARK    1  A    between atoms: C3_3  and  S9_9 
REMARK    2  A    between atoms: C6_6  and  S9_9 
ROOT
HETATM    1  C1  UNL     1     -32.264   7.594   2.310  1.00 20.00     0.013 C 
HETATM    2  C2  UNL     1     -32.380   6.399   2.334  1.00 20.00    -0.107 C 
HETATM    3  C6  UNL     1     -32.514   4.940   2.359  1.00 20.00     0.174 C 
ENDROOT
BRANCH   3   4
HETATM    4  S9  UNL     1     -33.986   4.410   3.262  1.00 20.00    -0.092 SA
BRANCH   4   5
HETATM    5  C3  UNL     1     -33.938   5.539   4.577  1.00 20.00     0.125 C 
HETATM    6  N7  UNL     1     -33.991   6.817   4.403  1.00 20.00    -0.275 NA
HETATM    7  C4  UNL     1     -33.865   7.484   5.717  1.00 20.00     0.161 C 
HETATM    8  C5  UNL     1     -34.332   6.549   6.822  1.00 20.00     0.103 C 
HETATM    9  S8  UNL     1     -33.846   4.928   6.203  1.00 20.00    -0.102 SA
ENDBRANCH   4   5
ENDBRANCH   3   4
TORSDOF 2
