REMARK  2 active torsions:
REMARK  status: ('A' for Active; 'I' for Inactive)
REMARK    1  A    between atoms: C4_4  and  C6_6 
REMARK    2  A    between atoms: C5_5  and  C6_6 
ROOT
HETATM    1  C1  UNL     1     -32.096   7.440   2.754  1.00 20.00     0.012 C 
HETATM    2  C2  UNL     1     -32.801   6.494   2.977  1.00 20.00    -0.117 C 
HETATM    3  C5  UNL     1     -33.660   5.334   3.246  1.00 20.00     0.095 C 
ENDROOT
BRANCH   3   4
HETATM    4  C6  UNL     1     -34.666   5.636   4.356  1.00 20.00     0.046 C 
BRANCH   4   5
HETATM    5  C4  UNL     1     -33.986   5.966   5.649  1.00 20.00     0.146 A 
HETATM    6  C3  UNL     1     -34.458   7.107   6.507  1.00 20.00     0.200 A 
HETATM    7  O7  UNL     1     -33.305   7.225   5.658  1.00 20.00    -0.381 OA
ENDBRANCH   4   5
ENDBRANCH   3   4
TORSDOF 2
