REMARK  0 active torsions:
REMARK  status: ('A' for Active; 'I' for Inactive)
ROOT
HETATM    1  C1  UNL     1     -33.916   4.643   4.566  1.00 20.00    -0.021 C 
HETATM    2  C2  UNL     1     -34.362   4.849   5.816  1.00 20.00    -0.025 C 
HETATM    3  C3  UNL     1     -33.454   7.034   4.286  1.00 20.00    -0.081 C 
HETATM    4  C4  UNL     1     -32.514   7.717   3.628  1.00 20.00     0.015 C 
HETATM    5  C5  UNL     1     -33.944   7.307   5.704  1.00 20.00     0.042 C 
HETATM    6  C6  UNL     1     -35.614   6.201   4.418  1.00 20.00     0.022 C 
HETATM    7  C7  UNL     1     -34.271   5.869   3.757  1.00 20.00     0.036 C 
HETATM    8  C8  UNL     1     -35.029   6.210   5.836  1.00 20.00     0.013 C 
ENDROOT
TORSDOF 0
