REMARK  0 active torsions:
REMARK  status: ('A' for Active; 'I' for Inactive)
ROOT
HETATM    1  C1  UNL     1     -33.441   5.938   3.775  1.00 20.00     0.017 A 
HETATM    2  C2  UNL     1     -32.776   7.102   4.371  1.00 20.00     0.296 A 
HETATM    3  C3  UNL     1     -34.286   6.331   5.858  1.00 20.00     0.270 A 
HETATM    4  C4  UNL     1     -33.135   5.489   2.556  1.00 20.00     0.025 C 
HETATM    5  C5  UNL     1     -34.445   5.387   4.708  1.00 20.00     0.155 A 
HETATM    6  O6  UNL     1     -31.902   7.790   3.877  1.00 20.00    -0.259 OA
HETATM    7  O7  UNL     1     -34.926   6.274   6.898  1.00 20.00    -0.264 OA
HETATM    8  O8  UNL     1     -33.330   7.268   5.600  1.00 20.00    -0.241 OA
ENDROOT
TORSDOF 0
