REMARK  3 active torsions:
REMARK  status: ('A' for Active; 'I' for Inactive)
REMARK    1  A    between atoms: C1_1  and  C7_7 
REMARK    2  A    between atoms: C4_4  and  C6_6 
REMARK    3  A    between atoms: C6_6  and  C7_7 
ROOT
HETATM    1  C6  UNL     1     -34.962   5.656   3.868  1.00 20.00     0.015 C 
ENDROOT
BRANCH   1   2
HETATM    2  C4  UNL     1     -33.570   5.077   3.645  1.00 20.00    -0.014 A 
HETATM    3  C2  UNL     1     -33.064   4.837   2.250  1.00 20.00     0.005 A 
HETATM    4  C3  UNL     1     -32.473   5.939   3.085  1.00 20.00     0.005 A 
ENDBRANCH   1   2
BRANCH   1   5
HETATM    5  C7  UNL     1     -35.130   6.271   5.263  1.00 20.00     0.043 C 
HETATM    6  C5  UNL     1     -34.921   5.216   6.347  1.00 20.00     0.017 C 
BRANCH   5   7
HETATM    7  C1  UNL     1     -34.159   7.409   5.530  1.00 20.00     0.235 C 
HETATM    8  O8  UNL     1     -33.322   7.422   6.426  1.00 20.00    -0.306 OA
ENDBRANCH   5   7
ENDBRANCH   1   5
TORSDOF 3
