REMARK  1 active torsions:
REMARK  status: ('A' for Active; 'I' for Inactive)
REMARK    1  A    between atoms: C1_1  and  C2_2 
ROOT
HETATM    1  C2  UNL     1     -34.219   5.758   4.557  1.00 20.00     0.412 C 
HETATM    2  F4  UNL     1     -33.958   4.617   3.883  1.00 20.00    -0.168 F 
HETATM    3  F5  UNL     1     -33.459   6.737   4.023  1.00 20.00    -0.168 F 
HETATM    4  F6  UNL     1     -35.515   6.073   4.349  1.00 20.00    -0.168 F 
ENDROOT
BRANCH   1   5
HETATM    5  C1  UNL     1     -33.932   5.590   6.022  1.00 20.00     0.339 C 
HETATM    6  F3  UNL     1     -34.188   6.765   6.656  1.00 20.00    -0.246 F 
ENDBRANCH   1   5
TORSDOF 1
