REMARK  1 active torsions:
REMARK  status: ('A' for Active; 'I' for Inactive)
REMARK    1  A    between atoms: C1_1  and  C2_2 
ROOT
HETATM    1  C2  UNL     1     -34.037   5.630   4.483  1.00 20.00     0.200 C 
HETATM    2 CL4  UNL     1     -33.209   5.527   2.893  1.00 20.00    -0.083 Cl
HETATM    3 CL5  UNL     1     -35.761   6.006   4.187  1.00 20.00    -0.083 Cl
HETATM    4 CL6  UNL     1     -33.907   4.033   5.280  1.00 20.00    -0.083 Cl
ENDROOT
BRANCH   1   5
HETATM    5  C1  UNL     1     -33.363   6.724   5.316  1.00 20.00     0.173 C 
HETATM    6 CL3  UNL     1     -34.090   6.938   6.934  1.00 20.00    -0.126 Cl
ENDBRANCH   1   5
TORSDOF 1
