REMARK  0 active torsions:
REMARK  status: ('A' for Active; 'I' for Inactive)
ROOT
HETATM    1  C1  UNL     1     -34.292   4.905   6.747  1.00 20.00     0.050 C 
HETATM    2  C2  UNL     1     -34.316   5.850   5.779  1.00 20.00     0.094 C 
HETATM    3 CL3  UNL     1     -34.439   5.430   4.103  1.00 20.00    -0.072 Cl
HETATM    4 CL4  UNL     1     -34.225   7.538   6.160  1.00 20.00    -0.072 Cl
ENDROOT
TORSDOF 0
