REMARK  0 active torsions:
REMARK  status: ('A' for Active; 'I' for Inactive)
ROOT
HETATM    1  C1  UNL     1     -35.528   6.426   4.402  1.00 20.00     0.068 C 
HETATM    2  C2  UNL     1     -34.111   5.990   4.753  1.00 20.00     0.184 C 
HETATM    3 CL3  UNL     1     -33.263   5.455   3.276  1.00 20.00    -0.084 Cl
HETATM    4 CL4  UNL     1     -33.222   7.358   5.478  1.00 20.00    -0.084 Cl
HETATM    5 CL5  UNL     1     -34.167   4.641   5.920  1.00 20.00    -0.084 Cl
ENDROOT
TORSDOF 0
