REMARK  0 active torsions:
REMARK  status: ('A' for Active; 'I' for Inactive)
ROOT
HETATM    1  C1  UNL     1     -33.362   6.582   4.382  1.00 20.00     0.409 C 
HETATM    2  C2  UNL     1     -34.180   7.177   6.391  1.00 20.00     0.247 C 
HETATM    3  C3  UNL     1     -34.721   5.842   5.996  1.00 20.00     0.343 C 
HETATM    4  O4  UNL     1     -32.729   6.623   3.338  1.00 20.00    -0.229 OA
HETATM    5  O5  UNL     1     -33.102   7.356   5.480  1.00 20.00    -0.293 OA
HETATM    6  O6  UNL     1     -34.430   5.760   4.613  1.00 20.00    -0.260 OA
HETATM    7  F7  UNL     1     -34.028   4.856   6.621  1.00 20.00    -0.217 F 
ENDROOT
TORSDOF 0
