REMARK  1 active torsions:
REMARK  status: ('A' for Active; 'I' for Inactive)
REMARK    1  A    between atoms: C2_2  and  C5_5 
ROOT
HETATM    1  C1  UNL     1     -32.611   7.518   4.943  1.00 20.00     0.088 A 
HETATM    2  C2  UNL     1     -33.427   6.652   4.246  1.00 20.00     0.147 A 
HETATM    3  C3  UNL     1     -32.288   7.465   2.557  1.00 20.00     0.071 A 
HETATM    4  C4  UNL     1     -31.812   7.705   1.177  1.00 20.00     0.078 C 
HETATM    5  N6  UNL     1     -33.244   6.621   2.877  1.00 20.00    -0.241 NA
HETATM    6  S10 UNL     1     -31.566   8.329   3.852  1.00 20.00    -0.085 SA
ENDROOT
BRANCH   2   7
HETATM    7  C5  UNL     1     -34.459   5.776   4.835  1.00 20.00     0.435 C 
HETATM    8  F7  UNL     1     -34.569   5.876   6.199  1.00 20.00    -0.165 F 
HETATM    9  F8  UNL     1     -35.728   6.013   4.371  1.00 20.00    -0.165 F 
HETATM   10  F9  UNL     1     -34.238   4.445   4.596  1.00 20.00    -0.165 F 
ENDBRANCH   2   7
TORSDOF 1
