REMARK  1 active torsions:
REMARK  status: ('A' for Active; 'I' for Inactive)
REMARK    1  A    between atoms: C3_3  and  C5_5 
ROOT
HETATM    1  C1  UNL     1     -33.533   7.411   4.088  1.00 20.00     0.032 A 
HETATM    2  C2  UNL     1     -32.886   7.919   2.944  1.00 20.00    -0.044 A 
HETATM    3  C3  UNL     1     -33.654   6.032   4.005  1.00 20.00     0.068 A 
HETATM    4  C4  UNL     1     -32.547   6.935   2.058  1.00 20.00    -0.010 A 
HETATM    5  C6  UNL     1     -32.470   9.254   2.449  1.00 20.00     0.040 C 
HETATM    6  C7  UNL     1     -31.862   7.428   0.841  1.00 20.00     0.047 C 
HETATM    7  C8  UNL     1     -32.134   8.960   0.952  1.00 20.00     0.010 C 
HETATM    8  S10 UNL     1     -32.978   5.394   2.545  1.00 20.00    -0.089 SA
ENDROOT
BRANCH   3   9
HETATM    9  C5  UNL     1     -34.242   5.128   4.941  1.00 20.00     0.259 C 
HETATM   10  O9  UNL     1     -34.264   3.890   4.697  1.00 20.00    -0.273 OA
HETATM   11 CL11 UNL     1     -34.964   5.691   6.476  1.00 20.00    -0.038 Cl
ENDBRANCH   3   9
TORSDOF 1
