REMARK  0 active torsions:
REMARK  status: ('A' for Active; 'I' for Inactive)
ROOT
HETATM    1  C1  UNL     1     -32.369   7.251   2.171  1.00 20.00     0.064 C 
HETATM    2  C2  UNL     1     -35.005   6.908   3.771  1.00 20.00     0.011 C 
HETATM    3  C3  UNL     1     -34.409   5.526   5.603  1.00 20.00     0.010 C 
HETATM    4  C4  UNL     1     -32.650   6.583   3.452  1.00 20.00     0.101 C 
HETATM    5  C5  UNL     1     -34.696   5.447   4.091  1.00 20.00    -0.009 C 
HETATM    6  C6  UNL     1     -33.655   7.409   4.299  1.00 20.00     0.007 C 
HETATM    7  C7  UNL     1     -33.638   6.855   5.746  1.00 20.00    -0.013 C 
HETATM    8  C8  UNL     1     -33.363   5.205   3.334  1.00 20.00     0.003 C 
HETATM    9  C9  UNL     1     -34.294   7.799   6.749  1.00 20.00     0.010 C 
HETATM   10  C10 UNL     1     -33.600   4.683   1.918  1.00 20.00     0.011 C 
HETATM   11  N11 UNL     1     -32.147   7.777   1.161  1.00 20.00    -0.197 NA
ENDROOT
TORSDOF 0
