REMARK  0 active torsions:
REMARK  status: ('A' for Active; 'I' for Inactive)
ROOT
HETATM    1  C1  UNL     1     -32.790   7.396   4.689  1.00 20.00     0.055 C 
HETATM    2  C2  UNL     1     -33.710   6.689   5.339  1.00 20.00    -0.046 C 
HETATM    3  C3  UNL     1     -32.811   6.824   3.329  1.00 20.00     0.150 C 
HETATM    4  C4  UNL     1     -33.988   6.481   6.773  1.00 20.00     0.202 C 
HETATM    5  C5  UNL     1     -33.718   5.618   3.234  1.00 20.00     0.094 C 
HETATM    6  C6  UNL     1     -34.348   4.530   5.527  1.00 20.00     0.177 C 
HETATM    7  C7  UNL     1     -34.460   5.681   4.554  1.00 20.00     0.048 C 
HETATM    8  O8  UNL     1     -32.128   7.259   2.413  1.00 20.00    -0.293 OA
HETATM    9  O9  UNL     1     -34.492   5.124   6.840  1.00 20.00    -0.386 OA
ENDROOT
TORSDOF 0
