REMARK  0 active torsions:
REMARK  status: ('A' for Active; 'I' for Inactive)
ROOT
HETATM    1  C1  UNL     1     -33.611   5.015   2.946  1.00 20.00     0.015 A 
HETATM    2  C2  UNL     1     -33.008   5.828   2.073  1.00 20.00     0.083 A 
HETATM    3  C3  UNL     1     -33.789   5.403   4.320  1.00 20.00    -0.028 A 
HETATM    4  C4  UNL     1     -33.341   6.606   4.710  1.00 20.00     0.063 A 
HETATM    5  C5  UNL     1     -32.509   7.149   2.502  1.00 20.00     0.287 A 
HETATM    6  C6  UNL     1     -34.462   4.438   5.257  1.00 20.00     0.041 C 
HETATM    7  C7  UNL     1     -33.490   7.130   6.107  1.00 20.00     0.066 C 
HETATM    8  C8  UNL     1     -34.291   4.821   6.731  1.00 20.00     0.005 C 
HETATM    9  C9  UNL     1     -34.484   6.320   6.943  1.00 20.00     0.007 C 
HETATM   10  O10 UNL     1     -31.953   7.897   1.705  1.00 20.00    -0.260 OA
HETATM   11  O11 UNL     1     -32.698   7.492   3.813  1.00 20.00    -0.279 OA
ENDROOT
TORSDOF 0
