REMARK  0 active torsions:
REMARK  status: ('A' for Active; 'I' for Inactive)
ROOT
HETATM    1  C1  UNL     1     -34.132   4.566   5.028  1.00 20.00     0.087 A 
HETATM    2  C2  UNL     1     -34.068   6.932   5.551  1.00 20.00     0.063 A 
HETATM    3  C3  UNL     1     -33.092   6.106   3.462  1.00 20.00     0.114 A 
HETATM    4  C4  UNL     1     -34.428   5.623   5.881  1.00 20.00     0.120 A 
HETATM    5  C5  UNL     1     -33.467   4.793   3.819  1.00 20.00     0.149 A 
HETATM    6  C6  UNL     1     -33.400   7.153   4.336  1.00 20.00     0.042 A 
HETATM    7  C7  UNL     1     -32.245   7.780   2.302  1.00 20.00     0.145 A 
HETATM    8  N8  UNL     1     -32.431   6.481   2.302  1.00 20.00    -0.230 NA
HETATM    9  F9  UNL     1     -35.066   5.385   7.035  1.00 20.00    -0.206 F 
HETATM   10  F10 UNL     1     -33.191   3.762   3.009  1.00 20.00    -0.203 F 
HETATM   11  S11 UNL     1     -32.835   8.635   3.661  1.00 20.00    -0.060 SA
HETATM   12 BR12 UNL     1     -31.363   8.666   0.859  1.00 20.00    -0.021 Br
ENDROOT
TORSDOF 0
