REMARK  0 active torsions:
REMARK  status: ('A' for Active; 'I' for Inactive)
ROOT
HETATM    1  C1  UNL     1     -33.269   5.457   5.932  1.00 20.00     0.135 C 
HETATM    2  C2  UNL     1     -34.433   7.590   6.330  1.00 20.00     0.017 C 
HETATM    3  C3  UNL     1     -35.447   5.836   4.848  1.00 20.00     0.017 C 
HETATM    4  C4  UNL     1     -32.309   7.512   4.973  1.00 20.00     0.037 C 
HETATM    5  C5  UNL     1     -33.325   5.754   3.488  1.00 20.00     0.037 C 
HETATM    6  C6  UNL     1     -34.517   7.945   3.842  1.00 20.00     0.030 C 
HETATM    7  C7  UNL     1     -33.050   6.940   6.190  1.00 20.00     0.058 C 
HETATM    8  C8  UNL     1     -34.082   5.155   4.682  1.00 20.00     0.058 C 
HETATM    9  C9  UNL     1     -35.263   7.353   5.052  1.00 20.00    -0.011 C 
HETATM   10  C10 UNL     1     -33.138   7.274   3.692  1.00 20.00     0.039 C 
HETATM   11  O11 UNL     1     -32.829   4.580   6.669  1.00 20.00    -0.297 OA
HETATM   12 CL12 UNL     1     -32.280   7.966   2.285  1.00 20.00    -0.119 Cl
ENDROOT
TORSDOF 0
