REMARK  2 active torsions:
REMARK  status: ('A' for Active; 'I' for Inactive)
REMARK    1  A    between atoms: C2_2  and  C7_7 
REMARK    2  A    between atoms: C3_3  and  C6_6 
ROOT
HETATM    1  C1  UNL     1     -32.648   7.750   4.003  1.00 20.00     0.066 A 
HETATM    2  C2  UNL     1     -33.277   6.550   4.376  1.00 20.00     0.068 A 
HETATM    3  C3  UNL     1     -32.176   7.493   2.743  1.00 20.00     0.094 A 
HETATM    4  N8  UNL     1     -33.201   5.620   3.420  1.00 20.00    -0.133 NA
HETATM    5  O9  UNL     1     -32.500   6.225   2.384  1.00 20.00    -0.216 OA
ENDROOT
BRANCH   2   6
HETATM    6  C7  UNL     1     -33.986   6.238   5.680  1.00 20.00     0.032 C 
HETATM    7  C4  UNL     1     -35.075   5.179   5.490  1.00 20.00     0.016 C 
HETATM    8  C5  UNL     1     -34.561   7.502   6.325  1.00 20.00     0.016 C 
ENDBRANCH   2   6
BRANCH   3   9
HETATM    9  C6  UNL     1     -31.426   8.282   1.758  1.00 20.00     0.181 C 
HETATM   10 CL10 UNL     1     -32.481   8.835   0.426  1.00 20.00    -0.123 Cl
ENDBRANCH   3   9
TORSDOF 2
