REMARK  0 active torsions:
REMARK  status: ('A' for Active; 'I' for Inactive)
ROOT
HETATM    1  C1  UNL     1     -34.275   5.575   5.563  1.00 20.00     0.105 C 
HETATM    2  C2  UNL     1     -32.767   6.102   2.200  1.00 20.00     0.068 A 
HETATM    3  C3  UNL     1     -32.481   8.111   3.510  1.00 20.00     0.068 A 
HETATM    4  C4  UNL     1     -33.605   6.197   4.464  1.00 20.00     0.121 A 
HETATM    5  C5  UNL     1     -33.421   5.496   3.273  1.00 20.00     0.141 A 
HETATM    6  C6  UNL     1     -33.135   7.505   4.583  1.00 20.00     0.141 A 
HETATM    7  C7  UNL     1     -32.297   7.410   2.319  1.00 20.00     0.040 A 
HETATM    8  N8  UNL     1     -34.819   5.071   6.455  1.00 20.00    -0.191 NA
HETATM    9  F9  UNL     1     -33.867   4.237   3.142  1.00 20.00    -0.204 F 
HETATM   10  F10 UNL     1     -33.306   8.193   5.721  1.00 20.00    -0.204 F 
HETATM   11 CL11 UNL     1     -31.491   8.159   0.996  1.00 20.00    -0.084 Cl
ENDROOT
TORSDOF 0
