REMARK  3 active torsions:
REMARK  status: ('A' for Active; 'I' for Inactive)
REMARK    1  A    between atoms: C1_1  and  C6_6 
REMARK    2  A    between atoms: C4_4  and  C7_7 
REMARK    3  A    between atoms: C6_6  and  C7_7 
ROOT
HETATM    1  C7  UNL     1     -33.153   6.578   3.302  1.00 20.00     0.019 C 
ENDROOT
BRANCH   1   2
HETATM    2  C4  UNL     1     -32.316   7.641   2.646  1.00 20.00    -0.043 A 
HETATM    3  C2  UNL     1     -33.030   8.789   1.971  1.00 20.00     0.010 A 
HETATM    4  C3  UNL     1     -32.350   7.740   1.138  1.00 20.00     0.010 A 
HETATM    5  C5  UNL     1     -31.015   7.932   3.342  1.00 20.00     0.015 C 
ENDBRANCH   1   2
BRANCH   1   6
HETATM    6  C6  UNL     1     -33.580   6.963   4.713  1.00 20.00     0.114 C 
BRANCH   6   7
HETATM    7  C1  UNL     1     -34.388   5.922   5.496  1.00 20.00     0.172 C 
HETATM    8  O8  UNL     1     -34.752   6.251   6.658  1.00 20.00    -0.648 OA
HETATM    9  O9  UNL     1     -34.603   4.849   4.863  1.00 20.00    -0.648 OA
ENDBRANCH   6   7
ENDBRANCH   1   6
TORSDOF 3
