REMARK  0 active torsions:
REMARK  status: ('A' for Active; 'I' for Inactive)
ROOT
HETATM    1  C1  UNL     1     -33.328   6.991   4.432  1.00 20.00     0.050 A 
HETATM    2  C2  UNL     1     -33.585   5.741   3.905  1.00 20.00     0.010 A 
HETATM    3  C3  UNL     1     -32.400   7.247   2.466  1.00 20.00     0.168 A 
HETATM    4  C4  UNL     1     -33.729   7.385   5.812  1.00 20.00     0.060 C 
HETATM    5  C5  UNL     1     -34.325   4.648   4.597  1.00 20.00     0.048 C 
HETATM    6  C6  UNL     1     -34.778   6.415   6.385  1.00 20.00     0.006 C 
HETATM    7  C7  UNL     1     -34.417   4.945   6.105  1.00 20.00     0.006 C 
HETATM    8  N8  UNL     1     -32.642   7.857   3.607  1.00 20.00    -0.233 NA
HETATM    9  S9  UNL     1     -32.968   5.630   2.323  1.00 20.00    -0.061 SA
HETATM   10 CL10 UNL     1     -31.567   7.988   1.164  1.00 20.00    -0.054 Cl
ENDROOT
TORSDOF 0
