REMARK  3 active torsions:
REMARK  status: ('A' for Active; 'I' for Inactive)
REMARK    1  A    between atoms: C2_2  and  O6_6 
REMARK    2  A    between atoms: C3_3  and  C4_4 
REMARK    3  A    between atoms: C3_3  and  O6_6 
ROOT
HETATM    1  C1  UNL     1     -31.897   7.418   1.574  1.00 20.00     0.085 C 
HETATM    2  C2  UNL     1     -32.328   6.538   2.659  1.00 20.00     0.291 C 
HETATM    3  N5  UNL     1     -31.554   8.116   0.713  1.00 20.00    -0.195 NA
ENDROOT
BRANCH   2   4
HETATM    4  O6  UNL     1     -33.111   7.258   3.602  1.00 20.00    -0.369 OA
BRANCH   4   5
HETATM    5  C3  UNL     1     -33.159   6.592   4.857  1.00 20.00     0.286 C 
BRANCH   5   6
HETATM    6  C4  UNL     1     -34.165   5.472   4.781  1.00 20.00     0.408 C 
HETATM    7  F7  UNL     1     -35.390   5.953   4.479  1.00 20.00    -0.169 F 
HETATM    8  F8  UNL     1     -34.258   4.818   5.958  1.00 20.00    -0.169 F 
HETATM    9  F9  UNL     1     -33.829   4.576   3.829  1.00 20.00    -0.169 F 
ENDBRANCH   5   6
ENDBRANCH   4   5
ENDBRANCH   2   4
TORSDOF 3
