REMARK  0 active torsions:
REMARK  status: ('A' for Active; 'I' for Inactive)
ROOT
HETATM    1  C1  UNL     1     -33.124   7.112   5.466  1.00 20.00     0.042 C 
HETATM    2  C2  UNL     1     -32.439   5.468   3.654  1.00 20.00     0.042 C 
HETATM    3  C3  UNL     1     -35.228   5.692   4.181  1.00 20.00     0.174 C 
HETATM    4  C4  UNL     1     -34.350   4.939   5.193  1.00 20.00     0.017 C 
HETATM    5  C5  UNL     1     -33.797   5.952   6.226  1.00 20.00    -0.009 C 
HETATM    6  C6  UNL     1     -33.129   4.342   4.450  1.00 20.00    -0.009 C 
HETATM    7  C7  UNL     1     -33.123   6.816   3.953  1.00 20.00     0.058 C 
HETATM    8  C8  UNL     1     -34.861   6.456   7.201  1.00 20.00     0.010 C 
HETATM    9  C9  UNL     1     -33.492   3.157   3.555  1.00 20.00     0.010 C 
HETATM   10  C10 UNL     1     -32.461   7.949   3.175  1.00 20.00     0.046 C 
HETATM   11  O11 UNL     1     -34.492   6.728   3.515  1.00 20.00    -0.380 OA
ENDROOT
TORSDOF 0
