REMARK  1 active torsions:
REMARK  status: ('A' for Active; 'I' for Inactive)
REMARK    1  A    between atoms: C1_1  and  C2_2 
ROOT
HETATM    1  C1  UNL     1     -33.526   6.338   4.313  1.00 20.00     0.208 C 
HETATM    2  O3  UNL     1     -32.730   7.259   4.410  1.00 20.00    -0.284 OA
HETATM    3 BR5  UNL     1     -33.286   5.177   2.815  1.00 20.00    -0.008 Br
ENDROOT
BRANCH   1   4
HETATM    4  C2  UNL     1     -34.664   6.031   5.244  1.00 20.00     0.205 C 
HETATM    5 CL4  UNL     1     -34.129   4.924   6.517  1.00 20.00    -0.122 Cl
ENDBRANCH   1   4
TORSDOF 1
