REMARK  0 active torsions:
REMARK  status: ('A' for Active; 'I' for Inactive)
ROOT
HETATM    1  C1  UNL     1     -33.835   7.423   4.471  1.00 20.00     0.345 C 
HETATM    2  C2  UNL     1     -34.361   6.808   6.765  1.00 20.00     0.345 C 
HETATM    3  C3  UNL     1     -34.562   4.802   4.892  1.00 20.00     0.151 C 
HETATM    4  N4  UNL     1     -33.485   7.572   5.881  1.00 20.00     0.101 N 
HETATM    5  S5  UNL     1     -33.488   5.770   3.801  1.00 20.00    -0.129 SA
HETATM    6  S6  UNL     1     -34.138   5.009   6.641  1.00 20.00    -0.129 SA
HETATM    7  H13 UNL     1     -32.520   7.276   6.022  1.00 20.00     0.317 HD
ENDROOT
TORSDOF 0
