REMARK  4 active torsions:
REMARK  status: ('A' for Active; 'I' for Inactive)
REMARK    1  A    between atoms: C1_1  and  N8_8 
REMARK    2  A    between atoms: C1_1  and  N9_9 
REMARK    3  A    between atoms: C6_6  and  N8_8 
REMARK    4  A    between atoms: C7_7  and  N9_9 
ROOT
HETATM    1  N9  UNL     1     -33.419   6.714   5.816  1.00 20.00    -0.220 NA
ENDROOT
BRANCH   1   2
HETATM    2  C1  UNL     1     -32.821   7.250   4.961  1.00 20.00     0.091 C 
BRANCH   2   3
HETATM    3  N8  UNL     1     -32.215   7.800   4.120  1.00 20.00    -0.231 NA
BRANCH   3   4
HETATM    4  C6  UNL     1     -32.413   7.256   2.774  1.00 20.00     0.156 C 
HETATM    5  C2  UNL     1     -31.594   8.064   1.788  1.00 20.00     0.029 C 
ENDBRANCH   3   4
ENDBRANCH   2   3
ENDBRANCH   1   2
BRANCH   1   6
HETATM    6  C7  UNL     1     -34.254   5.594   5.359  1.00 20.00     0.053 C 
HETATM    7  C3  UNL     1     -33.348   4.552   4.705  1.00 20.00     0.041 C 
HETATM    8  C4  UNL     1     -34.957   5.004   6.582  1.00 20.00     0.041 C 
HETATM    9  C5  UNL     1     -35.277   6.131   4.359  1.00 20.00     0.041 C 
ENDBRANCH   1   6
TORSDOF 4
