REMARK  0 active torsions:
REMARK  status: ('A' for Active; 'I' for Inactive)
ROOT
HETATM    1  C1  UNL     1     -33.000   6.276   3.500  1.00 20.00     0.129 C 
HETATM    2  C2  UNL     1     -33.551   4.931   3.951  1.00 20.00     0.093 C 
HETATM    3  C3  UNL     1     -32.936   7.412   4.510  1.00 20.00     0.093 C 
HETATM    4  C4  UNL     1     -35.829   5.958   4.418  1.00 20.00     0.017 C 
HETATM    5  C5  UNL     1     -35.467   7.418   4.746  1.00 20.00     0.017 C 
HETATM    6  C6  UNL     1     -34.721   5.033   4.931  1.00 20.00     0.054 C 
HETATM    7  C7  UNL     1     -34.121   7.455   5.476  1.00 20.00     0.054 C 
HETATM    8  O8  UNL     1     -32.515   6.410   2.374  1.00 20.00    -0.298 OA
HETATM    9  S9  UNL     1     -34.165   5.910   6.408  1.00 20.00    -0.159 SA
ENDROOT
TORSDOF 0
