REMARK  3 active torsions:
REMARK  status: ('A' for Active; 'I' for Inactive)
REMARK    1  A    between atoms: C1_1  and  C2_2 
REMARK    2  A    between atoms: C4_4  and  C6_6 
REMARK    3  A    between atoms: C6_6  and  O7_7 
ROOT
HETATM    1  C2  UNL     1     -33.603   7.320   4.885  1.00 20.00    -0.002 C 
HETATM    2  C4  UNL     1     -33.775   6.085   5.380  1.00 20.00    -0.001 C 
ENDROOT
BRANCH   1   3
HETATM    3  C1  UNL     1     -32.465   7.697   4.079  1.00 20.00    -0.005 C 
HETATM    4  C3  UNL     1     -31.936   6.900   3.138  1.00 20.00    -0.031 C 
HETATM    5  C5  UNL     1     -32.459   5.539   2.817  1.00 20.00     0.036 C 
ENDBRANCH   1   3
BRANCH   2   6
HETATM    6  C6  UNL     1     -34.952   5.686   6.212  1.00 20.00     0.191 C 
BRANCH   6   7
HETATM    7  O7  UNL     1     -35.678   4.656   5.553  1.00 20.00    -0.397 OA
HETATM    8  H17 UNL     1     -36.427   4.431   6.127  1.00 20.00     0.209 HD
ENDBRANCH   6   7
ENDBRANCH   2   6
TORSDOF 3
