REMARK  2 active torsions:
REMARK  status: ('A' for Active; 'I' for Inactive)
REMARK    1  A    between atoms: C1_1  and  C3_3 
REMARK    2  A    between atoms: C2_2  and  C5_5 
ROOT
HETATM    1  C1  UNL     1     -34.269   6.602   6.485  1.00 20.00     0.003 C 
HETATM    2  C2  UNL     1     -35.097   5.616   6.118  1.00 20.00     0.041 C 
ENDROOT
BRANCH   1   3
HETATM    3  C3  UNL     1     -33.212   7.093   5.630  1.00 20.00    -0.004 C 
HETATM    4  C4  UNL     1     -33.356   7.262   4.308  1.00 20.00    -0.031 C 
HETATM    5  C6  UNL     1     -32.271   7.768   3.414  1.00 20.00     0.036 C 
ENDBRANCH   1   3
BRANCH   2   6
HETATM    6  C5  UNL     1     -34.929   4.999   4.787  1.00 20.00     0.258 C 
HETATM    7  O7  UNL     1     -33.890   4.440   4.459  1.00 20.00    -0.302 OA
ENDBRANCH   2   6
TORSDOF 2
