REMARK  1 active torsions:
REMARK  status: ('A' for Active; 'I' for Inactive)
REMARK    1  A    between atoms: C2_2  and  C3_3 
ROOT
HETATM    1  C1  UNL     1     -33.202   7.092   4.878  1.00 20.00     0.010 C 
HETATM    2  C2  UNL     1     -32.513   7.679   3.892  1.00 20.00     0.074 C 
HETATM    3  C4  UNL     1     -33.951   5.795   4.688  1.00 20.00     0.058 C 
HETATM    4  C5  UNL     1     -34.926   5.795   5.868  1.00 20.00     0.026 C 
HETATM    5  C6  UNL     1     -34.216   6.602   6.958  1.00 20.00     0.122 C 
HETATM    6  C8  UNL     1     -32.732   8.623   6.837  1.00 20.00     0.149 C 
HETATM    7  N9  UNL     1     -33.384   7.512   6.184  1.00 20.00    -0.388 N 
ENDROOT
BRANCH   2   8
HETATM    8  C3  UNL     1     -32.455   7.066   2.539  1.00 20.00     0.147 C 
HETATM    9  C7  UNL     1     -32.308   8.012   1.377  1.00 20.00     0.096 C 
HETATM   10  O10 UNL     1     -32.498   5.850   2.368  1.00 20.00    -0.294 OA
ENDBRANCH   2   8
TORSDOF 1
