REMARK  3 active torsions:
REMARK  status: ('A' for Active; 'I' for Inactive)
REMARK    1  A    between atoms: C1_1  and  C4_4 
REMARK    2  A    between atoms: C4_4  and  C5_5 
REMARK    3  A    between atoms: N6_6  and  O7_7 
ROOT
HETATM    1  C1  UNL     1     -34.019   6.449   5.016  1.00 20.00     0.035 C 
HETATM    2  C2  UNL     1     -33.680   7.395   6.144  1.00 20.00     0.068 C 
HETATM    3  N6  UNL     1     -34.839   5.449   5.128  1.00 20.00    -0.146 NA
ENDROOT
BRANCH   1   4
HETATM    4  C4  UNL     1     -33.390   6.706   3.659  1.00 20.00     0.056 C 
BRANCH   4   5
HETATM    5  C5  UNL     1     -32.425   7.889   3.689  1.00 20.00     0.001 C 
HETATM    6  C3  UNL     1     -31.793   8.167   2.332  1.00 20.00     0.005 C 
ENDBRANCH   4   5
ENDBRANCH   1   4
BRANCH   3   7
HETATM    7  O7  UNL     1     -35.355   5.365   6.423  1.00 20.00    -0.266 OA
HETATM    8  H18 UNL     1     -35.937   4.589   6.351  1.00 20.00     0.247 HD
ENDBRANCH   3   7
TORSDOF 3
