REMARK  0 active torsions:
REMARK  status: ('A' for Active; 'I' for Inactive)
ROOT
HETATM    1  C1  UNL     1     -34.638   5.025   5.472  1.00 20.00     0.027 A 
HETATM    2  C2  UNL     1     -34.960   5.849   6.541  1.00 20.00     0.116 A 
HETATM    3  C3  UNL     1     -33.951   7.701   5.590  1.00 20.00     0.124 A 
HETATM    4  C4  UNL     1     -33.928   5.611   4.444  1.00 20.00    -0.049 A 
HETATM    5  C5  UNL     1     -33.576   6.961   4.492  1.00 20.00    -0.030 A 
HETATM    6  C6  UNL     1     -33.476   4.987   3.161  1.00 20.00     0.040 C 
HETATM    7  C7  UNL     1     -32.415   5.999   2.702  1.00 20.00     0.014 C 
HETATM    8  C8  UNL     1     -32.861   7.375   3.242  1.00 20.00     0.017 C 
HETATM    9  C9  UNL     1     -31.689   8.321   3.452  1.00 20.00     0.015 C 
HETATM   10  N10 UNL     1     -34.636   7.167   6.628  1.00 20.00    -0.273 NA
ENDROOT
TORSDOF 0
