REMARK  1 active torsions:
REMARK  status: ('A' for Active; 'I' for Inactive)
REMARK    1  A    between atoms: C1_1  and  C2_2 
ROOT
HETATM    1  C1  UNL     1     -33.366   6.854   4.819  1.00 20.00     0.028 C 
HETATM    2  C4  UNL     1     -34.117   7.582   5.913  1.00 20.00     0.059 C 
HETATM    3  C5  UNL     1     -34.540   6.606   7.005  1.00 20.00     0.008 C 
HETATM    4  C6  UNL     1     -34.905   5.226   6.458  1.00 20.00     0.022 C 
HETATM    5  C7  UNL     1     -35.019   5.222   4.940  1.00 20.00     0.149 C 
HETATM    6  N9  UNL     1     -33.783   5.730   4.333  1.00 20.00    -0.294 NA
ENDROOT
BRANCH   1   7
HETATM    7  C2  UNL     1     -32.143   7.487   4.292  1.00 20.00     0.022 C 
HETATM    8  C3  UNL     1     -31.749   7.309   3.049  1.00 20.00    -0.029 C 
HETATM    9  C8  UNL     1     -32.512   6.455   2.090  1.00 20.00     0.036 C 
ENDBRANCH   1   7
TORSDOF 1
