REMARK  0 active torsions:
REMARK  status: ('A' for Active; 'I' for Inactive)
ROOT
HETATM    1  C1  UNL     1     -33.093   7.021   3.581  1.00 20.00     0.064 C 
HETATM    2  C2  UNL     1     -35.253   5.982   4.213  1.00 20.00     0.045 C 
HETATM    3  C3  UNL     1     -34.054   7.507   5.813  1.00 20.00     0.045 C 
HETATM    4  C4  UNL     1     -34.763   4.818   5.070  1.00 20.00     0.169 C 
HETATM    5  C5  UNL     1     -33.634   6.253   6.576  1.00 20.00     0.169 C 
HETATM    6  C6  UNL     1     -34.345   7.210   4.338  1.00 20.00     0.097 C 
HETATM    7  N7  UNL     1     -32.109   6.872   2.985  1.00 20.00    -0.197 NA
HETATM    8  O8  UNL     1     -34.607   5.221   6.429  1.00 20.00    -0.391 OA
ENDROOT
TORSDOF 0
