REMARK  0 active torsions:
REMARK  status: ('A' for Active; 'I' for Inactive)
ROOT
HETATM    1  C1  UNL     1     -33.085   7.508   3.829  1.00 20.00     0.029 A 
HETATM    2  C2  UNL     1     -32.703   5.623   2.397  1.00 20.00     0.136 A 
HETATM    3  C3  UNL     1     -33.643   6.624   4.731  1.00 20.00    -0.032 A 
HETATM    4  C4  UNL     1     -32.607   6.996   2.625  1.00 20.00     0.029 A 
HETATM    5  C5  UNL     1     -33.690   5.272   4.412  1.00 20.00     0.040 A 
HETATM    6  C6  UNL     1     -34.196   6.883   6.092  1.00 20.00     0.041 C 
HETATM    7  C7  UNL     1     -34.281   4.479   5.543  1.00 20.00     0.060 C 
HETATM    8  C8  UNL     1     -34.989   5.588   6.337  1.00 20.00     0.011 C 
HETATM    9  N9  UNL     1     -33.234   4.733   3.269  1.00 20.00    -0.264 NA
HETATM   10 BR10 UNL     1     -31.841   8.135   1.334  1.00 20.00    -0.050 Br
ENDROOT
TORSDOF 0
