REMARK  0 active torsions:
REMARK  status: ('A' for Active; 'I' for Inactive)
ROOT
HETATM    1  C1  UNL     1     -34.171   7.411   6.306  1.00 20.00     0.011 C 
HETATM    2  C2  UNL     1     -34.506   6.090   7.003  1.00 20.00     0.011 C 
HETATM    3  C3  UNL     1     -32.904   7.400   5.454  1.00 20.00     0.075 C 
HETATM    4  C4  UNL     1     -34.350   4.794   6.214  1.00 20.00     0.075 C 
HETATM    5  C5  UNL     1     -33.567   5.376   3.634  1.00 20.00     0.147 C 
HETATM    6  S6  UNL     1     -33.264   7.158   3.682  1.00 20.00    -0.159 SA
HETATM    7  S7  UNL     1     -35.044   4.846   4.536  1.00 20.00    -0.159 SA
ENDROOT
TORSDOF 0
