REMARK  5 active torsions:
REMARK  status: ('A' for Active; 'I' for Inactive)
REMARK    1  A    between atoms: C3_3  and  C6_6 
REMARK    2  A    between atoms: C5_5  and  C7_7 
REMARK    3  A    between atoms: C6_6  and  C8_8 
REMARK    4  A    between atoms: C7_7  and  C9_9 
REMARK    5  A    between atoms: C8_8  and  C9_9 
ROOT
HETATM    1  C1  UNL     1     -32.937   8.891   0.492  1.00 20.00     0.059 C 
HETATM    2  C5  UNL     1     -32.378   7.927   1.450  1.00 20.00     0.124 C 
HETATM    3  N10 UNL     1     -33.377   9.651  -0.266  1.00 20.00    -0.197 NA
ENDROOT
BRANCH   2   4
HETATM    4  C7  UNL     1     -32.845   8.196   2.882  1.00 20.00     0.014 C 
BRANCH   4   5
HETATM    5  C9  UNL     1     -32.215   7.241   3.902  1.00 20.00     0.001 C 
BRANCH   5   6
HETATM    6  C8  UNL     1     -32.730   7.526   5.317  1.00 20.00     0.004 C 
BRANCH   6   7
HETATM    7  C6  UNL     1     -34.253   7.397   5.443  1.00 20.00     0.033 C 
BRANCH   7   8
HETATM    8  C3  UNL     1     -34.798   6.024   5.127  1.00 20.00    -0.093 C 
HETATM    9  C2  UNL     1     -35.635   5.822   4.097  1.00 20.00     0.014 C 
HETATM   10  C4  UNL     1     -34.334   4.887   5.991  1.00 20.00     0.042 C 
ENDBRANCH   7   8
ENDBRANCH   6   7
ENDBRANCH   5   6
ENDBRANCH   4   5
ENDBRANCH   2   4
TORSDOF 5
