REMARK  1 active torsions:
REMARK  status: ('A' for Active; 'I' for Inactive)
REMARK    1  A    between atoms: C3_3  and  C4_4 
ROOT
HETATM    1  C1  UNL     1     -32.636   6.278   2.928  1.00 20.00     0.087 C 
HETATM    2  C2  UNL     1     -33.359   5.055   2.962  1.00 20.00     0.093 C 
HETATM    3  C3  UNL     1     -34.318   4.835   3.872  1.00 20.00     0.011 C 
HETATM    4  N7  UNL     1     -32.044   7.276   2.897  1.00 20.00    -0.192 NA
ENDROOT
BRANCH   3   5
HETATM    5  C4  UNL     1     -34.690   5.806   4.876  1.00 20.00    -0.004 C 
HETATM    6  C5  UNL     1     -33.797   6.566   5.528  1.00 20.00    -0.031 C 
HETATM    7  C6  UNL     1     -34.168   7.574   6.566  1.00 20.00     0.036 C 
ENDBRANCH   3   5
TORSDOF 1
