REMARK  1 active torsions:
REMARK  status: ('A' for Active; 'I' for Inactive)
REMARK    1  A    between atoms: C3_3  and  C4_4 
ROOT
HETATM    1  C1  UNL     1     -34.353   6.041   6.166  1.00 20.00     0.087 C 
HETATM    2  C2  UNL     1     -33.685   7.218   5.731  1.00 20.00     0.093 C 
HETATM    3  C3  UNL     1     -33.188   7.323   4.491  1.00 20.00     0.011 C 
HETATM    4  N7  UNL     1     -34.900   5.082   6.523  1.00 20.00    -0.192 NA
ENDROOT
BRANCH   3   5
HETATM    5  C4  UNL     1     -33.290   6.266   3.510  1.00 20.00    -0.004 C 
HETATM    6  C5  UNL     1     -32.794   6.367   2.268  1.00 20.00    -0.031 C 
HETATM    7  C6  UNL     1     -32.084   7.577   1.756  1.00 20.00     0.036 C 
ENDBRANCH   3   5
TORSDOF 1
