REMARK  2 active torsions:
REMARK  status: ('A' for Active; 'I' for Inactive)
REMARK    1  A    between atoms: C1_1  and  C6_6 
REMARK    2  A    between atoms: C5_5  and  N7_7 
ROOT
HETATM    1  C1  UNL     1     -33.238   6.744   3.745  1.00 20.00     0.108 C 
HETATM    2  C2  UNL     1     -32.371   7.568   4.665  1.00 20.00     0.075 C 
HETATM    3  N7  UNL     1     -33.244   6.843   2.459  1.00 20.00    -0.285 NA
ENDROOT
BRANCH   1   4
HETATM    4  C6  UNL     1     -34.146   5.731   4.384  1.00 20.00     0.430 C 
HETATM    5  F8  UNL     1     -34.024   5.732   5.736  1.00 20.00    -0.165 F 
HETATM    6  F9  UNL     1     -33.894   4.463   3.970  1.00 20.00    -0.165 F 
HETATM    7  F10 UNL     1     -35.451   5.982   4.106  1.00 20.00    -0.165 F 
ENDBRANCH   1   4
BRANCH   3   8
HETATM    8  C5  UNL     1     -32.359   7.814   1.835  1.00 20.00     0.100 C 
HETATM    9  C3  UNL     1     -31.938   7.292   0.469  1.00 20.00     0.034 C 
HETATM   10  C4  UNL     1     -33.085   9.147   1.729  1.00 20.00     0.034 C 
ENDBRANCH   3   8
TORSDOF 2
