REMARK  1 active torsions:
REMARK  status: ('A' for Active; 'I' for Inactive)
REMARK    1  A    between atoms: C3_3  and  C5_5 
ROOT
HETATM    1  C1  UNL     1     -33.068   5.374   3.015  1.00 20.00     0.025 A 
HETATM    2  C2  UNL     1     -32.470   5.866   1.819  1.00 20.00     0.028 A 
HETATM    3  C3  UNL     1     -33.312   6.381   3.923  1.00 20.00     0.089 A 
HETATM    4  C4  UNL     1     -32.279   7.230   1.858  1.00 20.00     0.052 A 
HETATM    5  S9  UNL     1     -32.820   7.912   3.333  1.00 20.00    -0.078 SA
HETATM    6 BR10 UNL     1     -31.509   8.248   0.453  1.00 20.00    -0.043 Br
ENDROOT
BRANCH   3   7
HETATM    7  C5  UNL     1     -33.916   6.280   5.269  1.00 20.00     0.423 C 
HETATM    8  F6  UNL     1     -34.269   5.006   5.630  1.00 20.00    -0.166 F 
HETATM    9  F7  UNL     1     -33.100   6.712   6.282  1.00 20.00    -0.166 F 
HETATM   10  F8  UNL     1     -35.064   7.017   5.400  1.00 20.00    -0.166 F 
ENDBRANCH   3   7
TORSDOF 1
