REMARK  2 active torsions:
REMARK  status: ('A' for Active; 'I' for Inactive)
REMARK    1  A    between atoms: C1_1  and  N7_7 
REMARK    2  A    between atoms: N6_6  and  N8_8 
ROOT
HETATM    1  C1  UNL     1     -33.593   6.346   4.422  1.00 20.00     0.220 C 
HETATM    2  N6  UNL     1     -32.785   6.226   3.415  1.00 20.00    -0.195 NA
ENDROOT
BRANCH   1   3
HETATM    3  N7  UNL     1     -34.211   5.339   5.143  1.00 20.00    -0.383 N 
HETATM    4  C2  UNL     1     -35.099   5.648   6.254  1.00 20.00     0.150 C 
HETATM    5  C3  UNL     1     -33.803   3.949   4.997  1.00 20.00     0.150 C 
ENDBRANCH   1   3
BRANCH   2   6
HETATM    6  N8  UNL     1     -32.350   7.424   2.944  1.00 20.00    -0.216 NA
HETATM    7  C4  UNL     1     -31.116   7.924   3.565  1.00 20.00     0.138 C 
HETATM    8  C5  UNL     1     -32.194   7.456   1.487  1.00 20.00     0.138 C 
ENDBRANCH   2   6
TORSDOF 2
