REMARK  3 active torsions:
REMARK  status: ('A' for Active; 'I' for Inactive)
REMARK    1  A    between atoms: C1_1  and  C5_5 
REMARK    2  A    between atoms: C5_5  and  C6_6 
REMARK    3  A    between atoms: C5_5  and  O8_8 
ROOT
HETATM    1  C5  UNL     1     -33.849   6.867   4.831  1.00 20.00     0.186 C 
ENDROOT
BRANCH   1   2
HETATM    2  C1  UNL     1     -34.367   5.585   5.457  1.00 20.00     0.263 C 
HETATM    3  O7  UNL     1     -33.960   5.121   6.518  1.00 20.00    -0.304 OA
ENDBRANCH   1   2
BRANCH   1   4
HETATM    4  C6  UNL     1     -33.190   6.653   3.443  1.00 20.00    -0.019 C 
HETATM    5  C2  UNL     1     -33.918   7.465   2.356  1.00 20.00     0.017 C 
HETATM    6  C3  UNL     1     -33.281   5.158   3.065  1.00 20.00     0.017 C 
HETATM    7  C4  UNL     1     -31.702   7.051   3.459  1.00 20.00     0.017 C 
ENDBRANCH   1   4
BRANCH   1   8
HETATM    8  O8  UNL     1     -32.915   7.442   5.734  1.00 20.00    -0.388 OA
HETATM    9  H20 UNL     1     -33.395   7.616   6.560  1.00 20.00     0.210 HD
ENDBRANCH   1   8
TORSDOF 3
