REMARK  0 active torsions:
REMARK  status: ('A' for Active; 'I' for Inactive)
ROOT
HETATM    1  C1  UNL     1     -33.170   4.985   2.743  1.00 20.00     0.009 A 
HETATM    2  C2  UNL     1     -32.576   5.853   1.827  1.00 20.00     0.024 A 
HETATM    3  C3  UNL     1     -32.853   7.684   3.379  1.00 20.00     0.033 A 
HETATM    4  C4  UNL     1     -33.617   5.462   3.982  1.00 20.00    -0.048 A 
HETATM    5  C5  UNL     1     -33.441   6.818   4.311  1.00 20.00    -0.022 A 
HETATM    6  C6  UNL     1     -32.419   7.201   2.144  1.00 20.00     0.034 A 
HETATM    7  C7  UNL     1     -34.226   4.513   4.982  1.00 20.00     0.069 C 
HETATM    8  C8  UNL     1     -33.940   7.357   5.629  1.00 20.00     0.308 C 
HETATM    9  C9  UNL     1     -34.981   5.238   6.097  1.00 20.00     0.274 C 
HETATM   10  N10 UNL     1     -34.161   6.319   6.642  1.00 20.00     0.087 N 
HETATM   11 CL11 UNL     1     -31.690   8.272   1.010  1.00 20.00    -0.084 Cl
HETATM   12  H21 UNL     1     -33.261   5.943   6.940  1.00 20.00     0.316 HD
ENDROOT
TORSDOF 0
