REMARK  0 active torsions:
REMARK  status: ('A' for Active; 'I' for Inactive)
ROOT
HETATM    1  C1  UNL     1     -32.579   5.331   1.976  1.00 20.00     0.013 A 
HETATM    2  C2  UNL     1     -32.349   6.297   0.996  1.00 20.00     0.043 A 
HETATM    3  C3  UNL     1     -32.432   8.021   2.679  1.00 20.00     0.050 A 
HETATM    4  C4  UNL     1     -32.742   5.684   3.327  1.00 20.00    -0.020 A 
HETATM    5  C5  UNL     1     -32.659   7.056   3.671  1.00 20.00    -0.046 A 
HETATM    6  C6  UNL     1     -32.278   7.641   1.347  1.00 20.00     0.117 A 
HETATM    7  C7  UNL     1     -32.812   7.481   5.114  1.00 20.00     0.039 C 
HETATM    8  C8  UNL     1     -34.237   7.349   5.672  1.00 20.00     0.007 C 
HETATM    9  C9  UNL     1     -34.980   6.055   5.323  1.00 20.00     0.035 C 
HETATM   10  C10 UNL     1     -33.007   4.625   4.370  1.00 20.00     0.184 A 
HETATM   11  C11 UNL     1     -34.100   4.848   5.398  1.00 20.00     0.156 A 
HETATM   12  O12 UNL     1     -34.264   3.926   4.318  1.00 20.00    -0.370 OA
HETATM   13  F13 UNL     1     -32.059   8.570   0.407  1.00 20.00    -0.206 F 
ENDROOT
TORSDOF 0
