REMARK  0 active torsions:
REMARK  status: ('A' for Active; 'I' for Inactive)
ROOT
HETATM    1  C1  UNL     1     -34.761   5.638   6.059  1.00 20.00     0.184 C 
HETATM    2  C2  UNL     1     -33.377   7.080   5.571  1.00 20.00     0.184 C 
HETATM    3  C3  UNL     1     -34.339   6.250   4.724  1.00 20.00     0.101 C 
HETATM    4  O4  UNL     1     -34.005   6.629   6.795  1.00 20.00    -0.389 OA
HETATM    5  I5  UNL     1     -33.329   4.778   3.237  1.00 20.00    -0.080 I 
ENDROOT
TORSDOF 0
