REMARK  0 active torsions:
REMARK  status: ('A' for Active; 'I' for Inactive)
ROOT
HETATM    1  C1  UNL     1     -32.393   7.434   4.315  1.00 20.00     0.064 C 
HETATM    2  C2  UNL     1     -35.636   5.612   4.307  1.00 20.00     0.011 C 
HETATM    3  C3  UNL     1     -34.629   5.221   6.428  1.00 20.00     0.010 C 
HETATM    4  C4  UNL     1     -33.513   6.560   3.966  1.00 20.00     0.101 C 
HETATM    5  C5  UNL     1     -34.629   4.677   4.986  1.00 20.00    -0.009 C 
HETATM    6  C6  UNL     1     -34.848   6.879   4.676  1.00 20.00     0.007 C 
HETATM    7  C7  UNL     1     -34.836   6.734   6.222  1.00 20.00    -0.013 C 
HETATM    8  C8  UNL     1     -33.282   5.073   4.324  1.00 20.00     0.003 C 
HETATM    9  C9  UNL     1     -33.858   7.592   7.006  1.00 20.00     0.010 C 
HETATM   10  C10 UNL     1     -32.975   4.228   3.090  1.00 20.00     0.011 C 
HETATM   11  N11 UNL     1     -31.505   8.127   4.592  1.00 20.00    -0.197 NA
ENDROOT
TORSDOF 0
