REMARK  1 active torsions:
REMARK  status: ('A' for Active; 'I' for Inactive)
REMARK    1  A    between atoms: C2_2  and  C4_4 
ROOT
HETATM    1  C1  UNL     1     -33.956   5.688   6.008  1.00 20.00     0.146 C 
HETATM    2  C4  UNL     1     -34.350   5.660   4.600  1.00 20.00     0.388 C 
HETATM    3  N5  UNL     1     -33.645   5.708   7.126  1.00 20.00    -0.190 NA
HETATM    4  F9  UNL     1     -34.151   4.401   4.125  1.00 20.00    -0.181 F 
HETATM    5  F10 UNL     1     -35.691   5.880   4.529  1.00 20.00    -0.181 F 
ENDROOT
BRANCH   2   6
HETATM    6  C2  UNL     1     -33.562   6.647   3.803  1.00 20.00     0.247 C 
HETATM    7  C3  UNL     1     -32.769   6.343   2.770  1.00 20.00     0.308 C 
HETATM    8  F7  UNL     1     -32.093   7.305   2.108  1.00 20.00    -0.170 F 
HETATM    9  F8  UNL     1     -32.640   5.055   2.386  1.00 20.00    -0.170 F 
HETATM   10  F6  UNL     1     -33.632   7.949   4.170  1.00 20.00    -0.197 F 
ENDBRANCH   2   6
TORSDOF 1
