REMARK  1 active torsions:
REMARK  status: ('A' for Active; 'I' for Inactive)
REMARK    1  A    between atoms: C10_10  and  O11_11 
ROOT
HETATM    1  C1  UNL     1     -31.823   6.463   2.229  1.00 20.00    -0.030 C 
HETATM    2  C2  UNL     1     -32.440   5.274   2.416  1.00 20.00    -0.025 C 
HETATM    3  C3  UNL     1     -32.513   7.585   3.009  1.00 20.00     0.032 C 
HETATM    4  C4  UNL     1     -35.496   6.122   4.454  1.00 20.00     0.013 C 
HETATM    5  C5  UNL     1     -34.024   4.565   5.532  1.00 20.00     0.037 C 
HETATM    6  C6  UNL     1     -33.693   5.551   3.160  1.00 20.00     0.017 C 
HETATM    7  C7  UNL     1     -33.158   6.691   4.041  1.00 20.00     0.003 C 
HETATM    8  C8  UNL     1     -34.641   4.860   4.144  1.00 20.00    -0.004 C 
HETATM    9  C9  UNL     1     -34.311   6.912   5.040  1.00 20.00     0.020 C 
HETATM   10  C10 UNL     1     -34.032   5.952   6.231  1.00 20.00     0.123 C 
ENDROOT
BRANCH  10  11
HETATM   11  O11 UNL     1     -32.817   6.211   6.905  1.00 20.00    -0.395 OA
HETATM   12  H25 UNL     1     -32.704   5.513   7.573  1.00 20.00     0.210 HD
ENDBRANCH  10  11
TORSDOF 1
