REMARK  0 active torsions:
REMARK  status: ('A' for Active; 'I' for Inactive)
ROOT
HETATM    1  C1  UNL     1     -33.273   6.476   3.856  1.00 20.00     0.101 C 
HETATM    2  C2  UNL     1     -35.637   6.230   4.537  1.00 20.00     0.067 C 
HETATM    3  C3  UNL     1     -34.179   5.961   4.888  1.00 20.00     0.197 C 
HETATM    4  N4  UNL     1     -32.559   6.884   3.038  1.00 20.00    -0.194 NA
HETATM    5 CL5  UNL     1     -33.908   4.205   5.039  1.00 20.00    -0.085 Cl
HETATM    6 CL6  UNL     1     -33.772   6.758   6.431  1.00 20.00    -0.085 Cl
ENDROOT
TORSDOF 0
