REMARK  0 active torsions:
REMARK  status: ('A' for Active; 'I' for Inactive)
ROOT
HETATM    1  C1  UNL     1     -33.466   4.778   3.349  1.00 20.00     0.015 A 
HETATM    2  C2  UNL     1     -32.761   5.675   2.538  1.00 20.00     0.025 A 
HETATM    3  C3  UNL     1     -34.682   4.597   5.650  1.00 20.00     0.031 A 
HETATM    4  C4  UNL     1     -33.004   7.442   4.189  1.00 20.00     0.054 A 
HETATM    5  C5  UNL     1     -34.868   5.535   6.639  1.00 20.00     0.091 A 
HETATM    6  C6  UNL     1     -33.949   5.215   4.599  1.00 20.00    -0.008 A 
HETATM    7  C7  UNL     1     -33.707   6.535   4.989  1.00 20.00     0.045 A 
HETATM    8  C8  UNL     1     -32.535   6.986   2.954  1.00 20.00     0.036 A 
HETATM    9  C9  UNL     1     -34.263   7.922   7.007  1.00 20.00     0.155 C 
HETATM   10  N10 UNL     1     -34.276   6.700   6.231  1.00 20.00    -0.360 N 
HETATM   11 CL11 UNL     1     -31.664   8.065   1.929  1.00 20.00    -0.084 Cl
ENDROOT
TORSDOF 0
