REMARK  3 active torsions:
REMARK  status: ('A' for Active; 'I' for Inactive)
REMARK    1  A    between atoms: C1_1  and  C3_3 
REMARK    2  A    between atoms: C3_3  and  O9_9 
REMARK    3  A    between atoms: C7_7  and  O9_9 
ROOT
HETATM    1  C3  UNL     1     -33.039   6.729   3.550  1.00 20.00     0.282 C 
HETATM    2  O8  UNL     1     -32.993   5.660   2.961  1.00 20.00    -0.260 OA
ENDROOT
BRANCH   1   3
HETATM    3  C1  UNL     1     -32.106   7.859   3.349  1.00 20.00     0.077 C 
HETATM    4  C2  UNL     1     -31.999   8.431   2.143  1.00 20.00    -0.025 C 
HETATM    5  C4  UNL     1     -32.784   7.989   0.951  1.00 20.00     0.036 C 
ENDBRANCH   1   3
BRANCH   1   6
HETATM    6  O9  UNL     1     -33.938   7.102   4.499  1.00 20.00    -0.314 OA
BRANCH   6   7
HETATM    7  C7  UNL     1     -33.966   6.285   5.675  1.00 20.00     0.124 C 
HETATM    8  C5  UNL     1     -34.348   7.143   6.871  1.00 20.00     0.040 C 
HETATM    9  C6  UNL     1     -34.943   5.138   5.464  1.00 20.00     0.040 C 
ENDBRANCH   6   7
ENDBRANCH   1   6
TORSDOF 3
