REMARK  0 active torsions:
REMARK  status: ('A' for Active; 'I' for Inactive)
ROOT
HETATM    1  C1  UNL     1     -33.952   6.998   6.279  1.00 20.00     0.179 A 
HETATM    2  C2  UNL     1     -33.446   6.772   5.027  1.00 20.00    -0.007 A 
HETATM    3  C3  UNL     1     -33.983   5.515   4.668  1.00 20.00     0.070 A 
HETATM    4  C4  UNL     1     -32.532   7.557   4.164  1.00 20.00     0.043 C 
HETATM    5  C5  UNL     1     -33.733   4.853   3.363  1.00 20.00     0.062 C 
HETATM    6  C6  UNL     1     -32.569   7.038   2.713  1.00 20.00     0.005 C 
HETATM    7  C7  UNL     1     -32.533   5.499   2.644  1.00 20.00     0.006 C 
HETATM    8  N8  UNL     1     -34.767   5.006   5.621  1.00 20.00    -0.133 NA
HETATM    9  O9  UNL     1     -34.742   5.952   6.644  1.00 20.00    -0.225 OA
ENDROOT
TORSDOF 0
