REMARK  0 active torsions:
REMARK  status: ('A' for Active; 'I' for Inactive)
ROOT
HETATM    1  C1  UNL     1     -32.880   5.793   3.299  1.00 20.00     0.086 C 
HETATM    2  C2  UNL     1     -34.230   5.294   6.736  1.00 20.00     0.017 C 
HETATM    3  C3  UNL     1     -35.072   5.733   4.547  1.00 20.00     0.049 C 
HETATM    4  C4  UNL     1     -35.123   6.304   5.990  1.00 20.00     0.020 C 
HETATM    5  C5  UNL     1     -33.013   5.575   5.824  1.00 20.00     0.055 C 
HETATM    6  C6  UNL     1     -34.291   7.577   6.004  1.00 20.00     0.155 A 
HETATM    7  C7  UNL     1     -32.882   7.096   5.910  1.00 20.00     0.158 A 
HETATM    8  C8  UNL     1     -33.609   5.210   4.431  1.00 20.00     0.132 C 
HETATM    9  N9  UNL     1     -32.305   6.254   2.404  1.00 20.00    -0.195 NA
HETATM   10  O10 UNL     1     -33.370   7.753   7.085  1.00 20.00    -0.374 OA
HETATM   11 CL11 UNL     1     -33.588   3.434   4.179  1.00 20.00    -0.102 Cl
ENDROOT
TORSDOF 0
