REMARK  3 active torsions:
REMARK  status: ('A' for Active; 'I' for Inactive)
REMARK    1  A    between atoms: C3_3  and  C5_5 
REMARK    2  A    between atoms: C4_4  and  C6_6 
REMARK    3  A    between atoms: C5_5  and  C6_6 
ROOT
HETATM    1  C1  UNL     1     -32.859   7.765   3.370  1.00 20.00     0.087 C 
HETATM    2  C3  UNL     1     -33.166   6.933   4.481  1.00 20.00     0.093 C 
HETATM    3  N7  UNL     1     -32.605   8.441   2.462  1.00 20.00    -0.192 NA
ENDROOT
BRANCH   2   4
HETATM    4  C5  UNL     1     -34.059   7.305   5.408  1.00 20.00     0.011 C 
BRANCH   4   5
HETATM    5  C6  UNL     1     -34.396   6.484   6.551  1.00 20.00     0.011 C 
BRANCH   5   6
HETATM    6  C4  UNL     1     -34.538   5.153   6.477  1.00 20.00     0.093 C 
HETATM    7  C2  UNL     1     -34.364   4.455   5.252  1.00 20.00     0.087 C 
HETATM    8  N8  UNL     1     -34.222   3.881   4.253  1.00 20.00    -0.192 NA
ENDBRANCH   5   6
ENDBRANCH   4   5
ENDBRANCH   2   4
TORSDOF 3
