REMARK  3 active torsions:
REMARK  status: ('A' for Active; 'I' for Inactive)
REMARK    1  A    between atoms: C3_3  and  C8_8 
REMARK    2  A    between atoms: C7_7  and  C8_8 
REMARK    3  A    between atoms: N9_9  and  O10_10 
ROOT
HETATM    1  C1  UNL     1     -33.885   5.782   3.699  1.00 20.00     0.043 C 
HETATM    2  C4  UNL     1     -32.898   5.417   2.629  1.00 20.00     0.057 C 
HETATM    3  C5  UNL     1     -32.288   6.776   2.314  1.00 20.00     0.006 C 
HETATM    4  C6  UNL     1     -32.305   7.516   3.648  1.00 20.00     0.011 C 
HETATM    5  C7  UNL     1     -33.661   7.161   4.272  1.00 20.00     0.039 C 
HETATM    6  N9  UNL     1     -34.835   4.984   4.053  1.00 20.00    -0.145 NA
ENDROOT
BRANCH   5   7
HETATM    7  C8  UNL     1     -33.626   7.197   5.788  1.00 20.00     0.036 C 
BRANCH   7   8
HETATM    8  C3  UNL     1     -32.828   6.057   6.344  1.00 20.00    -0.036 C 
HETATM    9  C2  UNL     1     -33.315   5.149   7.196  1.00 20.00     0.007 C 
ENDBRANCH   7   8
ENDBRANCH   5   7
BRANCH   6  10
HETATM   10  O10 UNL     1     -35.577   5.604   5.060  1.00 20.00    -0.266 OA
HETATM   11  H23 UNL     1     -36.252   4.930   5.248  1.00 20.00     0.247 HD
ENDBRANCH   6  10
TORSDOF 3
