REMARK  3 active torsions:
REMARK  status: ('A' for Active; 'I' for Inactive)
REMARK    1  A    between atoms: C3_3  and  C6_6 
REMARK    2  A    between atoms: C4_4  and  C7_7 
REMARK    3  A    between atoms: C5_5  and  C8_8 
ROOT
HETATM    1  C1  UNL     1     -33.911   7.758   5.999  1.00 20.00     0.012 C 
HETATM    2  C2  UNL     1     -34.826   5.726   6.745  1.00 20.00     0.012 C 
HETATM    3  C3  UNL     1     -33.465   6.385   6.507  1.00 20.00    -0.005 C 
HETATM    4  C4  UNL     1     -34.616   7.174   4.780  1.00 20.00     0.022 C 
HETATM    5  C5  UNL     1     -35.225   5.820   5.277  1.00 20.00     0.022 C 
ENDROOT
BRANCH   3   6
HETATM    6  C6  UNL     1     -32.975   5.686   5.207  1.00 20.00     0.048 C 
HETATM    7  C7  UNL     1     -33.430   6.586   4.023  1.00 20.00     0.133 C 
HETATM    8  O9  UNL     1     -33.870   5.390   3.304  1.00 20.00    -0.379 OA
HETATM    9  C8  UNL     1     -34.191   4.897   4.643  1.00 20.00     0.133 C 
ENDBRANCH   3   6
TORSDOF 3
