REMARK  1 active torsions:
REMARK  status: ('A' for Active; 'I' for Inactive)
REMARK    1  A    between atoms: C10_10  and  O12_12 
ROOT
HETATM    1  C1  UNL     1     -33.105   5.399   6.773  1.00 20.00     0.005 C 
HETATM    2  C2  UNL     1     -33.122   6.892   6.418  1.00 20.00     0.005 C 
HETATM    3  C3  UNL     1     -33.561   4.277   3.951  1.00 20.00     0.008 C 
HETATM    4  C4  UNL     1     -32.703   5.434   3.454  1.00 20.00     0.033 C 
HETATM    5  C5  UNL     1     -35.348   6.151   6.702  1.00 20.00     0.010 C 
HETATM    6  C6  UNL     1     -34.500   4.924   6.336  1.00 20.00    -0.010 C 
HETATM    7  C7  UNL     1     -34.522   7.094   5.816  1.00 20.00    -0.007 C 
HETATM    8  C8  UNL     1     -34.667   4.904   4.798  1.00 20.00    -0.004 C 
HETATM    9  C9  UNL     1     -34.699   6.408   4.441  1.00 20.00     0.023 C 
HETATM   10  C10 UNL     1     -33.678   6.600   3.324  1.00 20.00     0.125 C 
ENDROOT
BRANCH  10  11
HETATM   11  O12 UNL     1     -33.034   7.855   3.387  1.00 20.00    -0.390 OA
HETATM   12  C11 UNL     1     -31.798   7.854   2.679  1.00 20.00     0.202 C 
ENDBRANCH  10  11
TORSDOF 1
