REMARK  3 active torsions:
REMARK  status: ('A' for Active; 'I' for Inactive)
REMARK    1  A    between atoms: C2_2  and  C7_7 
REMARK    2  A    between atoms: C3_3  and  C8_8 
REMARK    3  A    between atoms: C8_8  and  C9_9 
ROOT
HETATM    1  C1  UNL     1     -33.428   7.370   4.931  1.00 20.00     0.095 C 
HETATM    2  C2  UNL     1     -33.689   6.132   4.256  1.00 20.00     0.024 C 
HETATM    3  C3  UNL     1     -33.207   5.916   3.007  1.00 20.00    -0.067 C 
HETATM    4  C4  UNL     1     -33.435   4.641   2.223  1.00 20.00     0.044 C 
HETATM    5  N10 UNL     1     -33.224   8.366   5.490  1.00 20.00    -0.192 NA
ENDROOT
BRANCH   2   6
HETATM    6  C7  UNL     1     -34.557   5.140   5.009  1.00 20.00     0.046 C 
HETATM    7  C5  UNL     1     -34.949   5.653   6.389  1.00 20.00     0.011 C 
ENDBRANCH   2   6
BRANCH   3   8
HETATM    8  C8  UNL     1     -32.408   6.952   2.234  1.00 20.00     0.034 C 
BRANCH   8   9
HETATM    9  C9  UNL     1     -33.309   7.911   1.452  1.00 20.00    -0.000 C 
HETATM   10  C6  UNL     1     -32.490   8.924   0.665  1.00 20.00     0.005 C 
ENDBRANCH   8   9
ENDBRANCH   3   8
TORSDOF 3
