REMARK  0 active torsions:
REMARK  status: ('A' for Active; 'I' for Inactive)
ROOT
HETATM    1  C1  UNL     1     -33.765   4.768   3.873  1.00 20.00     0.096 C 
HETATM    2  C2  UNL     1     -34.149   5.705   4.736  1.00 20.00     0.096 C 
HETATM    3 CL3  UNL     1     -33.161   5.138   2.313  1.00 20.00    -0.096 Cl
HETATM    4 CL4  UNL     1     -34.754   5.334   6.295  1.00 20.00    -0.096 Cl
ENDROOT
TORSDOF 0
