REMARK  0 active torsions:
REMARK  status: ('A' for Active; 'I' for Inactive)
ROOT
HETATM    1  C1  UNL     1     -32.817   6.800   3.299  1.00 20.00     0.086 C 
HETATM    2  C2  UNL     1     -34.705   7.052   6.240  1.00 20.00    -0.025 C 
HETATM    3  C3  UNL     1     -33.371   6.919   6.190  1.00 20.00    -0.023 C 
HETATM    4  C4  UNL     1     -34.255   4.794   6.085  1.00 20.00     0.020 C 
HETATM    5  C5  UNL     1     -35.026   5.860   4.091  1.00 20.00     0.050 C 
HETATM    6  C6  UNL     1     -35.299   5.812   5.617  1.00 20.00     0.011 C 
HETATM    7  C7  UNL     1     -33.076   5.595   5.510  1.00 20.00     0.046 C 
HETATM    8  C8  UNL     1     -33.474   5.697   4.011  1.00 20.00     0.133 C 
HETATM    9  N9  UNL     1     -32.298   7.672   2.737  1.00 20.00    -0.195 NA
HETATM   10 CL10 UNL     1     -33.038   4.195   3.138  1.00 20.00    -0.102 Cl
ENDROOT
TORSDOF 0
