REMARK  0 active torsions:
REMARK  status: ('A' for Active; 'I' for Inactive)
ROOT
HETATM    1  C1  UNL     1     -33.611   4.865   2.881  1.00 20.00     0.014 A 
HETATM    2  C2  UNL     1     -33.026   5.629   1.950  1.00 20.00     0.075 A 
HETATM    3  C3  UNL     1     -33.819   5.343   4.232  1.00 20.00    -0.035 A 
HETATM    4  C4  UNL     1     -33.423   6.587   4.558  1.00 20.00     0.018 A 
HETATM    5  C5  UNL     1     -32.578   7.004   2.306  1.00 20.00     0.245 A 
HETATM    6  C6  UNL     1     -34.466   4.407   5.217  1.00 20.00     0.040 C 
HETATM    7  C7  UNL     1     -33.614   7.177   5.927  1.00 20.00     0.057 C 
HETATM    8  C8  UNL     1     -34.325   4.874   6.668  1.00 20.00     0.005 C 
HETATM    9  C9  UNL     1     -34.585   6.372   6.794  1.00 20.00     0.006 C 
HETATM   10  N10 UNL     1     -32.818   7.391   3.614  1.00 20.00    -0.327 N 
HETATM   11  O11 UNL     1     -32.037   7.718   1.465  1.00 20.00    -0.268 OA
HETATM   12  H22 UNL     1     -32.531   8.324   3.895  1.00 20.00     0.169 HD
ENDROOT
TORSDOF 0
