REMARK  5 active torsions:
REMARK  status: ('A' for Active; 'I' for Inactive)
REMARK    1  A    between atoms: C2_2  and  C4_4 
REMARK    2  A    between atoms: C4_4  and  C6_6 
REMARK    3  A    between atoms: C5_5  and  C6_6 
REMARK    4  A    between atoms: C5_5  and  C7_7 
REMARK    5  A    between atoms: C6_6  and  O8_8 
ROOT
HETATM    1  C6  UNL     1     -33.278   5.698   2.886  1.00 20.00     0.130 C 
ENDROOT
BRANCH   1   2
HETATM    2  C4  UNL     1     -32.280   6.865   2.858  1.00 20.00     0.065 C 
BRANCH   2   3
HETATM    3  C2  UNL     1     -32.228   7.577   1.524  1.00 20.00    -0.091 C 
HETATM    4  C1  UNL     1     -31.851   6.941   0.403  1.00 20.00     0.014 C 
HETATM    5  C3  UNL     1     -32.576   9.038   1.514  1.00 20.00     0.042 C 
ENDBRANCH   2   3
ENDBRANCH   1   2
BRANCH   1   6
HETATM    6  C5  UNL     1     -33.620   5.317   4.333  1.00 20.00     0.149 C 
BRANCH   6   7
HETATM    7  C7  UNL     1     -34.670   6.218   4.953  1.00 20.00     0.390 C 
HETATM    8  F9  UNL     1     -34.252   7.499   5.022  1.00 20.00    -0.171 F 
HETATM    9  F10 UNL     1     -35.803   6.198   4.216  1.00 20.00    -0.171 F 
HETATM   10  F11 UNL     1     -34.987   5.813   6.201  1.00 20.00    -0.171 F 
ENDBRANCH   6   7
ENDBRANCH   1   6
BRANCH   1  11
HETATM   11  O8  UNL     1     -32.679   4.584   2.227  1.00 20.00    -0.395 OA
HETATM   12  H22 UNL     1     -31.872   4.374   2.721  1.00 20.00     0.210 HD
ENDBRANCH   1  11
TORSDOF 5
