REMARK  1 active torsions:
REMARK  status: ('A' for Active; 'I' for Inactive)
REMARK    1  A    between atoms: C1_1  and  C3_3 
ROOT
HETATM    1  C2  UNL     1     -33.877   7.531   6.030  1.00 20.00     0.019 C 
HETATM    2  C3  UNL     1     -34.477   6.045   4.548  1.00 20.00     0.070 C 
HETATM    3  C4  UNL     1     -33.701   7.406   4.493  1.00 20.00    -0.036 C 
HETATM    4  C5  UNL     1     -34.328   6.049   6.108  1.00 20.00    -0.036 C 
HETATM    5  C7  UNL     1     -34.454   8.488   3.716  1.00 20.00     0.015 C 
HETATM    6  C8  UNL     1     -32.237   7.354   4.054  1.00 20.00     0.015 C 
HETATM    7  C9  UNL     1     -35.665   5.869   6.832  1.00 20.00     0.015 C 
HETATM    8  C10 UNL     1     -33.268   5.124   6.708  1.00 20.00     0.015 C 
ENDROOT
BRANCH   2   9
HETATM    9  C1  UNL     1     -33.947   4.850   3.750  1.00 20.00     0.128 C 
HETATM   10  C6  UNL     1     -33.329   5.150   2.411  1.00 20.00     0.091 C 
HETATM   11  O11 UNL     1     -34.020   3.701   4.184  1.00 20.00    -0.298 OA
ENDBRANCH   2   9
TORSDOF 1
