REMARK  4 active torsions:
REMARK  status: ('A' for Active; 'I' for Inactive)
REMARK    1  A    between atoms: C6_6  and  C7_7 
REMARK    2  A    between atoms: C7_7  and  C9_9 
REMARK    3  A    between atoms: C8_8  and  C9_9 
REMARK    4  A    between atoms: C8_8  and  C10_10 
ROOT
HETATM    1  C1  UNL     1     -34.338   6.685   6.153  1.00 20.00     0.068 C 
HETATM    2  C4  UNL     1     -33.220   4.593   5.474  1.00 20.00     0.031 C 
HETATM    3  C5  UNL     1     -35.612   5.024   4.903  1.00 20.00     0.031 C 
HETATM    4  C10 UNL     1     -34.224   5.682   5.070  1.00 20.00     0.042 C 
HETATM    5  N11 UNL     1     -34.438   7.467   7.005  1.00 20.00    -0.196 NA
ENDROOT
BRANCH   4   6
HETATM    6  C8  UNL     1     -33.843   6.356   3.721  1.00 20.00     0.028 C 
BRANCH   6   7
HETATM    7  C9  UNL     1     -32.345   6.619   3.415  1.00 20.00    -0.017 C 
HETATM    8  C3  UNL     1     -31.708   7.639   4.364  1.00 20.00     0.010 C 
BRANCH   7   9
HETATM    9  C7  UNL     1     -32.148   7.120   1.962  1.00 20.00     0.004 C 
BRANCH   9  10
HETATM   10  C6  UNL     1     -32.767   8.493   1.685  1.00 20.00    -0.004 C 
HETATM   11  C2  UNL     1     -32.514   8.936   0.252  1.00 20.00     0.005 C 
ENDBRANCH   9  10
ENDBRANCH   7   9
ENDBRANCH   6   7
ENDBRANCH   4   6
TORSDOF 4
