REMARK  3 active torsions:
REMARK  status: ('A' for Active; 'I' for Inactive)
REMARK    1  A    between atoms: C3_3  and  C8_8 
REMARK    2  A    between atoms: C8_8  and  C9_9 
REMARK    3  A    between atoms: C9_9  and  O11_11 
ROOT
HETATM    1  C1  UNL     1     -32.413   8.275   1.293  1.00 20.00     0.088 C 
HETATM    2  C2  UNL     1     -32.509   7.995   2.683  1.00 20.00     0.096 C 
HETATM    3  C3  UNL     1     -32.725   6.769   3.196  1.00 20.00    -0.071 C 
HETATM    4  C4  UNL     1     -32.857   5.518   2.366  1.00 20.00     0.044 C 
HETATM    5  N10 UNL     1     -32.334   8.512   0.160  1.00 20.00    -0.192 NA
ENDROOT
BRANCH   3   6
HETATM    6  C8  UNL     1     -32.801   6.582   4.704  1.00 20.00     0.071 C 
BRANCH   6   7
HETATM    7  C9  UNL     1     -34.192   6.788   5.347  1.00 20.00     0.056 C 
HETATM    8  C5  UNL     1     -34.453   8.290   5.518  1.00 20.00     0.046 C 
HETATM    9  C6  UNL     1     -35.323   6.153   4.534  1.00 20.00     0.046 C 
BRANCH   7  10
HETATM   10  O11 UNL     1     -34.184   6.210   6.654  1.00 20.00    -0.385 OA
HETATM   11  C7  UNL     1     -34.407   4.811   6.599  1.00 20.00     0.202 C 
ENDBRANCH   7  10
ENDBRANCH   6   7
ENDBRANCH   3   6
TORSDOF 3
