REMARK  3 active torsions:
REMARK  status: ('A' for Active; 'I' for Inactive)
REMARK    1  A    between atoms: C7_7  and  C9_9 
REMARK    2  A    between atoms: C8_8  and  C9_9 
REMARK    3  A    between atoms: C9_9  and  O11_11 
ROOT
HETATM    1  C1  UNL     1     -34.847   4.936   5.535  1.00 20.00     0.027 C 
HETATM    2  C2  UNL     1     -35.334   5.994   4.548  1.00 20.00     0.011 C 
HETATM    3  C5  UNL     1     -34.354   5.581   6.823  1.00 20.00     0.167 C 
HETATM    4  C6  UNL     1     -33.861   7.633   5.748  1.00 20.00     0.174 C 
HETATM    5  C8  UNL     1     -34.318   7.131   4.374  1.00 20.00     0.039 C 
HETATM    6  O10 UNL     1     -33.356   6.565   6.550  1.00 20.00    -0.391 OA
ENDROOT
BRANCH   5   7
HETATM    7  C9  UNL     1     -33.121   6.681   3.531  1.00 20.00     0.128 C 
BRANCH   7   8
HETATM    8  C7  UNL     1     -32.393   7.863   2.913  1.00 20.00     0.015 A 
HETATM    9  C3  UNL     1     -31.522   7.668   1.702  1.00 20.00     0.007 A 
HETATM   10  C4  UNL     1     -32.826   8.405   1.579  1.00 20.00     0.007 A 
ENDBRANCH   7   8
BRANCH   7  11
HETATM   11  O11 UNL     1     -33.578   5.816   2.499  1.00 20.00    -0.395 OA
HETATM   12  H27 UNL     1     -32.790   5.522   2.013  1.00 20.00     0.210 HD
ENDBRANCH   7  11
ENDBRANCH   5   7
TORSDOF 3
