REMARK  0 active torsions:
REMARK  status: ('A' for Active; 'I' for Inactive)
ROOT
HETATM    1  C1  UNL     1     -32.315   7.817   1.130  1.00 20.00     0.065 C 
HETATM    2  C2  UNL     1     -35.351   5.934   4.568  1.00 20.00     0.032 C 
HETATM    3  C3  UNL     1     -34.458   6.923   5.294  1.00 20.00     0.037 C 
HETATM    4  C4  UNL     1     -32.816   7.870   3.564  1.00 20.00     0.056 C 
HETATM    5  C5  UNL     1     -34.387   4.822   4.193  1.00 20.00     0.273 C 
HETATM    6  C6  UNL     1     -33.028   5.818   2.425  1.00 20.00     0.292 C 
HETATM    7  C7  UNL     1     -32.208   7.099   2.403  1.00 20.00     0.123 C 
HETATM    8  C8  UNL     1     -33.108   6.784   4.599  1.00 20.00     0.224 C 
HETATM    9  N9  UNL     1     -32.401   8.385   0.123  1.00 20.00    -0.197 NA
HETATM   10  N10 UNL     1     -33.129   5.499   3.857  1.00 20.00     0.094 N 
ENDROOT
TORSDOF 0
