REMARK  0 active torsions:
REMARK  status: ('A' for Active; 'I' for Inactive)
ROOT
HETATM    1  C1  UNL     1     -32.542   8.001   2.327  1.00 20.00     0.065 C 
HETATM    2  C2  UNL     1     -34.554   5.666   6.388  1.00 20.00     0.032 C 
HETATM    3  C3  UNL     1     -35.107   5.290   5.026  1.00 20.00     0.037 C 
HETATM    4  C4  UNL     1     -33.286   5.843   3.303  1.00 20.00     0.056 C 
HETATM    5  C5  UNL     1     -34.452   7.179   6.304  1.00 20.00     0.273 C 
HETATM    6  C6  UNL     1     -32.584   7.557   4.771  1.00 20.00     0.292 C 
HETATM    7  C7  UNL     1     -32.302   7.002   3.381  1.00 20.00     0.123 C 
HETATM    8  C8  UNL     1     -34.509   6.330   4.084  1.00 20.00     0.224 C 
HETATM    9  N9  UNL     1     -32.731   8.788   1.496  1.00 20.00    -0.197 NA
HETATM   10  N10 UNL     1     -34.046   7.462   4.922  1.00 20.00     0.094 N 
ENDROOT
TORSDOF 0
