REMARK  0 active torsions:
REMARK  status: ('A' for Active; 'I' for Inactive)
ROOT
HETATM    1  C1  UNL     1     -32.910   7.522   3.633  1.00 20.00     0.053 A 
HETATM    2  C2  UNL     1     -32.836   5.492   2.358  1.00 20.00     0.159 A 
HETATM    3  C3  UNL     1     -33.603   6.814   4.594  1.00 20.00    -0.030 A 
HETATM    4  C4  UNL     1     -32.519   6.846   2.480  1.00 20.00     0.134 A 
HETATM    5  C5  UNL     1     -33.868   5.465   4.381  1.00 20.00     0.040 A 
HETATM    6  C6  UNL     1     -34.109   7.265   5.923  1.00 20.00     0.041 C 
HETATM    7  C7  UNL     1     -34.579   4.871   5.562  1.00 20.00     0.060 C 
HETATM    8  C8  UNL     1     -35.100   6.137   6.258  1.00 20.00     0.011 C 
HETATM    9  N9  UNL     1     -33.503   4.771   3.290  1.00 20.00    -0.262 NA
HETATM   10  F10 UNL     1     -31.849   7.479   1.510  1.00 20.00    -0.205 F 
ENDROOT
TORSDOF 0
