REMARK  0 active torsions:
REMARK  status: ('A' for Active; 'I' for Inactive)
ROOT
HETATM    1  C1  UNL     1     -33.878   5.023   3.668  1.00 20.00     0.015 A 
HETATM    2  C2  UNL     1     -33.233   5.586   2.640  1.00 20.00     0.083 A 
HETATM    3  C3  UNL     1     -33.927   5.715   4.909  1.00 20.00    -0.028 A 
HETATM    4  C4  UNL     1     -33.334   6.901   5.026  1.00 20.00     0.063 A 
HETATM    5  C5  UNL     1     -32.575   6.913   2.781  1.00 20.00     0.287 A 
HETATM    6  C6  UNL     1     -34.572   5.289   6.177  1.00 20.00     0.041 C 
HETATM    7  C7  UNL     1     -33.465   7.494   6.378  1.00 20.00     0.066 C 
HETATM    8  C8  UNL     1     -34.530   6.582   7.010  1.00 20.00     0.011 C 
HETATM    9  O9  UNL     1     -31.990   7.417   1.827  1.00 20.00    -0.260 OA
HETATM   10  O10 UNL     1     -32.646   7.546   4.001  1.00 20.00    -0.279 OA
ENDROOT
TORSDOF 0
