REMARK  2 active torsions:
REMARK  status: ('A' for Active; 'I' for Inactive)
REMARK    1  A    between atoms: C1_1  and  N9_9 
REMARK    2  A    between atoms: C8_8  and  N9_9 
ROOT
HETATM    1  C2  UNL     1     -34.370   4.832   6.514  1.00 20.00     0.005 C 
HETATM    2  C3  UNL     1     -33.022   5.515   6.250  1.00 20.00     0.007 C 
HETATM    3  C4  UNL     1     -34.628   7.187   6.752  1.00 20.00     0.011 C 
HETATM    4  C5  UNL     1     -35.446   6.215   4.728  1.00 20.00     0.030 C 
HETATM    5  C6  UNL     1     -35.383   5.957   6.246  1.00 20.00    -0.012 C 
HETATM    6  C7  UNL     1     -33.430   6.942   5.830  1.00 20.00     0.009 C 
HETATM    7  C8  UNL     1     -34.120   6.946   4.450  1.00 20.00     0.088 C 
ENDROOT
BRANCH   7   8
HETATM    8  N9  UNL     1     -33.347   6.340   3.404  1.00 20.00    -0.363 N 
HETATM    9  H23 UNL     1     -33.439   5.335   3.258  1.00 20.00     0.162 HD
BRANCH   8  10
HETATM   10  C1  UNL     1     -32.484   7.042   2.584  1.00 20.00     0.348 C 
HETATM   11  O10 UNL     1     -32.243   8.242   2.607  1.00 20.00    -0.284 OA
ENDBRANCH   8  10
ENDBRANCH   7   8
TORSDOF 2
