REMARK  0 active torsions:
REMARK  status: ('A' for Active; 'I' for Inactive)
ROOT
HETATM    1  C1  UNL     1     -33.025   4.944   3.065  1.00 20.00    -0.023 C 
HETATM    2  C2  UNL     1     -32.971   6.279   2.974  1.00 20.00    -0.083 C 
HETATM    3  C3  UNL     1     -34.617   6.038   6.081  1.00 20.00     0.132 C 
HETATM    4  C4  UNL     1     -33.903   4.486   4.185  1.00 20.00     0.040 C 
HETATM    5  C5  UNL     1     -33.903   7.319   6.416  1.00 20.00     0.079 C 
HETATM    6  C6  UNL     1     -33.011   7.503   5.197  1.00 20.00     0.017 C 
HETATM    7  C7  UNL     1     -33.813   6.938   4.023  1.00 20.00     0.025 C 
HETATM    8  C8  UNL     1     -34.628   5.764   4.596  1.00 20.00     0.067 C 
HETATM    9  C9  UNL     1     -32.184   7.076   1.997  1.00 20.00     0.043 C 
HETATM   10  O10 UNL     1     -35.159   5.321   6.913  1.00 20.00    -0.298 OA
ENDROOT
TORSDOF 0
