REMARK  2 active torsions:
REMARK  status: ('A' for Active; 'I' for Inactive)
REMARK    1  A    between atoms: C7_7  and  C8_8 
REMARK    2  A    between atoms: C9_9  and  O10_10 
ROOT
HETATM    1  C1  UNL     1     -33.631   4.283   4.185  1.00 20.00     0.003 C 
HETATM    2  C2  UNL     1     -32.689   5.277   3.513  1.00 20.00     0.005 C 
HETATM    3  C5  UNL     1     -34.191   4.834   5.496  1.00 20.00     0.032 C 
HETATM    4  C6  UNL     1     -33.916   7.191   4.619  1.00 20.00     0.036 C 
HETATM    5  C8  UNL     1     -33.361   6.639   3.296  1.00 20.00    -0.008 C 
HETATM    6  C9  UNL     1     -34.853   6.198   5.311  1.00 20.00     0.118 C 
ENDROOT
BRANCH   5   7
HETATM    7  C7  UNL     1     -32.381   7.630   2.669  1.00 20.00    -0.010 A 
HETATM    8  C3  UNL     1     -32.185   7.662   1.179  1.00 20.00     0.005 A 
HETATM    9  C4  UNL     1     -32.891   8.796   1.869  1.00 20.00     0.005 A 
ENDBRANCH   5   7
BRANCH   6  10
HETATM   10  O10 UNL     1     -36.038   6.030   4.536  1.00 20.00    -0.396 OA
HETATM   11  H26 UNL     1     -36.610   5.426   5.035  1.00 20.00     0.210 HD
ENDBRANCH   6  10
TORSDOF 2
