REMARK  1 active torsions:
REMARK  status: ('A' for Active; 'I' for Inactive)
REMARK    1  A    between atoms: C2_2  and  C9_9 
ROOT
HETATM    1  C1  UNL     1     -32.728   7.588   3.822  1.00 20.00     0.053 C 
HETATM    2  C2  UNL     1     -33.582   6.679   4.319  1.00 20.00    -0.072 C 
HETATM    3  C3  UNL     1     -32.147   7.417   2.467  1.00 20.00     0.149 C 
HETATM    4  C4  UNL     1     -33.953   5.416   3.584  1.00 20.00     0.035 C 
HETATM    5  C5  UNL     1     -32.610   6.250   1.626  1.00 20.00     0.083 C 
HETATM    6  C6  UNL     1     -32.944   5.052   2.498  1.00 20.00     0.012 C 
HETATM    7  O10 UNL     1     -31.357   8.253   2.032  1.00 20.00    -0.293 OA
ENDROOT
BRANCH   2   8
HETATM    8  C9  UNL     1     -34.232   6.871   5.658  1.00 20.00     0.014 A 
HETATM    9  C7  UNL     1     -35.248   5.871   6.090  1.00 20.00     0.010 A 
HETATM   10  C8  UNL     1     -33.898   5.904   6.740  1.00 20.00     0.010 A 
ENDBRANCH   2   8
TORSDOF 1
