REMARK  2 active torsions:
REMARK  status: ('A' for Active; 'I' for Inactive)
REMARK    1  A    between atoms: C7_7  and  C8_8 
REMARK    2  A    between atoms: C9_9  and  O10_10 
ROOT
HETATM    1  C1  UNL     1     -32.745   5.064   2.411  1.00 20.00     0.003 C 
HETATM    2  C2  UNL     1     -33.459   4.685   3.707  1.00 20.00     0.005 C 
HETATM    3  C5  UNL     1     -31.809   6.249   2.613  1.00 20.00     0.032 C 
HETATM    4  C6  UNL     1     -33.249   7.068   4.518  1.00 20.00     0.036 C 
HETATM    5  C8  UNL     1     -34.200   5.881   4.320  1.00 20.00    -0.008 C 
HETATM    6  C9  UNL     1     -32.538   7.446   3.219  1.00 20.00     0.118 C 
ENDROOT
BRANCH   5   7
HETATM    7  C7  UNL     1     -34.858   5.490   5.641  1.00 20.00    -0.010 A 
HETATM    8  C3  UNL     1     -34.013   5.086   6.818  1.00 20.00     0.005 A 
HETATM    9  C4  UNL     1     -34.752   6.395   6.837  1.00 20.00     0.005 A 
ENDBRANCH   5   7
BRANCH   6  10
HETATM   10  O10 UNL     1     -31.587   8.474   3.475  1.00 20.00    -0.396 OA
HETATM   11  H26 UNL     1     -32.079   9.218   3.858  1.00 20.00     0.210 HD
ENDBRANCH   6  10
TORSDOF 2
