REMARK  1 active torsions:
REMARK  status: ('A' for Active; 'I' for Inactive)
REMARK    1  A    between atoms: C7_7  and  C8_8 
ROOT
HETATM    1  C1  UNL     1     -33.944   6.864   6.207  1.00 20.00     0.131 C 
HETATM    2  C2  UNL     1     -34.381   5.443   5.941  1.00 20.00     0.104 C 
HETATM    3  C3  UNL     1     -32.843   7.387   5.314  1.00 20.00     0.110 C 
HETATM    4  C6  UNL     1     -34.576   5.243   4.448  1.00 20.00     0.175 C 
HETATM    5  C8  UNL     1     -33.161   7.047   3.859  1.00 20.00     0.132 C 
HETATM    6  O9  UNL     1     -34.376   7.511   7.158  1.00 20.00    -0.298 OA
HETATM    7  O10 UNL     1     -33.407   5.640   3.728  1.00 20.00    -0.385 OA
ENDROOT
BRANCH   5   8
HETATM    8  C7  UNL     1     -32.023   7.418   2.954  1.00 20.00     0.015 A 
HETATM    9  C4  UNL     1     -32.274   7.702   1.499  1.00 20.00     0.007 A 
HETATM   10  C5  UNL     1     -31.899   8.821   2.429  1.00 20.00     0.007 A 
ENDBRANCH   5   8
TORSDOF 1
