REMARK  0 active torsions:
REMARK  status: ('A' for Active; 'I' for Inactive)
ROOT
HETATM    1  C1  UNL     1     -33.285   5.490   3.582  1.00 20.00     0.132 C 
HETATM    2  C2  UNL     1     -33.856   4.396   4.478  1.00 20.00     0.084 C 
HETATM    3  C3  UNL     1     -35.317   6.798   3.460  1.00 20.00     0.013 C 
HETATM    4  C4  UNL     1     -36.005   5.717   4.345  1.00 20.00     0.006 C 
HETATM    5  C5  UNL     1     -34.430   7.576   6.497  1.00 20.00     0.011 A 
HETATM    6  C6  UNL     1     -33.129   6.807   6.554  1.00 20.00     0.011 A 
HETATM    7  C7  UNL     1     -33.878   6.831   4.010  1.00 20.00     0.064 C 
HETATM    8  C8  UNL     1     -34.870   5.246   5.295  1.00 20.00     0.002 C 
HETATM    9  C9  UNL     1     -34.119   6.537   5.459  1.00 20.00    -0.026 A 
HETATM   10  O10 UNL     1     -32.509   5.316   2.657  1.00 20.00    -0.298 OA
ENDROOT
TORSDOF 0
