REMARK  0 active torsions:
REMARK  status: ('A' for Active; 'I' for Inactive)
ROOT
HETATM    1  C1  UNL     1     -32.668   7.321   4.652  1.00 20.00     0.136 C 
HETATM    2  C2  UNL     1     -34.494   7.803   6.411  1.00 20.00     0.018 A 
HETATM    3  C3  UNL     1     -32.864   5.289   2.887  1.00 20.00     0.018 A 
HETATM    4  C4  UNL     1     -35.709   5.006   5.197  1.00 20.00     0.011 A 
HETATM    5  C5  UNL     1     -33.089   7.367   6.085  1.00 20.00     0.060 A 
HETATM    6  C6  UNL     1     -33.366   6.367   3.784  1.00 20.00     0.060 A 
HETATM    7  C7  UNL     1     -34.044   6.419   6.806  1.00 20.00     0.002 A 
HETATM    8  C8  UNL     1     -33.162   4.941   4.302  1.00 20.00     0.002 A 
HETATM    9  C9  UNL     1     -34.730   5.119   6.333  1.00 20.00    -0.005 A 
HETATM   10  C10 UNL     1     -34.348   4.379   5.049  1.00 20.00    -0.005 A 
HETATM   11  O11 UNL     1     -31.806   8.071   4.216  1.00 20.00    -0.297 OA
ENDROOT
TORSDOF 0
