REMARK  0 active torsions:
REMARK  status: ('A' for Active; 'I' for Inactive)
ROOT
HETATM    1  C1  UNL     1     -34.198   5.979   6.478  1.00 20.00     0.005 C 
HETATM    2  C2  UNL     1     -35.561   7.252   4.818  1.00 20.00     0.005 C 
HETATM    3  C3  UNL     1     -34.549   4.663   5.762  1.00 20.00     0.008 C 
HETATM    4  C4  UNL     1     -35.918   5.939   4.096  1.00 20.00     0.008 C 
HETATM    5  C5  UNL     1     -33.123   6.836   4.378  1.00 20.00     0.045 C 
HETATM    6  C6  UNL     1     -33.041   5.232   2.304  1.00 20.00     0.207 A 
HETATM    7  C7  UNL     1     -34.169   7.146   5.472  1.00 20.00    -0.012 C 
HETATM    8  C8  UNL     1     -34.775   4.919   4.260  1.00 20.00     0.022 C 
HETATM    9  C9  UNL     1     -33.524   5.553   3.697  1.00 20.00     0.086 A 
HETATM   10  O10 UNL     1     -32.444   4.638   3.464  1.00 20.00    -0.375 OA
ENDROOT
TORSDOF 0
