REMARK  1 active torsions:
REMARK  status: ('A' for Active; 'I' for Inactive)
REMARK    1  A    between atoms: C5_5  and  C9_9 
ROOT
HETATM    1  C1  UNL     1     -33.594   5.012   3.367  1.00 20.00     0.133 C 
HETATM    2  C2  UNL     1     -33.251   5.879   2.172  1.00 20.00     0.093 C 
HETATM    3  C3  UNL     1     -34.309   5.672   4.541  1.00 20.00     0.065 C 
HETATM    4  C4  UNL     1     -32.360   7.057   2.554  1.00 20.00     0.050 C 
HETATM    5  C5  UNL     1     -33.498   6.870   5.066  1.00 20.00     0.058 C 
HETATM    6  C6  UNL     1     -35.760   5.967   4.160  1.00 20.00     0.019 C 
HETATM    7  C7  UNL     1     -31.997   7.889   1.328  1.00 20.00     0.022 C 
HETATM    8  O10 UNL     1     -33.359   3.803   3.363  1.00 20.00    -0.298 OA
HETATM    9  S11 UNL     1     -33.195   8.130   3.773  1.00 20.00    -0.159 SA
ENDROOT
BRANCH   5  10
HETATM   10  C9  UNL     1     -34.149   7.547   6.270  1.00 20.00     0.011 C 
HETATM   11  C8  UNL     1     -34.309   6.602   7.415  1.00 20.00     0.006 C 
ENDBRANCH   5  10
TORSDOF 1
