REMARK  2 active torsions:
REMARK  status: ('A' for Active; 'I' for Inactive)
REMARK    1  A    between atoms: C8_8  and  C9_9 
REMARK    2  A    between atoms: C9_9  and  N11_11 
ROOT
HETATM    1  C1  UNL     1     -34.196   4.903   4.215  1.00 20.00     0.096 C 
HETATM    2  C9  UNL     1     -34.353   6.363   4.164  1.00 20.00     0.332 C 
HETATM    3  N10 UNL     1     -34.074   3.750   4.253  1.00 20.00    -0.195 NA
ENDROOT
BRANCH   2   4
HETATM    4  C8  UNL     1     -34.569   6.938   5.558  1.00 20.00     0.033 A 
HETATM    5  C4  UNL     1     -34.942   6.036   6.701  1.00 20.00     0.008 A 
HETATM    6  C5  UNL     1     -33.577   6.663   6.653  1.00 20.00     0.008 A 
ENDBRANCH   2   4
BRANCH   2   7
HETATM    7  N11 UNL     1     -33.176   6.970   3.532  1.00 20.00     0.106 N 
HETATM    8  C6  UNL     1     -33.004   6.473   2.167  1.00 20.00     0.274 C 
HETATM    9  C2  UNL     1     -32.080   7.507   1.541  1.00 20.00     0.032 C 
HETATM   10  C3  UNL     1     -32.306   8.783   2.346  1.00 20.00     0.032 C 
HETATM   11  C7  UNL     1     -33.353   8.416   3.388  1.00 20.00     0.274 C 
ENDBRANCH   2   7
TORSDOF 2
