REMARK  0 active torsions:
REMARK  status: ('A' for Active; 'I' for Inactive)
ROOT
HETATM    1  C1  UNL     1     -33.589   5.130   3.408  1.00 20.00     0.064 C 
HETATM    2  C2  UNL     1     -34.115   4.690   5.793  1.00 20.00     0.045 C 
HETATM    3  C3  UNL     1     -34.705   6.905   4.756  1.00 20.00     0.056 C 
HETATM    4  C4  UNL     1     -32.966   5.401   6.494  1.00 20.00     0.170 C 
HETATM    5  C5  UNL     1     -34.533   5.402   4.505  1.00 20.00     0.097 C 
HETATM    6  C6  UNL     1     -33.580   7.555   5.593  1.00 20.00     0.055 C 
HETATM    7  C7  UNL     1     -32.304   7.822   4.781  1.00 20.00     0.045 C 
HETATM    8  C8  UNL     1     -34.082   8.907   6.128  1.00 20.00     0.045 C 
HETATM    9  N9  UNL     1     -32.845   4.916   2.544  1.00 20.00    -0.197 NA
HETATM   10  O10 UNL     1     -33.285   6.765   6.753  1.00 20.00    -0.381 OA
ENDROOT
TORSDOF 0
