REMARK  0 active torsions:
REMARK  status: ('A' for Active; 'I' for Inactive)
ROOT
HETATM    1  C1  UNL     1     -34.850   6.101   6.681  1.00 20.00     0.000 C 
HETATM    2  C2  UNL     1     -34.347   7.350   5.958  1.00 20.00     0.003 C 
HETATM    3  C3  UNL     1     -34.099   4.853   6.220  1.00 20.00     0.003 C 
HETATM    4  C4  UNL     1     -34.414   7.187   4.437  1.00 20.00     0.044 C 
HETATM    5  C5  UNL     1     -34.173   4.690   4.702  1.00 20.00     0.044 C 
HETATM    6  C6  UNL     1     -31.971   7.657   2.013  1.00 20.00     0.032 C 
HETATM    7  C7  UNL     1     -33.236   6.893   1.728  1.00 20.00     0.112 C 
HETATM    8  C8  UNL     1     -31.605   7.224   3.407  1.00 20.00     0.112 C 
HETATM    9  C9  UNL     1     -33.670   5.942   3.997  1.00 20.00     0.095 A 
HETATM   10  N10 UNL     1     -33.244   5.731   2.609  1.00 20.00    -0.223 NA
HETATM   11  N11 UNL     1     -32.248   5.936   3.641  1.00 20.00    -0.223 NA
ENDROOT
TORSDOF 0
