REMARK  0 active torsions:
REMARK  status: ('A' for Active; 'I' for Inactive)
ROOT
HETATM    1  C1  UNL     1     -34.809   5.577   6.034  1.00 20.00     0.032 C 
HETATM    2  C2  UNL     1     -32.549   6.347   2.426  1.00 20.00     0.032 C 
HETATM    3  C3  UNL     1     -34.192   4.570   5.084  1.00 20.00     0.109 C 
HETATM    4  C4  UNL     1     -34.142   6.868   5.606  1.00 20.00     0.109 C 
HETATM    5  C5  UNL     1     -32.907   5.008   3.037  1.00 20.00     0.109 C 
HETATM    6  C6  UNL     1     -32.862   7.307   3.556  1.00 20.00     0.109 C 
HETATM    7  N7  UNL     1     -34.093   5.315   3.832  1.00 20.00    -0.250 NA
HETATM    8  N8  UNL     1     -34.064   6.733   4.153  1.00 20.00    -0.250 NA
ENDROOT
TORSDOF 0
