REMARK  3 active torsions:
REMARK  status: ('A' for Active; 'I' for Inactive)
REMARK    1  A    between atoms: C6_6  and  C9_9 
REMARK    2  A    between atoms: C7_7  and  C9_9 
REMARK    3  A    between atoms: C8_8  and  O10_10 
ROOT
HETATM    1  C1  UNL     1     -33.816   5.228   3.841  1.00 20.00     0.003 C 
HETATM    2  C2  UNL     1     -32.356   5.469   3.460  1.00 20.00     0.007 C 
HETATM    3  C5  UNL     1     -34.400   6.593   4.220  1.00 20.00     0.032 C 
HETATM    4  C7  UNL     1     -32.249   6.969   3.174  1.00 20.00     0.015 C 
HETATM    5  C8  UNL     1     -33.228   7.570   4.185  1.00 20.00     0.122 C 
ENDROOT
BRANCH   4   6
HETATM    6  C9  UNL     1     -32.629   7.300   1.732  1.00 20.00     0.011 C 
BRANCH   6   7
HETATM    7  C6  UNL     1     -32.045   8.626   1.307  1.00 20.00    -0.014 A 
HETATM    8  C3  UNL     1     -32.620   9.365   0.130  1.00 20.00     0.005 A 
HETATM    9  C4  UNL     1     -32.819   9.898   1.522  1.00 20.00     0.005 A 
ENDBRANCH   6   7
ENDBRANCH   4   6
BRANCH   5  10
HETATM   10  O10 UNL     1     -32.629   7.603   5.478  1.00 20.00    -0.395 OA
HETATM   11  H26 UNL     1     -33.313   7.898   6.103  1.00 20.00     0.210 HD
ENDBRANCH   5  10
TORSDOF 3
