REMARK  1 active torsions:
REMARK  status: ('A' for Active; 'I' for Inactive)
REMARK    1  A    between atoms: N5_5  and  N6_6 
ROOT
HETATM    1  C1  UNL     1     -35.720   5.996   4.391  1.00 20.00     0.130 C 
HETATM    2  C2  UNL     1     -33.611   5.096   3.620  1.00 20.00     0.130 C 
HETATM    3  N5  UNL     1     -34.266   6.119   4.432  1.00 20.00    -0.259 NA
ENDROOT
BRANCH   3   4
HETATM    4  N6  UNL     1     -33.826   6.173   5.817  1.00 20.00    -0.259 NA
HETATM    5  C3  UNL     1     -34.233   4.951   6.503  1.00 20.00     0.130 C 
HETATM    6  C4  UNL     1     -34.241   7.369   6.546  1.00 20.00     0.130 C 
ENDBRANCH   3   4
TORSDOF 1
