REMARK  2 active torsions:
REMARK  status: ('A' for Active; 'I' for Inactive)
REMARK    1  A    between atoms: C6_6  and  N9_9 
REMARK    2  A    between atoms: C7_7  and  N9_9 
ROOT
HETATM    1  C1  UNL     1     -32.578   5.868   2.927  1.00 20.00     0.100 C 
HETATM    2  C4  UNL     1     -31.422   8.042   2.909  1.00 20.00     0.065 C 
HETATM    3  C5  UNL     1     -33.925   7.917   2.738  1.00 20.00     0.065 C 
HETATM    4  C7  UNL     1     -32.674   7.279   3.346  1.00 20.00     0.237 C 
HETATM    5  N8  UNL     1     -32.503   4.758   2.595  1.00 20.00    -0.195 NA
ENDROOT
BRANCH   4   6
HETATM    6  N9  UNL     1     -32.771   7.346   4.793  1.00 20.00     0.110 N 
HETATM    7  H23 UNL     1     -32.506   8.281   5.109  1.00 20.00     0.318 HD
BRANCH   6   8
HETATM    8  C6  UNL     1     -34.128   7.060   5.243  1.00 20.00     0.214 C 
HETATM    9  C2  UNL     1     -34.307   7.594   6.657  1.00 20.00     0.042 C 
HETATM   10  C3  UNL     1     -34.364   5.558   5.174  1.00 20.00     0.042 C 
ENDBRANCH   6   8
ENDBRANCH   4   6
TORSDOF 2
