REMARK  0 active torsions:
REMARK  status: ('A' for Active; 'I' for Inactive)
ROOT
HETATM    1  C1  UNL     1     -33.639   6.105   6.757  1.00 20.00    -0.029 A 
HETATM    2  C2  UNL     1     -33.641   7.066   5.827  1.00 20.00    -0.018 A 
HETATM    3  C3  UNL     1     -33.303   6.068   3.547  1.00 20.00     0.135 A 
HETATM    4  C4  UNL     1     -34.289   4.831   6.310  1.00 20.00     0.033 A 
HETATM    5  C5  UNL     1     -33.771   4.614   3.717  1.00 20.00     0.084 A 
HETATM    6  C6  UNL     1     -34.296   6.587   4.601  1.00 20.00     0.082 A 
HETATM    7  C7  UNL     1     -34.706   5.105   4.859  1.00 20.00     0.011 A 
HETATM    8  O8  UNL     1     -32.463   6.599   2.851  1.00 20.00    -0.297 OA
ENDROOT
TORSDOF 0
