REMARK  0 active torsions:
REMARK  status: ('A' for Active; 'I' for Inactive)
ROOT
HETATM    1  C1  UNL     1     -34.793   5.650   6.451  1.00 20.00     0.086 C 
HETATM    2  C2  UNL     1     -34.912   5.030   5.089  1.00 20.00     0.055 C 
HETATM    3  C3  UNL     1     -32.581   6.847   2.568  1.00 20.00     0.030 C 
HETATM    4  C4  UNL     1     -33.453   5.673   3.031  1.00 20.00     0.010 C 
HETATM    5  C5  UNL     1     -31.649   7.363   3.678  1.00 20.00     0.272 C 
HETATM    6  C6  UNL     1     -34.112   6.067   4.339  1.00 20.00     0.045 C 
HETATM    7  C7  UNL     1     -33.051   6.421   5.377  1.00 20.00     0.345 C 
HETATM    8  N8  UNL     1     -33.808   6.476   6.650  1.00 20.00    -0.270 NA
HETATM    9  N9  UNL     1     -32.350   7.629   4.945  1.00 20.00     0.108 N 
HETATM   10  H21 UNL     1     -31.668   7.895   5.655  1.00 20.00     0.318 HD
ENDROOT
TORSDOF 0
