REMARK  2 active torsions:
REMARK  status: ('A' for Active; 'I' for Inactive)
REMARK    1  A    between atoms: C2_2  and  C3_3 
REMARK    2  A    between atoms: C2_2  and  N4_4 
ROOT
HETATM    1  C1  UNL     1     -32.772   5.953   3.160  1.00 20.00     0.157 C 
HETATM    2  N4  UNL     1     -33.306   4.937   3.415  1.00 20.00    -0.267 NA
HETATM    3  S8  UNL     1     -32.049   7.322   2.788  1.00 20.00    -0.055 SA
ENDROOT
BRANCH   2   4
HETATM    4  C2  UNL     1     -33.623   4.745   4.830  1.00 20.00     0.267 C 
BRANCH   4   5
HETATM    5  C3  UNL     1     -34.561   5.835   5.281  1.00 20.00     0.405 C 
HETATM    6  F5  UNL     1     -33.987   7.048   5.124  1.00 20.00    -0.169 F 
HETATM    7  F6  UNL     1     -34.882   5.701   6.586  1.00 20.00    -0.169 F 
HETATM    8  F7  UNL     1     -35.706   5.828   4.565  1.00 20.00    -0.169 F 
ENDBRANCH   4   5
ENDBRANCH   2   4
TORSDOF 2
