REMARK  0 active torsions:
REMARK  status: ('A' for Active; 'I' for Inactive)
ROOT
HETATM    1  C1  UNL     1     -33.761   5.063   4.123  1.00 20.00     0.061 A 
HETATM    2  C2  UNL     1     -33.602   7.778   4.909  1.00 20.00     0.053 A 
HETATM    3  C3  UNL     1     -33.221   6.036   3.303  1.00 20.00     0.019 A 
HETATM    4  C4  UNL     1     -33.133   7.373   3.669  1.00 20.00    -0.041 A 
HETATM    5  C5  UNL     1     -34.234   5.469   5.371  1.00 20.00     0.155 A 
HETATM    6  C6  UNL     1     -34.155   6.816   5.761  1.00 20.00     0.155 A 
HETATM    7  C7  UNL     1     -32.661   5.893   1.968  1.00 20.00     0.160 A 
HETATM    8  C8  UNL     1     -32.511   8.226   2.611  1.00 20.00     0.047 A 
HETATM    9  C9  UNL     1     -32.194   7.241   1.472  1.00 20.00     0.088 A 
HETATM   10  O10 UNL     1     -32.590   4.839   1.364  1.00 20.00    -0.292 OA
HETATM   11  F11 UNL     1     -34.768   4.567   6.205  1.00 20.00    -0.203 F 
HETATM   12  F12 UNL     1     -34.614   7.184   6.965  1.00 20.00    -0.203 F 
ENDROOT
TORSDOF 0
