REMARK  0 active torsions:
REMARK  status: ('A' for Active; 'I' for Inactive)
ROOT
HETATM    1  C1  UNL     1     -32.586   8.726   3.915  1.00 20.00     0.012 A 
HETATM    2  C2  UNL     1     -32.480   9.111   2.578  1.00 20.00     0.024 A 
HETATM    3  C3  UNL     1     -32.796   6.817   1.878  1.00 20.00     0.031 A 
HETATM    4  C4  UNL     1     -32.802   7.385   4.251  1.00 20.00    -0.021 A 
HETATM    5  C5  UNL     1     -32.908   6.413   3.214  1.00 20.00    -0.048 A 
HETATM    6  C6  UNL     1     -32.587   8.160   1.564  1.00 20.00     0.034 A 
HETATM    7  C7  UNL     1     -33.087   4.930   3.553  1.00 20.00     0.039 C 
HETATM    8  C8  UNL     1     -34.379   4.510   4.305  1.00 20.00     0.007 C 
HETATM    9  C9  UNL     1     -34.502   4.988   5.775  1.00 20.00     0.035 C 
HETATM   10  C10 UNL     1     -32.956   6.906   5.657  1.00 20.00     0.184 A 
HETATM   11  C11 UNL     1     -34.430   6.463   5.776  1.00 20.00     0.156 A 
HETATM   12  O12 UNL     1     -33.821   7.314   6.717  1.00 20.00    -0.370 OA
HETATM   13 CL13 UNL     1     -32.453   8.646  -0.083  1.00 20.00    -0.084 Cl
ENDROOT
TORSDOF 0
