REMARK  0 active torsions:
REMARK  status: ('A' for Active; 'I' for Inactive)
ROOT
HETATM    1  C1  UNL     1     -33.154   4.653   2.805  1.00 20.00     0.009 A 
HETATM    2  C2  UNL     1     -32.554   5.554   1.925  1.00 20.00     0.019 A 
HETATM    3  C3  UNL     1     -33.130   7.422   3.376  1.00 20.00     0.029 A 
HETATM    4  C4  UNL     1     -33.735   5.152   3.959  1.00 20.00    -0.047 A 
HETATM    5  C5  UNL     1     -33.729   6.531   4.255  1.00 20.00    -0.019 A 
HETATM    6  C6  UNL     1     -32.542   6.929   2.208  1.00 20.00     0.011 A 
HETATM    7  C7  UNL     1     -34.430   4.360   5.045  1.00 20.00     0.074 A 
HETATM    8  C8  UNL     1     -34.414   6.791   5.554  1.00 20.00     0.185 A 
HETATM    9  C9  UNL     1     -34.904   5.428   6.012  1.00 20.00     0.160 A 
HETATM   10  O10 UNL     1     -33.894   6.142   6.726  1.00 20.00    -0.370 OA
HETATM   11 BR11 UNL     1     -31.719   8.125   0.997  1.00 20.00    -0.051 Br
ENDROOT
TORSDOF 0
