REMARK  0 active torsions:
REMARK  status: ('A' for Active; 'I' for Inactive)
ROOT
HETATM    1  C1  UNL     1     -33.719   5.423   3.050  1.00 20.00     0.009 A 
HETATM    2  C2  UNL     1     -32.949   6.275   2.256  1.00 20.00     0.024 A 
HETATM    3  C3  UNL     1     -32.362   7.624   4.195  1.00 20.00     0.034 A 
HETATM    4  C4  UNL     1     -33.797   5.686   4.408  1.00 20.00    -0.047 A 
HETATM    5  C5  UNL     1     -33.125   6.781   4.991  1.00 20.00    -0.019 A 
HETATM    6  C6  UNL     1     -32.276   7.367   2.825  1.00 20.00     0.034 A 
HETATM    7  C7  UNL     1     -34.572   4.903   5.445  1.00 20.00     0.074 A 
HETATM    8  C8  UNL     1     -33.382   6.833   6.459  1.00 20.00     0.185 A 
HETATM    9  C9  UNL     1     -34.242   5.612   6.743  1.00 20.00     0.160 A 
HETATM   10  O10 UNL     1     -34.747   6.940   6.896  1.00 20.00    -0.370 OA
HETATM   11 CL11 UNL     1     -31.334   8.402   1.820  1.00 20.00    -0.084 Cl
ENDROOT
TORSDOF 0
