REMARK  1 active torsions:
REMARK  status: ('A' for Active; 'I' for Inactive)
REMARK    1  A    between atoms: C3_3  and  C8_8 
ROOT
HETATM    1  C1  UNL     1     -32.925   4.951   2.894  1.00 20.00     0.058 A 
HETATM    2  C2  UNL     1     -33.256   6.510   4.548  1.00 20.00    -0.037 A 
HETATM    3  C3  UNL     1     -32.692   6.261   3.281  1.00 20.00    -0.031 A 
HETATM    4  C4  UNL     1     -33.880   5.407   5.064  1.00 20.00    -0.011 A 
HETATM    5  C5  UNL     1     -33.352   7.664   5.474  1.00 20.00     0.040 C 
HETATM    6  C6  UNL     1     -34.488   5.626   6.396  1.00 20.00     0.047 C 
HETATM    7  C7  UNL     1     -33.836   6.987   6.796  1.00 20.00     0.010 C 
HETATM    8  S9  UNL     1     -33.821   4.059   4.076  1.00 20.00    -0.105 SA
ENDROOT
BRANCH   3   9
HETATM    9  C8  UNL     1     -31.955   7.255   2.470  1.00 20.00     0.154 C 
HETATM   10 CL10 UNL     1     -32.953   7.845   1.117  1.00 20.00    -0.126 Cl
ENDBRANCH   3   9
TORSDOF 1
