REMARK  0 active torsions:
REMARK  status: ('A' for Active; 'I' for Inactive)
ROOT
HETATM    1  C1  UNL     1     -33.223   5.252   2.154  1.00 20.00     0.012 A 
HETATM    2  C2  UNL     1     -32.464   6.073   1.318  1.00 20.00     0.024 A 
HETATM    3  C3  UNL     1     -32.532   7.784   2.993  1.00 20.00     0.031 A 
HETATM    4  C4  UNL     1     -33.663   5.660   3.437  1.00 20.00    -0.021 A 
HETATM    5  C5  UNL     1     -33.290   6.957   3.852  1.00 20.00    -0.048 A 
HETATM    6  C6  UNL     1     -32.119   7.345   1.739  1.00 20.00     0.034 A 
HETATM    7  C7  UNL     1     -33.685   7.536   5.188  1.00 20.00     0.039 C 
HETATM    8  C8  UNL     1     -33.325   6.631   6.361  1.00 20.00     0.007 C 
HETATM    9  C9  UNL     1     -34.454   5.686   6.730  1.00 20.00     0.035 C 
HETATM   10  C10 UNL     1     -34.505   4.676   4.219  1.00 20.00     0.184 A 
HETATM   11  C11 UNL     1     -34.801   4.667   5.701  1.00 20.00     0.156 A 
HETATM   12  O12 UNL     1     -35.756   5.149   4.738  1.00 20.00    -0.370 OA
HETATM   13 CL13 UNL     1     -31.189   8.375   0.725  1.00 20.00    -0.084 Cl
ENDROOT
TORSDOF 0
