REMARK  3 active torsions:
REMARK  status: ('A' for Active; 'I' for Inactive)
REMARK    1  A    between atoms: C5_5  and  C8_8 
REMARK    2  A    between atoms: C7_7  and  N9_9 
REMARK    3  A    between atoms: C8_8  and  N9_9 
ROOT
HETATM    1  C1  UNL     1     -32.488   8.052   1.119  1.00 20.00     0.013 C 
HETATM    2  C2  UNL     1     -32.364   7.229   1.984  1.00 20.00    -0.087 C 
HETATM    3  C7  UNL     1     -32.208   6.227   3.041  1.00 20.00     0.362 C 
ENDROOT
BRANCH   3   4
HETATM    4  N9  UNL     1     -33.456   5.532   3.276  1.00 20.00     0.098 N 
HETATM    5  H22 UNL     1     -33.287   4.652   3.743  1.00 20.00     0.317 HD
BRANCH   4   6
HETATM    6  C8  UNL     1     -34.333   6.349   4.149  1.00 20.00     0.221 C 
HETATM    7  C6  UNL     1     -35.778   5.919   3.937  1.00 20.00     0.043 C 
BRANCH   6   8
HETATM    8  C5  UNL     1     -33.900   6.171   5.597  1.00 20.00     0.018 A 
HETATM    9  C3  UNL     1     -34.253   7.208   6.627  1.00 20.00     0.007 A 
HETATM   10  C4  UNL     1     -34.918   5.860   6.659  1.00 20.00     0.007 A 
ENDBRANCH   6   8
ENDBRANCH   4   6
ENDBRANCH   3   4
TORSDOF 3
