REMARK  1 active torsions:
REMARK  status: ('A' for Active; 'I' for Inactive)
REMARK    1  A    between atoms: C1_1  and  C8_8 
ROOT
HETATM    1  C1  UNL     1     -33.518   6.340   4.477  1.00 20.00     0.014 C 
HETATM    2  C2  UNL     1     -33.159   5.537   3.267  1.00 20.00     0.057 C 
HETATM    3  C3  UNL     1     -32.515   6.623   2.440  1.00 20.00     0.027 C 
HETATM    4  C4  UNL     1     -31.968   7.567   3.496  1.00 20.00     0.149 C 
HETATM    5  N9  UNL     1     -32.893   7.466   4.643  1.00 20.00    -0.298 NA
ENDROOT
BRANCH   1   6
HETATM    6  C8  UNL     1     -34.523   5.831   5.457  1.00 20.00    -0.011 C 
HETATM    7  C5  UNL     1     -34.030   4.498   6.034  1.00 20.00     0.021 C 
HETATM    8  C6  UNL     1     -35.870   5.622   4.750  1.00 20.00     0.021 C 
HETATM    9  C7  UNL     1     -34.698   6.851   6.591  1.00 20.00     0.021 C 
ENDBRANCH   1   6
TORSDOF 1
