REMARK  3 active torsions:
REMARK  status: ('A' for Active; 'I' for Inactive)
REMARK    1  A    between atoms: C2_2  and  C6_6 
REMARK    2  A    between atoms: C6_6  and  S9_9 
REMARK    3  A    between atoms: C7_7  and  S9_9 
ROOT
HETATM    1  S9  UNL     1     -32.850   7.119   4.485  1.00 20.00    -0.158 SA
ENDROOT
BRANCH   1   2
HETATM    2  C6  UNL     1     -33.126   7.190   2.703  1.00 20.00     0.108 C 
BRANCH   2   3
HETATM    3  C2  UNL     1     -32.174   8.178   2.056  1.00 20.00     0.154 A 
HETATM    4  C1  UNL     1     -32.464   8.769   0.705  1.00 20.00     0.201 A 
HETATM    5  O8  UNL     1     -32.695   9.504   1.917  1.00 20.00    -0.380 OA
ENDBRANCH   2   3
ENDBRANCH   1   2
BRANCH   1   6
HETATM    6  C7  UNL     1     -34.136   5.872   4.884  1.00 20.00    -0.003 C 
HETATM    7  C3  UNL     1     -33.821   4.581   4.122  1.00 20.00     0.026 C 
HETATM    8  C4  UNL     1     -34.110   5.617   6.394  1.00 20.00     0.026 C 
HETATM    9  C5  UNL     1     -35.501   6.421   4.461  1.00 20.00     0.026 C 
ENDBRANCH   1   6
TORSDOF 3
