REMARK  5 active torsions:
REMARK  status: ('A' for Active; 'I' for Inactive)
REMARK    1  A    between atoms: C3_3  and  C5_5 
REMARK    2  A    between atoms: C4_4  and  C6_6 
REMARK    3  A    between atoms: C5_5  and  C7_7 
REMARK    4  A    between atoms: C6_6  and  S9_9 
REMARK    5  A    between atoms: C7_7  and  S9_9 
ROOT
HETATM    1  C1  UNL     1     -33.896   6.177   5.900  1.00 20.00     0.059 C 
HETATM    2  C3  UNL     1     -34.542   5.180   5.037  1.00 20.00     0.124 C 
HETATM    3  N8  UNL     1     -33.386   6.965   6.583  1.00 20.00    -0.197 NA
ENDROOT
BRANCH   2   4
HETATM    4  C5  UNL     1     -34.361   5.530   3.559  1.00 20.00     0.024 C 
BRANCH   4   5
HETATM    5  C7  UNL     1     -32.883   5.544   3.179  1.00 20.00     0.075 C 
BRANCH   5   6
HETATM    6  S9  UNL     1     -32.675   5.969   1.425  1.00 20.00    -0.169 SA
BRANCH   6   7
HETATM    7  C6  UNL     1     -32.860   7.761   1.566  1.00 20.00     0.073 C 
BRANCH   7   8
HETATM    8  C4  UNL     1     -32.728   8.421   0.198  1.00 20.00     0.006 C 
HETATM    9  C2  UNL     1     -32.885   9.931   0.300  1.00 20.00     0.006 C 
ENDBRANCH   7   8
ENDBRANCH   6   7
ENDBRANCH   5   6
ENDBRANCH   4   5
ENDBRANCH   2   4
TORSDOF 5
