REMARK  0 active torsions:
REMARK  status: ('A' for Active; 'I' for Inactive)
ROOT
HETATM    1  C1  UNL     1     -33.146   5.128   2.497  1.00 20.00     0.010 A 
HETATM    2  C2  UNL     1     -32.410   6.048   1.742  1.00 20.00     0.019 A 
HETATM    3  C3  UNL     1     -32.812   7.793   3.385  1.00 20.00     0.034 A 
HETATM    4  C4  UNL     1     -33.534   6.861   4.109  1.00 20.00     0.018 A 
HETATM    5  C5  UNL     1     -33.708   5.545   3.695  1.00 20.00    -0.040 A 
HETATM    6  C6  UNL     1     -32.244   7.370   2.184  1.00 20.00     0.011 A 
HETATM    7  C7  UNL     1     -34.229   7.040   5.373  1.00 20.00     0.160 A 
HETATM    8  C8  UNL     1     -34.910   5.750   5.761  1.00 20.00     0.093 A 
HETATM    9  C9  UNL     1     -34.529   4.735   4.657  1.00 20.00     0.023 A 
HETATM   10  C10 UNL     1     -33.762   3.544   5.222  1.00 20.00     0.015 C 
HETATM   11  O11 UNL     1     -34.253   8.084   5.999  1.00 20.00    -0.292 OA
HETATM   12 BR12 UNL     1     -31.244   8.588   1.138  1.00 20.00    -0.051 Br
ENDROOT
TORSDOF 0
