REMARK  0 active torsions:
REMARK  status: ('A' for Active; 'I' for Inactive)
ROOT
HETATM    1  C1  UNL     1     -33.181   8.540   3.622  1.00 20.00     0.010 A 
HETATM    2  C2  UNL     1     -32.583   8.648   2.362  1.00 20.00     0.019 A 
HETATM    3  C3  UNL     1     -32.614   6.234   2.086  1.00 20.00     0.034 A 
HETATM    4  C4  UNL     1     -33.205   6.159   3.334  1.00 20.00     0.018 A 
HETATM    5  C5  UNL     1     -33.488   7.278   4.109  1.00 20.00    -0.040 A 
HETATM    6  C6  UNL     1     -32.301   7.503   1.600  1.00 20.00     0.011 A 
HETATM    7  C7  UNL     1     -33.635   4.976   4.061  1.00 20.00     0.160 A 
HETATM    8  C8  UNL     1     -34.261   5.389   5.371  1.00 20.00     0.093 A 
HETATM    9  C9  UNL     1     -34.126   6.929   5.424  1.00 20.00     0.023 A 
HETATM   10  C10 UNL     1     -33.293   7.385   6.617  1.00 20.00     0.015 C 
HETATM   11  O11 UNL     1     -33.511   3.837   3.649  1.00 20.00    -0.292 OA
HETATM   12 BR12 UNL     1     -31.492   7.685  -0.100  1.00 20.00    -0.051 Br
ENDROOT
TORSDOF 0
