REMARK  0 active torsions:
REMARK  status: ('A' for Active; 'I' for Inactive)
ROOT
HETATM    1  C1  UNL     1     -32.890   7.698   3.997  1.00 20.00     0.033 A 
HETATM    2  C2  UNL     1     -33.077   5.720   2.595  1.00 20.00     0.033 A 
HETATM    3  C3  UNL     1     -33.500   6.984   5.013  1.00 20.00    -0.028 A 
HETATM    4  C4  UNL     1     -33.684   5.008   3.634  1.00 20.00    -0.033 A 
HETATM    5  C5  UNL     1     -33.909   5.660   4.834  1.00 20.00     0.040 A 
HETATM    6  C6  UNL     1     -32.686   7.056   2.774  1.00 20.00     0.035 A 
HETATM    7  C7  UNL     1     -33.782   7.402   6.418  1.00 20.00     0.060 C 
HETATM    8  C8  UNL     1     -34.654   6.230   6.919  1.00 20.00     0.124 C 
HETATM    9  C9  UNL     1     -34.074   3.584   3.434  1.00 20.00     0.050 C 
HETATM   10  N10 UNL     1     -34.444   5.117   6.001  1.00 20.00    -0.389 N 
HETATM   11 CL11 UNL     1     -31.934   7.906   1.479  1.00 20.00    -0.084 Cl
HETATM   12  H21 UNL     1     -35.028   4.293   5.992  1.00 20.00     0.159 HD
ENDROOT
TORSDOF 0
