REMARK  2 active torsions:
REMARK  status: ('A' for Active; 'I' for Inactive)
REMARK    1  A    between atoms: C2_2  and  C8_8 
REMARK    2  A    between atoms: C8_8  and  N9_9 
ROOT
HETATM    1  C3  UNL     1     -34.943   5.679   6.748  1.00 20.00     0.003 C 
HETATM    2  C4  UNL     1     -34.045   6.896   6.555  1.00 20.00     0.030 C 
HETATM    3  C5  UNL     1     -34.579   4.585   5.751  1.00 20.00     0.030 C 
HETATM    4  C6  UNL     1     -34.042   7.359   5.097  1.00 20.00     0.273 C 
HETATM    5  C7  UNL     1     -34.559   5.121   4.319  1.00 20.00     0.273 C 
HETATM    6  N9  UNL     1     -33.648   6.268   4.195  1.00 20.00     0.093 N 
ENDROOT
BRANCH   6   7
HETATM    7  C8  UNL     1     -33.604   6.739   2.811  1.00 20.00     0.317 C 
BRANCH   7   8
HETATM    8  C2  UNL     1     -32.340   7.488   2.494  1.00 20.00     0.007 C 
HETATM    9  C1  UNL     1     -31.389   7.739   3.404  1.00 20.00     0.029 C 
HETATM   10 BR10 UNL     1     -32.130   7.999   0.703  1.00 20.00    -0.055 Br
ENDBRANCH   7   8
ENDBRANCH   6   7
TORSDOF 2
