REMARK  1 active torsions:
REMARK  status: ('A' for Active; 'I' for Inactive)
REMARK    1  A    between atoms: C1_1  and  C6_6 
ROOT
HETATM    1  C2  UNL     1     -34.586   6.309   6.843  1.00 20.00     0.005 C 
HETATM    2  C3  UNL     1     -33.402   7.194   6.424  1.00 20.00     0.006 C 
HETATM    3  C4  UNL     1     -34.253   4.859   4.823  1.00 20.00     0.018 C 
HETATM    4  C5  UNL     1     -34.967   7.122   4.641  1.00 20.00     0.010 C 
HETATM    5  C6  UNL     1     -33.032   5.715   4.446  1.00 20.00     0.076 C 
HETATM    6  C7  UNL     1     -35.193   5.878   5.495  1.00 20.00    -0.013 C 
HETATM    7  C8  UNL     1     -33.455   7.132   4.887  1.00 20.00    -0.002 C 
ENDROOT
BRANCH   5   8
HETATM    8  C1  UNL     1     -32.747   5.652   2.977  1.00 20.00     0.223 C 
HETATM    9  O9  UNL     1     -32.980   4.644   2.317  1.00 20.00    -0.279 OA
HETATM   10 CL10 UNL     1     -32.073   7.137   2.378  1.00 20.00    -0.043 Cl
ENDBRANCH   5   8
TORSDOF 1
