REMARK  3 active torsions:
REMARK  status: ('A' for Active; 'I' for Inactive)
REMARK    1  A    between atoms: C5_5  and  N9_9 
REMARK    2  A    between atoms: C6_6  and  C7_7 
REMARK    3  A    between atoms: C7_7  and  N9_9 
ROOT
HETATM    1  C1  UNL     1     -32.527   6.887   2.299  1.00 20.00     0.089 C 
HETATM    2  C5  UNL     1     -32.306   7.909   3.320  1.00 20.00     0.393 C 
HETATM    3  N8  UNL     1     -32.702   6.078   1.485  1.00 20.00    -0.195 NA
ENDROOT
BRANCH   2   4
HETATM    4  N9  UNL     1     -32.542   7.369   4.655  1.00 20.00     0.100 N 
HETATM    5  H23 UNL     1     -32.075   7.966   5.341  1.00 20.00     0.317 HD
BRANCH   4   6
HETATM    6  C7  UNL     1     -33.959   7.304   4.952  1.00 20.00     0.221 C 
HETATM    7  C4  UNL     1     -34.146   7.212   6.465  1.00 20.00     0.043 C 
BRANCH   6   8
HETATM    8  C6  UNL     1     -34.633   6.142   4.187  1.00 20.00     0.010 C 
HETATM    9  C2  UNL     1     -34.088   4.758   4.554  1.00 20.00     0.011 C 
HETATM   10  C3  UNL     1     -36.155   6.165   4.369  1.00 20.00     0.011 C 
ENDBRANCH   6   8
ENDBRANCH   4   6
ENDBRANCH   2   4
TORSDOF 3
