REMARK  1 active torsions:
REMARK  status: ('A' for Active; 'I' for Inactive)
REMARK    1  A    between atoms: C1_1  and  C6_6 
ROOT
HETATM    1  C2  UNL     1     -34.752   5.018   5.446  1.00 20.00     0.027 C 
HETATM    2  C3  UNL     1     -33.855   5.538   4.327  1.00 20.00     0.015 C 
HETATM    3  C4  UNL     1     -34.401   5.683   6.770  1.00 20.00     0.167 C 
HETATM    4  C5  UNL     1     -33.552   7.618   5.697  1.00 20.00     0.179 C 
HETATM    5  C6  UNL     1     -33.857   7.061   4.314  1.00 20.00     0.071 C 
HETATM    6  O8  UNL     1     -34.476   7.105   6.658  1.00 20.00    -0.390 OA
ENDROOT
BRANCH   5   7
HETATM    7  C1  UNL     1     -32.775   7.533   3.364  1.00 20.00     0.237 C 
HETATM    8  O7  UNL     1     -32.416   6.896   2.379  1.00 20.00    -0.306 OA
ENDBRANCH   5   7
TORSDOF 1
