REMARK  1 active torsions:
REMARK  status: ('A' for Active; 'I' for Inactive)
REMARK    1  A    between atoms: C1_1  and  C5_5 
ROOT
HETATM    1  C2  UNL     1     -34.512   5.095   6.332  1.00 20.00     0.193 C 
HETATM    2  C3  UNL     1     -34.318   6.546   6.742  1.00 20.00     0.195 C 
HETATM    3  C4  UNL     1     -33.692   5.591   4.184  1.00 20.00     0.206 C 
HETATM    4  C5  UNL     1     -33.494   7.040   4.599  1.00 20.00     0.206 C 
HETATM    5  O7  UNL     1     -34.772   5.022   4.928  1.00 20.00    -0.386 OA
HETATM    6  O8  UNL     1     -33.237   7.116   6.000  1.00 20.00    -0.375 OA
ENDROOT
BRANCH   4   7
HETATM    7  C1  UNL     1     -32.286   7.628   3.951  1.00 20.00     0.265 C 
HETATM    8  O6  UNL     1     -31.911   7.328   2.822  1.00 20.00    -0.304 OA
ENDBRANCH   4   7
TORSDOF 1
