REMARK  1 active torsions:
REMARK  status: ('A' for Active; 'I' for Inactive)
REMARK    1  A    between atoms: C4_4  and  S6_6 
ROOT
HETATM    1  C1  UNL     1     -33.490   6.992   4.817  1.00 20.00     0.026 C 
HETATM    2  C2  UNL     1     -34.437   7.199   5.989  1.00 20.00     0.075 C 
HETATM    3  C3  UNL     1     -34.377   4.722   4.942  1.00 20.00     0.088 C 
HETATM    4  C4  UNL     1     -34.093   5.869   3.981  1.00 20.00     0.054 C 
HETATM    5  S5  UNL     1     -34.984   5.532   6.452  1.00 20.00    -0.168 SA
ENDROOT
BRANCH   4   6
HETATM    6  S6  UNL     1     -32.965   5.347   2.656  1.00 20.00    -0.177 SA
HETATM    7  H14 UNL     1     -33.778   4.406   2.160  1.00 20.00     0.102 HD
ENDBRANCH   4   6
TORSDOF 1
