REMARK  4 active torsions:
REMARK  status: ('A' for Active; 'I' for Inactive)
REMARK    1  A    between atoms: C5_5  and  C6_6 
REMARK    2  A    between atoms: C5_5  and  C7_7 
REMARK    3  A    between atoms: C6_6  and  S9_9 
REMARK    4  A    between atoms: C7_7  and  O8_8 
ROOT
HETATM    1  C5  UNL     1     -33.397   6.775   4.234  1.00 20.00     0.051 C 
ENDROOT
BRANCH   1   2
HETATM    2  C6  UNL     1     -33.185   6.157   2.837  1.00 20.00     0.043 C 
HETATM    3  C1  UNL     1     -32.474   4.809   2.843  1.00 20.00     0.021 C 
BRANCH   2   4
HETATM    4  S9  UNL     1     -32.191   7.328   1.833  1.00 20.00    -0.178 SA
HETATM    5  H25 UNL     1     -32.263   6.614   0.705  1.00 20.00     0.102 HD
ENDBRANCH   2   4
ENDBRANCH   1   2
BRANCH   1   6
HETATM    6  C7  UNL     1     -34.548   6.195   5.089  1.00 20.00     0.054 C 
HETATM    7  C2  UNL     1     -35.822   5.951   4.278  1.00 20.00     0.045 C 
HETATM    8  C3  UNL     1     -34.086   4.884   5.737  1.00 20.00     0.045 C 
BRANCH   6   9
HETATM    9  O8  UNL     1     -34.845   7.106   6.148  1.00 20.00    -0.386 OA
HETATM   10  C4  UNL     1     -33.696   7.370   6.937  1.00 20.00     0.202 C 
ENDBRANCH   6   9
ENDBRANCH   1   6
TORSDOF 4
