REMARK  3 active torsions:
REMARK  status: ('A' for Active; 'I' for Inactive)
REMARK    1  A    between atoms: C5_5  and  C6_6 
REMARK    2  A    between atoms: C5_5  and  C7_7 
REMARK    3  A    between atoms: C7_7  and  O8_8 
ROOT
HETATM    1  C2  UNL     1     -35.835   6.793   4.470  1.00 20.00     0.045 C 
HETATM    2  C3  UNL     1     -34.774   4.525   4.579  1.00 20.00     0.045 C 
HETATM    3  C7  UNL     1     -34.602   6.005   4.928  1.00 20.00     0.054 C 
ENDROOT
BRANCH   3   4
HETATM    4  C5  UNL     1     -33.336   6.625   4.290  1.00 20.00     0.057 C 
BRANCH   4   5
HETATM    5  C6  UNL     1     -33.062   6.311   2.806  1.00 20.00     0.081 C 
HETATM    6  C1  UNL     1     -32.351   4.968   2.664  1.00 20.00     0.026 C 
HETATM    7 CL9  UNL     1     -32.057   7.567   2.028  1.00 20.00    -0.125 Cl
ENDBRANCH   4   5
ENDBRANCH   3   4
BRANCH   3   8
HETATM    8  O8  UNL     1     -34.525   6.130   6.348  1.00 20.00    -0.386 OA
HETATM    9  C4  UNL     1     -34.398   7.489   6.739  1.00 20.00     0.202 C 
ENDBRANCH   3   8
TORSDOF 3
