REMARK  3 active torsions:
REMARK  status: ('A' for Active; 'I' for Inactive)
REMARK    1  A    between atoms: C5_5  and  O9_9 
REMARK    2  A    between atoms: C6_6  and  C7_7 
REMARK    3  A    between atoms: C7_7  and  O9_9 
ROOT
HETATM    1  C1  UNL     1     -32.481   7.738   1.975  1.00 20.00     0.085 C 
HETATM    2  C5  UNL     1     -32.878   7.282   3.307  1.00 20.00     0.292 C 
HETATM    3  N8  UNL     1     -32.166   8.101   0.919  1.00 20.00    -0.195 NA
ENDROOT
BRANCH   2   4
HETATM    4  O9  UNL     1     -33.138   5.888   3.297  1.00 20.00    -0.367 OA
BRANCH   4   5
HETATM    5  C7  UNL     1     -33.946   5.503   4.411  1.00 20.00     0.054 C 
HETATM    6  C3  UNL     1     -35.396   5.847   4.065  1.00 20.00     0.045 C 
HETATM    7  C4  UNL     1     -33.805   3.989   4.596  1.00 20.00     0.045 C 
BRANCH   5   8
HETATM    8  C6  UNL     1     -33.456   6.235   5.676  1.00 20.00     0.033 C 
HETATM    9  C2  UNL     1     -34.254   5.923   6.937  1.00 20.00     0.008 C 
ENDBRANCH   5   8
ENDBRANCH   4   5
ENDBRANCH   2   4
TORSDOF 3
