REMARK  3 active torsions:
REMARK  status: ('A' for Active; 'I' for Inactive)
REMARK    1  A    between atoms: C1_1  and  C7_7 
REMARK    2  A    between atoms: C1_1  and  C9_9 
REMARK    3  A    between atoms: C8_8  and  C9_9 
ROOT
HETATM    1  C1  UNL     1     -32.701   6.646   2.691  1.00 20.00     0.131 C 
HETATM    2  O10 UNL     1     -32.524   5.431   2.608  1.00 20.00    -0.298 OA
ENDROOT
BRANCH   1   3
HETATM    3  C7  UNL     1     -32.312   7.566   1.563  1.00 20.00     0.055 A 
HETATM    4  C3  UNL     1     -33.392   8.307   0.862  1.00 20.00     0.013 A 
HETATM    5  C4  UNL     1     -32.451   9.029   1.778  1.00 20.00     0.013 A 
ENDBRANCH   1   3
BRANCH   1   6
HETATM    6  C9  UNL     1     -33.314   7.305   3.914  1.00 20.00     0.083 C 
BRANCH   6   7
HETATM    7  C8  UNL     1     -33.705   6.307   4.984  1.00 20.00    -0.008 C 
HETATM    8  C5  UNL     1     -34.909   5.382   4.665  1.00 20.00     0.005 C 
HETATM    9  C2  UNL     1     -35.303   5.505   6.151  1.00 20.00     0.001 C 
HETATM   10  C6  UNL     1     -34.549   6.851   6.166  1.00 20.00     0.005 C 
ENDBRANCH   6   7
ENDBRANCH   1   6
TORSDOF 3
