REMARK  1 active torsions:
REMARK  status: ('A' for Active; 'I' for Inactive)
REMARK    1  A    between atoms: C9_9  and  O10_10 
ROOT
HETATM    1  C1  UNL     1     -35.240   7.263   3.630  1.00 20.00     0.001 C 
HETATM    2  C2  UNL     1     -35.782   5.970   4.234  1.00 20.00     0.005 C 
HETATM    3  C3  UNL     1     -33.989   7.109   2.772  1.00 20.00     0.007 C 
HETATM    4  C4  UNL     1     -34.075   4.095   4.129  1.00 20.00     0.005 C 
HETATM    5  C5  UNL     1     -33.161   4.728   3.083  1.00 20.00     0.007 C 
HETATM    6  C6  UNL     1     -33.720   5.977   5.756  1.00 20.00     0.036 C 
HETATM    7  C7  UNL     1     -34.769   5.123   5.028  1.00 20.00    -0.012 C 
HETATM    8  C8  UNL     1     -32.871   6.214   3.341  1.00 20.00     0.014 C 
HETATM    9  C9  UNL     1     -32.583   6.445   4.833  1.00 20.00     0.122 C 
ENDROOT
BRANCH   9  10
HETATM   10  O10 UNL     1     -32.298   7.821   5.065  1.00 20.00    -0.395 OA
HETATM   11  H26 UNL     1     -32.035   7.897   5.996  1.00 20.00     0.210 HD
ENDBRANCH   9  10
TORSDOF 1
