REMARK  2 active torsions:
REMARK  status: ('A' for Active; 'I' for Inactive)
REMARK    1  A    between atoms: C1_1  and  C2_2 
REMARK    2  A    between atoms: C2_2  and  O3_3 
ROOT
HETATM    1  C2  UNL     1     -34.615   5.975   5.070  1.00 20.00     0.226 C 
HETATM    2 CL5  UNL     1     -34.079   4.338   5.528  1.00 20.00    -0.070 Cl
HETATM    3 CL6  UNL     1     -34.653   6.997   6.536  1.00 20.00    -0.070 Cl
ENDROOT
BRANCH   1   4
HETATM    4  C1  UNL     1     -33.689   6.615   4.038  1.00 20.00     0.187 C 
HETATM    5 CL4  UNL     1     -33.669   5.724   2.489  1.00 20.00    -0.125 Cl
ENDBRANCH   1   4
BRANCH   1   6
HETATM    6  O3  UNL     1     -35.937   5.902   4.558  1.00 20.00    -0.361 OA
HETATM    7  H9  UNL     1     -36.479   5.490   5.252  1.00 20.00     0.213 HD
ENDBRANCH   1   6
TORSDOF 2
