REMARK  5 active torsions:
REMARK  status: ('A' for Active; 'I' for Inactive)
REMARK    1  A    between atoms: C3_3  and  C8_8 
REMARK    2  A    between atoms: C6_6  and  C7_7 
REMARK    3  A    between atoms: C7_7  and  C9_9 
REMARK    4  A    between atoms: C8_8  and  C9_9 
REMARK    5  A    between atoms: C8_8  and  O10_10 
ROOT
HETATM    1  C8  UNL     1     -32.779   7.299   4.672  1.00 20.00     0.126 C 
ENDROOT
BRANCH   1   2
HETATM    2  C3  UNL     1     -34.253   7.182   4.937  1.00 20.00     0.015 A 
HETATM    3  C1  UNL     1     -34.900   5.828   5.032  1.00 20.00     0.007 A 
HETATM    4  C2  UNL     1     -34.745   6.675   6.264  1.00 20.00     0.007 A 
ENDBRANCH   1   2
BRANCH   1   5
HETATM    5  C9  UNL     1     -32.377   7.176   3.183  1.00 20.00     0.011 C 
HETATM    6  C5  UNL     1     -32.695   5.794   2.596  1.00 20.00     0.012 C 
BRANCH   5   7
HETATM    7  C7  UNL     1     -32.995   8.316   2.347  1.00 20.00     0.006 C 
BRANCH   7   8
HETATM    8  C6  UNL     1     -32.482   8.359   0.905  1.00 20.00    -0.004 C 
HETATM    9  C4  UNL     1     -33.100   9.513   0.130  1.00 20.00     0.005 C 
ENDBRANCH   7   8
ENDBRANCH   5   7
ENDBRANCH   1   5
BRANCH   1  10
HETATM   10  O10 UNL     1     -32.314   8.557   5.166  1.00 20.00    -0.395 OA
HETATM   11  H28 UNL     1     -32.501   8.562   6.117  1.00 20.00     0.210 HD
ENDBRANCH   1  10
TORSDOF 5
