REMARK  2 active torsions:
REMARK  status: ('A' for Active; 'I' for Inactive)
REMARK    1  A    between atoms: C1_1  and  C3_3 
REMARK    2  A    between atoms: C2_2  and  C7_7 
ROOT
HETATM    1  C1  UNL     1     -33.277   6.777   3.518  1.00 20.00     0.038 C 
HETATM    2  C2  UNL     1     -33.271   6.600   4.846  1.00 20.00    -0.015 C 
ENDROOT
BRANCH   2   3
HETATM    3  C7  UNL     1     -34.423   6.100   5.708  1.00 20.00    -0.034 C 
HETATM    4  C4  UNL     1     -34.764   7.192   6.737  1.00 20.00     0.018 C 
HETATM    5  C5  UNL     1     -35.699   5.756   4.918  1.00 20.00     0.018 C 
HETATM    6  C6  UNL     1     -33.955   4.836   6.452  1.00 20.00     0.018 C 
ENDBRANCH   2   3
BRANCH   1   7
HETATM    7  C3  UNL     1     -32.054   7.275   2.856  1.00 20.00     0.258 C 
HETATM    8  O8  UNL     1     -32.000   7.457   1.646  1.00 20.00    -0.302 OA
ENDBRANCH   1   7
TORSDOF 2
