REMARK  3 active torsions:
REMARK  status: ('A' for Active; 'I' for Inactive)
REMARK    1  A    between atoms: C2_2  and  C5_5 
REMARK    2  A    between atoms: C2_2  and  C8_8 
REMARK    3  A    between atoms: C7_7  and  C8_8 
ROOT
HETATM    1  C1  UNL     1     -32.483   7.629   4.845  1.00 20.00     0.071 C 
HETATM    2  C8  UNL     1     -33.374   6.727   4.092  1.00 20.00     0.162 C 
HETATM    3  N9  UNL     1     -31.785   8.342   5.437  1.00 20.00    -0.196 NA
ENDROOT
BRANCH   2   4
HETATM    4  C2  UNL     1     -33.863   5.582   4.965  1.00 20.00     0.148 C 
HETATM    5  O10 UNL     1     -34.210   4.486   4.538  1.00 20.00    -0.296 OA
BRANCH   4   6
HETATM    6  C5  UNL     1     -33.921   5.853   6.433  1.00 20.00     0.057 A 
HETATM    7  C3  UNL     1     -34.707   7.028   6.909  1.00 20.00     0.013 A 
HETATM    8  C4  UNL     1     -35.214   5.637   7.145  1.00 20.00     0.013 A 
ENDBRANCH   4   6
ENDBRANCH   2   4
BRANCH   2   9
HETATM    9  C7  UNL     1     -32.705   6.209   2.810  1.00 20.00     0.022 C 
HETATM   10  C6  UNL     1     -32.243   7.299   1.848  1.00 20.00     0.007 C 
ENDBRANCH   2   9
TORSDOF 3
