REMARK  3 active torsions:
REMARK  status: ('A' for Active; 'I' for Inactive)
REMARK    1  A    between atoms: C5_5  and  C9_9 
REMARK    2  A    between atoms: C8_8  and  N10_10 
REMARK    3  A    between atoms: C9_9  and  N10_10 
ROOT
HETATM    1  C1  UNL     1     -32.087   8.403   0.370  1.00 20.00     0.013 C 
HETATM    2  C2  UNL     1     -32.059   7.985   1.495  1.00 20.00    -0.087 C 
HETATM    3  C8  UNL     1     -32.020   7.478   2.869  1.00 20.00     0.364 C 
ENDROOT
BRANCH   3   4
HETATM    4  N10 UNL     1     -33.267   6.808   3.205  1.00 20.00     0.099 N 
HETATM    5  C7  UNL     1     -33.300   5.455   2.670  1.00 20.00     0.311 C 
BRANCH   4   6
HETATM    6  C9  UNL     1     -33.431   6.768   4.678  1.00 20.00     0.223 C 
HETATM    7  C6  UNL     1     -33.835   8.151   5.168  1.00 20.00     0.043 C 
BRANCH   6   8
HETATM    8  C5  UNL     1     -34.474   5.718   5.035  1.00 20.00     0.018 A 
HETATM    9  C3  UNL     1     -34.112   4.258   5.028  1.00 20.00     0.007 A 
HETATM   10  C4  UNL     1     -34.375   4.962   6.331  1.00 20.00     0.007 A 
ENDBRANCH   6   8
ENDBRANCH   4   6
ENDBRANCH   3   4
TORSDOF 3
