REMARK  3 active torsions:
REMARK  status: ('A' for Active; 'I' for Inactive)
REMARK    1  A    between atoms: C4_4  and  C8_8 
REMARK    2  A    between atoms: C7_7  and  N10_10 
REMARK    3  A    between atoms: C8_8  and  N10_10 
ROOT
HETATM    1  C1  UNL     1     -32.424   7.558   1.432  1.00 20.00     0.089 C 
HETATM    2  C7  UNL     1     -32.403   6.545   2.485  1.00 20.00     0.395 C 
HETATM    3  N9  UNL     1     -32.438   8.361   0.594  1.00 20.00    -0.195 NA
ENDROOT
BRANCH   2   4
HETATM    4  N10 UNL     1     -33.026   7.048   3.701  1.00 20.00     0.101 N 
HETATM    5  C6  UNL     1     -32.110   7.893   4.452  1.00 20.00     0.311 C 
BRANCH   4   6
HETATM    6  C8  UNL     1     -33.463   5.910   4.546  1.00 20.00     0.223 C 
HETATM    7  C5  UNL     1     -34.720   5.303   3.940  1.00 20.00     0.043 C 
BRANCH   6   8
HETATM    8  C4  UNL     1     -33.704   6.406   5.964  1.00 20.00     0.018 A 
HETATM    9  C2  UNL     1     -34.759   7.443   6.235  1.00 20.00     0.007 A 
HETATM   10  C3  UNL     1     -34.961   6.026   6.696  1.00 20.00     0.007 A 
ENDBRANCH   6   8
ENDBRANCH   4   6
ENDBRANCH   2   4
TORSDOF 3
