REMARK  0 active torsions:
REMARK  status: ('A' for Active; 'I' for Inactive)
ROOT
HETATM    1  C1  UNL     1     -34.153   4.179   5.363  1.00 20.00    -0.030 C 
HETATM    2  C2  UNL     1     -33.977   4.603   4.102  1.00 20.00    -0.020 C 
HETATM    3  C3  UNL     1     -33.739   7.279   5.766  1.00 20.00    -0.021 C 
HETATM    4  C4  UNL     1     -33.343   7.069   4.504  1.00 20.00    -0.050 C 
HETATM    5  C5  UNL     1     -34.303   4.980   6.623  1.00 20.00     0.030 C 
HETATM    6  C6  UNL     1     -34.753   6.430   6.460  1.00 20.00     0.031 C 
HETATM    7  C7  UNL     1     -32.333   7.918   3.804  1.00 20.00     0.202 C 
HETATM    8  C8  UNL     1     -32.695   6.052   2.521  1.00 20.00     0.180 C 
HETATM    9  C9  UNL     1     -33.809   5.996   3.566  1.00 20.00     0.062 C 
HETATM   10  O10 UNL     1     -32.290   7.425   2.457  1.00 20.00    -0.386 OA
ENDROOT
TORSDOF 0
