REMARK  2 active torsions:
REMARK  status: ('A' for Active; 'I' for Inactive)
REMARK    1  A    between atoms: C1_1  and  C3_3 
REMARK    2  A    between atoms: C1_1  and  C8_8 
ROOT
HETATM    1  C2  UNL     1     -35.441   6.197   4.618  1.00 20.00     0.022 A 
HETATM    2  C3  UNL     1     -33.987   6.564   4.480  1.00 20.00     0.064 A 
HETATM    3  C4  UNL     1     -34.455   5.738   5.665  1.00 20.00    -0.037 A 
HETATM    4  C5  UNL     1     -34.489   6.414   7.010  1.00 20.00     0.015 C 
HETATM    5  C6  UNL     1     -34.133   4.267   5.727  1.00 20.00     0.015 C 
ENDROOT
BRANCH   2   6
HETATM    6  C1  UNL     1     -33.189   5.961   3.406  1.00 20.00     0.131 C 
HETATM    7  O9  UNL     1     -33.356   4.788   3.074  1.00 20.00    -0.298 OA
BRANCH   6   8
HETATM    8  C8  UNL     1     -32.164   6.865   2.746  1.00 20.00     0.074 C 
HETATM    9  C7  UNL     1     -32.719   7.593   1.536  1.00 20.00     0.013 C 
ENDBRANCH   6   8
ENDBRANCH   2   6
TORSDOF 2
