REMARK  1 active torsions:
REMARK  status: ('A' for Active; 'I' for Inactive)
REMARK    1  A    between atoms: C4_4  and  C8_8 
ROOT
HETATM    1  C1  UNL     1     -34.499   5.792   4.037  1.00 20.00    -0.057 C 
HETATM    2  C2  UNL     1     -35.822   5.573   4.018  1.00 20.00     0.017 C 
HETATM    3  C5  UNL     1     -33.502   4.727   3.678  1.00 20.00     0.038 C 
HETATM    4  C6  UNL     1     -32.612   5.204   2.530  1.00 20.00     0.030 C 
HETATM    5  C7  UNL     1     -32.440   6.722   2.500  1.00 20.00     0.169 C 
HETATM    6  C8  UNL     1     -33.904   7.152   4.336  1.00 20.00     0.171 C 
HETATM    7  O9  UNL     1     -32.568   7.267   3.812  1.00 20.00    -0.378 OA
ENDROOT
BRANCH   6   8
HETATM    8  C4  UNL     1     -33.828   7.423   5.805  1.00 20.00    -0.001 C 
HETATM    9  C3  UNL     1     -34.685   6.925   6.703  1.00 20.00     0.010 C 
ENDBRANCH   6   8
TORSDOF 1
