REMARK  1 active torsions:
REMARK  status: ('A' for Active; 'I' for Inactive)
REMARK    1  A    between atoms: C1_1  and  C3_3 
ROOT
HETATM    1  C2  UNL     1     -34.708   4.939   5.865  1.00 20.00     0.054 A 
HETATM    2  C3  UNL     1     -34.715   5.921   4.720  1.00 20.00     0.109 A 
HETATM    3  C4  UNL     1     -34.761   6.407   6.138  1.00 20.00     0.183 A 
HETATM    4  F6  UNL     1     -33.628   7.000   6.665  1.00 20.00    -0.249 F 
ENDROOT
BRANCH   2   5
HETATM    5  C1  UNL     1     -33.495   6.110   3.929  1.00 20.00     0.225 C 
HETATM    6  O5  UNL     1     -33.217   5.374   2.986  1.00 20.00    -0.279 OA
HETATM    7 CL7  UNL     1     -32.552   7.457   4.491  1.00 20.00    -0.043 Cl
ENDBRANCH   2   5
TORSDOF 1
