REMARK  1 active torsions:
REMARK  status: ('A' for Active; 'I' for Inactive)
REMARK    1  A    between atoms: C7_7  and  O11_11 
ROOT
HETATM    1  C1  UNL     1     -34.401   5.929   6.962  1.00 20.00    -0.027 C 
HETATM    2  C2  UNL     1     -33.883   7.114   6.588  1.00 20.00     0.001 C 
HETATM    3  C3  UNL     1     -34.437   4.709   6.068  1.00 20.00     0.036 C 
HETATM    4  C4  UNL     1     -32.882   4.627   2.585  1.00 20.00     0.001 C 
HETATM    5  C5  UNL     1     -32.566   6.049   3.079  1.00 20.00     0.008 C 
HETATM    6  C6  UNL     1     -33.664   3.927   3.714  1.00 20.00     0.010 C 
HETATM    7  C7  UNL     1     -33.245   7.354   5.239  1.00 20.00     0.145 C 
HETATM    8  C8  UNL     1     -32.966   6.022   4.549  1.00 20.00     0.026 C 
HETATM    9  C9  UNL     1     -34.178   5.074   4.594  1.00 20.00    -0.035 C 
HETATM   10  C10 UNL     1     -35.466   5.661   3.969  1.00 20.00     0.016 C 
ENDROOT
BRANCH   7  11
HETATM   11  O11 UNL     1     -32.020   8.053   5.435  1.00 20.00    -0.391 OA
HETATM   12  H27 UNL     1     -32.244   8.889   5.872  1.00 20.00     0.210 HD
ENDBRANCH   7  11
TORSDOF 1
