REMARK  3 active torsions:
REMARK  status: ('A' for Active; 'I' for Inactive)
REMARK    1  A    between atoms: C4_4  and  C6_6 
REMARK    2  A    between atoms: C5_5  and  C7_7 
REMARK    3  A    between atoms: C6_6  and  C7_7 
ROOT
HETATM    1  C1  UNL     1     -33.413   7.464   5.334  1.00 20.00     0.064 C 
HETATM    2  C7  UNL     1     -33.078   6.813   4.051  1.00 20.00     0.092 C 
HETATM    3  N8  UNL     1     -33.674   7.974   6.344  1.00 20.00    -0.197 NA
ENDROOT
BRANCH   2   4
HETATM    4  C5  UNL     1     -32.694   7.867   2.994  1.00 20.00     0.014 C 
HETATM    5  C3  UNL     1     -32.255   7.305   1.647  1.00 20.00     0.006 C 
ENDBRANCH   2   4
BRANCH   2   6
HETATM    6  C6  UNL     1     -34.222   5.899   3.574  1.00 20.00     0.019 C 
BRANCH   6   7
HETATM    7  C4  UNL     1     -34.196   4.520   4.244  1.00 20.00    -0.003 C 
HETATM    8  C2  UNL     1     -34.398   4.630   5.748  1.00 20.00     0.005 C 
ENDBRANCH   6   7
ENDBRANCH   2   6
TORSDOF 3
