REMARK  1 active torsions:
REMARK  status: ('A' for Active; 'I' for Inactive)
REMARK    1  A    between atoms: C6_6  and  N7_7 
ROOT
HETATM    1  C1  UNL     1     -34.672   5.409   6.730  1.00 20.00     0.003 C 
HETATM    2  C2  UNL     1     -34.062   6.791   6.938  1.00 20.00     0.030 C 
HETATM    3  C3  UNL     1     -34.302   4.851   5.360  1.00 20.00     0.030 C 
HETATM    4  C4  UNL     1     -34.393   7.725   5.771  1.00 20.00     0.274 C 
HETATM    5  C5  UNL     1     -34.625   5.852   4.247  1.00 20.00     0.274 C 
HETATM    6  N7  UNL     1     -34.042   7.185   4.451  1.00 20.00     0.101 N 
ENDROOT
BRANCH   6   7
HETATM    7  C6  UNL     1     -32.601   7.202   4.210  1.00 20.00     0.386 C 
HETATM    8 CL8  UNL     1     -32.329   7.086   2.472  1.00 20.00    -0.098 Cl
ENDBRANCH   6   7
TORSDOF 1
