REMARK  0 active torsions:
REMARK  status: ('A' for Active; 'I' for Inactive)
ROOT
HETATM    1  C1  UNL     1     -32.228   8.500   2.332  1.00 20.00    -0.071 C 
HETATM    2  C2  UNL     1     -33.447   5.491   3.227  1.00 20.00     0.220 C 
HETATM    3  C3  UNL     1     -32.122   8.738   1.017  1.00 20.00     0.016 C 
HETATM    4  C4  UNL     1     -32.894   9.470   3.278  1.00 20.00     0.037 C 
HETATM    5  C5  UNL     1     -31.717   7.233   2.967  1.00 20.00     0.159 C 
HETATM    6  C6  UNL     1     -34.588   4.920   4.042  1.00 20.00     0.103 C 
HETATM    7  C7  UNL     1     -33.948   8.763   4.142  1.00 20.00     0.030 C 
HETATM    8  C8  UNL     1     -35.342   5.942   4.869  1.00 20.00     0.015 C 
HETATM    9  C9  UNL     1     -34.389   6.790   5.706  1.00 20.00     0.005 C 
HETATM   10  C10 UNL     1     -33.368   7.490   4.794  1.00 20.00     0.091 C 
HETATM   11  C11 UNL     1     -33.683   5.959   6.784  1.00 20.00     0.012 C 
HETATM   12  N12 UNL     1     -32.823   6.634   3.721  1.00 20.00    -0.343 N 
HETATM   13  O13 UNL     1     -33.079   4.887   2.215  1.00 20.00    -0.273 OA
ENDROOT
TORSDOF 0
