REMARK  1 active torsions:
REMARK  status: ('A' for Active; 'I' for Inactive)
REMARK    1  A    between atoms: C5_5  and  C6_6 
ROOT
HETATM    1  C1  UNL     1     -33.712   5.040   3.933  1.00 20.00     0.139 C 
HETATM    2  C2  UNL     1     -32.729   5.193   2.799  1.00 20.00     0.079 C 
HETATM    3  C3  UNL     1     -32.796   6.690   2.523  1.00 20.00     0.008 C 
HETATM    4  C4  UNL     1     -33.102   7.313   3.880  1.00 20.00     0.021 C 
HETATM    5  C5  UNL     1     -34.149   6.379   4.491  1.00 20.00     0.163 C 
HETATM    6  O7  UNL     1     -34.104   3.956   4.347  1.00 20.00    -0.297 OA
ENDROOT
BRANCH   5   7
HETATM    7  C6  UNL     1     -34.161   6.414   6.006  1.00 20.00     0.398 C 
HETATM    8  F8  UNL     1     -35.030   5.509   6.492  1.00 20.00    -0.170 F 
HETATM    9  F9  UNL     1     -32.938   6.135   6.494  1.00 20.00    -0.170 F 
HETATM   10  F10 UNL     1     -34.526   7.632   6.446  1.00 20.00    -0.170 F 
ENDBRANCH   5   7
TORSDOF 1
