REMARK  1 active torsions:
REMARK  status: ('A' for Active; 'I' for Inactive)
REMARK    1  A    between atoms: C4_4  and  C6_6 
ROOT
HETATM    1  C1  UNL     1     -33.937   6.773   5.969  1.00 20.00     0.089 A 
HETATM    2  C2  UNL     1     -33.899   5.885   3.732  1.00 20.00     0.044 A 
HETATM    3  C3  UNL     1     -34.434   5.911   5.071  1.00 20.00    -0.053 A 
HETATM    4  C4  UNL     1     -32.912   6.729   3.414  1.00 20.00     0.080 A 
HETATM    5  C5  UNL     1     -32.845   7.702   5.611  1.00 20.00     0.288 A 
HETATM    6  C8  UNL     1     -35.540   4.952   5.387  1.00 20.00     0.048 C 
HETATM    7  O11 UNL     1     -32.397   8.488   6.440  1.00 20.00    -0.260 OA
HETATM    8  O12 UNL     1     -32.366   7.647   4.329  1.00 20.00    -0.276 OA
ENDROOT
BRANCH   4   9
HETATM    9  C6  UNL     1     -32.312   6.783   2.111  1.00 20.00     0.039 C 
HETATM   10  C7  UNL     1     -32.286   7.868   1.292  1.00 20.00    -0.085 C 
HETATM   11  C9  UNL     1     -31.654   7.916  -0.071  1.00 20.00     0.043 C 
HETATM   12  C10 UNL     1     -32.923   9.167   1.716  1.00 20.00     0.043 C 
ENDBRANCH   4   9
TORSDOF 1
