REMARK  0 active torsions:
REMARK  status: ('A' for Active; 'I' for Inactive)
ROOT
HETATM    1  C1  UNL     1     -32.797   6.946   3.505  1.00 20.00    -0.057 C 
HETATM    2  C2  UNL     1     -32.321   6.727   2.276  1.00 20.00     0.017 C 
HETATM    3  C3  UNL     1     -32.170   7.826   4.530  1.00 20.00     0.205 C 
HETATM    4  C4  UNL     1     -33.890   4.897   4.525  1.00 20.00     0.040 C 
HETATM    5  C5  UNL     1     -34.788   4.855   5.741  1.00 20.00     0.172 C 
HETATM    6  C6  UNL     1     -34.026   6.339   4.084  1.00 20.00     0.073 C 
HETATM    7  C7  UNL     1     -34.170   7.072   5.408  1.00 20.00     0.268 C 
HETATM    8  O8  UNL     1     -32.853   7.528   5.759  1.00 20.00    -0.356 OA
HETATM    9  O9  UNL     1     -34.679   6.139   6.369  1.00 20.00    -0.361 OA
ENDROOT
TORSDOF 0
