REMARK  2 active torsions:
REMARK  status: ('A' for Active; 'I' for Inactive)
REMARK    1  A    between atoms: C1_1  and  C3_3 
REMARK    2  A    between atoms: C3_3  and  C4_4 
ROOT
HETATM    1  C2  UNL     1     -35.896   6.117   4.415  1.00 20.00     0.069 C 
HETATM    2  C3  UNL     1     -34.501   5.543   4.705  1.00 20.00     0.264 C 
HETATM    3  O5  UNL     1     -34.568   4.231   4.817  1.00 20.00    -0.210 OA
ENDROOT
BRANCH   2   4
HETATM    4  C1  UNL     1     -33.500   5.846   3.570  1.00 20.00     0.265 C 
HETATM    5  O6  UNL     1     -33.347   5.080   2.619  1.00 20.00    -0.276 OA
HETATM    6 CL10 UNL     1     -32.590   7.335   3.757  1.00 20.00    -0.040 Cl
ENDBRANCH   2   4
BRANCH   2   7
HETATM    7  C4  UNL     1     -33.989   6.125   6.033  1.00 20.00     0.429 C 
HETATM    8  F7  UNL     1     -33.829   7.469   5.968  1.00 20.00    -0.167 F 
HETATM    9  F8  UNL     1     -32.801   5.597   6.408  1.00 20.00    -0.167 F 
HETATM   10  F9  UNL     1     -34.869   5.882   7.034  1.00 20.00    -0.167 F 
ENDBRANCH   2   7
TORSDOF 2
