REMARK  4 active torsions:
REMARK  status: ('A' for Active; 'I' for Inactive)
REMARK    1  A    between atoms: C2_2  and  C5_5 
REMARK    2  A    between atoms: C2_2  and  C6_6 
REMARK    3  A    between atoms: C5_5  and  C7_7 
REMARK    4  A    between atoms: C6_6  and  C8_8 
ROOT
HETATM    1  C1  UNL     1     -33.255   5.194   2.507  1.00 20.00     0.207 A 
HETATM    2  C2  UNL     1     -33.038   6.442   3.329  1.00 20.00     0.082 A 
HETATM    3  O9  UNL     1     -32.142   5.324   3.404  1.00 20.00    -0.375 OA
ENDROOT
BRANCH   2   4
HETATM    4  C5  UNL     1     -32.428   7.672   2.677  1.00 20.00     0.040 C 
BRANCH   4   5
HETATM    5  C7  UNL     1     -32.211   7.463   1.180  1.00 20.00    -0.002 C 
HETATM    6  C3  UNL     1     -31.627   8.703   0.523  1.00 20.00     0.005 C 
ENDBRANCH   4   5
ENDBRANCH   2   4
BRANCH   2   7
HETATM    7  C6  UNL     1     -33.841   6.654   4.571  1.00 20.00     0.040 C 
BRANCH   7   8
HETATM    8  C8  UNL     1     -34.324   5.332   5.189  1.00 20.00    -0.002 C 
HETATM    9  C4  UNL     1     -35.111   5.546   6.472  1.00 20.00     0.005 C 
ENDBRANCH   7   8
ENDBRANCH   2   7
TORSDOF 4
