REMARK  1 active torsions:
REMARK  status: ('A' for Active; 'I' for Inactive)
REMARK    1  A    between atoms: C2_2  and  C3_3 
ROOT
HETATM    1  C1  UNL     1     -33.938   7.180   5.396  1.00 20.00     0.112 C 
HETATM    2  C2  UNL     1     -33.726   6.084   4.659  1.00 20.00     0.090 C 
HETATM    3 CL6  UNL     1     -34.672   7.208   6.948  1.00 20.00    -0.095 Cl
HETATM    4 CL7  UNL     1     -34.180   4.502   5.195  1.00 20.00    -0.080 Cl
ENDROOT
BRANCH   2   5
HETATM    5  C3  UNL     1     -33.076   6.152   3.311  1.00 20.00     0.167 C 
HETATM    6  C4  UNL     1     -32.071   7.242   3.029  1.00 20.00     0.097 C 
HETATM    7  O5  UNL     1     -33.356   5.329   2.438  1.00 20.00    -0.292 OA
ENDBRANCH   2   5
TORSDOF 1
