REMARK  2 active torsions:
REMARK  status: ('A' for Active; 'I' for Inactive)
REMARK    1  A    between atoms: C1_1  and  C5_5 
REMARK    2  A    between atoms: C4_4  and  C5_5 
ROOT
HETATM    1  C5  UNL     1     -32.727   7.471   4.082  1.00 20.00     0.101 C 
ENDROOT
BRANCH   1   2
HETATM    2  C1  UNL     1     -32.508   7.017   2.649  1.00 20.00     0.219 C 
HETATM    3  O6  UNL     1     -32.299   7.803   1.730  1.00 20.00    -0.280 OA
HETATM    4 CL7  UNL     1     -32.591   5.284   2.498  1.00 20.00    -0.044 Cl
ENDBRANCH   1   2
BRANCH   1   5
HETATM    5  C4  UNL     1     -34.034   7.044   4.654  1.00 20.00    -0.006 A 
HETATM    6  C2  UNL     1     -34.154   5.726   5.369  1.00 20.00     0.005 A 
HETATM    7  C3  UNL     1     -34.233   7.012   6.144  1.00 20.00     0.005 A 
ENDBRANCH   1   5
TORSDOF 2
