REMARK  1 active torsions:
REMARK  status: ('A' for Active; 'I' for Inactive)
REMARK    1  A    between atoms: C4_4  and  C10_10 
ROOT
HETATM    1  C1  UNL     1     -33.146   7.650   4.072  1.00 20.00     0.008 C 
HETATM    2  C2  UNL     1     -31.805   7.627   3.337  1.00 20.00     0.035 C 
HETATM    3  C3  UNL     1     -33.557   5.177   3.748  1.00 20.00     0.039 C 
HETATM    4  C4  UNL     1     -33.418   6.312   4.775  1.00 20.00    -0.005 C 
HETATM    5  C5  UNL     1     -31.606   6.402   2.507  1.00 20.00     0.151 A 
HETATM    6  C6  UNL     1     -32.449   5.177   2.741  1.00 20.00     0.151 A 
HETATM    7  O11 UNL     1     -32.684   6.067   1.631  1.00 20.00    -0.375 OA
ENDROOT
BRANCH   4   8
HETATM    8  C10 UNL     1     -34.673   6.401   5.642  1.00 20.00    -0.048 C 
HETATM    9  C7  UNL     1     -34.503   7.516   6.688  1.00 20.00     0.015 C 
HETATM   10  C8  UNL     1     -34.901   5.062   6.364  1.00 20.00     0.015 C 
HETATM   11  C9  UNL     1     -35.893   6.715   4.760  1.00 20.00     0.015 C 
ENDBRANCH   4   8
TORSDOF 1
