REMARK  2 active torsions:
REMARK  status: ('A' for Active; 'I' for Inactive)
REMARK    1  A    between atoms: C3_3  and  C5_5 
REMARK    2  A    between atoms: C4_4  and  C8_8 
ROOT
HETATM    1  C1  UNL     1     -32.864   5.748   3.676  1.00 20.00     0.023 A 
HETATM    2  C2  UNL     1     -32.260   6.524   2.645  1.00 20.00     0.016 A 
HETATM    3  C3  UNL     1     -33.563   6.529   4.569  1.00 20.00     0.043 A 
HETATM    4  C4  UNL     1     -32.521   7.870   2.790  1.00 20.00    -0.013 A 
HETATM    5  S10 UNL     1     -33.490   8.191   4.164  1.00 20.00    -0.091 SA
ENDROOT
BRANCH   4   6
HETATM    6  C8  UNL     1     -32.007   8.955   1.838  1.00 20.00     0.026 A 
HETATM    7  C6  UNL     1     -33.007   9.885   1.186  1.00 20.00     0.010 A 
HETATM    8  C7  UNL     1     -32.322   8.840   0.362  1.00 20.00     0.010 A 
ENDBRANCH   4   6
BRANCH   3   9
HETATM    9  C5  UNL     1     -34.297   6.128   5.726  1.00 20.00     0.277 C 
HETATM   10  O9  UNL     1     -34.411   4.944   6.107  1.00 20.00    -0.301 OA
ENDBRANCH   3   9
TORSDOF 2
