REMARK  1 active torsions:
REMARK  status: ('A' for Active; 'I' for Inactive)
REMARK    1  A    between atoms: C2_2  and  C6_6 
REMARK       I    between atoms: C2_2  and  N7_7 
ROOT
HETATM    1  C1  UNL     1     -32.304   7.776   2.459  1.00 20.00     0.166 C 
HETATM    2  C2  UNL     1     -33.143   6.007   3.455  1.00 20.00     0.252 C 
HETATM    3  N7  UNL     1     -32.242   7.056   3.384  1.00 20.00    -0.199 NA
HETATM    4  O8  UNL     1     -33.257   5.103   2.626  1.00 20.00    -0.270 OA
HETATM    5  S9  UNL     1     -32.357   8.774   1.219  1.00 20.00    -0.055 SA
ENDROOT
BRANCH   2   6
HETATM    6  C6  UNL     1     -34.037   6.058   4.713  1.00 20.00     0.032 C 
HETATM    7  C3  UNL     1     -33.668   7.288   5.554  1.00 20.00     0.025 C 
HETATM    8  C4  UNL     1     -35.516   6.161   4.303  1.00 20.00     0.025 C 
HETATM    9  C5  UNL     1     -33.838   4.776   5.534  1.00 20.00     0.025 C 
ENDBRANCH   2   6
TORSDOF 1
