REMARK  2 active torsions:
REMARK  status: ('A' for Active; 'I' for Inactive)
REMARK    1  A    between atoms: C4_4  and  C11_11 
REMARK    2  A    between atoms: C10_10  and  C11_11 
ROOT
HETATM    1  C1  UNL     1     -33.409   7.374   5.712  1.00 20.00     0.008 C 
HETATM    2  C2  UNL     1     -34.416   6.674   6.627  1.00 20.00     0.035 C 
HETATM    3  C3  UNL     1     -33.503   5.565   3.948  1.00 20.00     0.040 C 
HETATM    4  C4  UNL     1     -33.693   7.063   4.234  1.00 20.00    -0.004 C 
HETATM    5  C5  UNL     1     -34.620   5.234   6.290  1.00 20.00     0.151 A 
HETATM    6  C6  UNL     1     -34.204   4.699   4.947  1.00 20.00     0.151 A 
HETATM    7  O12 UNL     1     -33.430   4.459   6.139  1.00 20.00    -0.375 OA
ENDROOT
BRANCH   4   8
HETATM    8  C11 UNL     1     -32.793   7.897   3.324  1.00 20.00    -0.044 C 
HETATM    9  C8  UNL     1     -33.035   9.393   3.612  1.00 20.00     0.015 C 
HETATM   10  C9  UNL     1     -31.320   7.564   3.633  1.00 20.00     0.015 C 
BRANCH   8  11
HETATM   11  C10 UNL     1     -33.134   7.561   1.845  1.00 20.00     0.004 C 
HETATM   12  C7  UNL     1     -32.331   8.302   0.782  1.00 20.00     0.006 C 
ENDBRANCH   8  11
ENDBRANCH   4   8
TORSDOF 2
