REMARK  2 active torsions:
REMARK  status: ('A' for Active; 'I' for Inactive)
REMARK    1  A    between atoms: C4_4  and  C11_11 
REMARK    2  A    between atoms: C10_10  and  C11_11 
ROOT
HETATM    1  C1  UNL     1     -33.309   7.265   5.107  1.00 20.00     0.008 C 
HETATM    2  C2  UNL     1     -33.787   6.293   6.187  1.00 20.00     0.035 C 
HETATM    3  C3  UNL     1     -34.369   5.965   3.222  1.00 20.00     0.040 C 
HETATM    4  C4  UNL     1     -33.056   6.544   3.774  1.00 20.00    -0.004 C 
HETATM    5  C5  UNL     1     -34.898   5.413   5.712  1.00 20.00     0.151 A 
HETATM    6  C6  UNL     1     -35.165   5.219   4.244  1.00 20.00     0.151 A 
HETATM    7  O12 UNL     1     -34.442   4.246   5.001  1.00 20.00    -0.375 OA
ENDROOT
BRANCH   4   8
HETATM    8  C11 UNL     1     -32.423   7.492   2.757  1.00 20.00    -0.044 C 
HETATM    9  C8  UNL     1     -31.097   8.031   3.331  1.00 20.00     0.015 C 
HETATM   10  C9  UNL     1     -32.122   6.710   1.462  1.00 20.00     0.015 C 
BRANCH   8  11
HETATM   11  C10 UNL     1     -33.415   8.657   2.477  1.00 20.00     0.004 C 
HETATM   12  C7  UNL     1     -32.953   9.712   1.479  1.00 20.00     0.006 C 
ENDBRANCH   8  11
ENDBRANCH   4   8
TORSDOF 2
