REMARK  0 active torsions:
REMARK  status: ('A' for Active; 'I' for Inactive)
ROOT
HETATM    1  C1  UNL     1     -33.583   7.600   6.002  1.00 20.00     0.030 A 
HETATM    2  C2  UNL     1     -34.351   6.957   6.951  1.00 20.00     0.141 A 
HETATM    3  C3  UNL     1     -33.353   6.956   4.791  1.00 20.00    -0.030 A 
HETATM    4  C4  UNL     1     -33.934   5.704   4.602  1.00 20.00     0.063 A 
HETATM    5  C5  UNL     1     -32.557   7.639   3.712  1.00 20.00     0.041 C 
HETATM    6  C6  UNL     1     -33.718   4.919   3.338  1.00 20.00     0.062 C 
HETATM    7  C7  UNL     1     -32.099   6.685   2.608  1.00 20.00     0.005 C 
HETATM    8  C8  UNL     1     -33.246   5.782   2.170  1.00 20.00     0.006 C 
HETATM    9  N9  UNL     1     -34.890   5.740   6.751  1.00 20.00    -0.162 NA
HETATM   10  N10 UNL     1     -34.676   5.106   5.564  1.00 20.00    -0.155 NA
ENDROOT
TORSDOF 0
