REMARK  0 active torsions:
REMARK  status: ('A' for Active; 'I' for Inactive)
ROOT
HETATM    1  C1  UNL     1     -34.779   5.285   6.515  1.00 20.00    -0.027 C 
HETATM    2  C2  UNL     1     -32.667   6.174   2.037  1.00 20.00    -0.027 C 
HETATM    3  C3  UNL     1     -34.260   6.435   6.959  1.00 20.00    -0.001 C 
HETATM    4  C4  UNL     1     -32.170   7.315   2.526  1.00 20.00    -0.001 C 
HETATM    5  C5  UNL     1     -34.525   4.795   5.124  1.00 20.00     0.063 C 
HETATM    6  C6  UNL     1     -33.470   5.239   2.886  1.00 20.00     0.063 C 
HETATM    7  C7  UNL     1     -33.404   7.312   6.095  1.00 20.00     0.300 C 
HETATM    8  C8  UNL     1     -32.392   7.738   3.948  1.00 20.00     0.300 C 
HETATM    9  C9  UNL     1     -33.384   5.548   4.400  1.00 20.00     0.230 C 
HETATM   10  N10 UNL     1     -33.457   6.998   4.653  1.00 20.00     0.100 N 
ENDROOT
TORSDOF 0
