REMARK  0 active torsions:
REMARK  status: ('A' for Active; 'I' for Inactive)
ROOT
HETATM    1  C1  UNL     1     -34.039   7.226   6.989  1.00 20.00    -0.026 C 
HETATM    2  C2  UNL     1     -32.474   6.753   2.396  1.00 20.00    -0.027 C 
HETATM    3  C3  UNL     1     -34.912   6.220   6.839  1.00 20.00    -0.001 C 
HETATM    4  C4  UNL     1     -32.797   7.617   3.368  1.00 20.00     0.005 C 
HETATM    5  C5  UNL     1     -33.081   5.383   2.325  1.00 20.00     0.057 C 
HETATM    6  C6  UNL     1     -33.230   7.746   5.834  1.00 20.00     0.066 C 
HETATM    7  C7  UNL     1     -35.100   5.520   5.521  1.00 20.00     0.300 C 
HETATM    8  C8  UNL     1     -34.299   5.222   3.246  1.00 20.00     0.277 C 
HETATM    9  C9  UNL     1     -33.764   7.257   4.470  1.00 20.00     0.249 C 
HETATM   10  N10 UNL     1     -34.021   5.803   4.562  1.00 20.00     0.100 N 
ENDROOT
TORSDOF 0
