REMARK  0 active torsions:
REMARK  status: ('A' for Active; 'I' for Inactive)
ROOT
HETATM    1  C1  UNL     1     -33.449   4.970   3.089  1.00 20.00     0.066 C 
HETATM    2  C2  UNL     1     -32.599   8.421   5.611  1.00 20.00     0.032 C 
HETATM    3  C3  UNL     1     -32.716   7.506   4.409  1.00 20.00     0.039 C 
HETATM    4  C4  UNL     1     -34.090   4.715   5.484  1.00 20.00     0.051 C 
HETATM    5  C5  UNL     1     -33.282   7.603   6.688  1.00 20.00     0.273 C 
HETATM    6  C6  UNL     1     -34.737   5.653   6.490  1.00 20.00     0.274 C 
HETATM    7  C7  UNL     1     -34.312   5.448   4.171  1.00 20.00     0.128 C 
HETATM    8  C8  UNL     1     -34.119   6.915   4.558  1.00 20.00     0.240 C 
HETATM    9  N9  UNL     1     -32.765   4.592   2.231  1.00 20.00    -0.197 NA
HETATM   10  N10 UNL     1     -34.443   7.010   6.008  1.00 20.00     0.094 N 
ENDROOT
TORSDOF 0
