REMARK  0 active torsions:
REMARK  status: ('A' for Active; 'I' for Inactive)
ROOT
HETATM    1  C1  UNL     1     -32.266   7.102   2.255  1.00 20.00     0.101 C 
HETATM    2  C2  UNL     1     -33.187   4.746   2.487  1.00 20.00     0.042 A 
HETATM    3  C3  UNL     1     -33.885   4.079   3.470  1.00 20.00     0.092 A 
HETATM    4  C4  UNL     1     -32.948   6.063   2.952  1.00 20.00     0.068 A 
HETATM    5  C5  UNL     1     -33.507   6.169   4.210  1.00 20.00     0.032 A 
HETATM    6  C6  UNL     1     -33.586   7.324   5.152  1.00 20.00     0.059 C 
HETATM    7  C7  UNL     1     -33.927   6.879   6.576  1.00 20.00     0.008 C 
HETATM    8  C8  UNL     1     -35.085   5.881   6.570  1.00 20.00     0.021 C 
HETATM    9  C9  UNL     1     -34.718   4.634   5.767  1.00 20.00     0.128 C 
HETATM   10  N10 UNL     1     -31.710   7.948   1.688  1.00 20.00    -0.191 NA
HETATM   11  N11 UNL     1     -34.073   4.953   4.506  1.00 20.00    -0.359 N 
ENDROOT
TORSDOF 0
