REMARK  1 active torsions:
REMARK  status: ('A' for Active; 'I' for Inactive)
REMARK    1  A    between atoms: C3_3  and  C5_5 
ROOT
HETATM    1  C1  UNL     1     -32.898   5.173   2.469  1.00 20.00     0.034 A 
HETATM    2  C2  UNL     1     -33.541   4.347   3.366  1.00 20.00     0.092 A 
HETATM    3  C3  UNL     1     -32.809   6.458   3.062  1.00 20.00     0.025 A 
HETATM    4  C4  UNL     1     -33.401   6.385   4.308  1.00 20.00     0.024 A 
HETATM    5  C6  UNL     1     -33.620   7.429   5.351  1.00 20.00     0.058 C 
HETATM    6  C7  UNL     1     -33.942   6.817   6.716  1.00 20.00     0.008 C 
HETATM    7  C8  UNL     1     -34.987   5.710   6.582  1.00 20.00     0.021 C 
HETATM    8  C9  UNL     1     -34.474   4.590   5.678  1.00 20.00     0.128 C 
HETATM    9  N10 UNL     1     -33.841   5.093   4.472  1.00 20.00    -0.359 N 
ENDROOT
BRANCH   3  10
HETATM   10  C5  UNL     1     -32.224   7.640   2.496  1.00 20.00     0.272 C 
HETATM   11  O11 UNL     1     -31.702   7.682   1.367  1.00 20.00    -0.301 OA
ENDBRANCH   3  10
TORSDOF 1
