REMARK  0 active torsions:
REMARK  status: ('A' for Active; 'I' for Inactive)
ROOT
HETATM    1  C1  UNL     1     -34.012   7.203   5.853  1.00 20.00     0.027 A 
HETATM    2  C2  UNL     1     -34.608   6.405   6.819  1.00 20.00     0.116 A 
HETATM    3  C3  UNL     1     -34.450   4.492   5.531  1.00 20.00     0.123 A 
HETATM    4  C4  UNL     1     -33.621   6.570   4.689  1.00 20.00    -0.045 A 
HETATM    5  C5  UNL     1     -33.840   5.201   4.523  1.00 20.00    -0.034 A 
HETATM    6  C6  UNL     1     -33.386   4.732   3.181  1.00 20.00     0.041 C 
HETATM    7  C7  UNL     1     -32.445   5.878   2.779  1.00 20.00     0.014 C 
HETATM    8  C8  UNL     1     -32.997   7.154   3.453  1.00 20.00     0.015 C 
HETATM    9  C9  UNL     1     -31.911   8.188   3.704  1.00 20.00     0.015 C 
HETATM   10  N10 UNL     1     -34.836   5.071   6.691  1.00 20.00    -0.273 NA
ENDROOT
TORSDOF 0
