REMARK  0 active torsions:
REMARK  status: ('A' for Active; 'I' for Inactive)
ROOT
HETATM    1  C1  UNL     1     -33.643   6.812   5.485  1.00 20.00     0.147 C 
HETATM    2  C2  UNL     1     -34.593   5.963   6.310  1.00 20.00     0.085 C 
HETATM    3  C3  UNL     1     -36.056   5.971   4.284  1.00 20.00     0.008 C 
HETATM    4  C4  UNL     1     -35.042   6.854   3.522  1.00 20.00     0.030 C 
HETATM    5  C5  UNL     1     -35.148   5.073   5.167  1.00 20.00     0.002 C 
HETATM    6  C6  UNL     1     -33.699   6.330   4.044  1.00 20.00     0.086 C 
HETATM    7  C7  UNL     1     -33.914   4.817   4.252  1.00 20.00    -0.019 C 
HETATM    8  C8  UNL     1     -32.761   4.071   4.955  1.00 20.00     0.017 C 
HETATM    9  C9  UNL     1     -34.251   4.015   2.979  1.00 20.00     0.017 C 
HETATM   10  O10 UNL     1     -32.984   7.740   5.928  1.00 20.00    -0.296 OA
HETATM   11 BR11 UNL     1     -32.187   6.866   3.038  1.00 20.00    -0.076 Br
ENDROOT
TORSDOF 0
