REMARK  1 active torsions:
REMARK  status: ('A' for Active; 'I' for Inactive)
REMARK    1  A    between atoms: C1_1  and  C5_5 
ROOT
HETATM    1  C2  UNL     1     -33.889   4.249   4.477  1.00 20.00     0.022 C 
HETATM    2  C3  UNL     1     -34.399   4.669   5.866  1.00 20.00     0.011 C 
HETATM    3  C4  UNL     1     -32.682   6.198   5.181  1.00 20.00     0.031 C 
HETATM    4  C5  UNL     1     -33.462   5.626   3.960  1.00 20.00     0.057 C 
HETATM    5  C6  UNL     1     -34.129   6.187   5.787  1.00 20.00    -0.035 C 
HETATM    6  C7  UNL     1     -34.595   6.674   4.332  1.00 20.00    -0.023 C 
HETATM    7  C8  UNL     1     -34.443   6.978   7.024  1.00 20.00     0.016 C 
HETATM    8  C9  UNL     1     -36.032   6.322   3.916  1.00 20.00     0.017 C 
HETATM    9  C10 UNL     1     -34.368   8.151   3.958  1.00 20.00     0.017 C 
ENDROOT
BRANCH   4  10
HETATM   10  C1  UNL     1     -32.842   5.670   2.628  1.00 20.00     0.182 C 
HETATM   11  O11 UNL     1     -32.501   6.818   2.230  1.00 20.00    -0.647 OA
HETATM   12  O12 UNL     1     -32.733   4.548   2.058  1.00 20.00    -0.647 OA
ENDBRANCH   4  10
TORSDOF 1
