REMARK  1 active torsions:
REMARK  status: ('A' for Active; 'I' for Inactive)
REMARK    1  A    between atoms: C4_4  and  C6_6 
ROOT
HETATM    1  C1  UNL     1     -34.667   4.854   6.280  1.00 20.00     0.280 C 
HETATM    2  C2  UNL     1     -34.283   6.160   6.967  1.00 20.00     0.104 C 
HETATM    3  C3  UNL     1     -34.370   7.203   4.447  1.00 20.00     0.109 C 
HETATM    4  C4  UNL     1     -34.794   5.797   4.005  1.00 20.00     0.229 C 
HETATM    5  N7  UNL     1     -35.469   5.047   5.073  1.00 20.00     0.089 N 
HETATM    6  S8  UNL     1     -33.265   7.203   5.888  1.00 20.00    -0.165 SA
HETATM    7  H21 UNL     1     -35.758   4.127   4.710  1.00 20.00     0.316 HD
ENDROOT
BRANCH   4   8
HETATM    8  C6  UNL     1     -33.652   5.002   3.360  1.00 20.00     0.032 C 
HETATM    9  C5  UNL     1     -33.058   5.736   2.205  1.00 20.00     0.007 C 
ENDBRANCH   4   8
TORSDOF 1
