REMARK  1 active torsions:
REMARK  status: ('A' for Active; 'I' for Inactive)
REMARK    1  A    between atoms: C3_3  and  O10_10 
ROOT
HETATM    1  C1  UNL     1     -34.806   6.569   3.546  1.00 20.00     0.041 C 
HETATM    2  C2  UNL     1     -32.747   5.942   4.753  1.00 20.00     0.020 C 
HETATM    3  C3  UNL     1     -35.154   5.929   4.890  1.00 20.00     0.126 C 
HETATM    4  C4  UNL     1     -33.292   6.317   3.350  1.00 20.00    -0.045 C 
HETATM    5  C5  UNL     1     -33.901   6.167   5.754  1.00 20.00    -0.021 C 
HETATM    6  C6  UNL     1     -32.599   7.571   2.799  1.00 20.00     0.015 C 
HETATM    7  C7  UNL     1     -33.056   5.161   2.363  1.00 20.00     0.015 C 
HETATM    8  C8  UNL     1     -33.788   5.203   6.943  1.00 20.00     0.017 C 
HETATM    9  C9  UNL     1     -33.878   7.609   6.298  1.00 20.00     0.017 C 
ENDROOT
BRANCH   3  10
HETATM   10  O10 UNL     1     -35.398   4.543   4.672  1.00 20.00    -0.395 OA
HETATM   11  H28 UNL     1     -36.142   4.478   4.048  1.00 20.00     0.210 HD
ENDBRANCH   3  10
TORSDOF 1
