REMARK  3 active torsions:
REMARK  status: ('A' for Active; 'I' for Inactive)
REMARK    1  A    between atoms: C1_1  and  C6_6 
REMARK    2  A    between atoms: C1_1  and  O8_8 
REMARK    3  A    between atoms: C4_4  and  C6_6 
ROOT
HETATM    1  C6  UNL     1     -33.557   6.913   5.412  1.00 20.00     0.115 C 
ENDROOT
BRANCH   1   2
HETATM    2  C1  UNL     1     -34.827   6.142   5.094  1.00 20.00     0.139 C 
HETATM    3  O7  UNL     1     -35.355   6.079   3.994  1.00 20.00    -0.650 OA
BRANCH   2   4
HETATM    4  O8  UNL     1     -35.311   5.522   6.200  1.00 20.00    -0.776 OA
HETATM    5  H18 UNL     1     -36.132   5.020   6.008  1.00 20.00     0.167 HD
ENDBRANCH   2   4
ENDBRANCH   1   2
BRANCH   1   6
HETATM    6  C4  UNL     1     -33.018   7.656   4.239  1.00 20.00    -0.001 A 
HETATM    7  C2  UNL     1     -31.557   8.018   4.179  1.00 20.00     0.010 A 
HETATM    8  C3  UNL     1     -32.110   6.963   3.257  1.00 20.00    -0.014 A 
HETATM    9  C5  UNL     1     -32.238   7.235   1.799  1.00 20.00     0.010 C 
ENDBRANCH   1   6
TORSDOF 3
