REMARK  0 active torsions:
REMARK  status: ('A' for Active; 'I' for Inactive)
ROOT
HETATM    1  C1  UNL     1     -32.617   7.030   3.066  1.00 20.00     0.124 C 
HETATM    2  C2  UNL     1     -34.031   5.504   4.253  1.00 20.00     0.021 C 
HETATM    3  C3  UNL     1     -33.307   6.635   4.244  1.00 20.00     0.145 C 
HETATM    4  C4  UNL     1     -34.825   5.070   5.446  1.00 20.00     0.033 C 
HETATM    5  C5  UNL     1     -34.923   6.190   6.476  1.00 20.00     0.031 C 
HETATM    6  C6  UNL     1     -33.588   6.912   6.582  1.00 20.00     0.176 C 
HETATM    7  N7  UNL     1     -32.054   7.353   2.104  1.00 20.00    -0.189 NA
HETATM    8  O8  UNL     1     -33.184   7.480   5.330  1.00 20.00    -0.341 OA
ENDROOT
TORSDOF 0
