REMARK  1 active torsions:
REMARK  status: ('A' for Active; 'I' for Inactive)
REMARK    1  A    between atoms: C8_8  and  N10_10 
ROOT
HETATM    1  C1  UNL     1     -32.542   7.567   0.553  1.00 20.00     0.013 C 
HETATM    2  C2  UNL     1     -32.286   7.465   1.722  1.00 20.00    -0.087 C 
HETATM    3  C8  UNL     1     -31.968   7.343   3.147  1.00 20.00     0.365 C 
ENDROOT
BRANCH   3   4
HETATM    4  N10 UNL     1     -33.177   7.072   3.923  1.00 20.00     0.102 N 
HETATM    5  C5  UNL     1     -32.976   7.411   5.337  1.00 20.00     0.303 C 
HETATM    6  C3  UNL     1     -34.242   7.122   6.153  1.00 20.00     0.302 C 
HETATM    7  N9  UNL     1     -34.738   5.747   6.013  1.00 20.00     0.087 N 
HETATM    8  C4  UNL     1     -34.852   5.384   4.595  1.00 20.00     0.302 C 
HETATM    9  C7  UNL     1     -33.926   4.790   6.762  1.00 20.00     0.310 C 
HETATM   10  C6  UNL     1     -33.588   5.671   3.776  1.00 20.00     0.303 C 
ENDBRANCH   3   4
TORSDOF 1
