REMARK  3 active torsions:
REMARK  status: ('A' for Active; 'I' for Inactive)
REMARK    1  A    between atoms: C1_1  and  C4_4 
REMARK    2  A    between atoms: C2_2  and  C9_9 
REMARK    3  A    between atoms: C9_9  and  N10_10 
ROOT
HETATM    1  C5  UNL     1     -34.522   5.469   6.513  1.00 20.00     0.032 C 
HETATM    2  C6  UNL     1     -34.713   4.616   5.267  1.00 20.00     0.032 C 
HETATM    3  C7  UNL     1     -34.614   6.909   6.032  1.00 20.00     0.273 C 
HETATM    4  C8  UNL     1     -34.903   5.608   4.128  1.00 20.00     0.273 C 
HETATM    5  N10 UNL     1     -34.336   6.882   4.590  1.00 20.00     0.099 N 
ENDROOT
BRANCH   5   6
HETATM    6  C9  UNL     1     -32.882   6.909   4.350  1.00 20.00     0.366 C 
BRANCH   6   7
HETATM    7  C2  UNL     1     -32.584   7.352   2.985  1.00 20.00    -0.072 C 
HETATM    8  C1  UNL     1     -32.335   7.714   1.867  1.00 20.00    -0.078 C 
BRANCH   8   9
HETATM    9  C4  UNL     1     -32.034   8.139   0.547  1.00 20.00     0.054 C 
HETATM   10  C3  UNL     1     -32.985   8.551  -0.296  1.00 20.00     0.020 C 
ENDBRANCH   8   9
ENDBRANCH   6   7
ENDBRANCH   5   6
TORSDOF 3
