REMARK  0 active torsions:
REMARK  status: ('A' for Active; 'I' for Inactive)
ROOT
HETATM    1  C1  UNL     1     -33.604   5.477   2.798  1.00 20.00     0.011 A 
HETATM    2  C2  UNL     1     -32.782   6.296   2.024  1.00 20.00     0.024 A 
HETATM    3  C3  UNL     1     -32.525   7.807   3.891  1.00 20.00     0.031 A 
HETATM    4  C4  UNL     1     -33.901   5.821   4.123  1.00 20.00    -0.024 A 
HETATM    5  C5  UNL     1     -33.342   6.986   4.679  1.00 20.00    -0.047 A 
HETATM    6  C6  UNL     1     -32.245   7.461   2.569  1.00 20.00     0.034 A 
HETATM    7  C7  UNL     1     -33.670   7.383   6.096  1.00 20.00     0.069 C 
HETATM    8  C8  UNL     1     -34.761   4.909   4.964  1.00 20.00     0.308 C 
HETATM    9  C9  UNL     1     -34.247   6.225   6.912  1.00 20.00     0.274 C 
HETATM   10  N10 UNL     1     -35.308   5.556   6.161  1.00 20.00     0.087 N 
HETATM   11 CL11 UNL     1     -31.236   8.473   1.611  1.00 20.00    -0.084 Cl
HETATM   12  H21 UNL     1     -36.009   6.244   5.882  1.00 20.00     0.316 HD
ENDROOT
TORSDOF 0
