REMARK  2 active torsions:
REMARK  status: ('A' for Active; 'I' for Inactive)
REMARK    1  A    between atoms: C2_2  and  C3_3 
REMARK    2  A    between atoms: C3_3  and  O10_10 
ROOT
HETATM    1  C1  UNL     1     -33.739   6.166   4.517  1.00 20.00    -0.067 C 
HETATM    2  C2  UNL     1     -33.161   6.183   3.312  1.00 20.00     0.014 C 
HETATM    3  C4  UNL     1     -34.546   5.020   5.061  1.00 20.00     0.035 C 
HETATM    4  C5  UNL     1     -33.672   7.289   5.512  1.00 20.00     0.035 C 
HETATM    5  C6  UNL     1     -34.696   5.376   6.535  1.00 20.00     0.005 C 
HETATM    6  C7  UNL     1     -34.725   6.898   6.543  1.00 20.00     0.005 C 
HETATM    7  C8  UNL     1     -33.258   5.035   2.351  1.00 20.00     0.056 C 
ENDROOT
BRANCH   2   8
HETATM    8  C3  UNL     1     -32.398   7.403   2.937  1.00 20.00     0.171 C 
HETATM    9  O9  UNL     1     -31.431   7.845   3.536  1.00 20.00    -0.646 OA
BRANCH   8  10
HETATM   10  O10 UNL     1     -32.921   7.973   1.826  1.00 20.00    -0.773 OA
HETATM   11  H22 UNL     1     -32.430   8.780   1.562  1.00 20.00     0.167 HD
ENDBRANCH   8  10
ENDBRANCH   2   8
TORSDOF 2
