REMARK  1 active torsions:
REMARK  status: ('A' for Active; 'I' for Inactive)
REMARK    1  A    between atoms: C2_2  and  C10_10 
ROOT
HETATM    1  C1  UNL     1     -32.775   7.558   4.580  1.00 20.00    -0.022 C 
HETATM    2  C2  UNL     1     -33.740   6.632   4.718  1.00 20.00    -0.073 C 
HETATM    3  C3  UNL     1     -32.915   5.511   2.620  1.00 20.00     0.134 C 
HETATM    4  C4  UNL     1     -31.837   7.611   3.411  1.00 20.00     0.039 C 
HETATM    5  C5  UNL     1     -33.965   5.532   3.717  1.00 20.00     0.113 C 
HETATM    6  C6  UNL     1     -32.327   6.840   2.183  1.00 20.00     0.055 C 
HETATM    7  C7  UNL     1     -33.358   7.619   1.368  1.00 20.00     0.018 C 
HETATM    8  O11 UNL     1     -32.621   4.463   2.044  1.00 20.00    -0.297 OA
ENDROOT
BRANCH   2   9
HETATM    9  C10 UNL     1     -34.661   6.631   5.903  1.00 20.00     0.006 C 
HETATM   10  C8  UNL     1     -34.555   5.307   6.651  1.00 20.00     0.014 C 
HETATM   11  C9  UNL     1     -34.355   7.806   6.826  1.00 20.00     0.014 C 
ENDBRANCH   2   9
TORSDOF 1
