REMARK  3 active torsions:
REMARK  status: ('A' for Active; 'I' for Inactive)
REMARK    1  A    between atoms: C1_1  and  C3_3 
REMARK    2  A    between atoms: C2_2  and  C5_5 
REMARK    3  A    between atoms: C4_4  and  C7_7 
ROOT
HETATM    1  C1  UNL     1     -33.103   6.435   4.047  1.00 20.00     0.000 C 
HETATM    2  C2  UNL     1     -32.615   6.836   2.863  1.00 20.00    -0.000 C 
ENDROOT
BRANCH   1   3
HETATM    3  C3  UNL     1     -33.965   7.261   4.865  1.00 20.00     0.003 C 
HETATM    4  C4  UNL     1     -34.449   6.854   6.045  1.00 20.00     0.041 C 
BRANCH   4   5
HETATM    5  C7  UNL     1     -34.093   5.509   6.539  1.00 20.00     0.258 C 
HETATM    6  O9  UNL     1     -34.374   4.494   5.914  1.00 20.00    -0.302 OA
ENDBRANCH   4   5
ENDBRANCH   1   3
BRANCH   2   7
HETATM    7  C5  UNL     1     -32.903   8.132   2.291  1.00 20.00    -0.004 C 
HETATM    8  C6  UNL     1     -32.416   8.536   1.108  1.00 20.00    -0.031 C 
HETATM    9  C8  UNL     1     -32.706   9.871   0.505  1.00 20.00     0.036 C 
ENDBRANCH   2   7
TORSDOF 3
