REMARK  3 active torsions:
REMARK  status: ('A' for Active; 'I' for Inactive)
REMARK    1  A    between atoms: C1_1  and  C3_3 
REMARK    2  A    between atoms: C2_2  and  C5_5 
REMARK    3  A    between atoms: C4_4  and  C7_7 
ROOT
HETATM    1  C1  UNL     1     -33.072   7.294   5.078  1.00 20.00     0.000 C 
HETATM    2  C2  UNL     1     -33.540   7.267   6.336  1.00 20.00    -0.000 C 
ENDROOT
BRANCH   1   3
HETATM    3  C3  UNL     1     -31.959   8.124   4.667  1.00 20.00     0.004 C 
HETATM    4  C4  UNL     1     -31.499   8.145   3.409  1.00 20.00     0.049 C 
BRANCH   4   5
HETATM    5  C7  UNL     1     -32.128   7.297   2.359  1.00 20.00     0.145 C 
HETATM    6  C9  UNL     1     -32.715   8.016   1.173  1.00 20.00     0.096 C 
HETATM    7  O10 UNL     1     -32.148   6.070   2.431  1.00 20.00    -0.294 OA
ENDBRANCH   4   5
ENDBRANCH   1   3
BRANCH   2   8
HETATM    8  C5  UNL     1     -34.653   6.435   6.738  1.00 20.00    -0.004 C 
HETATM    9  C6  UNL     1     -34.902   5.177   6.345  1.00 20.00    -0.031 C 
HETATM   10  C8  UNL     1     -34.110   4.320   5.410  1.00 20.00     0.036 C 
ENDBRANCH   2   8
TORSDOF 3
