REMARK  1 active torsions:
REMARK  status: ('A' for Active; 'I' for Inactive)
REMARK    1  A    between atoms: C1_1  and  C2_2 
ROOT
HETATM    1  C1  UNL     1     -33.935   5.475   4.666  1.00 20.00     0.326 C 
HETATM    2  O3  UNL     1     -34.051   4.476   3.972  1.00 20.00    -0.257 OA
HETATM    3  F4  UNL     1     -33.367   6.551   4.104  1.00 20.00    -0.162 F 
ENDROOT
BRANCH   1   4
HETATM    4  C2  UNL     1     -34.375   5.593   6.087  1.00 20.00     0.338 C 
HETATM    5  F5  UNL     1     -34.116   6.831   6.585  1.00 20.00    -0.245 F 
ENDBRANCH   1   4
TORSDOF 1
