REMARK  0 active torsions:
REMARK  status: ('A' for Active; 'I' for Inactive)
ROOT
HETATM    1  C1  UNL     1     -33.486   6.033   3.495  1.00 20.00     0.063 C 
HETATM    2  C2  UNL     1     -33.239   8.010   4.768  1.00 20.00     0.167 C 
HETATM    3  C3  UNL     1     -34.766   5.912   5.877  1.00 20.00     0.112 C 
HETATM    4  C4  UNL     1     -33.011   5.006   2.507  1.00 20.00     0.078 C 
HETATM    5  C5  UNL     1     -32.083   8.955   5.097  1.00 20.00     0.046 C 
HETATM    6  C6  UNL     1     -33.917   4.740   6.364  1.00 20.00     0.033 C 
HETATM    7  N7  UNL     1     -32.709   6.995   3.851  1.00 20.00    -0.272 NA
HETATM    8  S8  UNL     1     -35.112   5.775   4.098  1.00 20.00    -0.100 SA
HETATM    9  S9  UNL     1     -33.987   7.488   6.358  1.00 20.00    -0.127 SA
ENDROOT
TORSDOF 0
