REMARK  0 active torsions:
REMARK  status: ('A' for Active; 'I' for Inactive)
ROOT
HETATM    1  C1  UNL     1     -32.744   7.267   5.212  1.00 20.00     0.302 C 
HETATM    2  C2  UNL     1     -33.860   7.577   6.186  1.00 20.00     0.201 C 
HETATM    3  C3  UNL     1     -34.487   5.796   4.877  1.00 20.00     0.253 C 
HETATM    4  C4  UNL     1     -35.812   5.857   4.113  1.00 20.00     0.081 C 
HETATM    5  C5  UNL     1     -34.118   4.335   5.167  1.00 20.00     0.081 C 
HETATM    6  C6  UNL     1     -32.615   5.879   3.230  1.00 20.00     0.314 C 
HETATM    7  N7  UNL     1     -33.483   6.589   4.154  1.00 20.00     0.120 N 
HETATM    8  O8  UNL     1     -34.704   6.420   6.164  1.00 20.00    -0.351 OA
ENDROOT
TORSDOF 0
