REMARK  1 active torsions:
REMARK  status: ('A' for Active; 'I' for Inactive)
REMARK    1  A    between atoms: C9_9  and  N11_11 
ROOT
HETATM    1  C1  UNL     1     -35.800   6.195   4.149  1.00 20.00     0.102 C 
HETATM    2  C2  UNL     1     -34.888   4.913   6.744  1.00 20.00     0.007 C 
HETATM    3  C5  UNL     1     -34.544   6.372   6.371  1.00 20.00     0.058 C 
HETATM    4  C6  UNL     1     -34.334   4.491   5.365  1.00 20.00     0.058 C 
HETATM    5  C9  UNL     1     -34.591   5.939   4.889  1.00 20.00     0.246 C 
HETATM    6  N10 UNL     1     -36.774   6.402   3.554  1.00 20.00    -0.194 NA
ENDROOT
BRANCH   5   7
HETATM    7  N11 UNL     1     -33.400   6.441   4.194  1.00 20.00     0.112 N 
HETATM    8  C7  UNL     1     -33.255   5.804   2.884  1.00 20.00     0.275 C 
HETATM    9  C3  UNL     1     -32.302   6.739   2.155  1.00 20.00     0.032 C 
HETATM   10  C4  UNL     1     -32.480   8.096   2.829  1.00 20.00     0.032 C 
HETATM   11  C8  UNL     1     -33.530   7.870   3.907  1.00 20.00     0.275 C 
ENDBRANCH   5   7
TORSDOF 1
