REMARK  2 active torsions:
REMARK  status: ('A' for Active; 'I' for Inactive)
REMARK    1  A    between atoms: C8_8  and  C9_9 
REMARK    2  A    between atoms: C9_9  and  N11_11 
ROOT
HETATM    1  C1  UNL     1     -34.520   6.123   5.899  1.00 20.00     0.064 C 
HETATM    2  C2  UNL     1     -32.763   7.401   4.728  1.00 20.00     0.047 C 
HETATM    3  C3  UNL     1     -34.006   5.543   3.555  1.00 20.00     0.047 C 
HETATM    4  C4  UNL     1     -31.703   7.372   3.634  1.00 20.00     0.236 C 
HETATM    5  C5  UNL     1     -32.938   5.525   2.469  1.00 20.00     0.236 C 
HETATM    6  C6  UNL     1     -33.448   6.041   4.893  1.00 20.00     0.096 C 
HETATM    7  N10 UNL     1     -35.365   6.188   6.691  1.00 20.00    -0.197 NA
HETATM    8  N11 UNL     1     -32.284   6.878   2.332  1.00 20.00    -0.071 N 
HETATM    9  H28 UNL     1     -31.451   6.725   1.692  1.00 20.00     0.279 HD
ENDROOT
BRANCH   8  10
HETATM   10  C9  UNL     1     -33.137   7.895   1.625  1.00 20.00     0.234 C 
BRANCH  10  11
HETATM   11  C8  UNL     1     -32.238   8.852   0.859  1.00 20.00     0.023 C 
HETATM   12  C7  UNL     1     -33.051   9.931   0.161  1.00 20.00     0.007 C 
ENDBRANCH  10  11
ENDBRANCH   8  10
TORSDOF 2
