REMARK  1 active torsions:
REMARK  status: ('A' for Active; 'I' for Inactive)
REMARK    1  A    between atoms: C3_3  and  C4_4 
ROOT
HETATM    1  C1  UNL     1     -34.199   5.127   3.129  1.00 20.00    -0.018 A 
HETATM    2  C2  UNL     1     -33.109   5.111   2.343  1.00 20.00    -0.024 A 
HETATM    3  C4  UNL     1     -34.083   6.256   4.124  1.00 20.00     0.082 A 
HETATM    4  C5  UNL     1     -32.117   6.148   2.673  1.00 20.00     0.022 A 
HETATM    5  C6  UNL     1     -32.740   6.909   3.837  1.00 20.00     0.017 A 
HETATM    6  C7  UNL     1     -32.398   7.631   2.543  1.00 20.00    -0.035 A 
HETATM    7  C9  UNL     1     -31.202   8.553   2.576  1.00 20.00     0.016 C 
HETATM    8  C10 UNL     1     -33.496   8.129   1.637  1.00 20.00     0.016 C 
ENDROOT
BRANCH   3   9
HETATM    9  C3  UNL     1     -34.142   5.640   5.484  1.00 20.00     0.131 C 
HETATM   10  C8  UNL     1     -34.035   6.576   6.656  1.00 20.00     0.091 C 
HETATM   11  O11 UNL     1     -34.275   4.426   5.637  1.00 20.00    -0.298 OA
ENDBRANCH   3   9
TORSDOF 1
