REMARK  1 active torsions:
REMARK  status: ('A' for Active; 'I' for Inactive)
REMARK    1  A    between atoms: C5_5  and  C10_10 
ROOT
HETATM    1  C1  UNL     1     -33.806   5.343   3.226  1.00 20.00    -0.018 C 
HETATM    2  C2  UNL     1     -32.912   5.751   2.313  1.00 20.00    -0.025 C 
HETATM    3  C3  UNL     1     -33.339   7.380   4.585  1.00 20.00     0.135 C 
HETATM    4  C4  UNL     1     -32.932   8.067   3.301  1.00 20.00     0.087 C 
HETATM    5  C5  UNL     1     -34.207   6.130   4.443  1.00 20.00     0.081 C 
HETATM    6  C6  UNL     1     -32.212   7.082   2.375  1.00 20.00     0.010 C 
HETATM    7  C7  UNL     1     -32.073   7.688   0.979  1.00 20.00     0.014 C 
HETATM    8  O11 UNL     1     -33.057   7.869   5.679  1.00 20.00    -0.297 OA
ENDROOT
BRANCH   5   9
HETATM    9  C10 UNL     1     -34.112   5.261   5.695  1.00 20.00    -0.008 C 
HETATM   10  C8  UNL     1     -32.690   4.730   5.877  1.00 20.00     0.010 C 
HETATM   11  C9  UNL     1     -34.552   6.044   6.931  1.00 20.00     0.010 C 
ENDBRANCH   5   9
TORSDOF 1
