REMARK  3 active torsions:
REMARK  status: ('A' for Active; 'I' for Inactive)
REMARK    1  A    between atoms: C1_1  and  C6_6 
REMARK    2  A    between atoms: C1_1  and  O9_9 
REMARK    3  A    between atoms: C6_6  and  C7_7 
ROOT
HETATM    1  C2  UNL     1     -33.478   5.387   2.374  1.00 20.00     0.021 C 
HETATM    2  C6  UNL     1     -32.941   6.279   3.495  1.00 20.00     0.085 C 
ENDROOT
BRANCH   2   3
HETATM    3  C1  UNL     1     -33.935   6.295   4.648  1.00 20.00     0.262 C 
HETATM    4  O8  UNL     1     -35.036   5.760   4.623  1.00 20.00    -0.265 OA
BRANCH   3   5
HETATM    5  O9  UNL     1     -33.408   6.984   5.702  1.00 20.00    -0.326 OA
HETATM    6  C5  UNL     1     -34.241   7.069   6.862  1.00 20.00     0.213 C 
ENDBRANCH   3   5
ENDBRANCH   2   3
BRANCH   2   7
HETATM    7  C7  UNL     1     -32.576   7.698   2.999  1.00 20.00    -0.010 C 
HETATM    8  C3  UNL     1     -32.027   7.740   1.570  1.00 20.00     0.010 C 
HETATM    9  C4  UNL     1     -31.597   8.396   3.949  1.00 20.00     0.010 C 
ENDBRANCH   2   7
TORSDOF 3
