REMARK  2 active torsions:
REMARK  status: ('A' for Active; 'I' for Inactive)
REMARK    1  A    between atoms: C3_3  and  C10_10 
REMARK    2  A    between atoms: C7_7  and  C10_10 
ROOT
HETATM    1  C1  UNL     1     -32.590   6.328   1.270  1.00 20.00    -0.024 C 
HETATM    2  C2  UNL     1     -32.305   7.641   1.277  1.00 20.00    -0.087 C 
HETATM    3  C4  UNL     1     -32.522   5.453   2.489  1.00 20.00     0.032 C 
HETATM    4  C5  UNL     1     -31.858   8.356   2.527  1.00 20.00     0.034 C 
HETATM    5  C6  UNL     1     -31.481   7.413   3.675  1.00 20.00     0.010 C 
HETATM    6  C7  UNL     1     -32.450   6.232   3.814  1.00 20.00    -0.001 C 
HETATM    7  C8  UNL     1     -32.416   8.483   0.040  1.00 20.00     0.043 C 
ENDROOT
BRANCH   6   8
HETATM    8  C10 UNL     1     -33.838   6.689   4.275  1.00 20.00     0.047 C 
HETATM    9  C9  UNL     1     -34.797   5.510   4.367  1.00 20.00     0.017 C 
BRANCH   8  10
HETATM   10  C3  UNL     1     -33.703   7.412   5.600  1.00 20.00     0.235 C 
HETATM   11  O11 UNL     1     -33.809   6.878   6.699  1.00 20.00    -0.306 OA
ENDBRANCH   8  10
ENDBRANCH   6   8
TORSDOF 2
