REMARK  1 active torsions:
REMARK  status: ('A' for Active; 'I' for Inactive)
REMARK    1  A    between atoms: C3_3  and  C8_8 
ROOT
HETATM    1  C1  UNL     1     -33.928   6.807   5.386  1.00 20.00     0.017 C 
HETATM    2  C2  UNL     1     -34.397   5.581   4.620  1.00 20.00     0.092 C 
HETATM    3  C3  UNL     1     -32.457   7.015   3.674  1.00 20.00     0.173 C 
HETATM    4  C4  UNL     1     -34.609   7.160   6.679  1.00 20.00     0.066 C 
HETATM    5  C5  UNL     1     -34.074   4.300   5.371  1.00 20.00     0.028 C 
HETATM    6  N9  UNL     1     -32.946   7.540   4.959  1.00 20.00    -0.282 NA
HETATM    7  S10 UNL     1     -33.478   5.649   3.068  1.00 20.00    -0.131 SA
ENDROOT
BRANCH   3   8
HETATM    8  C8  UNL     1     -32.447   8.149   2.659  1.00 20.00     0.012 C 
HETATM    9  C6  UNL     1     -31.564   9.300   3.141  1.00 20.00     0.012 C 
HETATM   10  C7  UNL     1     -31.973   7.650   1.294  1.00 20.00     0.012 C 
ENDBRANCH   3   8
TORSDOF 1
