REMARK  2 active torsions:
REMARK  status: ('A' for Active; 'I' for Inactive)
REMARK    1  A    between atoms: C2_2  and  C5_5 
REMARK    2  A    between atoms: C5_5  and  C6_6 
ROOT
HETATM    1  C1  UNL     1     -31.753   7.501   3.820  1.00 20.00     0.206 A 
HETATM    2  C2  UNL     1     -33.122   6.937   3.525  1.00 20.00     0.079 A 
HETATM    3  C3  UNL     1     -33.243   5.633   2.805  1.00 20.00     0.048 C 
HETATM    4  O7  UNL     1     -32.552   7.986   2.730  1.00 20.00    -0.375 OA
ENDROOT
BRANCH   2   5
HETATM    5  C5  UNL     1     -34.311   7.380   4.364  1.00 20.00     0.039 C 
BRANCH   5   6
HETATM    6  C6  UNL     1     -34.420   6.568   5.652  1.00 20.00    -0.002 C 
HETATM    7  C4  UNL     1     -34.624   5.089   5.363  1.00 20.00     0.005 C 
ENDBRANCH   5   6
ENDBRANCH   2   5
TORSDOF 2
