REMARK  1 active torsions:
REMARK  status: ('A' for Active; 'I' for Inactive)
REMARK    1  A    between atoms: C3_3  and  C8_8 
ROOT
HETATM    1  C1  UNL     1     -33.787   6.925   5.500  1.00 20.00     0.017 C 
HETATM    2  C2  UNL     1     -34.329   5.729   4.735  1.00 20.00     0.092 C 
HETATM    3  C3  UNL     1     -32.404   7.133   3.715  1.00 20.00     0.173 C 
HETATM    4  C4  UNL     1     -34.386   7.265   6.836  1.00 20.00     0.066 C 
HETATM    5  C5  UNL     1     -35.748   5.977   4.251  1.00 20.00     0.028 C 
HETATM    6  N9  UNL     1     -32.842   7.671   5.013  1.00 20.00    -0.282 NA
HETATM    7  S10 UNL     1     -33.205   5.555   3.333  1.00 20.00    -0.131 SA
ENDROOT
BRANCH   3   8
HETATM    8  C8  UNL     1     -32.717   8.158   2.633  1.00 20.00     0.012 C 
HETATM    9  C6  UNL     1     -32.019   9.485   2.927  1.00 20.00     0.012 C 
HETATM   10  C7  UNL     1     -32.309   7.633   1.257  1.00 20.00     0.012 C 
ENDBRANCH   3   8
TORSDOF 1
