REMARK  2 active torsions:
REMARK  status: ('A' for Active; 'I' for Inactive)
REMARK    1  A    between atoms: C1_1  and  O6_6 
REMARK    2  A    between atoms: C4_4  and  O6_6 
ROOT
HETATM    1  O6  UNL     1     -33.870   6.927   4.098  1.00 20.00    -0.301 OA
ENDROOT
BRANCH   1   2
HETATM    2  C1  UNL     1     -33.107   6.326   3.141  1.00 20.00     0.256 C 
HETATM    3  C2  UNL     1     -32.151   7.327   2.566  1.00 20.00     0.126 C 
HETATM    4  O5  UNL     1     -33.170   5.158   2.785  1.00 20.00    -0.266 OA
ENDBRANCH   1   2
BRANCH   1   5
HETATM    5  C4  UNL     1     -33.794   6.389   5.429  1.00 20.00     0.223 C 
HETATM    6  C3  UNL     1     -34.734   5.202   5.568  1.00 20.00     0.057 C 
HETATM    7 CL7  UNL     1     -34.283   7.675   6.565  1.00 20.00    -0.095 Cl
ENDBRANCH   1   5
TORSDOF 2
