REMARK  0 active torsions:
REMARK  status: ('A' for Active; 'I' for Inactive)
ROOT
HETATM    1  C1  UNL     1     -33.447   7.600   6.222  1.00 20.00     0.085 C 
HETATM    2  C2  UNL     1     -32.914   7.114   3.952  1.00 20.00     0.085 C 
HETATM    3  C3  UNL     1     -35.155   6.304   4.885  1.00 20.00     0.030 A 
HETATM    4  C4  UNL     1     -33.718   6.756   5.088  1.00 20.00     0.148 A 
HETATM    5  C5  UNL     1     -34.110   5.288   5.314  1.00 20.00    -0.007 A 
HETATM    6  C6  UNL     1     -35.812   6.266   3.545  1.00 20.00     0.014 C 
HETATM    7  C7  UNL     1     -34.224   4.754   6.727  1.00 20.00     0.018 C 
HETATM    8  C8  UNL     1     -33.643   4.227   4.342  1.00 20.00     0.018 C 
HETATM    9  N9  UNL     1     -33.229   8.280   7.137  1.00 20.00    -0.195 NA
HETATM   10  N10 UNL     1     -32.265   7.402   3.034  1.00 20.00    -0.195 NA
ENDROOT
TORSDOF 0
