REMARK  3 active torsions:
REMARK  status: ('A' for Active; 'I' for Inactive)
REMARK    1  A    between atoms: C4_4  and  C6_6 
REMARK    2  A    between atoms: C6_6  and  C8_8 
REMARK    3  A    between atoms: C7_7  and  C8_8 
ROOT
HETATM    1  C1  UNL     1     -34.579   6.849   6.264  1.00 20.00     0.011 C 
HETATM    2  C2  UNL     1     -33.560   7.167   5.180  1.00 20.00     0.016 C 
HETATM    3  C3  UNL     1     -34.723   5.337   6.288  1.00 20.00     0.074 C 
HETATM    4  C4  UNL     1     -34.018   6.424   3.928  1.00 20.00     0.047 C 
HETATM    5  S9  UNL     1     -34.648   4.830   4.548  1.00 20.00    -0.164 SA
ENDROOT
BRANCH   4   6
HETATM    6  C6  UNL     1     -32.900   6.228   2.919  1.00 20.00     0.015 C 
BRANCH   6   7
HETATM    7  C8  UNL     1     -32.353   7.566   2.422  1.00 20.00     0.001 C 
BRANCH   7   8
HETATM    8  C7  UNL     1     -33.450   8.409   1.774  1.00 20.00    -0.005 C 
HETATM    9  C5  UNL     1     -32.917   9.755   1.308  1.00 20.00     0.005 C 
ENDBRANCH   7   8
ENDBRANCH   6   7
ENDBRANCH   4   6
TORSDOF 3
