REMARK  2 active torsions:
REMARK  status: ('A' for Active; 'I' for Inactive)
REMARK    1  A    between atoms: C2_2  and  C5_5 
REMARK    2  A    between atoms: C5_5  and  C6_6 
ROOT
HETATM    1  C1  UNL     1     -33.635   5.859   6.614  1.00 20.00     0.206 A 
HETATM    2  C2  UNL     1     -34.059   5.612   5.186  1.00 20.00     0.079 A 
HETATM    3  C3  UNL     1     -34.153   4.210   4.678  1.00 20.00     0.048 C 
HETATM    4  O7  UNL     1     -35.012   5.920   6.212  1.00 20.00    -0.375 OA
ENDROOT
BRANCH   2   5
HETATM    5  C5  UNL     1     -33.892   6.716   4.154  1.00 20.00     0.039 C 
BRANCH   5   6
HETATM    6  C6  UNL     1     -32.480   6.729   3.572  1.00 20.00    -0.002 C 
HETATM    7  C4  UNL     1     -32.321   7.815   2.520  1.00 20.00     0.005 C 
ENDBRANCH   5   6
ENDBRANCH   2   5
TORSDOF 2
