REMARK  1 active torsions:
REMARK  status: ('A' for Active; 'I' for Inactive)
REMARK    1  A    between atoms: C5_5  and  N10_10 
ROOT
HETATM    1  C1  UNL     1     -33.839   5.043   6.442  1.00 20.00    -0.026 C 
HETATM    2  C2  UNL     1     -36.240   6.850   4.483  1.00 20.00    -0.026 C 
HETATM    3  C3  UNL     1     -33.700   6.380   6.418  1.00 20.00    -0.005 C 
HETATM    4  C4  UNL     1     -35.912   5.625   4.037  1.00 20.00    -0.005 C 
HETATM    5  C6  UNL     1     -34.153   4.237   5.204  1.00 20.00     0.056 C 
HETATM    6  C7  UNL     1     -35.213   7.827   5.004  1.00 20.00     0.056 C 
HETATM    7  C8  UNL     1     -33.815   7.194   5.145  1.00 20.00     0.113 C 
HETATM    8  C9  UNL     1     -34.483   5.125   3.989  1.00 20.00     0.113 C 
HETATM    9  N10 UNL     1     -33.596   6.292   4.010  1.00 20.00    -0.343 N 
ENDROOT
BRANCH   9  10
HETATM   10  C5  UNL     1     -32.642   6.528   3.039  1.00 20.00     0.352 C 
HETATM   11  O11 UNL     1     -31.869   7.477   2.972  1.00 20.00    -0.283 OA
ENDBRANCH   9  10
TORSDOF 1
