REMARK  0 active torsions:
REMARK  status: ('A' for Active; 'I' for Inactive)
ROOT
HETATM    1  C1  UNL     1     -34.204   4.613   5.523  1.00 20.00     0.048 C 
HETATM    2  C2  UNL     1     -34.815   5.545   6.548  1.00 20.00     0.169 C 
HETATM    3  C3  UNL     1     -34.131   6.820   4.719  1.00 20.00     0.187 C 
HETATM    4  C4  UNL     1     -34.396   5.403   4.251  1.00 20.00     0.108 C 
HETATM    5  O5  UNL     1     -34.561   6.881   6.089  1.00 20.00    -0.390 OA
HETATM    6 CL6  UNL     1     -33.312   4.892   2.955  1.00 20.00    -0.123 Cl
ENDROOT
TORSDOF 0
