REMARK  0 active torsions:
REMARK  status: ('A' for Active; 'I' for Inactive)
ROOT
HETATM    1  C1  UNL     1     -32.363   6.744   2.324  1.00 20.00     0.166 A 
HETATM    2  C2  UNL     1     -33.109   6.966   4.335  1.00 20.00     0.048 A 
HETATM    3  C3  UNL     1     -33.791   5.838   3.977  1.00 20.00     0.008 A 
HETATM    4  C4  UNL     1     -33.419   7.390   5.714  1.00 20.00     0.061 C 
HETATM    5  C5  UNL     1     -34.672   5.306   5.034  1.00 20.00     0.048 C 
HETATM    6  C6  UNL     1     -34.176   6.135   6.268  1.00 20.00     0.011 C 
HETATM    7  N7  UNL     1     -32.278   7.509   3.402  1.00 20.00    -0.257 NA
HETATM    8  S8  UNL     1     -33.432   5.373   2.412  1.00 20.00    -0.085 SA
ENDROOT
TORSDOF 0
