REMARK  1 active torsions:
REMARK  status: ('A' for Active; 'I' for Inactive)
REMARK    1  A    between atoms: C7_7  and  C10_10 
ROOT
HETATM    1  C1  UNL     1     -33.942   6.649   6.996  1.00 20.00    -0.004 C 
HETATM    2  C2  UNL     1     -34.645   5.401   6.758  1.00 20.00    -0.004 C 
HETATM    3  C3  UNL     1     -33.419   7.508   6.102  1.00 20.00    -0.017 C 
HETATM    4  C4  UNL     1     -34.940   4.809   5.586  1.00 20.00    -0.017 C 
HETATM    5  C5  UNL     1     -34.749   7.609   4.006  1.00 20.00    -0.021 C 
HETATM    6  C6  UNL     1     -35.396   6.457   3.785  1.00 20.00    -0.021 C 
HETATM    7  C8  UNL     1     -33.387   7.352   4.601  1.00 20.00     0.042 C 
HETATM    8  C9  UNL     1     -34.554   5.279   4.205  1.00 20.00     0.042 C 
HETATM    9  C10 UNL     1     -33.143   5.893   4.180  1.00 20.00     0.077 C 
ENDROOT
BRANCH   9  10
HETATM   10  C7  UNL     1     -32.529   5.825   2.806  1.00 20.00     0.129 C 
HETATM   11  C11 UNL     1     -32.284   4.452   2.241  1.00 20.00     0.091 C 
HETATM   12  O12 UNL     1     -32.243   6.842   2.176  1.00 20.00    -0.298 OA
ENDBRANCH   9  10
TORSDOF 1
