REMARK  0 active torsions:
REMARK  status: ('A' for Active; 'I' for Inactive)
ROOT
HETATM    1  C1  UNL     1     -33.298   5.195   2.599  1.00 20.00     0.014 A 
HETATM    2  C2  UNL     1     -32.697   6.095   1.717  1.00 20.00     0.024 A 
HETATM    3  C3  UNL     1     -34.177   4.692   4.831  1.00 20.00     0.031 A 
HETATM    4  C4  UNL     1     -32.638   7.770   3.455  1.00 20.00     0.039 A 
HETATM    5  C5  UNL     1     -34.420   5.139   6.121  1.00 20.00     0.119 A 
HETATM    6  C6  UNL     1     -33.576   5.571   3.923  1.00 20.00    -0.021 A 
HETATM    7  C7  UNL     1     -33.242   6.872   4.352  1.00 20.00     0.016 A 
HETATM    8  C8  UNL     1     -32.368   7.379   2.144  1.00 20.00     0.035 A 
HETATM    9  C9  UNL     1     -33.534   7.210   5.675  1.00 20.00     0.136 A 
HETATM   10  N10 UNL     1     -34.114   6.376   6.567  1.00 20.00    -0.248 NA
HETATM   11 CL11 UNL     1     -31.628   8.484   1.051  1.00 20.00    -0.084 Cl
HETATM   12 CL12 UNL     1     -33.196   8.754   6.371  1.00 20.00    -0.061 Cl
ENDROOT
TORSDOF 0
