REMARK  0 active torsions:
REMARK  status: ('A' for Active; 'I' for Inactive)
ROOT
HETATM    1  C1  UNL     1     -33.279   7.557   5.321  1.00 20.00     0.033 A 
HETATM    2  C2  UNL     1     -33.830   7.360   6.577  1.00 20.00     0.117 A 
HETATM    3  C3  UNL     1     -34.473   5.175   6.127  1.00 20.00     0.136 A 
HETATM    4  C4  UNL     1     -33.117   5.132   2.514  1.00 20.00     0.070 A 
HETATM    5  C5  UNL     1     -33.337   6.480   4.416  1.00 20.00     0.002 A 
HETATM    6  C6  UNL     1     -33.941   5.294   4.842  1.00 20.00     0.034 A 
HETATM    7  C7  UNL     1     -32.866   6.366   3.065  1.00 20.00     0.029 A 
HETATM    8  N8  UNL     1     -34.412   6.216   6.987  1.00 20.00    -0.272 NA
HETATM    9  S9  UNL     1     -33.918   4.095   3.605  1.00 20.00    -0.098 SA
HETATM   10 BR10 UNL     1     -31.992   7.765   2.143  1.00 20.00    -0.050 Br
ENDROOT
TORSDOF 0
