REMARK  1 active torsions:
REMARK  status: ('A' for Active; 'I' for Inactive)
REMARK    1  A    between atoms: C6_6  and  N7_7 
ROOT
HETATM    1  C1  UNL     1     -32.381   6.209   2.723  1.00 20.00     0.000 C 
HETATM    2  C2  UNL     1     -33.029   7.268   3.608  1.00 20.00     0.003 C 
HETATM    3  C3  UNL     1     -33.246   4.958   2.604  1.00 20.00     0.003 C 
HETATM    4  C4  UNL     1     -33.393   6.707   4.984  1.00 20.00     0.046 C 
HETATM    5  C5  UNL     1     -33.611   4.391   3.978  1.00 20.00     0.046 C 
HETATM    6  C6  UNL     1     -34.251   5.437   4.903  1.00 20.00     0.136 C 
HETATM    7 CL9  UNL     1     -35.904   5.840   4.330  1.00 20.00    -0.098 Cl
ENDROOT
BRANCH   6   8
HETATM    8  N7  UNL     1     -34.392   4.854   6.274  1.00 20.00    -0.037 NA
HETATM    9  O8  UNL     1     -34.931   5.645   7.046  1.00 20.00    -0.099 OA
ENDBRANCH   6   8
TORSDOF 1
