REMARK  0 active torsions:
REMARK  status: ('A' for Active; 'I' for Inactive)
ROOT
HETATM    1  C1  UNL     1     -32.754   7.506   3.306  1.00 20.00     0.003 C 
HETATM    2  C2  UNL     1     -32.270   6.200   2.679  1.00 20.00     0.003 C 
HETATM    3  C3  UNL     1     -33.414   7.058   4.612  1.00 20.00     0.040 C 
HETATM    4  C4  UNL     1     -33.403   5.213   2.973  1.00 20.00     0.040 C 
HETATM    5  C5  UNL     1     -34.586   4.795   5.298  1.00 20.00     0.207 A 
HETATM    6  C6  UNL     1     -33.959   5.705   4.274  1.00 20.00     0.082 A 
HETATM    7  O7  UNL     1     -35.382   5.579   4.400  1.00 20.00    -0.375 OA
ENDROOT
TORSDOF 0
