REMARK  3 active torsions:
REMARK  status: ('A' for Active; 'I' for Inactive)
REMARK    1  A    between atoms: C2_2  and  C6_6 
REMARK    2  A    between atoms: C2_2  and  O9_9 
REMARK    3  A    between atoms: C5_5  and  C6_6 
ROOT
HETATM    1  C1  UNL     1     -34.228   5.576   4.773  1.00 20.00     0.074 C 
HETATM    2  C6  UNL     1     -33.625   6.828   4.279  1.00 20.00     0.192 C 
HETATM    3  N7  UNL     1     -34.706   4.592   5.160  1.00 20.00    -0.196 NA
ENDROOT
BRANCH   2   4
HETATM    4  C2  UNL     1     -32.929   6.619   2.944  1.00 20.00     0.276 C 
HETATM    5  O8  UNL     1     -32.812   5.541   2.374  1.00 20.00    -0.264 OA
BRANCH   4   6
HETATM    6  O9  UNL     1     -32.445   7.814   2.490  1.00 20.00    -0.325 OA
HETATM    7  C4  UNL     1     -31.749   7.763   1.240  1.00 20.00     0.213 C 
ENDBRANCH   4   6
ENDBRANCH   2   4
BRANCH   2   8
HETATM    8  C5  UNL     1     -32.679   7.445   5.320  1.00 20.00     0.025 C 
HETATM    9  C3  UNL     1     -33.329   7.746   6.667  1.00 20.00     0.007 C 
ENDBRANCH   2   8
TORSDOF 3
