REMARK  2 active torsions:
REMARK  status: ('A' for Active; 'I' for Inactive)
REMARK    1  A    between atoms: C1_1  and  C3_3 
REMARK    2  A    between atoms: C2_2  and  C9_9 
ROOT
HETATM    1  C1  UNL     1     -33.309   7.214   3.790  1.00 20.00    -0.071 C 
HETATM    2  C2  UNL     1     -32.807   7.567   2.758  1.00 20.00    -0.095 C 
ENDROOT
BRANCH   1   3
HETATM    3  C3  UNL     1     -33.921   6.785   5.047  1.00 20.00     0.229 A 
HETATM    4  C4  UNL     1     -34.400   5.382   5.214  1.00 20.00     0.160 A 
HETATM    5  C5  UNL     1     -34.284   4.323   4.175  1.00 20.00     0.043 C 
HETATM    6  O10 UNL     1     -35.295   6.447   4.881  1.00 20.00    -0.363 OA
ENDBRANCH   1   3
BRANCH   2   7
HETATM    7  C9  UNL     1     -32.189   8.001   1.485  1.00 20.00     0.013 C 
HETATM    8  C6  UNL     1     -33.088   9.048   0.813  1.00 20.00     0.028 C 
HETATM    9  C7  UNL     1     -32.028   6.790   0.557  1.00 20.00     0.028 C 
HETATM   10  C8  UNL     1     -30.811   8.616   1.772  1.00 20.00     0.028 C 
ENDBRANCH   2   7
TORSDOF 2
