REMARK  1 active torsions:
REMARK  status: ('A' for Active; 'I' for Inactive)
REMARK    1  A    between atoms: C3_3  and  C6_6 
ROOT
HETATM    1  C1  UNL     1     -32.448   5.837   3.006  1.00 20.00     0.282 C 
HETATM    2  C2  UNL     1     -32.371   7.310   3.373  1.00 20.00     0.106 C 
HETATM    3  C3  UNL     1     -34.286   5.891   4.514  1.00 20.00     0.201 C 
HETATM    4  C4  UNL     1     -35.783   6.194   4.432  1.00 20.00     0.061 C 
HETATM    5  N7  UNL     1     -33.832   5.403   3.204  1.00 20.00     0.103 N 
HETATM    6  S8  UNL     1     -33.370   7.435   4.871  1.00 20.00    -0.127 SA
HETATM    7  H21 UNL     1     -34.401   5.835   2.474  1.00 20.00     0.318 HD
ENDROOT
BRANCH   3   8
HETATM    8  C6  UNL     1     -34.004   4.867   5.619  1.00 20.00     0.048 C 
HETATM    9  C5  UNL     1     -34.444   5.367   6.954  1.00 20.00     0.009 C 
ENDBRANCH   3   8
TORSDOF 1
