REMARK  0 active torsions:
REMARK  status: ('A' for Active; 'I' for Inactive)
ROOT
HETATM    1  C1  UNL     1     -32.576   6.758   2.147  1.00 20.00     0.094 C 
HETATM    2  C2  UNL     1     -34.453   7.101   6.278  1.00 20.00     0.003 C 
HETATM    3  C3  UNL     1     -34.112   5.639   6.556  1.00 20.00     0.003 C 
HETATM    4  C4  UNL     1     -33.797   7.372   4.923  1.00 20.00     0.042 C 
HETATM    5  C5  UNL     1     -34.265   4.964   5.191  1.00 20.00     0.042 C 
HETATM    6  C6  UNL     1     -33.295   5.752   2.864  1.00 20.00     0.263 A 
HETATM    7  C7  UNL     1     -33.894   6.048   4.221  1.00 20.00     0.101 A 
HETATM    8  N8  UNL     1     -31.992   7.574   1.565  1.00 20.00    -0.194 NA
HETATM    9  O9  UNL     1     -34.685   6.064   3.025  1.00 20.00    -0.354 OA
ENDROOT
TORSDOF 0
