REMARK  1 active torsions:
REMARK  status: ('A' for Active; 'I' for Inactive)
REMARK    1  A    between atoms: C5_5  and  O12_12 
ROOT
HETATM    1  C1  UNL     1     -34.043   4.428   5.038  1.00 20.00     0.006 C 
HETATM    2  C2  UNL     1     -33.073   5.397   5.727  1.00 20.00     0.012 C 
HETATM    3  C3  UNL     1     -34.822   6.622   4.665  1.00 20.00     0.017 C 
HETATM    4  C4  UNL     1     -34.657   5.289   3.920  1.00 20.00    -0.003 C 
HETATM    5  C5  UNL     1     -32.680   6.650   3.578  1.00 20.00     0.137 C 
HETATM    6  C6  UNL     1     -33.328   6.733   4.990  1.00 20.00    -0.017 C 
HETATM    7  C7  UNL     1     -33.610   5.649   2.817  1.00 20.00    -0.017 C 
HETATM    8  C8  UNL     1     -32.945   7.952   5.807  1.00 20.00     0.018 C 
HETATM    9  C9  UNL     1     -32.812   4.437   2.310  1.00 20.00     0.018 C 
HETATM   10  C10 UNL     1     -34.328   6.268   1.599  1.00 20.00     0.018 C 
ENDROOT
BRANCH   5  11
HETATM   11  O12 UNL     1     -32.650   7.932   2.967  1.00 20.00    -0.389 OA
HETATM   12  C11 UNL     1     -31.690   7.990   1.920  1.00 20.00     0.202 C 
ENDBRANCH   5  11
TORSDOF 1
