REMARK  2 active torsions:
REMARK  status: ('A' for Active; 'I' for Inactive)
REMARK    1  A    between atoms: C3_3  and  C8_8 
REMARK       I    between atoms: C3_3  and  N10_10 
REMARK    2  A    between atoms: C9_9  and  N10_10 
ROOT
HETATM    1  C1  UNL     1     -36.754   6.193   3.868  1.00 20.00     0.015 C 
HETATM    2  C2  UNL     1     -35.716   6.037   4.453  1.00 20.00    -0.086 C 
HETATM    3  C6  UNL     1     -34.576   6.373   6.605  1.00 20.00     0.052 C 
HETATM    4  C7  UNL     1     -34.080   4.356   5.199  1.00 20.00     0.052 C 
HETATM    5  C9  UNL     1     -34.441   5.845   5.173  1.00 20.00     0.088 C 
ENDROOT
BRANCH   5   6
HETATM    6  N10 UNL     1     -33.399   6.573   4.487  1.00 20.00    -0.341 N 
HETATM    7  C3  UNL     1     -33.049   6.320   3.169  1.00 20.00     0.222 C 
HETATM    8  O11 UNL     1     -33.575   5.468   2.456  1.00 20.00    -0.273 OA
HETATM    9  H26 UNL     1     -32.902   7.302   4.991  1.00 20.00     0.164 HD
BRANCH   7  10
HETATM   10  C8  UNL     1     -31.918   7.223   2.682  1.00 20.00     0.070 C 
HETATM   11  C4  UNL     1     -32.033   7.444   1.175  1.00 20.00     0.019 C 
HETATM   12  C5  UNL     1     -31.926   8.561   3.418  1.00 20.00     0.019 C 
ENDBRANCH   7  10
ENDBRANCH   5   6
TORSDOF 2
