REMARK  2 active torsions:
REMARK  status: ('A' for Active; 'I' for Inactive)
REMARK    1  A    between atoms: C2_2  and  C4_4 
REMARK    2  A    between atoms: C4_4  and  S6_6 
ROOT
HETATM    1  C1  UNL     1     -33.370   7.419   5.985  1.00 20.00     0.201 A 
HETATM    2  C2  UNL     1     -33.949   6.161   6.569  1.00 20.00     0.154 A 
HETATM    3  O5  UNL     1     -34.446   7.452   6.936  1.00 20.00    -0.380 OA
ENDROOT
BRANCH   2   4
HETATM    4  C4  UNL     1     -34.907   5.325   5.800  1.00 20.00     0.107 C 
BRANCH   4   5
HETATM    5  S6  UNL     1     -34.046   4.251   4.604  1.00 20.00    -0.171 SA
HETATM    6  C3  UNL     1     -33.775   5.480   3.309  1.00 20.00     0.089 C 
ENDBRANCH   4   5
ENDBRANCH   2   4
TORSDOF 2
