REMARK  0 active torsions:
REMARK  status: ('A' for Active; 'I' for Inactive)
ROOT
HETATM    1  C1  UNL     1     -33.406   6.857   5.066  1.00 20.00     0.116 C 
HETATM    2  C2  UNL     1     -32.914   5.547   2.842  1.00 20.00     0.344 C 
HETATM    3  C3  UNL     1     -34.282   5.623   4.792  1.00 20.00     0.159 C 
HETATM    4  C4  UNL     1     -34.565   4.881   6.108  1.00 20.00     0.049 C 
HETATM    5  C5  UNL     1     -35.630   6.000   4.149  1.00 20.00     0.049 C 
HETATM    6  N6  UNL     1     -33.511   4.729   3.900  1.00 20.00     0.102 N 
HETATM    7  S7  UNL     1     -32.525   7.176   3.518  1.00 20.00    -0.137 SA
HETATM    8  H18 UNL     1     -34.156   4.076   3.464  1.00 20.00     0.317 HD
ENDROOT
TORSDOF 0
