REMARK  2 active torsions:
REMARK  status: ('A' for Active; 'I' for Inactive)
REMARK    1  A    between atoms: C1_1  and  C6_6 
REMARK    2  A    between atoms: C1_1  and  O9_9 
ROOT
HETATM    1  C2  UNL     1     -33.558   7.885   2.690  1.00 20.00     0.024 C 
HETATM    2  C3  UNL     1     -31.681   7.291   3.477  1.00 20.00     0.024 C 
HETATM    3  C4  UNL     1     -33.012   5.836   2.698  1.00 20.00     0.024 C 
HETATM    4  C5  UNL     1     -32.346   7.108   2.069  1.00 20.00    -0.011 C 
HETATM    5  C6  UNL     1     -33.149   6.901   3.829  1.00 20.00     0.049 C 
ENDROOT
BRANCH   5   6
HETATM    6  C1  UNL     1     -33.763   6.746   5.173  1.00 20.00     0.267 C 
HETATM    7  O8  UNL     1     -33.827   7.642   6.004  1.00 20.00    -0.264 OA
BRANCH   6   8
HETATM    8  O9  UNL     1     -34.227   5.472   5.317  1.00 20.00    -0.326 OA
HETATM    9  C7  UNL     1     -34.846   5.183   6.575  1.00 20.00     0.213 C 
ENDBRANCH   6   8
ENDBRANCH   5   6
TORSDOF 2
