REMARK  1 active torsions:
REMARK  status: ('A' for Active; 'I' for Inactive)
REMARK    1  A    between atoms: C4_4  and  C5_5 
ROOT
HETATM    1  C1  UNL     1     -32.928   6.953   3.737  1.00 20.00     0.127 C 
HETATM    2  C2  UNL     1     -33.662   5.600   3.639  1.00 20.00     0.084 C 
HETATM    3  C3  UNL     1     -33.816   7.398   4.917  1.00 20.00     0.084 C 
HETATM    4  C4  UNL     1     -34.777   6.241   4.516  1.00 20.00     0.013 C 
HETATM    5  O6  UNL     1     -32.020   7.468   3.121  1.00 20.00    -0.298 OA
ENDROOT
BRANCH   4   6
HETATM    6  C5  UNL     1     -35.298   5.387   5.656  1.00 20.00     0.120 C 
HETATM    7 CL7  UNL     1     -33.981   4.971   6.772  1.00 20.00    -0.130 Cl
ENDBRANCH   4   6
TORSDOF 1
