REMARK  2 active torsions:
REMARK  status: ('A' for Active; 'I' for Inactive)
REMARK    1  A    between atoms: C1_1  and  C7_7 
REMARK    2  A    between atoms: C6_6  and  N8_8 
ROOT
HETATM    1  C1  UNL     1     -33.738   6.765   4.019  1.00 20.00     0.108 C 
HETATM    2  N8  UNL     1     -32.909   6.491   3.070  1.00 20.00    -0.299 NA
ENDROOT
BRANCH   1   3
HETATM    3  C7  UNL     1     -34.366   5.685   4.881  1.00 20.00     0.063 C 
HETATM    4  C4  UNL     1     -33.850   4.322   4.423  1.00 20.00     0.038 C 
HETATM    5  C5  UNL     1     -35.892   5.719   4.877  1.00 20.00     0.038 C 
HETATM    6 CL9  UNL     1     -33.779   6.005   6.544  1.00 20.00    -0.114 Cl
ENDBRANCH   1   3
BRANCH   2   7
HETATM    7  C6  UNL     1     -32.433   7.679   2.369  1.00 20.00     0.099 C 
HETATM    8  C2  UNL     1     -31.191   8.204   3.074  1.00 20.00     0.034 C 
HETATM    9  C3  UNL     1     -32.148   7.316   0.919  1.00 20.00     0.034 C 
ENDBRANCH   2   7
TORSDOF 2
