REMARK  4 active torsions:
REMARK  status: ('A' for Active; 'I' for Inactive)
REMARK    1  A    between atoms: C1_1  and  C6_6 
REMARK    2  A    between atoms: C1_1  and  C9_9 
REMARK    3  A    between atoms: C7_7  and  C8_8 
REMARK    4  A    between atoms: C8_8  and  N10_10 
ROOT
HETATM    1  C1  UNL     1     -34.000   6.676   4.741  1.00 20.00     0.009 C 
HETATM    2  N10 UNL     1     -33.046   7.516   4.518  1.00 20.00    -0.298 NA
ENDROOT
BRANCH   1   3
HETATM    3  C6  UNL     1     -34.484   5.622   3.759  1.00 20.00     0.050 C 
HETATM    4  C2  UNL     1     -33.696   4.335   3.927  1.00 20.00     0.011 C 
ENDBRANCH   1   3
BRANCH   1   5
HETATM    5  C9  UNL     1     -34.700   6.724   6.102  1.00 20.00     0.025 C 
HETATM    6  C4  UNL     1     -34.129   7.864   6.940  1.00 20.00     0.016 C 
HETATM    7  C5  UNL     1     -34.578   5.385   6.822  1.00 20.00     0.016 C 
ENDBRANCH   1   5
BRANCH   2   8
HETATM    8  C8  UNL     1     -32.348   7.492   3.244  1.00 20.00     0.148 C 
BRANCH   8   9
HETATM    9  C7  UNL     1     -33.045   8.417   2.255  1.00 20.00     0.017 C 
HETATM   10  C3  UNL     1     -32.370   8.431   0.890  1.00 20.00     0.007 C 
ENDBRANCH   8   9
ENDBRANCH   2   8
TORSDOF 4
