REMARK  1 active torsions:
REMARK  status: ('A' for Active; 'I' for Inactive)
REMARK    1  A    between atoms: C2_2  and  C5_5 
ROOT
HETATM    1  C1  UNL     1     -33.271   4.932   2.303  1.00 20.00     0.065 A 
HETATM    2  C2  UNL     1     -32.957   6.201   2.740  1.00 20.00     0.015 A 
HETATM    3  C3  UNL     1     -33.341   6.414   4.097  1.00 20.00    -0.031 A 
HETATM    4  C4  UNL     1     -33.941   5.290   4.633  1.00 20.00    -0.010 A 
HETATM    5  C6  UNL     1     -33.170   7.677   4.884  1.00 20.00     0.040 C 
HETATM    6  C7  UNL     1     -34.437   5.168   6.040  1.00 20.00     0.046 C 
HETATM    7  C8  UNL     1     -33.339   7.435   6.392  1.00 20.00     0.005 C 
HETATM    8  C9  UNL     1     -34.561   6.554   6.691  1.00 20.00     0.005 C 
HETATM    9  S11 UNL     1     -34.029   4.001   3.525  1.00 20.00    -0.105 SA
ENDROOT
BRANCH   2  10
HETATM   10  C5  UNL     1     -32.317   7.164   1.881  1.00 20.00     0.271 C 
HETATM   11  O10 UNL     1     -32.019   8.315   2.240  1.00 20.00    -0.301 OA
ENDBRANCH   2  10
TORSDOF 1
