REMARK  3 active torsions:
REMARK  status: ('A' for Active; 'I' for Inactive)
REMARK    1  A    between atoms: C1_1  and  C3_3 
REMARK       I    between atoms: C1_1  and  N10_10 
REMARK    2  A    between atoms: C8_8  and  C9_9 
REMARK    3  A    between atoms: C8_8  and  N10_10 
ROOT
HETATM    1  C1  UNL     1     -33.855   6.381   4.118  1.00 20.00     0.222 C 
HETATM    2  N10 UNL     1     -32.886   7.293   3.826  1.00 20.00    -0.360 N 
HETATM    3  O11 UNL     1     -34.077   5.317   3.553  1.00 20.00    -0.273 OA
HETATM    4  H28 UNL     1     -32.820   8.126   4.377  1.00 20.00     0.162 HD
ENDROOT
BRANCH   1   5
HETATM    5  C3  UNL     1     -34.707   6.792   5.274  1.00 20.00     0.082 A 
HETATM    6  C2  UNL     1     -34.037   7.154   6.561  1.00 20.00     0.019 A 
HETATM    7  C4  UNL     1     -34.847   5.892   6.462  1.00 20.00    -0.005 A 
HETATM    8  C5  UNL     1     -34.175   4.565   6.559  1.00 20.00     0.011 C 
ENDBRANCH   1   5
BRANCH   2   9
HETATM    9  C8  UNL     1     -31.926   7.088   2.718  1.00 20.00     0.126 C 
BRANCH   9  10
HETATM   10  C9  UNL     1     -32.447   7.669   1.398  1.00 20.00    -0.005 C 
HETATM   11  C6  UNL     1     -32.703   9.175   1.488  1.00 20.00     0.011 C 
HETATM   12  C7  UNL     1     -31.521   7.349   0.224  1.00 20.00     0.011 C 
ENDBRANCH   9  10
ENDBRANCH   2   9
TORSDOF 3
