REMARK  3 active torsions:
REMARK  status: ('A' for Active; 'I' for Inactive)
REMARK    1  A    between atoms: C1_1  and  C3_3 
REMARK       I    between atoms: C1_1  and  N10_10 
REMARK    2  A    between atoms: C8_8  and  C9_9 
REMARK    3  A    between atoms: C8_8  and  N10_10 
ROOT
HETATM    1  C1  UNL     1     -33.119   6.506   3.456  1.00 20.00     0.222 C 
HETATM    2  N10 UNL     1     -32.806   7.830   3.366  1.00 20.00    -0.360 N 
HETATM    3  O11 UNL     1     -32.544   5.563   2.926  1.00 20.00    -0.273 OA
HETATM    4  H28 UNL     1     -33.368   8.496   3.856  1.00 20.00     0.162 HD
ENDROOT
BRANCH   1   5
HETATM    5  C3  UNL     1     -34.311   6.251   4.317  1.00 20.00     0.082 A 
HETATM    6  C2  UNL     1     -34.452   4.907   4.957  1.00 20.00     0.019 A 
HETATM    7  C4  UNL     1     -34.103   6.106   5.792  1.00 20.00    -0.005 A 
HETATM    8  C5  UNL     1     -35.104   6.680   6.734  1.00 20.00     0.011 C 
ENDBRANCH   1   5
BRANCH   2   9
HETATM    9  C8  UNL     1     -31.658   8.310   2.564  1.00 20.00     0.126 C 
BRANCH   9  10
HETATM   10  C9  UNL     1     -32.064   8.617   1.117  1.00 20.00    -0.005 C 
HETATM   11  C6  UNL     1     -32.623   7.390   0.397  1.00 20.00     0.011 C 
HETATM   12  C7  UNL     1     -33.048   9.785   1.033  1.00 20.00     0.011 C 
ENDBRANCH   9  10
ENDBRANCH   2   9
TORSDOF 3
