REMARK  1 active torsions:
REMARK  status: ('A' for Active; 'I' for Inactive)
REMARK    1  A    between atoms: C1_1  and  C4_4 
ROOT
HETATM    1  C2  UNL     1     -33.272   7.568   5.449  1.00 20.00     0.023 C 
HETATM    2  C3  UNL     1     -33.460   6.993   6.841  1.00 20.00     0.075 C 
HETATM    3  C4  UNL     1     -33.157   6.377   4.504  1.00 20.00     0.066 C 
HETATM    4  C5  UNL     1     -34.348   5.443   4.794  1.00 20.00     0.010 C 
HETATM    5  C6  UNL     1     -35.680   5.899   4.182  1.00 20.00     0.027 C 
HETATM    6  C7  UNL     1     -34.047   4.001   4.381  1.00 20.00     0.027 C 
HETATM    7  S9  UNL     1     -34.514   5.532   6.625  1.00 20.00    -0.159 SA
ENDROOT
BRANCH   3   8
HETATM    8  C1  UNL     1     -33.102   6.832   3.076  1.00 20.00     0.237 C 
HETATM    9  O8  UNL     1     -32.482   6.238   2.201  1.00 20.00    -0.306 OA
ENDBRANCH   3   8
TORSDOF 1
