REMARK  0 active torsions:
REMARK  status: ('A' for Active; 'I' for Inactive)
ROOT
HETATM    1  C1  UNL     1     -34.859   5.754   6.775  1.00 20.00     0.137 A 
HETATM    2  C2  UNL     1     -34.311   6.978   6.426  1.00 20.00     0.118 A 
HETATM    3  C3  UNL     1     -34.111   5.490   4.829  1.00 20.00     0.177 A 
HETATM    4  C4  UNL     1     -33.184   7.520   4.208  1.00 20.00     0.112 A 
HETATM    5  C5  UNL     1     -32.944   6.797   3.099  1.00 20.00    -0.002 A 
HETATM    6  C6  UNL     1     -32.260   7.278   1.868  1.00 20.00     0.058 C 
HETATM    7  N7  UNL     1     -34.729   4.821   5.763  1.00 20.00    -0.235 NA
HETATM    8  N8  UNL     1     -33.836   6.779   5.166  1.00 20.00    -0.309 N 
HETATM    9  S9  UNL     1     -33.545   5.123   3.229  1.00 20.00    -0.055 SA
ENDROOT
TORSDOF 0
