REMARK  2 active torsions:
REMARK  status: ('A' for Active; 'I' for Inactive)
REMARK    1  A    between atoms: C5_5  and  C6_6 
REMARK    2  A    between atoms: C7_7  and  N9_9 
ROOT
HETATM    1  C1  UNL     1     -32.481   7.803   2.762  1.00 20.00     0.079 C 
HETATM    2  C7  UNL     1     -32.100   7.181   4.033  1.00 20.00     0.252 C 
HETATM    3  N8  UNL     1     -32.780   8.295   1.755  1.00 20.00    -0.196 NA
ENDROOT
BRANCH   2   4
HETATM    4  N9  UNL     1     -33.242   6.970   4.895  1.00 20.00    -0.341 N 
HETATM    5  C4  UNL     1     -33.559   7.755   5.972  1.00 20.00     0.092 A 
HETATM    6  C2  UNL     1     -34.705   7.246   6.543  1.00 20.00     0.020 A 
HETATM    7  C3  UNL     1     -35.091   6.116   5.780  1.00 20.00     0.034 A 
HETATM    8  C5  UNL     1     -34.169   5.968   4.768  1.00 20.00     0.073 A 
BRANCH   8   9
HETATM    9  C6  UNL     1     -34.146   4.964   3.749  1.00 20.00     0.288 C 
HETATM   10  O10 UNL     1     -33.274   4.893   2.860  1.00 20.00    -0.300 OA
ENDBRANCH   8   9
ENDBRANCH   2   4
TORSDOF 2
