REMARK  4 active torsions:
REMARK  status: ('A' for Active; 'I' for Inactive)
REMARK    1  A    between atoms: C1_1  and  C6_6 
REMARK    2  A    between atoms: C1_1  and  O8_8 
REMARK    3  A    between atoms: C5_5  and  C6_6 
REMARK    4  A    between atoms: C5_5  and  S9_9 
ROOT
HETATM    1  C2  UNL     1     -32.529   5.128   2.180  1.00 20.00     0.021 C 
HETATM    2  C6  UNL     1     -32.620   6.308   3.149  1.00 20.00     0.090 C 
ENDROOT
BRANCH   2   3
HETATM    3  C1  UNL     1     -33.561   5.998   4.305  1.00 20.00     0.263 C 
HETATM    4  O7  UNL     1     -34.232   4.979   4.406  1.00 20.00    -0.265 OA
BRANCH   3   5
HETATM    5  O8  UNL     1     -33.542   7.030   5.199  1.00 20.00    -0.326 OA
HETATM    6  C3  UNL     1     -34.392   6.874   6.340  1.00 20.00     0.213 C 
ENDBRANCH   3   5
ENDBRANCH   2   3
BRANCH   2   7
HETATM    7  C5  UNL     1     -32.985   7.625   2.449  1.00 20.00     0.087 C 
BRANCH   7   8
HETATM    8  S9  UNL     1     -31.889   8.086   1.069  1.00 20.00    -0.173 SA
HETATM    9  C4  UNL     1     -32.659   9.664   0.645  1.00 20.00     0.089 C 
ENDBRANCH   7   8
ENDBRANCH   2   7
TORSDOF 4
