REMARK  1 active torsions:
REMARK  status: ('A' for Active; 'I' for Inactive)
REMARK    1  A    between atoms: C3_3  and  C7_7 
ROOT
HETATM    1  C1  UNL     1     -32.515   6.120   2.397  1.00 20.00    -0.030 C 
HETATM    2  C2  UNL     1     -32.565   7.130   3.276  1.00 20.00    -0.025 C 
HETATM    3  C4  UNL     1     -33.228   4.820   2.599  1.00 20.00     0.028 C 
HETATM    4  C5  UNL     1     -33.738   4.640   4.031  1.00 20.00     0.021 C 
HETATM    5  C6  UNL     1     -33.371   7.095   4.555  1.00 20.00     0.018 C 
HETATM    6  C7  UNL     1     -34.397   5.917   4.597  1.00 20.00     0.016 C 
HETATM    7  C8  UNL     1     -34.014   8.471   4.785  1.00 20.00     0.015 C 
HETATM    8  C9  UNL     1     -35.709   6.215   3.854  1.00 20.00     0.023 C 
ENDROOT
BRANCH   6   9
HETATM    9  C3  UNL     1     -34.764   5.620   6.032  1.00 20.00     0.241 C 
HETATM   10  O10 UNL     1     -33.944   5.307   6.889  1.00 20.00    -0.306 OA
ENDBRANCH   6   9
TORSDOF 1
