REMARK  3 active torsions:
REMARK  status: ('A' for Active; 'I' for Inactive)
REMARK    1  A    between atoms: C1_1  and  N8_8 
REMARK    2  A    between atoms: C6_6  and  C7_7 
REMARK    3  A    between atoms: C6_6  and  N8_8 
ROOT
HETATM    1  C2  UNL     1     -33.212   7.404   6.154  1.00 20.00     0.033 C 
HETATM    2  C6  UNL     1     -33.624   7.250   4.688  1.00 20.00     0.087 C 
ENDROOT
BRANCH   2   3
HETATM    3  C7  UNL     1     -34.396   5.931   4.356  1.00 20.00    -0.031 C 
HETATM    4  C3  UNL     1     -35.804   6.208   3.795  1.00 20.00     0.016 C 
HETATM    5  C4  UNL     1     -33.614   5.097   3.320  1.00 20.00     0.016 C 
HETATM    6  C5  UNL     1     -34.539   5.073   5.632  1.00 20.00     0.016 C 
ENDBRANCH   2   3
BRANCH   2   7
HETATM    7  N8  UNL     1     -32.452   7.416   3.854  1.00 20.00    -0.363 N 
HETATM    8  H24 UNL     1     -31.563   7.068   4.196  1.00 20.00     0.162 HD
BRANCH   7   9
HETATM    9  C1  UNL     1     -32.486   8.022   2.620  1.00 20.00     0.348 C 
HETATM   10  O9  UNL     1     -33.452   8.500   2.040  1.00 20.00    -0.284 OA
ENDBRANCH   7   9
ENDBRANCH   2   7
TORSDOF 3
