REMARK  0 active torsions:
REMARK  status: ('A' for Active; 'I' for Inactive)
ROOT
HETATM    1  C1  UNL     1     -33.299   6.318   3.461  1.00 20.00     0.037 C 
HETATM    2  C2  UNL     1     -33.842   7.062   5.397  1.00 20.00     0.017 C 
HETATM    3  C3  UNL     1     -32.715   6.311   2.257  1.00 20.00    -0.063 C 
HETATM    4  C4  UNL     1     -33.822   5.091   4.148  1.00 20.00     0.074 C 
HETATM    5  C5  UNL     1     -33.953   5.563   5.603  1.00 20.00    -0.002 C 
HETATM    6  C6  UNL     1     -34.121   8.039   6.496  1.00 20.00     0.066 C 
HETATM    7  C7  UNL     1     -32.208   7.567   1.610  1.00 20.00     0.045 C 
HETATM    8  C8  UNL     1     -32.530   5.045   1.470  1.00 20.00     0.045 C 
HETATM    9  C9  UNL     1     -35.293   5.154   6.207  1.00 20.00     0.021 C 
HETATM   10  C10 UNL     1     -32.788   5.068   6.463  1.00 20.00     0.021 C 
HETATM   11  N11 UNL     1     -33.460   7.450   4.219  1.00 20.00    -0.262 NA
ENDROOT
TORSDOF 0
