REMARK  3 active torsions:
REMARK  status: ('A' for Active; 'I' for Inactive)
REMARK    1  A    between atoms: C1_1  and  C3_3 
REMARK    2  A    between atoms: C2_2  and  C8_8 
REMARK    3  A    between atoms: C3_3  and  O10_10 
ROOT
HETATM    1  C1  UNL     1     -32.484   7.451   3.846  1.00 20.00     0.079 C 
HETATM    2  C2  UNL     1     -33.065   7.695   2.662  1.00 20.00    -0.012 C 
ENDROOT
BRANCH   1   3
HETATM    3  C3  UNL     1     -33.272   6.843   4.941  1.00 20.00     0.282 C 
HETATM    4  O9  UNL     1     -33.088   7.027   6.134  1.00 20.00    -0.260 OA
BRANCH   3   5
HETATM    5  O10 UNL     1     -34.225   6.055   4.374  1.00 20.00    -0.323 OA
HETATM    6  C7  UNL     1     -35.092   5.380   5.292  1.00 20.00     0.213 C 
ENDBRANCH   3   5
ENDBRANCH   1   3
BRANCH   2   7
HETATM    7  C8  UNL     1     -32.412   8.309   1.430  1.00 20.00    -0.034 C 
HETATM    8  C4  UNL     1     -33.066   9.619   0.953  1.00 20.00     0.018 C 
HETATM    9  C5  UNL     1     -30.936   8.592   1.758  1.00 20.00     0.018 C 
HETATM   10  C6  UNL     1     -32.485   7.283   0.285  1.00 20.00     0.018 C 
ENDBRANCH   2   7
TORSDOF 3
