REMARK  3 active torsions:
REMARK  status: ('A' for Active; 'I' for Inactive)
REMARK    1  A    between atoms: C1_1  and  C7_7 
REMARK    2  A    between atoms: C7_7  and  C8_8 
REMARK    3  A    between atoms: N9_9  and  N10_10 
ROOT
HETATM    1  C1  UNL     1     -33.155   5.346   3.381  1.00 20.00     0.023 C 
HETATM    2  C2  UNL     1     -32.602   4.485   2.266  1.00 20.00     0.067 C 
HETATM    3  N9  UNL     1     -34.272   5.129   4.011  1.00 20.00    -0.209 NA
ENDROOT
BRANCH   1   4
HETATM    4  C7  UNL     1     -32.364   6.586   3.766  1.00 20.00     0.059 C 
BRANCH   4   5
HETATM    5  C8  UNL     1     -32.241   7.577   2.600  1.00 20.00    -0.017 C 
HETATM    6  C3  UNL     1     -33.612   8.054   2.117  1.00 20.00     0.010 C 
HETATM    7  C4  UNL     1     -31.392   8.777   3.023  1.00 20.00     0.010 C 
ENDBRANCH   4   5
ENDBRANCH   1   4
BRANCH   3   8
HETATM    8  N10 UNL     1     -34.577   6.029   4.978  1.00 20.00    -0.217 NA
HETATM    9  C5  UNL     1     -34.712   5.447   6.318  1.00 20.00     0.138 C 
HETATM   10  C6  UNL     1     -35.774   6.822   4.686  1.00 20.00     0.138 C 
ENDBRANCH   3   8
TORSDOF 3
