REMARK  3 active torsions:
REMARK  status: ('A' for Active; 'I' for Inactive)
REMARK    1  A    between atoms: C1_1  and  C5_5 
REMARK    2  A    between atoms: C6_6  and  C8_8 
REMARK    3  A    between atoms: C8_8  and  C9_9 
ROOT
HETATM    1  C2  UNL     1     -34.153   7.639   3.516  1.00 20.00     0.028 C 
HETATM    2  C3  UNL     1     -32.758   6.254   2.706  1.00 20.00     0.028 C 
HETATM    3  C4  UNL     1     -32.338   7.234   4.546  1.00 20.00     0.028 C 
HETATM    4  C5  UNL     1     -33.506   6.341   4.059  1.00 20.00     0.038 C 
HETATM    5  C6  UNL     1     -32.635   7.785   3.091  1.00 20.00    -0.037 C 
ENDROOT
BRANCH   4   6
HETATM    6  C1  UNL     1     -34.174   5.236   4.797  1.00 20.00     0.227 C 
HETATM    7  O10 UNL     1     -34.186   4.087   4.365  1.00 20.00    -0.279 OA
HETATM    8 CL11 UNL     1     -34.897   5.782   6.279  1.00 20.00    -0.043 Cl
ENDBRANCH   4   6
BRANCH   5   9
HETATM    9  C8  UNL     1     -31.972   8.883   2.355  1.00 20.00     0.009 C 
BRANCH   9  10
HETATM   10  C9  UNL     1     -32.816   9.412   1.177  1.00 20.00    -0.004 C 
HETATM   11  C7  UNL     1     -33.089   8.353   0.121  1.00 20.00     0.005 C 
ENDBRANCH   9  10
ENDBRANCH   5   9
TORSDOF 3
