REMARK  2 active torsions:
REMARK  status: ('A' for Active; 'I' for Inactive)
REMARK    1  A    between atoms: C1_1  and  C8_8 
REMARK    2  A    between atoms: C2_2  and  C3_3 
ROOT
HETATM    1  C1  UNL     1     -33.290   7.197   4.607  1.00 20.00    -0.009 C 
HETATM    2  C3  UNL     1     -32.926   6.779   3.379  1.00 20.00    -0.027 C 
HETATM    3  C4  UNL     1     -33.076   5.424   2.766  1.00 20.00     0.051 C 
ENDROOT
BRANCH   1   4
HETATM    4  C8  UNL     1     -33.929   6.423   5.757  1.00 20.00    -0.033 C 
HETATM    5  C5  UNL     1     -34.124   7.396   6.943  1.00 20.00     0.018 C 
HETATM    6  C6  UNL     1     -35.316   5.891   5.361  1.00 20.00     0.018 C 
HETATM    7  C7  UNL     1     -33.031   5.276   6.254  1.00 20.00     0.018 C 
ENDBRANCH   1   4
BRANCH   2   8
HETATM    8  C2  UNL     1     -32.299   7.819   2.510  1.00 20.00     0.265 C 
HETATM    9  O9  UNL     1     -31.913   7.592   1.369  1.00 20.00    -0.302 OA
ENDBRANCH   2   8
TORSDOF 2
