REMARK  1 active torsions:
REMARK  status: ('A' for Active; 'I' for Inactive)
REMARK    1  A    between atoms: C3_3  and  C6_6 
ROOT
HETATM    1  C1  UNL     1     -34.335   6.278   6.895  1.00 20.00    -0.030 C 
HETATM    2  C2  UNL     1     -34.890   5.386   6.071  1.00 20.00    -0.030 C 
HETATM    3  C4  UNL     1     -33.945   7.532   6.184  1.00 20.00     0.038 C 
HETATM    4  C5  UNL     1     -34.966   5.889   4.668  1.00 20.00     0.038 C 
HETATM    5  C6  UNL     1     -34.147   7.180   4.710  1.00 20.00     0.054 C 
ENDROOT
BRANCH   5   6
HETATM    6  C3  UNL     1     -32.817   6.983   4.042  1.00 20.00     0.236 C 
HETATM    7  O7  UNL     1     -32.438   7.645   3.082  1.00 20.00    -0.306 OA
ENDBRANCH   5   6
TORSDOF 1
