REMARK  2 active torsions:
REMARK  status: ('A' for Active; 'I' for Inactive)
REMARK    1  A    between atoms: C2_2  and  C6_6 
REMARK    2  A    between atoms: C3_3  and  C7_7 
ROOT
HETATM    1  C1  UNL     1     -32.475   5.277   2.749  1.00 20.00     0.100 A 
HETATM    2  C2  UNL     1     -32.353   6.764   2.972  1.00 20.00     0.089 A 
HETATM    3  C3  UNL     1     -34.207   5.424   4.192  1.00 20.00     0.168 A 
HETATM    4  N8  UNL     1     -33.384   4.559   3.329  1.00 20.00    -0.289 NA
HETATM    5  S9  UNL     1     -33.610   7.135   4.209  1.00 20.00    -0.132 SA
ENDROOT
BRANCH   2   6
HETATM    6  C6  UNL     1     -32.613   7.513   1.678  1.00 20.00     0.016 C 
HETATM    7  C4  UNL     1     -32.524   8.996   1.860  1.00 20.00     0.006 C 
ENDBRANCH   2   6
BRANCH   3   8
HETATM    8  C7  UNL     1     -34.194   4.853   5.603  1.00 20.00     0.033 C 
HETATM    9  C5  UNL     1     -35.043   5.657   6.536  1.00 20.00     0.008 C 
ENDBRANCH   3   8
TORSDOF 2
