REMARK  0 active torsions:
REMARK  status: ('A' for Active; 'I' for Inactive)
ROOT
HETATM    1  C1  UNL     1     -32.536   8.063   2.977  1.00 20.00     0.099 C 
HETATM    2  C2  UNL     1     -33.829   7.409   6.211  1.00 20.00    -0.026 C 
HETATM    3  C3  UNL     1     -32.873   7.750   5.338  1.00 20.00     0.019 C 
HETATM    4  C4  UNL     1     -34.743   6.252   5.957  1.00 20.00     0.057 C 
HETATM    5  C5  UNL     1     -34.217   5.330   4.851  1.00 20.00     0.277 C 
HETATM    6  C6  UNL     1     -32.679   7.030   4.021  1.00 20.00     0.350 C 
HETATM    7  C7  UNL     1     -33.413   5.197   2.590  1.00 20.00     0.312 C 
HETATM    8  N8  UNL     1     -32.424   8.875   2.156  1.00 20.00    -0.195 NA
HETATM    9  N9  UNL     1     -33.786   6.107   3.678  1.00 20.00     0.106 N 
ENDROOT
TORSDOF 0
