REMARK  2 active torsions:
REMARK  status: ('A' for Active; 'I' for Inactive)
REMARK    1  A    between atoms: C2_2  and  C3_3 
REMARK    2  A    between atoms: C4_4  and  C5_5 
ROOT
HETATM    1  C1  UNL     1     -33.301   7.230   5.652  1.00 20.00    -0.020 C 
HETATM    2  C2  UNL     1     -33.174   6.924   4.356  1.00 20.00    -0.062 C 
HETATM    3  C6  UNL     1     -33.630   6.028   6.473  1.00 20.00     0.028 C 
HETATM    4  C7  UNL     1     -33.397   5.467   4.105  1.00 20.00     0.038 C 
HETATM    5  C8  UNL     1     -34.022   4.994   5.419  1.00 20.00     0.008 C 
ENDROOT
BRANCH   2   6
HETATM    6  C3  UNL     1     -32.846   7.831   3.302  1.00 20.00     0.010 C 
HETATM    7  C4  UNL     1     -32.734   7.456   2.017  1.00 20.00     0.050 C 
BRANCH   7   8
HETATM    8  C5  UNL     1     -32.389   8.450   0.962  1.00 20.00     0.145 C 
HETATM    9  C9  UNL     1     -32.840   9.868   1.196  1.00 20.00     0.096 C 
HETATM   10  O10 UNL     1     -31.747   8.144  -0.040  1.00 20.00    -0.294 OA
ENDBRANCH   7   8
ENDBRANCH   2   6
TORSDOF 2
