REMARK  2 active torsions:
REMARK  status: ('A' for Active; 'I' for Inactive)
REMARK    1  A    between atoms: C2_2  and  C7_7 
REMARK    2  A    between atoms: C3_3  and  C7_7 
ROOT
HETATM    1  C6  UNL     1     -33.153   4.551   2.407  1.00 20.00     0.022 C 
HETATM    2  C7  UNL     1     -32.913   5.958   2.946  1.00 20.00     0.073 C 
ENDROOT
BRANCH   2   3
HETATM    3  C2  UNL     1     -33.182   7.000   1.898  1.00 20.00    -0.019 C 
HETATM    4  C1  UNL     1     -32.260   7.874   1.468  1.00 20.00    -0.034 C 
HETATM    5  C4  UNL     1     -32.520   8.910   0.425  1.00 20.00     0.036 C 
ENDBRANCH   2   3
BRANCH   2   6
HETATM    6  C3  UNL     1     -33.837   6.253   4.123  1.00 20.00     0.130 C 
HETATM    7  C5  UNL     1     -33.302   7.173   5.192  1.00 20.00     0.091 C 
HETATM    8  O8  UNL     1     -34.951   5.740   4.231  1.00 20.00    -0.298 OA
ENDBRANCH   2   6
TORSDOF 2
