REMARK  0 active torsions:
REMARK  status: ('A' for Active; 'I' for Inactive)
ROOT
HETATM    1  C1  UNL     1     -32.620   6.113   1.995  1.00 20.00     0.143 A 
HETATM    2  C2  UNL     1     -33.792   5.438   3.807  1.00 20.00     0.059 A 
HETATM    3  C3  UNL     1     -33.535   6.647   4.428  1.00 20.00     0.063 A 
HETATM    4  C4  UNL     1     -32.366   7.328   2.615  1.00 20.00     0.048 A 
HETATM    5  C5  UNL     1     -34.657   4.559   4.658  1.00 20.00     0.062 C 
HETATM    6  C6  UNL     1     -34.465   5.217   6.035  1.00 20.00     0.016 C 
HETATM    7  C7  UNL     1     -34.211   6.718   5.772  1.00 20.00     0.036 C 
HETATM    8  C8  UNL     1     -31.560   8.368   1.916  1.00 20.00     0.072 C 
HETATM    9  C9  UNL     1     -33.370   7.369   6.857  1.00 20.00     0.016 C 
HETATM   10  N10 UNL     1     -33.349   5.136   2.579  1.00 20.00    -0.261 NA
HETATM   11  N11 UNL     1     -32.827   7.626   3.850  1.00 20.00    -0.254 NA
ENDROOT
TORSDOF 0
