REMARK  0 active torsions:
REMARK  status: ('A' for Active; 'I' for Inactive)
ROOT
HETATM    1  C1  UNL     1     -33.198   6.062   3.480  1.00 20.00     0.292 C 
HETATM    2  C2  UNL     1     -32.291   7.677   4.931  1.00 20.00     0.346 C 
HETATM    3  C3  UNL     1     -34.166   5.820   4.653  1.00 20.00     0.029 C 
HETATM    4  C4  UNL     1     -34.303   4.332   4.970  1.00 20.00     0.028 C 
HETATM    5  C5  UNL     1     -35.542   6.449   4.407  1.00 20.00     0.028 C 
HETATM    6  C6  UNL     1     -31.744   7.783   2.575  1.00 20.00     0.310 C 
HETATM    7  N7  UNL     1     -32.766   7.463   3.563  1.00 20.00     0.094 N 
HETATM    8  S8  UNL     1     -33.352   6.697   6.035  1.00 20.00    -0.128 SA
ENDROOT
TORSDOF 0
