REMARK  3 active torsions:
REMARK  status: ('A' for Active; 'I' for Inactive)
REMARK    1  A    between atoms: C5_5  and  N8_8 
REMARK    2  A    between atoms: C6_6  and  C7_7 
REMARK    3  A    between atoms: C7_7  and  N8_8 
ROOT
HETATM    1  C1  UNL     1     -34.672   5.981   6.755  1.00 20.00     0.013 C 
HETATM    2  C2  UNL     1     -34.454   6.624   5.765  1.00 20.00    -0.087 C 
HETATM    3  C5  UNL     1     -34.193   7.413   4.559  1.00 20.00     0.364 C 
ENDROOT
BRANCH   3   4
HETATM    4  N8  UNL     1     -33.008   6.913   3.862  1.00 20.00     0.095 N 
HETATM    5  C4  UNL     1     -33.343   5.731   3.068  1.00 20.00     0.310 C 
BRANCH   4   6
HETATM    6  C7  UNL     1     -32.438   7.956   3.010  1.00 20.00     0.272 C 
BRANCH   6   7
HETATM    7  C6  UNL     1     -33.406   8.414   1.926  1.00 20.00     0.026 C 
HETATM    8  C3  UNL     1     -32.812   9.484   1.021  1.00 20.00     0.007 C 
ENDBRANCH   6   7
ENDBRANCH   4   6
ENDBRANCH   3   4
TORSDOF 3
