REMARK  1 active torsions:
REMARK  status: ('A' for Active; 'I' for Inactive)
REMARK    1  A    between atoms: C1_1  and  C5_5 
ROOT
HETATM    1  C2  UNL     1     -34.630   6.601   6.294  1.00 20.00     0.006 C 
HETATM    2  C3  UNL     1     -34.924   5.099   6.171  1.00 20.00     0.006 C 
HETATM    3  C4  UNL     1     -35.788   6.179   4.265  1.00 20.00     0.011 C 
HETATM    4  C5  UNL     1     -33.424   6.598   4.096  1.00 20.00     0.059 C 
HETATM    5  C6  UNL     1     -34.695   7.085   4.833  1.00 20.00    -0.003 C 
HETATM    6  C7  UNL     1     -35.049   4.891   4.648  1.00 20.00    -0.006 C 
HETATM    7  C8  UNL     1     -33.678   5.068   3.914  1.00 20.00    -0.034 C 
HETATM    8  C9  UNL     1     -33.809   4.615   2.444  1.00 20.00     0.016 C 
HETATM    9  C10 UNL     1     -32.539   4.245   4.538  1.00 20.00     0.016 C 
ENDROOT
BRANCH   4  10
HETATM   10  C1  UNL     1     -33.222   7.365   2.823  1.00 20.00     0.236 C 
HETATM   11  O11 UNL     1     -32.281   7.173   2.060  1.00 20.00    -0.306 OA
ENDBRANCH   4  10
TORSDOF 1
