REMARK  0 active torsions:
REMARK  status: ('A' for Active; 'I' for Inactive)
ROOT
HETATM    1  C1  UNL     1     -32.545   7.118   3.923  1.00 20.00     0.131 C 
HETATM    2  C2  UNL     1     -32.289   6.157   2.798  1.00 20.00     0.079 C 
HETATM    3  C3  UNL     1     -33.370   5.112   3.021  1.00 20.00     0.013 C 
HETATM    4  C4  UNL     1     -34.213   6.976   5.865  1.00 20.00     0.021 C 
HETATM    5  C5  UNL     1     -35.189   5.026   4.832  1.00 20.00     0.014 C 
HETATM    6  C6  UNL     1     -33.988   7.098   4.362  1.00 20.00     0.060 C 
HETATM    7  C7  UNL     1     -34.542   5.829   3.702  1.00 20.00    -0.002 C 
HETATM    8  C8  UNL     1     -34.514   5.492   6.137  1.00 20.00    -0.047 C 
HETATM    9  C9  UNL     1     -33.225   4.715   6.444  1.00 20.00     0.015 C 
HETATM   10  C10 UNL     1     -35.467   5.328   7.328  1.00 20.00     0.015 C 
HETATM   11  O11 UNL     1     -31.697   7.876   4.376  1.00 20.00    -0.298 OA
ENDROOT
TORSDOF 0
