REMARK  2 active torsions:
REMARK  status: ('A' for Active; 'I' for Inactive)
REMARK    1  A    between atoms: C1_1  and  C6_6 
REMARK    2  A    between atoms: C7_7  and  N8_8 
ROOT
HETATM    1  C3  UNL     1     -35.422   5.920   4.622  1.00 20.00     0.039 C 
HETATM    2  C4  UNL     1     -34.249   4.633   6.434  1.00 20.00     0.039 C 
HETATM    3  C5  UNL     1     -34.324   7.144   6.527  1.00 20.00     0.039 C 
HETATM    4  C7  UNL     1     -34.257   5.922   5.612  1.00 20.00     0.042 C 
ENDROOT
BRANCH   4   5
HETATM    5  N8  UNL     1     -33.001   5.979   4.851  1.00 20.00    -0.296 NA
HETATM    6  C1  UNL     1     -32.918   7.032   4.121  1.00 20.00     0.084 C 
BRANCH   6   7
HETATM    7  C6  UNL     1     -31.706   7.265   3.263  1.00 20.00     0.042 C 
HETATM    8  C2  UNL     1     -32.119   7.394   1.810  1.00 20.00     0.010 C 
ENDBRANCH   6   7
ENDBRANCH   4   5
TORSDOF 2
