REMARK  1 active torsions:
REMARK  status: ('A' for Active; 'I' for Inactive)
REMARK    1  A    between atoms: C1_1  and  C6_6 
ROOT
HETATM    1  C2  UNL     1     -33.976   4.430   4.053  1.00 20.00     0.001 C 
HETATM    2  C3  UNL     1     -33.438   5.442   3.047  1.00 20.00     0.011 C 
HETATM    3  C4  UNL     1     -34.728   5.113   5.195  1.00 20.00     0.009 C 
HETATM    4  C5  UNL     1     -33.335   7.199   4.864  1.00 20.00     0.020 C 
HETATM    5  C6  UNL     1     -32.580   6.511   3.723  1.00 20.00     0.048 C 
HETATM    6  C7  UNL     1     -33.903   6.208   5.907  1.00 20.00    -0.047 C 
HETATM    7  C8  UNL     1     -34.821   6.975   6.878  1.00 20.00     0.015 C 
HETATM    8  C9  UNL     1     -32.763   5.579   6.732  1.00 20.00     0.015 C 
ENDROOT
BRANCH   5   9
HETATM    9  C1  UNL     1     -32.173   7.528   2.700  1.00 20.00     0.235 C 
HETATM   10  O10 UNL     1     -32.041   7.273   1.508  1.00 20.00    -0.306 OA
ENDBRANCH   5   9
TORSDOF 1
