REMARK  0 active torsions:
REMARK  status: ('A' for Active; 'I' for Inactive)
ROOT
HETATM    1  C1  UNL     1     -33.978   6.039   4.531  1.00 20.00     0.011 C 
HETATM    2  C2  UNL     1     -34.729   5.497   5.716  1.00 20.00     0.054 C 
HETATM    3  C3  UNL     1     -34.559   6.620   6.740  1.00 20.00     0.006 C 
HETATM    4  C4  UNL     1     -32.482   7.310   2.552  1.00 20.00     0.022 C 
HETATM    5  C5  UNL     1     -33.299   7.373   6.306  1.00 20.00     0.011 C 
HETATM    6  C6  UNL     1     -32.155   7.628   4.004  1.00 20.00     0.012 C 
HETATM    7  C7  UNL     1     -32.945   5.863   2.394  1.00 20.00     0.148 C 
HETATM    8  C8  UNL     1     -33.426   7.409   4.789  1.00 20.00     0.033 C 
HETATM    9  N9  UNL     1     -33.825   5.356   3.455  1.00 20.00    -0.298 NA
ENDROOT
TORSDOF 0
