REMARK  2 active torsions:
REMARK  status: ('A' for Active; 'I' for Inactive)
REMARK       I    between atoms: C1_1  and  N9_9 
REMARK    1  A    between atoms: C7_7  and  C8_8 
REMARK    2  A    between atoms: C7_7  and  N9_9 
ROOT
HETATM    1  C3  UNL     1     -33.137   7.079   6.603  1.00 20.00     0.033 C 
HETATM    2  C7  UNL     1     -33.608   7.028   5.149  1.00 20.00     0.087 C 
ENDROOT
BRANCH   2   3
HETATM    3  C8  UNL     1     -34.285   5.685   4.721  1.00 20.00    -0.031 C 
HETATM    4  C4  UNL     1     -35.737   5.890   4.251  1.00 20.00     0.016 C 
HETATM    5  C5  UNL     1     -33.490   5.024   3.576  1.00 20.00     0.016 C 
HETATM    6  C6  UNL     1     -34.292   4.701   5.912  1.00 20.00     0.016 C 
ENDBRANCH   2   3
BRANCH   2   7
HETATM    7  N9  UNL     1     -32.498   7.374   4.285  1.00 20.00    -0.356 N 
HETATM    8  C1  UNL     1     -32.649   8.091   3.116  1.00 20.00     0.213 C 
HETATM    9  C2  UNL     1     -31.370   8.335   2.385  1.00 20.00     0.117 C 
HETATM   10  O10 UNL     1     -33.700   8.523   2.655  1.00 20.00    -0.274 OA
HETATM   11  H27 UNL     1     -31.566   7.075   4.552  1.00 20.00     0.162 HD
ENDBRANCH   2   7
TORSDOF 2
