REMARK  3 active torsions:
REMARK  status: ('A' for Active; 'I' for Inactive)
REMARK    1  A    between atoms: C2_2  and  C7_7 
REMARK    2  A    between atoms: C5_5  and  C8_8 
REMARK    3  A    between atoms: C7_7  and  C8_8 
ROOT
HETATM    1  C3  UNL     1     -33.782   6.677   6.132  1.00 20.00     0.281 C 
HETATM    2  C4  UNL     1     -34.529   5.395   6.463  1.00 20.00     0.106 C 
HETATM    3  C5  UNL     1     -33.911   5.810   3.934  1.00 20.00     0.282 C 
HETATM    4  N9  UNL     1     -34.078   7.032   4.736  1.00 20.00     0.098 N 
HETATM    5  S10 UNL     1     -34.330   4.383   4.982  1.00 20.00    -0.132 SA
HETATM    6  H25 UNL     1     -35.028   7.386   4.650  1.00 20.00     0.317 HD
ENDROOT
BRANCH   3   7
HETATM    7  C8  UNL     1     -32.482   5.688   3.416  1.00 20.00     0.050 C 
BRANCH   7   8
HETATM    8  C7  UNL     1     -31.946   7.036   2.932  1.00 20.00     0.030 C 
BRANCH   8   9
HETATM    9  C2  UNL     1     -32.770   7.574   1.798  1.00 20.00    -0.031 C 
HETATM   10  C1  UNL     1     -32.291   8.392   0.850  1.00 20.00    -0.035 C 
HETATM   11  C6  UNL     1     -33.111   8.932  -0.274  1.00 20.00     0.036 C 
ENDBRANCH   8   9
ENDBRANCH   7   8
ENDBRANCH   3   7
TORSDOF 3
