REMARK  0 active torsions:
REMARK  status: ('A' for Active; 'I' for Inactive)
ROOT
HETATM    1  C1  UNL     1     -32.699   6.492   3.523  1.00 20.00     0.135 C 
HETATM    2  C2  UNL     1     -34.329   7.102   5.183  1.00 20.00     0.092 C 
HETATM    3  C3  UNL     1     -34.759   5.656   4.897  1.00 20.00     0.073 C 
HETATM    4  C4  UNL     1     -34.341   7.505   6.651  1.00 20.00     0.033 C 
HETATM    5  C5  UNL     1     -34.299   4.617   5.914  1.00 20.00     0.024 C 
HETATM    6  N6  UNL     1     -33.019   7.293   4.592  1.00 20.00    -0.370 N 
HETATM    7  S7  UNL     1     -31.322   6.642   2.608  1.00 20.00    -0.053 SA
HETATM    8  S8  UNL     1     -33.963   5.300   3.286  1.00 20.00    -0.094 SA
HETATM    9  H17 UNL     1     -32.344   7.931   4.996  1.00 20.00     0.161 HD
ENDROOT
TORSDOF 0
