REMARK  2 active torsions:
REMARK  status: ('A' for Active; 'I' for Inactive)
REMARK    1  A    between atoms: C6_6  and  C10_10 
REMARK    2  A    between atoms: C7_7  and  C11_11 
ROOT
HETATM    1  C1  UNL     1     -32.413   8.733   0.531  1.00 20.00     0.059 C 
HETATM    2  C10 UNL     1     -31.765   7.489   0.926  1.00 20.00     0.128 C 
HETATM    3  N12 UNL     1     -32.903   9.731   0.198  1.00 20.00    -0.197 NA
ENDROOT
BRANCH   2   4
HETATM    4  C6  UNL     1     -32.771   6.825   1.864  1.00 20.00    -0.002 C 
HETATM    5  C2  UNL     1     -32.515   5.315   1.951  1.00 20.00     0.006 C 
HETATM    6  C4  UNL     1     -33.476   4.634   2.924  1.00 20.00     0.005 C 
HETATM    7  C7  UNL     1     -33.424   5.277   4.316  1.00 20.00    -0.011 C 
HETATM    8  C5  UNL     1     -33.680   6.787   4.229  1.00 20.00     0.005 C 
HETATM    9  C3  UNL     1     -32.718   7.467   3.256  1.00 20.00     0.006 C 
BRANCH   7  10
HETATM   10  C11 UNL     1     -34.428   4.613   5.256  1.00 20.00    -0.019 C 
HETATM   11  C8  UNL     1     -34.037   4.849   6.713  1.00 20.00     0.010 C 
HETATM   12  C9  UNL     1     -35.839   5.132   4.986  1.00 20.00     0.010 C 
ENDBRANCH   7  10
ENDBRANCH   2   4
TORSDOF 2
