REMARK  3 active torsions:
REMARK  status: ('A' for Active; 'I' for Inactive)
REMARK    1  A    between atoms: C1_1  and  C7_7 
REMARK    2  A    between atoms: C6_6  and  C7_7 
REMARK    3  A    between atoms: C6_6  and  C8_8 
ROOT
HETATM    1  C6  UNL     1     -33.410   7.354   4.654  1.00 20.00     0.019 C 
ENDROOT
BRANCH   1   2
HETATM    2  C7  UNL     1     -32.466   6.680   3.641  1.00 20.00     0.043 C 
HETATM    3  C2  UNL     1     -31.680   7.734   2.860  1.00 20.00     0.017 C 
BRANCH   2   4
HETATM    4  C1  UNL     1     -33.243   5.868   2.627  1.00 20.00     0.235 C 
HETATM    5  O9  UNL     1     -33.059   4.669   2.442  1.00 20.00    -0.306 OA
ENDBRANCH   2   4
ENDBRANCH   1   2
BRANCH   1   6
HETATM    6  C8  UNL     1     -34.341   6.423   5.484  1.00 20.00    -0.051 C 
HETATM    7  C3  UNL     1     -34.703   7.026   6.849  1.00 20.00     0.014 C 
HETATM    8  C4  UNL     1     -35.636   6.109   4.713  1.00 20.00     0.014 C 
HETATM    9  C5  UNL     1     -33.591   5.097   5.725  1.00 20.00     0.014 C 
ENDBRANCH   1   6
TORSDOF 3
