REMARK  1 active torsions:
REMARK  status: ('A' for Active; 'I' for Inactive)
REMARK    1  A    between atoms: C10_10  and  O11_11 
ROOT
HETATM    1  C1  UNL     1     -32.088   5.832   3.592  1.00 20.00    -0.025 C 
HETATM    2  C2  UNL     1     -33.302   5.782   3.025  1.00 20.00    -0.025 C 
HETATM    3  C3  UNL     1     -32.874   6.263   6.500  1.00 20.00     0.008 C 
HETATM    4  C4  UNL     1     -34.036   5.333   6.168  1.00 20.00     0.032 C 
HETATM    5  C5  UNL     1     -32.717   8.001   3.158  1.00 20.00     0.018 C 
HETATM    6  C6  UNL     1     -31.941   7.199   4.215  1.00 20.00     0.013 C 
HETATM    7  C7  UNL     1     -33.968   7.114   3.268  1.00 20.00     0.015 C 
HETATM    8  C8  UNL     1     -32.889   7.358   5.435  1.00 20.00     0.000 C 
HETATM    9  C9  UNL     1     -34.302   7.310   4.772  1.00 20.00     0.027 C 
HETATM   10  C10 UNL     1     -35.084   6.240   5.531  1.00 20.00     0.123 C 
ENDROOT
BRANCH  10  11
HETATM   11  O11 UNL     1     -35.966   5.505   4.706  1.00 20.00    -0.395 OA
HETATM   12  H25 UNL     1     -36.403   4.843   5.269  1.00 20.00     0.210 HD
ENDBRANCH  10  11
TORSDOF 1
