REMARK  0 active torsions:
REMARK  status: ('A' for Active; 'I' for Inactive)
ROOT
HETATM    1  C1  UNL     1     -33.013   4.699   2.326  1.00 20.00     0.015 C 
HETATM    2  C2  UNL     1     -33.196   5.442   3.251  1.00 20.00    -0.071 C 
HETATM    3  C3  UNL     1     -35.761   5.627   4.933  1.00 20.00     0.039 C 
HETATM    4  C4  UNL     1     -34.966   7.872   5.594  1.00 20.00     0.039 C 
HETATM    5  C5  UNL     1     -35.248   5.107   6.286  1.00 20.00     0.273 C 
HETATM    6  C6  UNL     1     -34.410   7.279   6.899  1.00 20.00     0.273 C 
HETATM    7  C7  UNL     1     -32.990   5.724   5.721  1.00 20.00     0.329 C 
HETATM    8  C8  UNL     1     -34.889   6.812   4.480  1.00 20.00     0.043 C 
HETATM    9  C9  UNL     1     -33.422   6.352   4.382  1.00 20.00     0.195 C 
HETATM   10  N10 UNL     1     -34.054   5.851   6.747  1.00 20.00     0.092 N 
HETATM   11  F11 UNL     1     -32.647   7.451   4.153  1.00 20.00    -0.227 F 
ENDROOT
TORSDOF 0
