REMARK  0 active torsions:
REMARK  status: ('A' for Active; 'I' for Inactive)
ROOT
HETATM    1  C1  UNL     1     -33.033   5.774   2.809  1.00 20.00     0.047 A 
HETATM    2  C2  UNL     1     -32.287   6.963   2.679  1.00 20.00     0.141 A 
HETATM    3  C3  UNL     1     -33.597   5.853   4.062  1.00 20.00     0.032 A 
HETATM    4  C4  UNL     1     -34.476   4.933   4.833  1.00 20.00     0.059 C 
HETATM    5  C5  UNL     1     -35.175   5.654   5.989  1.00 20.00     0.008 C 
HETATM    6  C6  UNL     1     -34.186   6.522   6.772  1.00 20.00     0.022 C 
HETATM    7  C7  UNL     1     -33.555   7.582   5.869  1.00 20.00     0.151 C 
HETATM    8  N8  UNL     1     -32.365   7.745   3.760  1.00 20.00    -0.185 NA
HETATM    9  N9  UNL     1     -33.160   7.041   4.584  1.00 20.00    -0.274 N 
ENDROOT
TORSDOF 0
