REMARK  0 active torsions:
REMARK  status: ('A' for Active; 'I' for Inactive)
ROOT
HETATM    1  C1  UNL     1     -33.135   4.958   2.453  1.00 20.00     0.004 C 
HETATM    2  C2  UNL     1     -32.185   6.138   2.607  1.00 20.00     0.027 C 
HETATM    3  C3  UNL     1     -33.469   4.397   3.829  1.00 20.00     0.027 C 
HETATM    4  C4  UNL     1     -32.741   7.239   3.535  1.00 20.00     0.037 C 
HETATM    5  C5  UNL     1     -34.054   5.459   4.784  1.00 20.00     0.037 C 
HETATM    6  C6  UNL     1     -33.800   8.083   2.802  1.00 20.00     0.034 C 
HETATM    7  C7  UNL     1     -31.573   8.182   3.901  1.00 20.00     0.034 C 
HETATM    8  C8  UNL     1     -34.007   4.883   6.217  1.00 20.00     0.034 C 
HETATM    9  C9  UNL     1     -35.531   5.737   4.449  1.00 20.00     0.034 C 
HETATM   10  N10 UNL     1     -33.238   6.684   4.804  1.00 20.00    -0.137 NA
HETATM   11  F11 UNL     1     -33.771   7.653   5.623  1.00 20.00    -0.132 F 
ENDROOT
TORSDOF 0
