REMARK  0 active torsions:
REMARK  status: ('A' for Active; 'I' for Inactive)
ROOT
HETATM    1  C1  UNL     1     -32.916   6.511   3.152  1.00 20.00     0.124 C 
HETATM    2  C2  UNL     1     -33.699   6.816   5.430  1.00 20.00     0.024 C 
HETATM    3  C3  UNL     1     -33.585   6.089   4.323  1.00 20.00     0.145 C 
HETATM    4  C4  UNL     1     -34.506   6.060   6.412  1.00 20.00     0.057 C 
HETATM    5  C5  UNL     1     -34.592   4.697   5.735  1.00 20.00     0.180 C 
HETATM    6  N6  UNL     1     -32.367   6.857   2.191  1.00 20.00    -0.189 NA
HETATM    7  O7  UNL     1     -34.212   4.850   4.353  1.00 20.00    -0.341 OA
ENDROOT
TORSDOF 0
