REMARK  0 active torsions:
REMARK  status: ('A' for Active; 'I' for Inactive)
ROOT
HETATM    1  C1  UNL     1     -32.543   7.379   4.458  1.00 20.00     0.222 C 
HETATM    2  C2  UNL     1     -34.847   4.716   4.406  1.00 20.00     0.001 C 
HETATM    3  C3  UNL     1     -34.124   5.662   3.451  1.00 20.00     0.014 C 
HETATM    4  C4  UNL     1     -34.482   5.230   5.789  1.00 20.00     0.007 C 
HETATM    5  C5  UNL     1     -33.648   7.530   6.543  1.00 20.00     0.128 C 
HETATM    6  C6  UNL     1     -33.986   6.984   4.204  1.00 20.00     0.083 C 
HETATM    7  C7  UNL     1     -34.550   6.745   5.613  1.00 20.00     0.016 C 
HETATM    8  N8  UNL     1     -32.419   7.670   5.811  1.00 20.00    -0.360 N 
HETATM    9  O9  UNL     1     -31.666   7.446   3.611  1.00 20.00    -0.273 OA
HETATM   10  H20 UNL     1     -31.545   7.955   6.240  1.00 20.00     0.162 HD
ENDROOT
TORSDOF 0
