REMARK  1 active torsions:
REMARK  status: ('A' for Active; 'I' for Inactive)
REMARK    1  A    between atoms: C4_4  and  C7_7 
ROOT
HETATM    1  C1  UNL     1     -35.463   6.093   4.051  1.00 20.00     0.035 A 
HETATM    2  C2  UNL     1     -34.673   6.878   3.313  1.00 20.00    -0.008 A 
HETATM    3  C3  UNL     1     -34.917   5.862   5.395  1.00 20.00     0.085 A 
HETATM    4  C4  UNL     1     -33.407   7.391   3.923  1.00 20.00     0.080 A 
HETATM    5  N8  UNL     1     -35.451   5.151   6.323  1.00 20.00    -0.293 NA
HETATM    6  S9  UNL     1     -33.395   6.697   5.614  1.00 20.00    -0.102 SA
HETATM    7  H20 UNL     1     -36.336   4.755   5.985  1.00 20.00     0.187 HD
ENDROOT
BRANCH   4   8
HETATM    8  C7  UNL     1     -32.171   6.943   3.157  1.00 20.00    -0.005 C 
HETATM    9  C5  UNL     1     -32.299   5.481   2.729  1.00 20.00     0.011 C 
HETATM   10  C6  UNL     1     -31.935   7.836   1.939  1.00 20.00     0.011 C 
ENDBRANCH   4   8
TORSDOF 1
