REMARK  2 active torsions:
REMARK  status: ('A' for Active; 'I' for Inactive)
REMARK    1  A    between atoms: C1_1  and  C3_3 
REMARK    2  A    between atoms: C1_1  and  C8_8 
ROOT
HETATM    1  C1  UNL     1     -33.836   5.542   3.844  1.00 20.00     0.134 C 
HETATM    2  O9  UNL     1     -33.925   4.330   4.039  1.00 20.00    -0.297 OA
ENDROOT
BRANCH   1   3
HETATM    3  C3  UNL     1     -34.427   6.526   4.822  1.00 20.00     0.060 A 
HETATM    4  C2  UNL     1     -33.535   7.090   5.871  1.00 20.00     0.017 A 
HETATM    5  C4  UNL     1     -34.624   6.124   6.242  1.00 20.00    -0.007 A 
HETATM    6  C5  UNL     1     -34.275   4.775   6.772  1.00 20.00     0.011 C 
ENDBRANCH   1   3
BRANCH   1   7
HETATM    7  C8  UNL     1     -33.105   6.124   2.637  1.00 20.00     0.048 C 
HETATM    8  C6  UNL     1     -31.947   6.998   3.103  1.00 20.00     0.017 C 
HETATM    9  C7  UNL     1     -32.610   5.016   1.711  1.00 20.00     0.017 C 
ENDBRANCH   1   7
TORSDOF 2
