REMARK  0 active torsions:
REMARK  status: ('A' for Active; 'I' for Inactive)
ROOT
HETATM    1  C1  UNL     1     -33.170   6.846   3.799  1.00 20.00     0.134 C 
HETATM    2  C2  UNL     1     -32.839   7.449   5.151  1.00 20.00     0.109 C 
HETATM    3  C3  UNL     1     -33.748   4.605   4.719  1.00 20.00     0.044 C 
HETATM    4  C4  UNL     1     -34.056   7.437   6.086  1.00 20.00     0.280 C 
HETATM    5  C5  UNL     1     -34.281   5.005   6.098  1.00 20.00     0.273 C 
HETATM    6  C6  UNL     1     -35.440   6.258   4.516  1.00 20.00     0.284 C 
HETATM    7  C7  UNL     1     -34.207   5.735   3.805  1.00 20.00     0.085 C 
HETATM    8  N8  UNL     1     -34.982   6.295   5.920  1.00 20.00     0.089 N 
HETATM    9  O9  UNL     1     -32.582   7.184   2.774  1.00 20.00    -0.297 OA
ENDROOT
TORSDOF 0
