REMARK  2 active torsions:
REMARK  status: ('A' for Active; 'I' for Inactive)
REMARK    1  A    between atoms: C3_3  and  C7_7 
REMARK    2  A    between atoms: C3_3  and  O11_11 
ROOT
HETATM    1  C1  UNL     1     -33.299   7.430   4.480  1.00 20.00    -0.070 C 
HETATM    2  C2  UNL     1     -32.657   7.922   3.414  1.00 20.00    -0.027 C 
HETATM    3  C4  UNL     1     -32.953   7.770   5.903  1.00 20.00     0.034 C 
HETATM    4  C5  UNL     1     -33.703   6.717   6.707  1.00 20.00     0.005 C 
HETATM    5  C6  UNL     1     -34.951   6.431   5.877  1.00 20.00     0.019 C 
HETATM    6  C7  UNL     1     -34.469   6.485   4.429  1.00 20.00     0.114 C 
HETATM    7  C8  UNL     1     -31.521   8.884   3.496  1.00 20.00     0.036 C 
ENDROOT
BRANCH   6   8
HETATM    8  C3  UNL     1     -33.994   5.142   3.960  1.00 20.00     0.266 C 
HETATM    9  O10 UNL     1     -34.047   4.123   4.635  1.00 20.00    -0.265 OA
BRANCH   8  10
HETATM   10  O11 UNL     1     -33.507   5.249   2.691  1.00 20.00    -0.326 OA
HETATM   11  C9  UNL     1     -33.017   4.033   2.117  1.00 20.00     0.213 C 
ENDBRANCH   8  10
ENDBRANCH   6   8
TORSDOF 2
