REMARK  1 active torsions:
REMARK  status: ('A' for Active; 'I' for Inactive)
REMARK    1  A    between atoms: C3_3  and  C4_4 
ROOT
HETATM    1  C1  UNL     1     -32.860   7.058   3.858  1.00 20.00     0.065 A 
HETATM    2  C2  UNL     1     -32.292   6.729   2.655  1.00 20.00     0.172 A 
HETATM    3  C3  UNL     1     -33.637   5.933   4.180  1.00 20.00     0.169 A 
HETATM    4  N5  UNL     1     -33.557   4.978   3.249  1.00 20.00    -0.124 NA
HETATM    5  O6  UNL     1     -32.701   5.489   2.282  1.00 20.00    -0.225 OA
ENDROOT
BRANCH   3   6
HETATM    6  C4  UNL     1     -34.474   5.727   5.373  1.00 20.00     0.436 C 
HETATM    7  F7  UNL     1     -34.473   6.780   6.255  1.00 20.00    -0.164 F 
HETATM    8  F8  UNL     1     -35.804   5.514   5.102  1.00 20.00    -0.164 F 
HETATM    9  F9  UNL     1     -34.094   4.642   6.124  1.00 20.00    -0.164 F 
ENDBRANCH   3   6
TORSDOF 1
