REMARK  2 active torsions:
REMARK  status: ('A' for Active; 'I' for Inactive)
REMARK    1  A    between atoms: C3_3  and  C7_7 
REMARK    2  A    between atoms: C3_3  and  O11_11 
ROOT
HETATM    1  C1  UNL     1     -33.900   5.538   3.551  1.00 20.00    -0.070 C 
HETATM    2  C2  UNL     1     -33.372   5.574   2.321  1.00 20.00    -0.027 C 
HETATM    3  C4  UNL     1     -34.198   4.270   4.301  1.00 20.00     0.034 C 
HETATM    4  C5  UNL     1     -34.424   4.754   5.727  1.00 20.00     0.005 C 
HETATM    5  C6  UNL     1     -35.030   6.145   5.558  1.00 20.00     0.019 C 
HETATM    6  C7  UNL     1     -34.290   6.742   4.363  1.00 20.00     0.114 C 
HETATM    7  C8  UNL     1     -33.011   4.361   1.533  1.00 20.00     0.036 C 
ENDROOT
BRANCH   6   8
HETATM    8  C3  UNL     1     -33.049   7.465   4.794  1.00 20.00     0.266 C 
HETATM    9  O10 UNL     1     -32.710   7.609   5.961  1.00 20.00    -0.265 OA
BRANCH   8  10
HETATM   10  O11 UNL     1     -32.382   7.921   3.696  1.00 20.00    -0.326 OA
HETATM   11  C9  UNL     1     -31.171   8.635   3.964  1.00 20.00     0.213 C 
ENDBRANCH   8  10
ENDBRANCH   6   8
TORSDOF 2
