REMARK  3 active torsions:
REMARK  status: ('A' for Active; 'I' for Inactive)
REMARK    1  A    between atoms: C2_2  and  C9_9 
REMARK    2  A    between atoms: C7_7  and  C9_9 
REMARK    3  A    between atoms: C8_8  and  O10_10 
ROOT
HETATM    1  C3  UNL     1     -33.577   4.149   3.091  1.00 20.00     0.003 C 
HETATM    2  C4  UNL     1     -32.606   5.282   2.762  1.00 20.00     0.005 C 
HETATM    3  C5  UNL     1     -34.088   4.245   4.524  1.00 20.00     0.032 C 
HETATM    4  C6  UNL     1     -33.733   6.747   4.484  1.00 20.00     0.036 C 
HETATM    5  C7  UNL     1     -33.224   6.660   3.040  1.00 20.00    -0.009 C 
HETATM    6  C8  UNL     1     -34.704   5.613   4.809  1.00 20.00     0.118 C 
ENDROOT
BRANCH   5   7
HETATM    7  C9  UNL     1     -32.215   7.770   2.755  1.00 20.00     0.031 C 
BRANCH   7   8
HETATM    8  C2  UNL     1     -32.104   8.036   1.286  1.00 20.00    -0.037 C 
HETATM    9  C1  UNL     1     -32.403   9.208   0.715  1.00 20.00     0.007 C 
ENDBRANCH   7   8
ENDBRANCH   5   7
BRANCH   6  10
HETATM   10  O10 UNL     1     -35.085   5.688   6.179  1.00 20.00    -0.396 OA
HETATM   11  H26 UNL     1     -35.733   4.980   6.326  1.00 20.00     0.210 HD
ENDBRANCH   6  10
TORSDOF 3
