REMARK  2 active torsions:
REMARK  status: ('A' for Active; 'I' for Inactive)
REMARK    1  A    between atoms: C2_2  and  O12_12 
REMARK    2  A    between atoms: C7_7  and  O12_12 
ROOT
HETATM    1  C3  UNL     1     -32.506   5.347   2.698  1.00 20.00     0.036 C 
HETATM    2  C4  UNL     1     -33.903   4.432   4.611  1.00 20.00     0.013 C 
HETATM    3  C5  UNL     1     -33.595   6.937   4.321  1.00 20.00     0.041 C 
HETATM    4  C6  UNL     1     -33.360   4.177   3.193  1.00 20.00    -0.015 C 
HETATM    5  C7  UNL     1     -33.188   6.702   2.866  1.00 20.00     0.128 C 
HETATM    6  C8  UNL     1     -34.508   5.831   4.888  1.00 20.00    -0.045 C 
HETATM    7  C9  UNL     1     -34.443   3.794   2.184  1.00 20.00     0.010 C 
HETATM    8  C10 UNL     1     -35.932   5.960   4.317  1.00 20.00     0.015 C 
HETATM    9  C11 UNL     1     -34.618   6.018   6.418  1.00 20.00     0.015 C 
ENDROOT
BRANCH   5  10
HETATM   10  O12 UNL     1     -32.267   7.716   2.467  1.00 20.00    -0.359 OA
BRANCH  10  11
HETATM   11  C2  UNL     1     -32.156   7.887   1.157  1.00 20.00     0.125 C 
HETATM   12  C1  UNL     1     -31.053   8.301   0.530  1.00 20.00     0.037 C 
ENDBRANCH  10  11
ENDBRANCH   5  10
TORSDOF 2
