REMARK  0 active torsions:
REMARK  status: ('A' for Active; 'I' for Inactive)
ROOT
HETATM    1  C1  UNL     1     -33.277   5.123   2.550  1.00 20.00     0.026 C 
HETATM    2  C2  UNL     1     -33.546   7.223   3.973  1.00 20.00     0.026 C 
HETATM    3  C3  UNL     1     -33.707   4.183   3.671  1.00 20.00     0.075 C 
HETATM    4  C4  UNL     1     -33.998   6.453   5.209  1.00 20.00     0.075 C 
HETATM    5  C5  UNL     1     -32.627   6.401   3.074  1.00 20.00     0.059 C 
HETATM    6  S6  UNL     1     -34.929   4.956   4.770  1.00 20.00    -0.169 SA
HETATM    7 BR7  UNL     1     -32.094   7.506   1.544  1.00 20.00    -0.091 Br
ENDROOT
TORSDOF 0
