REMARK  2 active torsions:
REMARK  status: ('A' for Active; 'I' for Inactive)
REMARK    1  A    between atoms: C2_2  and  O12_12 
REMARK    2  A    between atoms: C7_7  and  O12_12 
ROOT
HETATM    1  C3  UNL     1     -32.316   6.016   2.727  1.00 20.00     0.036 C 
HETATM    2  C4  UNL     1     -34.053   5.214   4.378  1.00 20.00     0.013 C 
HETATM    3  C5  UNL     1     -32.456   7.077   5.028  1.00 20.00     0.041 C 
HETATM    4  C6  UNL     1     -33.738   5.461   2.894  1.00 20.00    -0.015 C 
HETATM    5  C7  UNL     1     -32.081   7.277   3.556  1.00 20.00     0.128 C 
HETATM    6  C8  UNL     1     -33.858   6.464   5.267  1.00 20.00    -0.045 C 
HETATM    7  C9  UNL     1     -33.903   4.169   2.092  1.00 20.00     0.010 C 
HETATM    8  C10 UNL     1     -33.961   6.040   6.747  1.00 20.00     0.015 C 
HETATM    9  C11 UNL     1     -34.975   7.493   5.006  1.00 20.00     0.015 C 
ENDROOT
BRANCH   5  10
HETATM   10  O12 UNL     1     -32.818   8.353   2.986  1.00 20.00    -0.359 OA
BRANCH  10  11
HETATM   11  C2  UNL     1     -32.278   8.887   1.899  1.00 20.00     0.125 C 
HETATM   12  C1  UNL     1     -32.964   9.454   0.904  1.00 20.00     0.037 C 
ENDBRANCH  10  11
ENDBRANCH   5  10
TORSDOF 2
