REMARK  2 active torsions:
REMARK  status: ('A' for Active; 'I' for Inactive)
REMARK    1  A    between atoms: C1_1  and  C3_3 
REMARK    2  A    between atoms: C5_5  and  O10_10 
ROOT
HETATM    1  C2  UNL     1     -34.563   6.923   3.800  1.00 20.00     0.074 C 
HETATM    2  C3  UNL     1     -34.786   5.633   4.565  1.00 20.00     0.080 C 
HETATM    3  C4  UNL     1     -34.374   6.031   5.974  1.00 20.00     0.131 C 
HETATM    4  C5  UNL     1     -33.387   7.567   4.527  1.00 20.00     0.260 C 
HETATM    5  C6  UNL     1     -33.961   4.904   6.903  1.00 20.00     0.040 C 
HETATM    6  O9  UNL     1     -33.298   6.971   5.829  1.00 20.00    -0.356 OA
ENDROOT
BRANCH   2   7
HETATM    7  C1  UNL     1     -33.957   4.532   3.970  1.00 20.00     0.238 C 
HETATM    8  O8  UNL     1     -33.245   4.680   2.983  1.00 20.00    -0.306 OA
ENDBRANCH   2   7
BRANCH   4   9
HETATM    9  O10 UNL     1     -32.171   7.406   3.808  1.00 20.00    -0.366 OA
HETATM   10  C7  UNL     1     -32.061   8.349   2.752  1.00 20.00     0.204 C 
ENDBRANCH   4   9
TORSDOF 2
