REMARK  0 active torsions:
REMARK  status: ('A' for Active; 'I' for Inactive)
ROOT
HETATM    1  C1  UNL     1     -34.075   5.552   5.873  1.00 20.00     0.102 C 
HETATM    2  C2  UNL     1     -35.834   6.004   4.203  1.00 20.00     0.068 C 
HETATM    3  C3  UNL     1     -33.743   4.763   3.560  1.00 20.00     0.068 C 
HETATM    4  C4  UNL     1     -34.342   5.837   4.457  1.00 20.00     0.183 C 
HETATM    5  N5  UNL     1     -33.864   5.329   6.992  1.00 20.00    -0.194 NA
HETATM    6  F6  UNL     1     -33.734   7.020   4.153  1.00 20.00    -0.228 F 
ENDROOT
TORSDOF 0
