REMARK  0 active torsions:
REMARK  status: ('A' for Active; 'I' for Inactive)
ROOT
HETATM    1  C1  UNL     1     -32.808   7.501   4.692  1.00 20.00     0.223 A 
HETATM    2  C2  UNL     1     -34.247   6.944   4.635  1.00 20.00     0.096 A 
HETATM    3  C3  UNL     1     -34.100   6.770   6.180  1.00 20.00     0.093 A 
HETATM    4  C4  UNL     1     -34.438   5.726   3.753  1.00 20.00     0.022 C 
HETATM    5  C5  UNL     1     -34.051   5.388   6.796  1.00 20.00     0.033 C 
HETATM    6  N6  UNL     1     -32.761   7.332   6.040  1.00 20.00    -0.356 N 
HETATM    7  O7  UNL     1     -32.000   7.924   3.897  1.00 20.00    -0.273 OA
HETATM    8  H16 UNL     1     -32.016   7.528   6.695  1.00 20.00     0.162 HD
ENDROOT
TORSDOF 0
