REMARK  0 active torsions:
REMARK  status: ('A' for Active; 'I' for Inactive)
ROOT
HETATM    1  C1  UNL     1     -33.149   6.379   3.360  1.00 20.00    -0.013 C 
HETATM    2  C2  UNL     1     -33.891   6.730   4.411  1.00 20.00    -0.066 C 
HETATM    3  C3  UNL     1     -33.293   4.908   3.294  1.00 20.00     0.156 C 
HETATM    4  C4  UNL     1     -33.934   7.984   5.215  1.00 20.00     0.036 C 
HETATM    5  C5  UNL     1     -34.055   4.362   4.478  1.00 20.00     0.093 C 
HETATM    6  C6  UNL     1     -34.471   7.489   6.569  1.00 20.00     0.009 C 
HETATM    7  C7  UNL     1     -34.636   5.624   5.088  1.00 20.00     0.026 C 
HETATM    8  C8  UNL     1     -34.321   5.954   6.543  1.00 20.00    -0.010 C 
HETATM    9  C9  UNL     1     -32.234   7.160   2.502  1.00 20.00     0.052 C 
HETATM   10  C10 UNL     1     -35.239   5.249   7.527  1.00 20.00     0.010 C 
HETATM   11  O11 UNL     1     -32.803   4.221   2.409  1.00 20.00    -0.293 OA
ENDROOT
TORSDOF 0
