REMARK  0 active torsions:
REMARK  status: ('A' for Active; 'I' for Inactive)
ROOT
HETATM    1  C1  UNL     1     -33.921   7.186   5.938  1.00 20.00     0.223 A 
HETATM    2  C2  UNL     1     -34.283   6.679   4.526  1.00 20.00     0.096 A 
HETATM    3  C3  UNL     1     -32.750   6.730   4.257  1.00 20.00     0.093 A 
HETATM    4  C4  UNL     1     -34.937   5.313   4.467  1.00 20.00     0.022 C 
HETATM    5  C5  UNL     1     -32.264   7.717   3.217  1.00 20.00     0.033 C 
HETATM    6  N6  UNL     1     -32.604   7.260   5.609  1.00 20.00    -0.356 N 
HETATM    7  O7  UNL     1     -34.519   7.435   6.960  1.00 20.00    -0.273 OA
HETATM    8  H16 UNL     1     -31.806   7.528   6.168  1.00 20.00     0.162 HD
ENDROOT
TORSDOF 0
