REMARK  2 active torsions:
REMARK  status: ('A' for Active; 'I' for Inactive)
REMARK    1  A    between atoms: C2_2  and  C5_5 
REMARK    2  A    between atoms: C2_2  and  O9_9 
ROOT
HETATM    1  C1  UNL     1     -32.727   5.953   2.341  1.00 20.00     0.140 C 
HETATM    2  C3  UNL     1     -32.391   7.147   1.432  1.00 20.00     0.080 C 
HETATM    3  C4  UNL     1     -32.397   8.025   2.703  1.00 20.00     0.030 C 
HETATM    4  C5  UNL     1     -32.443   6.772   3.618  1.00 20.00     0.155 C 
HETATM    5  O7  UNL     1     -33.078   4.812   2.128  1.00 20.00    -0.297 OA
ENDROOT
BRANCH   4   6
HETATM    6  C2  UNL     1     -33.592   6.624   4.615  1.00 20.00     0.269 C 
HETATM    7  O8  UNL     1     -34.542   5.869   4.459  1.00 20.00    -0.264 OA
BRANCH   6   8
HETATM    8  O9  UNL     1     -33.383   7.454   5.677  1.00 20.00    -0.326 OA
HETATM    9  C6  UNL     1     -34.390   7.417   6.693  1.00 20.00     0.213 C 
ENDBRANCH   6   8
ENDBRANCH   4   6
TORSDOF 2
