REMARK  0 active torsions:
REMARK  status: ('A' for Active; 'I' for Inactive)
ROOT
HETATM    1  C1  UNL     1     -32.032   7.972   1.427  1.00 20.00     0.015 C 
HETATM    2  C2  UNL     1     -32.285   7.424   2.465  1.00 20.00    -0.083 C 
HETATM    3  C3  UNL     1     -33.042   7.719   4.802  1.00 20.00     0.216 C 
HETATM    4  C4  UNL     1     -32.593   6.759   3.728  1.00 20.00     0.226 C 
HETATM    5  C5  UNL     1     -34.359   5.875   4.862  1.00 20.00     0.158 C 
HETATM    6  C6  UNL     1     -35.846   6.144   4.666  1.00 20.00     0.078 C 
HETATM    7  C7  UNL     1     -34.124   4.524   5.527  1.00 20.00     0.078 C 
HETATM    8  O8  UNL     1     -33.796   6.899   5.694  1.00 20.00    -0.352 OA
HETATM    9  O9  UNL     1     -33.718   5.886   3.577  1.00 20.00    -0.336 OA
ENDROOT
TORSDOF 0
