REMARK  2 active torsions:
REMARK  status: ('A' for Active; 'I' for Inactive)
REMARK    1  A    between atoms: C7_7  and  C9_9 
REMARK    2  A    between atoms: C9_9  and  C10_10 
ROOT
HETATM    1  C1  UNL     1     -32.680   8.226   0.532  1.00 20.00     0.064 C 
HETATM    2  C2  UNL     1     -32.996   7.898   3.008  1.00 20.00     0.019 C 
HETATM    3  C3  UNL     1     -32.620   5.904   1.504  1.00 20.00     0.019 C 
HETATM    4  C4  UNL     1     -32.663   7.042   4.232  1.00 20.00     0.006 C 
HETATM    5  C5  UNL     1     -32.286   5.043   2.724  1.00 20.00     0.006 C 
HETATM    6  C6  UNL     1     -32.294   7.383   1.746  1.00 20.00     0.093 C 
HETATM    7  C7  UNL     1     -32.943   5.550   4.014  1.00 20.00    -0.014 C 
HETATM    8  N11 UNL     1     -32.974   8.867  -0.390  1.00 20.00    -0.197 NA
ENDROOT
BRANCH   7   9
HETATM    9  C9  UNL     1     -34.393   5.279   4.011  1.00 20.00     0.004 C 
BRANCH   9  10
HETATM   10  C10 UNL     1     -35.026   5.649   5.348  1.00 20.00    -0.004 C 
HETATM   11  C8  UNL     1     -34.429   4.834   6.484  1.00 20.00     0.005 C 
ENDBRANCH   9  10
ENDBRANCH   7   9
TORSDOF 2
