REMARK  2 active torsions:
REMARK  status: ('A' for Active; 'I' for Inactive)
REMARK    1  A    between atoms: C1_1  and  C3_3 
REMARK    2  A    between atoms: C2_2  and  C6_6 
ROOT
HETATM    1  C1  UNL     1     -32.744   5.839   3.727  1.00 20.00     0.046 C 
HETATM    2  C2  UNL     1     -33.725   6.416   4.433  1.00 20.00    -0.014 C 
ENDROOT
BRANCH   2   3
HETATM    3  C6  UNL     1     -33.929   6.186   5.895  1.00 20.00    -0.026 A 
HETATM    4  C4  UNL     1     -34.533   7.326   6.667  1.00 20.00     0.014 A 
HETATM    5  C5  UNL     1     -33.077   7.007   6.821  1.00 20.00     0.014 A 
HETATM    6  C8  UNL     1     -34.276   4.783   6.277  1.00 20.00     0.019 C 
ENDBRANCH   2   3
BRANCH   1   7
HETATM    7  C3  UNL     1     -32.595   6.111   2.271  1.00 20.00     0.145 C 
HETATM    8  C7  UNL     1     -32.358   7.543   1.867  1.00 20.00     0.096 C 
HETATM    9  O9  UNL     1     -32.673   5.220   1.428  1.00 20.00    -0.294 OA
ENDBRANCH   1   7
TORSDOF 2
