REMARK  2 active torsions:
REMARK  status: ('A' for Active; 'I' for Inactive)
REMARK    1  A    between atoms: C2_2  and  C5_5 
REMARK    2  A    between atoms: C5_5  and  O6_6 
ROOT
HETATM    1  C1  UNL     1     -34.408   7.058   3.741  1.00 20.00     0.097 A 
HETATM    2  C2  UNL     1     -33.674   5.751   3.992  1.00 20.00     0.049 A 
HETATM    3  C3  UNL     1     -33.385   6.963   4.815  1.00 20.00     0.254 A 
HETATM    4  C4  UNL     1     -32.645   5.317   2.986  1.00 20.00     0.024 C 
HETATM    5  F7  UNL     1     -32.191   7.637   4.696  1.00 20.00    -0.205 F 
HETATM    6  F8  UNL     1     -33.761   7.032   6.138  1.00 20.00    -0.205 F 
ENDROOT
BRANCH   2   7
HETATM    7  C5  UNL     1     -34.438   4.625   4.633  1.00 20.00     0.179 C 
BRANCH   7   8
HETATM    8  O6  UNL     1     -35.271   5.146   5.662  1.00 20.00    -0.400 OA
HETATM    9  H16 UNL     1     -35.743   4.390   6.047  1.00 20.00     0.209 HD
ENDBRANCH   7   8
ENDBRANCH   2   7
TORSDOF 2
