REMARK  0 active torsions:
REMARK  status: ('A' for Active; 'I' for Inactive)
ROOT
HETATM    1  C1  UNL     1     -32.124   8.651   1.682  1.00 20.00     0.015 C 
HETATM    2  C2  UNL     1     -32.393   7.815   2.500  1.00 20.00    -0.083 C 
HETATM    3  C3  UNL     1     -33.197   5.505   2.878  1.00 20.00     0.216 C 
HETATM    4  C4  UNL     1     -32.721   6.798   3.496  1.00 20.00     0.226 C 
HETATM    5  C5  UNL     1     -34.507   5.997   4.661  1.00 20.00     0.158 C 
HETATM    6  C6  UNL     1     -35.989   6.141   4.341  1.00 20.00     0.078 C 
HETATM    7  C7  UNL     1     -34.284   5.736   6.146  1.00 20.00     0.078 C 
HETATM    8  O8  UNL     1     -33.964   4.898   3.916  1.00 20.00    -0.352 OA
HETATM    9  O9  UNL     1     -33.838   7.213   4.291  1.00 20.00    -0.336 OA
ENDROOT
TORSDOF 0
