REMARK  1 active torsions:
REMARK  status: ('A' for Active; 'I' for Inactive)
REMARK    1  A    between atoms: C8_8  and  C11_11 
ROOT
HETATM    1  C1  UNL     1     -34.217   5.795   6.058  1.00 20.00     0.136 C 
HETATM    2  C2  UNL     1     -35.083   7.852   5.055  1.00 20.00     0.017 C 
HETATM    3  C3  UNL     1     -35.066   5.679   3.568  1.00 20.00     0.018 C 
HETATM    4  C4  UNL     1     -32.749   7.437   5.225  1.00 20.00     0.023 C 
HETATM    5  C5  UNL     1     -34.038   7.310   6.047  1.00 20.00     0.057 C 
HETATM    6  C6  UNL     1     -33.900   5.382   4.550  1.00 20.00     0.065 C 
HETATM    7  C7  UNL     1     -34.678   7.183   3.714  1.00 20.00    -0.003 C 
HETATM    8  C8  UNL     1     -33.214   6.684   3.965  1.00 20.00    -0.023 C 
HETATM    9  O12 UNL     1     -34.551   5.132   7.025  1.00 20.00    -0.297 OA
ENDROOT
BRANCH   8  10
HETATM   10  C11 UNL     1     -32.217   6.594   2.841  1.00 20.00    -0.013 C 
HETATM   11  C9  UNL     1     -32.779   5.793   1.658  1.00 20.00     0.010 C 
HETATM   12  C10 UNL     1     -31.785   7.988   2.365  1.00 20.00     0.010 C 
ENDBRANCH   8  10
TORSDOF 1
