REMARK  1 active torsions:
REMARK  status: ('A' for Active; 'I' for Inactive)
REMARK    1  A    between atoms: C1_1  and  C7_7 
ROOT
HETATM    1  C2  UNL     1     -34.391   5.066   2.707  1.00 20.00     0.006 C 
HETATM    2  C3  UNL     1     -32.886   5.141   2.983  1.00 20.00     0.017 C 
HETATM    3  C4  UNL     1     -35.025   6.153   3.564  1.00 20.00     0.069 C 
HETATM    4  C5  UNL     1     -34.337   7.059   6.869  1.00 20.00     0.197 C 
HETATM    5  C6  UNL     1     -34.963   5.694   6.817  1.00 20.00     0.197 C 
HETATM    6  C7  UNL     1     -32.707   6.067   4.194  1.00 20.00     0.109 C 
HETATM    7  C8  UNL     1     -34.113   6.222   4.782  1.00 20.00     0.173 C 
HETATM    8  O10 UNL     1     -34.292   7.446   5.497  1.00 20.00    -0.352 OA
HETATM    9  O11 UNL     1     -34.376   5.109   5.656  1.00 20.00    -0.352 OA
ENDROOT
BRANCH   6  10
HETATM   10  C1  UNL     1     -32.114   7.374   3.757  1.00 20.00     0.241 C 
HETATM   11  O9  UNL     1     -32.296   7.861   2.646  1.00 20.00    -0.306 OA
ENDBRANCH   6  10
TORSDOF 1
