REMARK  1 active torsions:
REMARK  status: ('A' for Active; 'I' for Inactive)
REMARK    1  A    between atoms: C7_7  and  C11_11 
ROOT
HETATM    1  C1  UNL     1     -32.401   8.806   1.343  1.00 20.00     0.063 C 
HETATM    2  C11 UNL     1     -31.883   7.440   1.515  1.00 20.00     0.162 C 
HETATM    3  N12 UNL     1     -32.809   9.883   1.206  1.00 20.00    -0.197 NA
ENDROOT
BRANCH   2   4
HETATM    4  C7  UNL     1     -32.612   6.737   2.611  1.00 20.00    -0.045 A 
HETATM    5  C3  UNL     1     -32.774   5.344   2.555  1.00 20.00     0.009 A 
HETATM    6  C2  UNL     1     -33.458   4.665   3.565  1.00 20.00     0.008 A 
HETATM    7  C5  UNL     1     -33.958   5.400   4.627  1.00 20.00    -0.052 A 
HETATM    8  C6  UNL     1     -33.796   6.789   4.683  1.00 20.00    -0.051 A 
HETATM    9  C8  UNL     1     -34.750   4.908   5.797  1.00 20.00     0.039 C 
HETATM   10  C4  UNL     1     -33.131   7.472   3.679  1.00 20.00     0.015 A 
HETATM   11  C9  UNL     1     -34.466   7.355   5.896  1.00 20.00     0.039 C 
HETATM   12  C10 UNL     1     -34.624   6.097   6.762  1.00 20.00     0.009 C 
ENDBRANCH   2   4
TORSDOF 1
