REMARK  1 active torsions:
REMARK  status: ('A' for Active; 'I' for Inactive)
REMARK    1  A    between atoms: C1_1  and  C3_3 
ROOT
HETATM    1  C2  UNL     1     -35.007   6.252   4.298  1.00 20.00     0.084 A 
HETATM    2  C3  UNL     1     -33.633   5.839   3.812  1.00 20.00     0.087 A 
HETATM    3  C4  UNL     1     -33.904   6.053   5.295  1.00 20.00     0.195 A 
HETATM    4  C5  UNL     1     -33.490   4.440   3.266  1.00 20.00     0.029 C 
HETATM    5  F7  UNL     1     -33.386   7.221   5.851  1.00 20.00    -0.224 F 
HETATM    6 CL9  UNL     1     -34.008   4.696   6.402  1.00 20.00    -0.081 Cl
ENDROOT
BRANCH   2   7
HETATM    7  C1  UNL     1     -32.817   6.882   3.144  1.00 20.00     0.231 C 
HETATM    8  O6  UNL     1     -32.495   7.917   3.720  1.00 20.00    -0.279 OA
HETATM    9 CL8  UNL     1     -32.408   6.446   1.512  1.00 20.00    -0.043 Cl
ENDBRANCH   2   7
TORSDOF 1
