REMARK  0 active torsions:
REMARK  status: ('A' for Active; 'I' for Inactive)
ROOT
HETATM    1  C1  UNL     1     -34.225   4.918   5.523  1.00 20.00     0.282 C 
HETATM    2  C2  UNL     1     -33.406   7.087   4.776  1.00 20.00     0.286 C 
HETATM    3  C3  UNL     1     -34.199   4.267   4.143  1.00 20.00     0.104 C 
HETATM    4  C4  UNL     1     -33.275   6.704   3.295  1.00 20.00     0.071 C 
HETATM    5  C5  UNL     1     -32.188   7.530   2.612  1.00 20.00     0.023 C 
HETATM    6  C6  UNL     1     -34.677   6.898   6.810  1.00 20.00     0.310 C 
HETATM    7  N7  UNL     1     -34.490   6.363   5.459  1.00 20.00     0.086 N 
HETATM    8  S8  UNL     1     -32.865   4.936   3.116  1.00 20.00    -0.161 SA
ENDROOT
TORSDOF 0
