REMARK  2 active torsions:
REMARK  status: ('A' for Active; 'I' for Inactive)
REMARK    1  A    between atoms: C2_2  and  C4_4 
REMARK    2  A    between atoms: C3_3  and  C5_5 
ROOT
HETATM    1  C1  UNL     1     -32.109   8.086   3.859  1.00 20.00     0.133 A 
HETATM    2  C2  UNL     1     -32.308   7.742   2.538  1.00 20.00     0.016 A 
HETATM    3  C3  UNL     1     -33.581   6.486   4.153  1.00 20.00     0.181 A 
HETATM    4  N6  UNL     1     -32.838   7.367   4.786  1.00 20.00    -0.248 NA
HETATM    5  S10 UNL     1     -33.451   6.467   2.442  1.00 20.00    -0.068 SA
ENDROOT
BRANCH   3   6
HETATM    6  C5  UNL     1     -34.498   5.533   4.815  1.00 20.00     0.441 C 
HETATM    7  F7  UNL     1     -34.521   5.637   6.182  1.00 20.00    -0.164 F 
HETATM    8  F8  UNL     1     -35.809   5.666   4.438  1.00 20.00    -0.164 F 
HETATM    9  F9  UNL     1     -34.186   4.224   4.563  1.00 20.00    -0.164 F 
ENDBRANCH   3   6
BRANCH   2  10
HETATM   10  C4  UNL     1     -31.701   8.299   1.314  1.00 20.00     0.162 C 
HETATM   11 CL11 UNL     1     -32.852   9.347   0.444  1.00 20.00    -0.125 Cl
ENDBRANCH   2  10
TORSDOF 2
