REMARK  0 active torsions:
REMARK  status: ('A' for Active; 'I' for Inactive)
ROOT
HETATM    1  C1  UNL     1     -32.674   7.451   5.069  1.00 20.00     0.282 C 
HETATM    2  C2  UNL     1     -33.527   5.574   3.781  1.00 20.00     0.286 C 
HETATM    3  C3  UNL     1     -33.651   7.294   6.231  1.00 20.00     0.104 C 
HETATM    4  C4  UNL     1     -34.619   5.154   4.776  1.00 20.00     0.071 C 
HETATM    5  C5  UNL     1     -35.985   5.756   4.448  1.00 20.00     0.023 C 
HETATM    6  C6  UNL     1     -32.327   7.352   2.691  1.00 20.00     0.310 C 
HETATM    7  N7  UNL     1     -33.243   7.018   3.784  1.00 20.00     0.086 N 
HETATM    8  S8  UNL     1     -34.129   5.562   6.487  1.00 20.00    -0.161 SA
ENDROOT
TORSDOF 0
