REMARK  3 active torsions:
REMARK  status: ('A' for Active; 'I' for Inactive)
REMARK    1  A    between atoms: C1_1  and  C4_4 
REMARK    2  A    between atoms: C2_2  and  C5_5 
REMARK    3  A    between atoms: C2_2  and  O9_9 
ROOT
HETATM    1  C3  UNL     1     -33.793   8.046   5.352  1.00 20.00     0.028 A 
HETATM    2  C4  UNL     1     -33.793   6.568   5.632  1.00 20.00     0.061 A 
HETATM    3  C5  UNL     1     -32.758   7.164   4.708  1.00 20.00     0.097 A 
ENDROOT
BRANCH   3   4
HETATM    4  C2  UNL     1     -32.817   6.926   3.261  1.00 20.00     0.263 C 
HETATM    5  O8  UNL     1     -33.342   5.947   2.748  1.00 20.00    -0.265 OA
BRANCH   4   6
HETATM    6  O9  UNL     1     -32.203   7.952   2.605  1.00 20.00    -0.326 OA
HETATM    7  C6  UNL     1     -32.187   7.847   1.178  1.00 20.00     0.213 C 
ENDBRANCH   4   6
ENDBRANCH   3   4
BRANCH   2   8
HETATM    8  C1  UNL     1     -34.882   5.738   5.103  1.00 20.00     0.236 C 
HETATM    9  O7  UNL     1     -34.778   4.532   4.905  1.00 20.00    -0.306 OA
ENDBRANCH   2   8
TORSDOF 3
