REMARK  3 active torsions:
REMARK  status: ('A' for Active; 'I' for Inactive)
REMARK    1  A    between atoms: C2_2  and  C3_3 
REMARK    2  A    between atoms: C3_3  and  N8_8 
REMARK    3  A    between atoms: C7_7  and  N8_8 
ROOT
HETATM    1  C3  UNL     1     -32.678   6.702   3.089  1.00 20.00     0.102 C 
HETATM    2  S9  UNL     1     -32.654   5.061   2.715  1.00 20.00    -0.060 SA
ENDROOT
BRANCH   1   3
HETATM    3  C2  UNL     1     -31.973   7.736   2.281  1.00 20.00    -0.034 C 
HETATM    4  C1  UNL     1     -31.028   8.461   2.895  1.00 20.00     0.021 C 
HETATM    5  C4  UNL     1     -32.373   7.909   0.851  1.00 20.00     0.050 C 
ENDBRANCH   1   3
BRANCH   1   6
HETATM    6  N8  UNL     1     -33.370   7.140   4.197  1.00 20.00    -0.377 N 
HETATM    7  H22 UNL     1     -33.347   8.138   4.380  1.00 20.00     0.160 HD
BRANCH   6   8
HETATM    8  C7  UNL     1     -34.147   6.331   5.118  1.00 20.00     0.074 C 
HETATM    9  C5  UNL     1     -35.579   6.236   4.611  1.00 20.00     0.031 C 
HETATM   10  C6  UNL     1     -34.080   6.960   6.502  1.00 20.00     0.031 C 
ENDBRANCH   6   8
ENDBRANCH   1   6
TORSDOF 3
