REMARK  3 active torsions:
REMARK  status: ('A' for Active; 'I' for Inactive)
REMARK    1  A    between atoms: C2_2  and  N9_9 
REMARK    2  A    between atoms: C3_3  and  C8_8 
REMARK    3  A    between atoms: C7_7  and  C8_8 
ROOT
HETATM    1  C3  UNL     1     -33.443   7.253   3.962  1.00 20.00     0.099 C 
HETATM    2  N9  UNL     1     -32.572   7.259   3.007  1.00 20.00    -0.277 NA
ENDROOT
BRANCH   1   3
HETATM    3  C8  UNL     1     -34.121   5.968   4.431  1.00 20.00    -0.001 C 
HETATM    4  C5  UNL     1     -35.631   6.166   4.216  1.00 20.00     0.021 C 
HETATM    5  C6  UNL     1     -33.666   4.741   3.627  1.00 20.00     0.021 C 
BRANCH   3   6
HETATM    6  C7  UNL     1     -33.859   5.789   5.940  1.00 20.00     0.129 C 
HETATM    7 CL10 UNL     1     -34.493   7.131   6.930  1.00 20.00    -0.129 Cl
ENDBRANCH   3   6
ENDBRANCH   1   3
BRANCH   2   8
HETATM    8  C2  UNL     1     -32.053   8.479   2.698  1.00 20.00     0.111 C 
HETATM    9  C1  UNL     1     -31.636   8.812   1.470  1.00 20.00    -0.012 C 
HETATM   10  C4  UNL     1     -31.688   7.890   0.297  1.00 20.00     0.037 C 
ENDBRANCH   2   8
TORSDOF 3
