REMARK  1 active torsions:
REMARK  status: ('A' for Active; 'I' for Inactive)
REMARK    1  A    between atoms: C2_2  and  C5_5 
ROOT
HETATM    1  C1  UNL     1     -34.753   5.918   5.711  1.00 20.00     0.153 A 
HETATM    2  C2  UNL     1     -33.876   5.826   4.475  1.00 20.00     0.096 A 
HETATM    3  C3  UNL     1     -34.605   6.978   6.743  1.00 20.00     0.042 C 
HETATM    4  C4  UNL     1     -33.756   4.506   3.780  1.00 20.00     0.050 C 
HETATM    5  O6  UNL     1     -35.200   6.384   4.431  1.00 20.00    -0.369 OA
ENDROOT
BRANCH   2   6
HETATM    6  C5  UNL     1     -32.788   6.818   4.216  1.00 20.00     0.154 C 
HETATM    7 CL7  UNL     1     -32.319   6.820   2.496  1.00 20.00    -0.127 Cl
ENDBRANCH   2   6
TORSDOF 1
