REMARK  3 active torsions:
REMARK  status: ('A' for Active; 'I' for Inactive)
REMARK    1  A    between atoms: C4_4  and  C10_10 
REMARK    2  A    between atoms: C8_8  and  C10_10 
REMARK    3  A    between atoms: C8_8  and  O11_11 
ROOT
HETATM    1  C1  UNL     1     -33.823   5.432   7.062  1.00 20.00    -0.030 C 
HETATM    2  C2  UNL     1     -34.576   4.763   6.178  1.00 20.00    -0.028 C 
HETATM    3  C5  UNL     1     -33.347   6.837   6.840  1.00 20.00     0.030 C 
HETATM    4  C6  UNL     1     -35.001   5.338   4.859  1.00 20.00     0.065 C 
HETATM    5  C7  UNL     1     -34.044   7.529   5.666  1.00 20.00     0.042 C 
HETATM    6  C8  UNL     1     -34.224   6.605   4.449  1.00 20.00     0.068 C 
ENDROOT
BRANCH   6   7
HETATM    7  C10 UNL     1     -32.881   6.253   3.800  1.00 20.00     0.038 C 
HETATM    8  C9  UNL     1     -32.105   7.523   3.450  1.00 20.00     0.017 C 
BRANCH   7   9
HETATM    9  C4  UNL     1     -33.103   5.420   2.565  1.00 20.00    -0.030 C 
HETATM   10  C3  UNL     1     -32.637   4.175   2.410  1.00 20.00     0.007 C 
ENDBRANCH   7   9
ENDBRANCH   6   7
BRANCH   6  11
HETATM   11  O11 UNL     1     -35.009   7.295   3.472  1.00 20.00    -0.389 OA
HETATM   12  H27 UNL     1     -35.849   7.509   3.903  1.00 20.00     0.210 HD
ENDBRANCH   6  11
TORSDOF 3
