REMARK  2 active torsions:
REMARK  status: ('A' for Active; 'I' for Inactive)
REMARK    1  A    between atoms: C1_1  and  C3_3 
REMARK    2  A    between atoms: C2_2  and  N9_9 
ROOT
HETATM    1  C1  UNL     1     -33.276   7.322   3.716  1.00 20.00     0.050 C 
HETATM    2  C2  UNL     1     -32.643   6.794   2.652  1.00 20.00     0.002 C 
HETATM    3  C4  UNL     1     -32.393   5.309   2.608  1.00 20.00     0.068 C 
ENDROOT
BRANCH   1   4
HETATM    4  C3  UNL     1     -33.748   6.500   4.870  1.00 20.00     0.026 C 
HETATM    5  C5  UNL     1     -33.157   6.862   6.214  1.00 20.00     0.070 C 
HETATM    6  N8  UNL     1     -34.629   5.571   4.695  1.00 20.00    -0.299 NA
HETATM    7  C6  UNL     1     -35.074   4.805   5.849  1.00 20.00     0.177 C 
ENDBRANCH   1   4
BRANCH   2   8
HETATM    8  N9  UNL     1     -32.196   7.486   1.561  1.00 20.00    -0.398 N 
HETATM    9  C7  UNL     1     -32.868   8.678   1.127  1.00 20.00     0.146 C 
HETATM   10  H23 UNL     1     -31.397   7.123   1.100  1.00 20.00     0.158 HD
ENDBRANCH   2   8
TORSDOF 2
