REMARK  1 active torsions:
REMARK  status: ('A' for Active; 'I' for Inactive)
REMARK    1  A    between atoms: C1_1  and  C9_9 
ROOT
HETATM    1  C1  UNL     1     -33.158   6.710   3.789  1.00 20.00     0.020 C 
HETATM    2  C2  UNL     1     -33.355   5.423   3.073  1.00 20.00     0.058 C 
HETATM    3  C3  UNL     1     -33.776   4.498   4.212  1.00 20.00     0.038 C 
HETATM    4  C4  UNL     1     -34.465   5.411   5.237  1.00 20.00     0.055 C 
HETATM    5  C5  UNL     1     -34.178   5.004   6.675  1.00 20.00     0.041 C 
HETATM    6  C6  UNL     1     -35.952   5.610   4.964  1.00 20.00     0.041 C 
HETATM    7  N10 UNL     1     -33.780   6.695   4.939  1.00 20.00    -0.224 N 
HETATM    8  O11 UNL     1     -33.832   7.690   5.730  1.00 20.00    -0.085 OA
ENDROOT
BRANCH   1   9
HETATM    9  C9  UNL     1     -32.470   7.909   3.263  1.00 20.00     0.025 C 
HETATM   10  C7  UNL     1     -31.003   7.603   2.942  1.00 20.00     0.016 C 
HETATM   11  C8  UNL     1     -33.178   8.463   2.021  1.00 20.00     0.016 C 
ENDBRANCH   1   9
TORSDOF 1
