REMARK  0 active torsions:
REMARK  status: ('A' for Active; 'I' for Inactive)
ROOT
HETATM    1  C1  UNL     1     -33.093   7.626   3.712  1.00 20.00     0.280 C 
HETATM    2  C2  UNL     1     -32.224   6.743   2.826  1.00 20.00     0.104 C 
HETATM    3  C3  UNL     1     -33.359   4.691   4.233  1.00 20.00     0.114 C 
HETATM    4  C4  UNL     1     -34.092   5.788   5.035  1.00 20.00     0.159 C 
HETATM    5  C5  UNL     1     -34.167   5.330   6.508  1.00 20.00     0.049 C 
HETATM    6  C6  UNL     1     -35.538   5.992   4.542  1.00 20.00     0.049 C 
HETATM    7  N7  UNL     1     -33.343   7.059   5.037  1.00 20.00     0.093 N 
HETATM    8  S8  UNL     1     -33.018   5.146   2.505  1.00 20.00    -0.165 SA
HETATM    9  H21 UNL     1     -32.453   6.927   5.513  1.00 20.00     0.316 HD
ENDROOT
TORSDOF 0
