REMARK  1 active torsions:
REMARK  status: ('A' for Active; 'I' for Inactive)
REMARK    1  A    between atoms: C1_1  and  C8_8 
ROOT
HETATM    1  C2  UNL     1     -34.383   6.033   6.917  1.00 20.00     0.000 C 
HETATM    2  C3  UNL     1     -34.217   4.743   6.122  1.00 20.00     0.001 C 
HETATM    3  C4  UNL     1     -33.447   7.118   6.396  1.00 20.00     0.006 C 
HETATM    4  C5  UNL     1     -34.640   4.937   4.668  1.00 20.00     0.019 C 
HETATM    5  C6  UNL     1     -34.705   7.460   4.127  1.00 20.00     0.025 A 
HETATM    6  C7  UNL     1     -33.442   7.251   4.904  1.00 20.00     0.004 A 
HETATM    7  C8  UNL     1     -33.968   6.131   4.016  1.00 20.00     0.040 A 
ENDROOT
BRANCH   7   8
HETATM    8  C1  UNL     1     -33.228   5.885   2.758  1.00 20.00     0.228 C 
HETATM    9  O9  UNL     1     -33.157   4.766   2.260  1.00 20.00    -0.279 OA
HETATM   10 CL10 UNL     1     -32.513   7.337   2.125  1.00 20.00    -0.043 Cl
ENDBRANCH   7   8
TORSDOF 1
