REMARK  2 active torsions:
REMARK  status: ('A' for Active; 'I' for Inactive)
REMARK    1  A    between atoms: C4_4  and  C7_7 
REMARK    2  A    between atoms: C5_5  and  O8_8 
ROOT
HETATM    1  C1  UNL     1     -33.234   6.580   6.396  1.00 20.00     0.007 C 
HETATM    2  C2  UNL     1     -34.047   5.306   6.647  1.00 20.00     0.032 C 
HETATM    3  C3  UNL     1     -33.518   5.500   4.284  1.00 20.00     0.036 C 
HETATM    4  C4  UNL     1     -33.412   6.890   4.910  1.00 20.00    -0.012 C 
HETATM    5  C5  UNL     1     -34.404   4.747   5.269  1.00 20.00     0.118 C 
ENDROOT
BRANCH   4   6
HETATM    6  C7  UNL     1     -32.279   7.721   4.332  1.00 20.00     0.000 C 
HETATM    7  C6  UNL     1     -32.462   7.975   2.869  1.00 20.00     0.005 C 
ENDBRANCH   4   6
BRANCH   5   8
HETATM    8  O8  UNL     1     -35.768   5.031   4.972  1.00 20.00    -0.396 OA
HETATM    9  H22 UNL     1     -36.296   4.603   5.664  1.00 20.00     0.210 HD
ENDBRANCH   5   8
TORSDOF 2
