REMARK  2 active torsions:
REMARK  status: ('A' for Active; 'I' for Inactive)
REMARK    1  A    between atoms: C5_5  and  C8_8 
REMARK    2  A    between atoms: C6_6  and  N9_9 
ROOT
HETATM    1  C1  UNL     1     -33.937   5.976   3.676  1.00 20.00     0.006 C 
HETATM    2  C2  UNL     1     -33.053   7.496   5.490  1.00 20.00     0.006 C 
HETATM    3  C3  UNL     1     -35.110   5.577   4.572  1.00 20.00     0.024 C 
HETATM    4  C4  UNL     1     -34.221   7.106   6.396  1.00 20.00     0.024 C 
HETATM    5  C5  UNL     1     -33.422   7.382   4.005  1.00 20.00    -0.015 C 
HETATM    6  C6  UNL     1     -34.807   5.734   6.062  1.00 20.00     0.109 C 
ENDROOT
BRANCH   5   7
HETATM    7  C8  UNL     1     -32.225   7.737   3.125  1.00 20.00     0.000 C 
HETATM    8  C7  UNL     1     -32.571   7.672   1.673  1.00 20.00     0.005 C 
ENDBRANCH   5   7
BRANCH   6   9
HETATM    9  N9  UNL     1     -33.880   4.679   6.495  1.00 20.00    -0.059 NA
HETATM   10  O10 UNL     1     -33.551   3.958   5.556  1.00 20.00    -0.101 OA
ENDBRANCH   6   9
TORSDOF 2
