REMARK  0 active torsions:
REMARK  status: ('A' for Active; 'I' for Inactive)
ROOT
HETATM    1  C1  UNL     1     -34.079   7.677   6.255  1.00 20.00     0.097 A 
HETATM    2  C2  UNL     1     -34.767   5.440   6.338  1.00 20.00     0.097 A 
HETATM    3  C3  UNL     1     -33.464   7.481   5.019  1.00 20.00    -0.016 A 
HETATM    4  C4  UNL     1     -34.173   5.173   5.105  1.00 20.00    -0.016 A 
HETATM    5  C5  UNL     1     -33.526   6.213   4.408  1.00 20.00     0.045 A 
HETATM    6  C6  UNL     1     -32.789   8.640   4.337  1.00 20.00     0.044 C 
HETATM    7  C7  UNL     1     -34.279   3.791   4.518  1.00 20.00     0.044 C 
HETATM    8  C8  UNL     1     -31.798   8.159   3.284  1.00 20.00     0.025 C 
HETATM    9  C9  UNL     1     -33.210   3.560   3.456  1.00 20.00     0.025 C 
HETATM   10  C10 UNL     1     -32.447   7.117   2.383  1.00 20.00     0.123 C 
HETATM   11  C11 UNL     1     -33.182   4.723   2.473  1.00 20.00     0.123 C 
HETATM   12  N12 UNL     1     -34.702   6.666   6.867  1.00 20.00    -0.374 N 
HETATM   13  N13 UNL     1     -32.930   5.983   3.167  1.00 20.00    -0.380 N 
HETATM   14  H28 UNL     1     -35.145   6.835   7.770  1.00 20.00     0.164 HD
ENDROOT
TORSDOF 0
