REMARK  2 active torsions:
REMARK  status: ('A' for Active; 'I' for Inactive)
REMARK    1  A    between atoms: C2_2  and  C6_6 
REMARK    2  A    between atoms: C3_3  and  C7_7 
ROOT
HETATM    1  C1  UNL     1     -33.306   6.102   2.271  1.00 20.00     0.133 A 
HETATM    2  C2  UNL     1     -32.444   7.166   2.433  1.00 20.00     0.016 A 
HETATM    3  C3  UNL     1     -33.507   6.361   4.439  1.00 20.00     0.078 A 
HETATM    4  N8  UNL     1     -33.916   5.639   3.420  1.00 20.00    -0.257 NA
HETATM    5  S9  UNL     1     -32.388   7.614   4.088  1.00 20.00    -0.076 SA
ENDROOT
BRANCH   3   6
HETATM    6  C7  UNL     1     -33.956   6.154   5.874  1.00 20.00     0.037 C 
HETATM    7  C4  UNL     1     -34.907   4.961   5.999  1.00 20.00     0.016 C 
HETATM    8  C5  UNL     1     -34.592   7.421   6.452  1.00 20.00     0.016 C 
ENDBRANCH   3   6
BRANCH   2   9
HETATM    9  C6  UNL     1     -31.640   7.893   1.432  1.00 20.00     0.162 C 
HETATM   10 CL10 UNL     1     -32.660   8.982   0.454  1.00 20.00    -0.125 Cl
ENDBRANCH   2   9
TORSDOF 2
