REMARK  1 active torsions:
REMARK  status: ('A' for Active; 'I' for Inactive)
REMARK    1  A    between atoms: C5_5  and  O10_10 
ROOT
HETATM    1  C1  UNL     1     -32.908   7.849   5.214  1.00 20.00     0.050 A 
HETATM    2  C2  UNL     1     -34.736   6.477   6.051  1.00 20.00     0.079 A 
HETATM    3  C3  UNL     1     -32.914   7.088   4.057  1.00 20.00    -0.046 A 
HETATM    4  C4  UNL     1     -33.814   6.028   3.895  1.00 20.00    -0.018 A 
HETATM    5  C5  UNL     1     -34.726   5.707   4.886  1.00 20.00     0.075 A 
HETATM    6  C6  UNL     1     -33.833   7.540   6.214  1.00 20.00     0.119 A 
HETATM    7  C7  UNL     1     -32.003   7.199   2.876  1.00 20.00     0.039 C 
HETATM    8  C8  UNL     1     -33.589   5.333   2.589  1.00 20.00     0.042 C 
HETATM    9  C9  UNL     1     -32.780   6.392   1.825  1.00 20.00     0.009 C 
HETATM   10  F11 UNL     1     -33.856   8.261   7.343  1.00 20.00    -0.206 F 
ENDROOT
BRANCH   5  11
HETATM   11  O10 UNL     1     -35.591   4.671   4.740  1.00 20.00    -0.360 OA
HETATM   12  H20 UNL     1     -36.155   4.586   5.527  1.00 20.00     0.217 HD
ENDBRANCH   5  11
TORSDOF 1
