REMARK  2 active torsions:
REMARK  status: ('A' for Active; 'I' for Inactive)
REMARK    1  A    between atoms: C6_6  and  C8_8 
REMARK    2  A    between atoms: C7_7  and  C8_8 
ROOT
HETATM    1  C1  UNL     1     -34.832   5.510   6.279  1.00 20.00     0.001 A 
HETATM    2  C2  UNL     1     -34.265   6.802   6.618  1.00 20.00     0.001 A 
HETATM    3  C3  UNL     1     -34.482   5.182   5.025  1.00 20.00     0.013 A 
HETATM    4  C4  UNL     1     -33.566   7.272   5.572  1.00 20.00     0.013 A 
HETATM    5  C5  UNL     1     -33.671   6.275   4.525  1.00 20.00    -0.018 A 
HETATM    6  C7  UNL     1     -33.118   6.351   3.312  1.00 20.00     0.028 C 
HETATM    7 CL10 UNL     1     -33.386   5.087   2.156  1.00 20.00    -0.088 Cl
ENDROOT
BRANCH   6   8
HETATM    8  C8  UNL     1     -32.286   7.502   2.838  1.00 20.00     0.121 C 
BRANCH   8   9
HETATM    9  C6  UNL     1     -32.879   8.171   1.615  1.00 20.00     0.236 C 
HETATM   10  O9  UNL     1     -32.310   8.306   0.537  1.00 20.00    -0.307 OA
ENDBRANCH   8   9
ENDBRANCH   6   8
TORSDOF 2
