REMARK  4 active torsions:
REMARK  status: ('A' for Active; 'I' for Inactive)
REMARK    1  A    between atoms: C1_1  and  C7_7 
REMARK    2  A    between atoms: C1_1  and  O11_11 
REMARK    3  A    between atoms: C7_7  and  C8_8 
REMARK    4  A    between atoms: C8_8  and  C9_9 
ROOT
HETATM    1  C2  UNL     1     -34.412   7.704   6.485  1.00 20.00     0.011 C 
HETATM    2  C8  UNL     1     -33.681   7.168   5.239  1.00 20.00    -0.002 C 
ENDROOT
BRANCH   2   3
HETATM    3  C7  UNL     1     -33.694   8.259   4.142  1.00 20.00     0.116 C 
BRANCH   3   4
HETATM    4  C1  UNL     1     -32.553   8.122   3.154  1.00 20.00     0.258 C 
HETATM    5  O10 UNL     1     -31.466   7.617   3.399  1.00 20.00    -0.265 OA
BRANCH   4   6
HETATM    6  O11 UNL     1     -32.949   8.617   1.944  1.00 20.00    -0.326 OA
HETATM    7  C6  UNL     1     -31.984   8.519   0.891  1.00 20.00     0.213 C 
ENDBRANCH   4   6
ENDBRANCH   3   4
ENDBRANCH   2   3
BRANCH   2   8
HETATM    8  C9  UNL     1     -34.237   5.779   4.744  1.00 20.00    -0.048 C 
HETATM    9  C3  UNL     1     -34.188   4.702   5.843  1.00 20.00     0.015 C 
HETATM   10  C4  UNL     1     -33.428   5.269   3.531  1.00 20.00     0.015 C 
HETATM   11  C5  UNL     1     -35.703   5.928   4.276  1.00 20.00     0.015 C 
ENDBRANCH   2   8
TORSDOF 4
