REMARK  0 active torsions:
REMARK  status: ('A' for Active; 'I' for Inactive)
ROOT
HETATM    1  C1  UNL     1     -33.136   7.647   3.751  1.00 20.00     0.047 A 
HETATM    2  C2  UNL     1     -33.635   6.755   4.718  1.00 20.00     0.025 A 
HETATM    3  C3  UNL     1     -33.682   5.465   4.274  1.00 20.00    -0.002 A 
HETATM    4  C4  UNL     1     -32.820   6.967   2.586  1.00 20.00     0.075 A 
HETATM    5  C5  UNL     1     -34.122   6.806   6.070  1.00 20.00     0.161 A 
HETATM    6  C6  UNL     1     -34.200   4.483   5.255  1.00 20.00     0.055 A 
HETATM    7  C7  UNL     1     -34.510   5.381   6.494  1.00 20.00     0.089 A 
HETATM    8  O8  UNL     1     -34.212   7.808   6.761  1.00 20.00    -0.292 OA
HETATM    9  S9  UNL     1     -33.139   5.269   2.702  1.00 20.00    -0.082 SA
HETATM   10 CL10 UNL     1     -32.183   7.616   1.132  1.00 20.00    -0.076 Cl
ENDROOT
TORSDOF 0
