REMARK  2 active torsions:
REMARK  status: ('A' for Active; 'I' for Inactive)
REMARK    1  A    between atoms: C2_2  and  C5_5 
REMARK    2  A    between atoms: C9_9  and  N10_10 
ROOT
HETATM    1  C3  UNL     1     -34.198   7.379   6.686  1.00 20.00     0.070 C 
HETATM    2  C4  UNL     1     -33.820   8.366   5.565  1.00 20.00     0.277 C 
HETATM    3  C5  UNL     1     -33.769   6.286   5.679  1.00 20.00     0.247 C 
HETATM    4  N10 UNL     1     -34.075   7.266   4.598  1.00 20.00     0.105 N 
ENDROOT
BRANCH   4   5
HETATM    5  C9  UNL     1     -33.040   7.243   3.569  1.00 20.00     0.150 C 
HETATM    6  C6  UNL     1     -31.727   7.768   4.159  1.00 20.00     0.048 C 
HETATM    7  C7  UNL     1     -32.851   5.803   3.080  1.00 20.00     0.048 C 
HETATM    8  C8  UNL     1     -33.471   8.136   2.399  1.00 20.00     0.048 C 
ENDBRANCH   4   5
BRANCH   3   9
HETATM    9  C2  UNL     1     -34.643   5.102   5.603  1.00 20.00    -0.002 C 
HETATM   10  C1  UNL     1     -35.803   5.070   4.939  1.00 20.00     0.009 C 
ENDBRANCH   3   9
TORSDOF 2
