REMARK  2 active torsions:
REMARK  status: ('A' for Active; 'I' for Inactive)
REMARK    1  A    between atoms: C4_4  and  C7_7 
REMARK    2  A    between atoms: C5_5  and  O8_8 
ROOT
HETATM    1  C1  UNL     1     -34.463   5.082   5.878  1.00 20.00     0.007 C 
HETATM    2  C2  UNL     1     -33.523   6.102   6.511  1.00 20.00     0.032 C 
HETATM    3  C3  UNL     1     -34.510   6.991   4.448  1.00 20.00     0.036 C 
HETATM    4  C4  UNL     1     -34.502   5.461   4.400  1.00 20.00    -0.012 C 
HETATM    5  C5  UNL     1     -33.661   7.368   5.664  1.00 20.00     0.118 C 
ENDROOT
BRANCH   4   6
HETATM    6  C7  UNL     1     -33.307   4.910   3.625  1.00 20.00     0.000 C 
HETATM    7  C6  UNL     1     -33.325   5.338   2.191  1.00 20.00     0.005 C 
ENDBRANCH   4   6
BRANCH   5   8
HETATM    8  O8  UNL     1     -32.381   7.812   5.234  1.00 20.00    -0.396 OA
HETATM    9  H22 UNL     1     -31.866   7.993   6.036  1.00 20.00     0.210 HD
ENDBRANCH   5   8
TORSDOF 2
