REMARK  4 active torsions:
REMARK  status: ('A' for Active; 'I' for Inactive)
REMARK    1  A    between atoms: C1_1  and  C7_7 
REMARK    2  A    between atoms: C1_1  and  C8_8 
REMARK    3  A    between atoms: C7_7  and  O10_10 
REMARK    4  A    between atoms: C7_7  and  O11_11 
ROOT
HETATM    1  C1  UNL     1     -33.946   6.079   4.451  1.00 20.00     0.188 C 
HETATM    2  O9  UNL     1     -35.032   5.856   3.908  1.00 20.00    -0.292 OA
ENDROOT
BRANCH   1   3
HETATM    3  C7  UNL     1     -32.761   6.566   3.622  1.00 20.00     0.330 C 
BRANCH   3   4
HETATM    4  O10 UNL     1     -32.935   5.920   2.361  1.00 20.00    -0.359 OA
HETATM    5  C5  UNL     1     -32.485   4.572   2.383  1.00 20.00     0.205 C 
ENDBRANCH   3   4
BRANCH   3   6
HETATM    6  O11 UNL     1     -32.827   7.981   3.492  1.00 20.00    -0.359 OA
HETATM    7  C6  UNL     1     -31.574   8.556   3.145  1.00 20.00     0.205 C 
ENDBRANCH   3   6
ENDBRANCH   1   3
BRANCH   1   8
HETATM    8  C8  UNL     1     -33.766   5.924   5.978  1.00 20.00     0.015 C 
HETATM    9  C2  UNL     1     -33.394   7.290   6.567  1.00 20.00     0.023 C 
HETATM   10  C3  UNL     1     -35.093   5.457   6.602  1.00 20.00     0.023 C 
HETATM   11  C4  UNL     1     -32.684   4.890   6.315  1.00 20.00     0.023 C 
ENDBRANCH   1   8
TORSDOF 4
