REMARK  2 active torsions:
REMARK  status: ('A' for Active; 'I' for Inactive)
REMARK    1  A    between atoms: C4_4  and  C8_8 
REMARK    2  A    between atoms: C5_5  and  O9_9 
ROOT
HETATM    1  C1  UNL     1     -33.648   7.307   5.184  1.00 20.00     0.007 C 
HETATM    2  C2  UNL     1     -34.810   7.106   6.145  1.00 20.00     0.032 C 
HETATM    3  C3  UNL     1     -34.565   5.100   4.777  1.00 20.00     0.036 C 
HETATM    4  C4  UNL     1     -33.963   6.320   4.063  1.00 20.00    -0.009 C 
HETATM    5  C5  UNL     1     -34.997   5.593   6.162  1.00 20.00     0.118 C 
ENDROOT
BRANCH   4   6
HETATM    6  C8  UNL     1     -32.750   5.979   3.213  1.00 20.00    -0.019 C 
HETATM    7  C6  UNL     1     -33.113   4.961   2.130  1.00 20.00     0.010 C 
HETATM    8  C7  UNL     1     -32.156   7.239   2.581  1.00 20.00     0.010 C 
ENDBRANCH   4   6
BRANCH   5   9
HETATM    9  O9  UNL     1     -34.138   5.014   7.140  1.00 20.00    -0.396 OA
HETATM   10  H25 UNL     1     -34.293   4.056   7.112  1.00 20.00     0.210 HD
ENDBRANCH   5   9
TORSDOF 2
