REMARK  1 active torsions:
REMARK  status: ('A' for Active; 'I' for Inactive)
REMARK    1  A    between atoms: C2_2  and  C6_6 
ROOT
HETATM    1  C1  UNL     1     -33.563   5.498   3.606  1.00 20.00     0.134 A 
HETATM    2  C2  UNL     1     -33.900   6.492   4.501  1.00 20.00     0.006 A 
HETATM    3  C3  UNL     1     -32.523   7.172   2.645  1.00 20.00     0.167 A 
HETATM    4  N7  UNL     1     -32.774   5.886   2.541  1.00 20.00    -0.240 NA
HETATM    5  S8  UNL     1     -33.204   7.977   3.999  1.00 20.00    -0.061 SA
HETATM    6 CL9  UNL     1     -31.572   8.038   1.512  1.00 20.00    -0.054 Cl
ENDROOT
BRANCH   2   7
HETATM    7  C6  UNL     1     -34.738   6.422   5.763  1.00 20.00     0.019 C 
HETATM    8  C4  UNL     1     -34.325   7.495   6.774  1.00 20.00     0.015 C 
HETATM    9  C5  UNL     1     -34.688   5.029   6.396  1.00 20.00     0.015 C 
ENDBRANCH   2   7
TORSDOF 1
