REMARK  0 active torsions:
REMARK  status: ('A' for Active; 'I' for Inactive)
ROOT
HETATM    1  C1  UNL     1     -34.405   5.153   4.488  1.00 20.00     0.047 A 
HETATM    2  C2  UNL     1     -33.526   5.912   3.694  1.00 20.00     0.026 A 
HETATM    3  C3  UNL     1     -33.028   7.002   4.349  1.00 20.00    -0.001 A 
HETATM    4  C4  UNL     1     -34.536   5.725   5.743  1.00 20.00     0.075 A 
HETATM    5  C5  UNL     1     -32.989   5.875   2.359  1.00 20.00     0.175 A 
HETATM    6  C6  UNL     1     -32.079   7.830   3.561  1.00 20.00     0.071 A 
HETATM    7  C7  UNL     1     -32.090   7.109   2.180  1.00 20.00     0.137 A 
HETATM    8  O8  UNL     1     -33.230   5.022   1.519  1.00 20.00    -0.291 OA
HETATM    9  S9  UNL     1     -33.586   7.162   5.919  1.00 20.00    -0.082 SA
HETATM   10 CL10 UNL     1     -35.492   5.172   7.055  1.00 20.00    -0.076 Cl
HETATM   11 BR11 UNL     1     -32.939   8.208   0.825  1.00 20.00    -0.082 Br
ENDROOT
TORSDOF 0
