REMARK  2 active torsions:
REMARK  status: ('A' for Active; 'I' for Inactive)
REMARK    1  A    between atoms: C7_7  and  C8_8 
REMARK    2  A    between atoms: C8_8  and  O10_10 
ROOT
HETATM    1  C1  UNL     1     -33.503   6.892   5.300  1.00 20.00     0.071 C 
HETATM    2  C2  UNL     1     -32.383   6.510   1.805  1.00 20.00     0.000 C 
HETATM    3  C3  UNL     1     -32.933   7.805   2.391  1.00 20.00     0.002 C 
HETATM    4  C4  UNL     1     -32.317   5.403   2.851  1.00 20.00     0.002 C 
HETATM    5  C5  UNL     1     -34.294   7.591   3.058  1.00 20.00     0.027 C 
HETATM    6  C6  UNL     1     -33.674   5.176   3.520  1.00 20.00     0.027 C 
HETATM    7  C7  UNL     1     -34.283   6.465   4.114  1.00 20.00     0.070 C 
HETATM    8  N9  UNL     1     -32.892   7.226   6.227  1.00 20.00    -0.196 NA
ENDROOT
BRANCH   7   9
HETATM    9  C8  UNL     1     -35.724   6.183   4.572  1.00 20.00     0.188 C 
BRANCH   9  10
HETATM   10  O10 UNL     1     -35.684   5.151   5.535  1.00 20.00    -0.399 OA
HETATM   11  H23 UNL     1     -36.601   4.982   5.816  1.00 20.00     0.209 HD
ENDBRANCH   9  10
ENDBRANCH   7   9
TORSDOF 2
