REMARK  1 active torsions:
REMARK  status: ('A' for Active; 'I' for Inactive)
REMARK    1  A    between atoms: C5_5  and  C8_8 
ROOT
HETATM    1  C1  UNL     1     -32.424   6.707   1.751  1.00 20.00     0.052 C 
HETATM    2  C2  UNL     1     -33.025   5.598   2.209  1.00 20.00    -0.080 C 
HETATM    3  C3  UNL     1     -32.466   7.967   2.533  1.00 20.00     0.150 C 
HETATM    4  C6  UNL     1     -33.712   5.532   3.550  1.00 20.00     0.043 C 
HETATM    5  C7  UNL     1     -33.282   8.000   3.805  1.00 20.00     0.092 C 
HETATM    6  C8  UNL     1     -33.256   6.643   4.507  1.00 20.00     0.024 C 
HETATM    7  C9  UNL     1     -33.052   4.335   1.398  1.00 20.00     0.043 C 
HETATM    8  O11 UNL     1     -31.896   8.969   2.105  1.00 20.00    -0.293 OA
ENDROOT
BRANCH   6   9
HETATM    9  C5  UNL     1     -34.096   6.662   5.748  1.00 20.00    -0.088 C 
HETATM   10  C4  UNL     1     -34.298   7.787   6.451  1.00 20.00     0.014 C 
HETATM   11  C10 UNL     1     -34.700   5.352   6.159  1.00 20.00     0.043 C 
ENDBRANCH   6   9
TORSDOF 1
