REMARK  2 active torsions:
REMARK  status: ('A' for Active; 'I' for Inactive)
REMARK    1  A    between atoms: C4_4  and  C8_8 
REMARK    2  A    between atoms: C5_5  and  O9_9 
ROOT
HETATM    1  C1  UNL     1     -32.661   5.215   4.186  1.00 20.00     0.007 C 
HETATM    2  C2  UNL     1     -33.597   4.917   5.363  1.00 20.00     0.032 C 
HETATM    3  C3  UNL     1     -34.076   7.123   4.485  1.00 20.00     0.036 C 
HETATM    4  C4  UNL     1     -33.327   6.347   3.403  1.00 20.00    -0.009 C 
HETATM    5  C5  UNL     1     -34.659   6.016   5.354  1.00 20.00     0.118 C 
ENDROOT
BRANCH   4   6
HETATM    6  C8  UNL     1     -32.339   7.203   2.630  1.00 20.00    -0.019 C 
HETATM    7  C6  UNL     1     -33.064   8.295   1.840  1.00 20.00     0.010 C 
HETATM    8  C7  UNL     1     -31.306   7.827   3.570  1.00 20.00     0.010 C 
ENDBRANCH   4   6
BRANCH   5   9
HETATM    9  O9  UNL     1     -35.846   5.504   4.756  1.00 20.00    -0.396 OA
HETATM   10  H25 UNL     1     -36.126   4.750   5.299  1.00 20.00     0.210 HD
ENDBRANCH   5   9
TORSDOF 2
