REMARK  0 active torsions:
REMARK  status: ('A' for Active; 'I' for Inactive)
ROOT
HETATM    1  C1  UNL     1     -34.831   5.180   6.391  1.00 20.00     0.136 A 
HETATM    2  C2  UNL     1     -34.502   6.515   6.623  1.00 20.00     0.136 A 
HETATM    3  C3  UNL     1     -33.401   4.819   3.159  1.00 20.00     0.083 A 
HETATM    4  C4  UNL     1     -32.815   7.198   3.572  1.00 20.00     0.083 A 
HETATM    5  C5  UNL     1     -33.840   5.264   4.382  1.00 20.00     0.092 A 
HETATM    6  C6  UNL     1     -33.502   6.637   4.620  1.00 20.00     0.092 A 
HETATM    7  N7  UNL     1     -34.519   4.488   5.265  1.00 20.00    -0.257 NA
HETATM    8  N8  UNL     1     -33.824   7.309   5.755  1.00 20.00    -0.257 NA
HETATM    9  S9  UNL     1     -32.580   6.063   2.301  1.00 20.00    -0.109 SA
ENDROOT
TORSDOF 0
