REMARK  4 active torsions:
REMARK  status: ('A' for Active; 'I' for Inactive)
REMARK    1  A    between atoms: C2_2  and  C6_6 
REMARK    2  A    between atoms: C6_6  and  C8_8 
REMARK    3  A    between atoms: C7_7  and  C8_8 
REMARK    4  A    between atoms: C8_8  and  O9_9 
ROOT
HETATM    1  C1  UNL     1     -32.651   8.412   1.227  1.00 20.00    -0.111 C 
HETATM    2  C2  UNL     1     -32.544   8.074   2.374  1.00 20.00    -0.104 C 
HETATM    3  C3  UNL     1     -32.781   8.822  -0.171  1.00 20.00     0.112 C 
ENDROOT
BRANCH   2   4
HETATM    4  C6  UNL     1     -32.411   7.660   3.782  1.00 20.00     0.126 C 
BRANCH   4   5
HETATM    5  C8  UNL     1     -33.581   6.765   4.215  1.00 20.00     0.132 C 
BRANCH   5   6
HETATM    6  C7  UNL     1     -33.737   6.697   5.753  1.00 20.00     0.007 C 
HETATM    7  C4  UNL     1     -34.499   5.455   6.225  1.00 20.00     0.012 C 
HETATM    8  C5  UNL     1     -34.441   7.953   6.280  1.00 20.00     0.012 C 
ENDBRANCH   5   6
BRANCH   5   9
HETATM    9  O9  UNL     1     -33.380   5.445   3.707  1.00 20.00    -0.394 OA
HETATM   10  H23 UNL     1     -33.343   5.527   2.742  1.00 20.00     0.210 HD
ENDBRANCH   5   9
ENDBRANCH   4   5
ENDBRANCH   2   4
TORSDOF 4
