REMARK  3 active torsions:
REMARK  status: ('A' for Active; 'I' for Inactive)
REMARK    1  A    between atoms: C2_2  and  C6_6 
REMARK    2  A    between atoms: C3_3  and  C6_6 
REMARK    3  A    between atoms: C3_3  and  C7_7 
ROOT
HETATM    1  C3  UNL     1     -33.366   6.229   3.522  1.00 20.00     0.240 C 
HETATM    2  O8  UNL     1     -33.306   5.114   3.003  1.00 20.00    -0.287 OA
ENDROOT
BRANCH   1   3
HETATM    3  C6  UNL     1     -34.468   6.613   4.506  1.00 20.00     0.088 C 
HETATM    4  C5  UNL     1     -35.753   5.912   4.062  1.00 20.00     0.023 C 
BRANCH   3   5
HETATM    5  C2  UNL     1     -33.978   6.323   5.913  1.00 20.00    -0.082 C 
HETATM    6  C1  UNL     1     -34.195   5.172   6.572  1.00 20.00     0.014 C 
HETATM    7  C4  UNL     1     -33.180   7.425   6.562  1.00 20.00     0.043 C 
ENDBRANCH   3   5
ENDBRANCH   1   3
BRANCH   1   8
HETATM    8  C7  UNL     1     -32.328   7.275   3.228  1.00 20.00     0.451 C 
HETATM    9  F9  UNL     1     -32.562   8.421   3.915  1.00 20.00    -0.163 F 
HETATM   10  F10 UNL     1     -32.292   7.605   1.913  1.00 20.00    -0.163 F 
HETATM   11  F11 UNL     1     -31.081   6.858   3.564  1.00 20.00    -0.163 F 
ENDBRANCH   1   8
TORSDOF 3
