REMARK  4 active torsions:
REMARK  status: ('A' for Active; 'I' for Inactive)
REMARK    1  A    between atoms: C1_1  and  C8_8 
REMARK    2  A    between atoms: C1_1  and  C9_9 
REMARK    3  A    between atoms: C6_6  and  C8_8 
REMARK    4  A    between atoms: C7_7  and  C9_9 
ROOT
HETATM    1  C1  UNL     1     -32.592   7.228   3.394  1.00 20.00     0.127 C 
HETATM    2  O10 UNL     1     -32.272   8.015   4.283  1.00 20.00    -0.298 OA
ENDROOT
BRANCH   1   3
HETATM    3  C8  UNL     1     -32.171   7.423   1.947  1.00 20.00     0.082 C 
BRANCH   3   4
HETATM    4  C6  UNL     1     -33.156   8.265   1.158  1.00 20.00    -0.008 A 
HETATM    5  C2  UNL     1     -33.002   9.760   1.104  1.00 20.00     0.005 A 
HETATM    6  C3  UNL     1     -32.728   8.932  -0.120  1.00 20.00     0.005 A 
ENDBRANCH   3   4
ENDBRANCH   1   3
BRANCH   1   7
HETATM    7  C9  UNL     1     -33.436   5.994   3.669  1.00 20.00     0.082 C 
BRANCH   7   8
HETATM    8  C7  UNL     1     -34.415   6.195   4.812  1.00 20.00    -0.008 A 
HETATM    9  C4  UNL     1     -35.009   5.009   5.519  1.00 20.00     0.005 A 
HETATM   10  C5  UNL     1     -34.006   5.879   6.223  1.00 20.00     0.005 A 
ENDBRANCH   7   8
ENDBRANCH   1   7
TORSDOF 4
