REMARK  1 active torsions:
REMARK  status: ('A' for Active; 'I' for Inactive)
REMARK    1  A    between atoms: C6_6  and  O8_8 
ROOT
HETATM    1  C1  UNL     1     -33.061   5.148   2.283  1.00 20.00     0.015 C 
HETATM    2  C2  UNL     1     -33.714   5.404   3.257  1.00 20.00    -0.077 C 
HETATM    3  C3  UNL     1     -34.095   7.006   5.122  1.00 20.00     0.080 C 
HETATM    4  C4  UNL     1     -34.603   6.803   6.535  1.00 20.00     0.171 C 
HETATM    5  C5  UNL     1     -34.327   4.699   5.561  1.00 20.00     0.219 C 
HETATM    6  C6  UNL     1     -34.510   5.716   4.445  1.00 20.00     0.143 C 
HETATM    7  O7  UNL     1     -34.519   5.398   6.804  1.00 20.00    -0.387 OA
ENDROOT
BRANCH   6   8
HETATM    8  O8  UNL     1     -35.893   5.774   4.105  1.00 20.00    -0.375 OA
HETATM    9  H16 UNL     1     -36.137   4.902   3.753  1.00 20.00     0.211 HD
ENDBRANCH   6   8
TORSDOF 1
