REMARK  2 active torsions:
REMARK  status: ('A' for Active; 'I' for Inactive)
REMARK    1  A    between atoms: C1_1  and  C9_9 
REMARK    2  A    between atoms: C9_9  and  N10_10 
ROOT
HETATM    1  C2  UNL     1     -34.278   5.650   7.035  1.00 20.00     0.003 C 
HETATM    2  C3  UNL     1     -33.532   6.933   6.686  1.00 20.00     0.030 C 
HETATM    3  C4  UNL     1     -34.331   4.709   5.837  1.00 20.00     0.030 C 
HETATM    4  C5  UNL     1     -34.091   7.572   5.412  1.00 20.00     0.273 C 
HETATM    5  C6  UNL     1     -34.863   5.424   4.592  1.00 20.00     0.273 C 
HETATM    6  N10 UNL     1     -34.148   6.663   4.259  1.00 20.00     0.099 N 
ENDROOT
BRANCH   6   7
HETATM    7  C9  UNL     1     -32.827   6.405   3.691  1.00 20.00     0.287 C 
HETATM    8  C8  UNL     1     -32.892   5.435   2.526  1.00 20.00     0.051 C 
BRANCH   7   9
HETATM    9  C1  UNL     1     -32.256   7.741   3.246  1.00 20.00     0.155 C 
HETATM   10  C7  UNL     1     -32.985   8.448   2.132  1.00 20.00     0.093 C 
HETATM   11  O11 UNL     1     -31.275   8.254   3.786  1.00 20.00    -0.296 OA
ENDBRANCH   7   9
ENDBRANCH   6   7
TORSDOF 2
