REMARK  2 active torsions:
REMARK  status: ('A' for Active; 'I' for Inactive)
REMARK    1  A    between atoms: C1_1  and  C7_7 
REMARK    2  A    between atoms: C7_7  and  N8_8 
ROOT
HETATM    1  C1  UNL     1     -33.292   6.824   3.480  1.00 20.00    -0.053 C 
HETATM    2  C2  UNL     1     -32.717   7.541   2.708  1.00 20.00    -0.021 C 
HETATM    3 BR9  UNL     1     -31.807   8.677   1.487  1.00 20.00     0.010 Br
ENDROOT
BRANCH   1   4
HETATM    4  C7  UNL     1     -34.002   5.941   4.428  1.00 20.00     0.214 C 
HETATM    5  C3  UNL     1     -33.584   4.484   4.195  1.00 20.00     0.063 C 
HETATM    6  C4  UNL     1     -35.516   6.088   4.242  1.00 20.00     0.063 C 
BRANCH   4   7
HETATM    7  N8  UNL     1     -33.666   6.305   5.807  1.00 20.00     0.100 N 
HETATM    8  C5  UNL     1     -34.367   5.433   6.748  1.00 20.00     0.311 C 
HETATM    9  C6  UNL     1     -34.000   7.705   6.059  1.00 20.00     0.311 C 
ENDBRANCH   4   7
ENDBRANCH   1   4
TORSDOF 2
