REMARK  1 active torsions:
REMARK  status: ('A' for Active; 'I' for Inactive)
REMARK    1  A    between atoms: C11_11  and  N13_13 
ROOT
HETATM    1  C1  UNL     1     -32.630   8.563   0.747  1.00 20.00     0.089 C 
HETATM    2  C11 UNL     1     -32.163   7.238   1.153  1.00 20.00     0.395 C 
HETATM    3  N12 UNL     1     -32.997   9.615   0.423  1.00 20.00    -0.195 NA
ENDROOT
BRANCH   2   4
HETATM    4  N13 UNL     1     -33.048   6.661   2.165  1.00 20.00     0.101 N 
HETATM    5  C7  UNL     1     -32.880   5.203   2.224  1.00 20.00     0.274 C 
HETATM    6  C6  UNL     1     -33.826   4.571   3.248  1.00 20.00     0.035 C 
HETATM    7  C9  UNL     1     -33.629   5.197   4.632  1.00 20.00    -0.007 C 
HETATM    8  C4  UNL     1     -34.606   4.623   5.663  1.00 20.00     0.005 C 
HETATM    9  C10 UNL     1     -33.773   6.725   4.532  1.00 20.00     0.018 C 
HETATM   10  C2  UNL     1     -34.411   5.278   7.029  1.00 20.00     0.000 C 
HETATM   11  C3  UNL     1     -34.501   6.800   6.950  1.00 20.00     0.000 C 
HETATM   12  C5  UNL     1     -33.549   7.376   5.902  1.00 20.00     0.007 C 
HETATM   13  C8  UNL     1     -32.808   7.286   3.475  1.00 20.00     0.278 C 
ENDBRANCH   2   4
TORSDOF 1
