REMARK  0 active torsions:
REMARK  status: ('A' for Active; 'I' for Inactive)
ROOT
HETATM    1  C1  UNL     1     -33.717   4.449   4.052  1.00 20.00     0.028 C 
HETATM    2  C2  UNL     1     -32.861   6.499   2.919  1.00 20.00     0.033 C 
HETATM    3  C3  UNL     1     -32.322   8.164   4.631  1.00 20.00     0.046 C 
HETATM    4  C4  UNL     1     -34.148   4.348   5.448  1.00 20.00     0.112 C 
HETATM    5  C5  UNL     1     -33.577   5.766   3.931  1.00 20.00    -0.025 C 
HETATM    6  C6  UNL     1     -32.276   7.663   3.261  1.00 20.00     0.036 C 
HETATM    7  C7  UNL     1     -33.153   7.612   5.535  1.00 20.00     0.042 C 
HETATM    8  C8  UNL     1     -34.090   6.506   5.134  1.00 20.00     0.185 C 
HETATM    9  N9  UNL     1     -34.295   5.439   6.141  1.00 20.00    -0.286 NA
HETATM   10 CL10 UNL     1     -31.354   8.555   2.107  1.00 20.00    -0.084 Cl
HETATM   11 CL11 UNL     1     -33.249   8.207   7.147  1.00 20.00    -0.086 Cl
ENDROOT
TORSDOF 0
