REMARK  3 active torsions:
REMARK  status: ('A' for Active; 'I' for Inactive)
REMARK    1  A    between atoms: C1_1  and  C6_6 
REMARK    2  A    between atoms: C5_5  and  C7_7 
REMARK    3  A    between atoms: C6_6  and  C7_7 
ROOT
HETATM    1  C2  UNL     1     -32.599   7.787   3.263  1.00 20.00     0.033 C 
HETATM    2  C3  UNL     1     -32.253   6.690   2.278  1.00 20.00     0.168 C 
HETATM    3  C4  UNL     1     -33.833   5.859   3.775  1.00 20.00     0.172 C 
HETATM    4  C5  UNL     1     -33.079   6.989   4.455  1.00 20.00     0.012 C 
HETATM    5  O9  UNL     1     -33.150   5.601   2.539  1.00 20.00    -0.391 OA
ENDROOT
BRANCH   4   6
HETATM    6  C7  UNL     1     -33.920   7.782   5.437  1.00 20.00     0.013 C 
BRANCH   6   7
HETATM    7  C6  UNL     1     -33.998   7.093   6.795  1.00 20.00     0.070 C 
BRANCH   7   8
HETATM    8  C1  UNL     1     -34.576   5.701   6.710  1.00 20.00     0.231 C 
HETATM    9  O8  UNL     1     -33.916   4.677   6.567  1.00 20.00    -0.307 OA
ENDBRANCH   7   8
ENDBRANCH   6   7
ENDBRANCH   4   6
TORSDOF 3
