REMARK  1 active torsions:
REMARK  status: ('A' for Active; 'I' for Inactive)
REMARK    1  A    between atoms: C4_4  and  C5_5 
ROOT
HETATM    1  C1  UNL     1     -32.093   6.288   2.302  1.00 20.00     0.135 A 
HETATM    2  C2  UNL     1     -32.689   5.060   2.484  1.00 20.00     0.136 A 
HETATM    3  C3  UNL     1     -33.119   7.066   4.191  1.00 20.00     0.152 A 
HETATM    4  C4  UNL     1     -33.716   5.838   4.373  1.00 20.00     0.157 A 
HETATM    5  N6  UNL     1     -32.297   7.313   3.152  1.00 20.00    -0.269 NA
HETATM    6  N7  UNL     1     -33.512   4.813   3.523  1.00 20.00    -0.254 NA
ENDROOT
BRANCH   4   7
HETATM    7  C5  UNL     1     -34.619   5.602   5.533  1.00 20.00     0.435 C 
HETATM    8  F8  UNL     1     -34.771   6.692   6.344  1.00 20.00    -0.165 F 
HETATM    9  F9  UNL     1     -35.890   5.247   5.175  1.00 20.00    -0.165 F 
HETATM   10  F10 UNL     1     -34.179   4.599   6.349  1.00 20.00    -0.165 F 
ENDBRANCH   4   7
TORSDOF 1
