REMARK  1 active torsions:
REMARK  status: ('A' for Active; 'I' for Inactive)
REMARK    1  A    between atoms: C2_2  and  C6_6 
REMARK       I    between atoms: C2_2  and  N7_7 
ROOT
HETATM    1  C1  UNL     1     -32.353   7.477   2.005  1.00 20.00     0.167 C 
HETATM    2  C2  UNL     1     -33.080   5.704   3.064  1.00 20.00     0.273 C 
HETATM    3  N7  UNL     1     -32.410   6.908   3.030  1.00 20.00    -0.197 NA
HETATM    4  O8  UNL     1     -32.827   4.689   2.422  1.00 20.00    -0.268 OA
HETATM    5  S10 UNL     1     -32.257   8.276   0.630  1.00 20.00    -0.055 SA
ENDROOT
BRANCH   2   6
HETATM    6  C6  UNL     1     -34.239   5.689   4.004  1.00 20.00     0.215 C 
HETATM    7  C4  UNL     1     -34.356   6.967   4.814  1.00 20.00     0.044 C 
HETATM    8  C3  UNL     1     -34.800   6.455   6.161  1.00 20.00     0.029 C 
HETATM    9  C5  UNL     1     -34.054   5.145   6.258  1.00 20.00     0.168 C 
HETATM   10  O9  UNL     1     -33.994   4.620   4.925  1.00 20.00    -0.376 OA
ENDBRANCH   2   6
TORSDOF 1
