REMARK  3 active torsions:
REMARK  status: ('A' for Active; 'I' for Inactive)
REMARK    1  A    between atoms: C4_4  and  C7_7 
REMARK    2  A    between atoms: C6_6  and  N9_9 
REMARK    3  A    between atoms: C7_7  and  N9_9 
ROOT
HETATM    1  C1  UNL     1     -32.274   6.942   2.088  1.00 20.00     0.089 C 
HETATM    2  C6  UNL     1     -32.363   5.747   2.924  1.00 20.00     0.393 C 
HETATM    3  N8  UNL     1     -32.200   7.891   1.424  1.00 20.00    -0.195 NA
ENDROOT
BRANCH   2   4
HETATM    4  N9  UNL     1     -33.738   5.323   3.073  1.00 20.00     0.100 N 
HETATM    5  H21 UNL     1     -33.780   4.353   3.356  1.00 20.00     0.317 HD
BRANCH   4   6
HETATM    6  C7  UNL     1     -34.407   6.131   4.122  1.00 20.00     0.221 C 
HETATM    7  C5  UNL     1     -35.910   6.091   3.891  1.00 20.00     0.043 C 
BRANCH   6   8
HETATM    8  C4  UNL     1     -34.032   5.580   5.490  1.00 20.00     0.018 A 
HETATM    9  C2  UNL     1     -34.140   6.449   6.713  1.00 20.00     0.007 A 
HETATM   10  C3  UNL     1     -35.099   5.308   6.515  1.00 20.00     0.007 A 
ENDBRANCH   6   8
ENDBRANCH   4   6
ENDBRANCH   2   4
TORSDOF 3
