REMARK  3 active torsions:
REMARK  status: ('A' for Active; 'I' for Inactive)
REMARK    1  A    between atoms: C4_4  and  C7_7 
REMARK    2  A    between atoms: C6_6  and  N9_9 
REMARK    3  A    between atoms: C7_7  and  N9_9 
ROOT
HETATM    1  C1  UNL     1     -32.273   7.867   1.247  1.00 20.00     0.089 C 
HETATM    2  C6  UNL     1     -32.351   7.294   2.590  1.00 20.00     0.393 C 
HETATM    3  N8  UNL     1     -32.209   8.324   0.183  1.00 20.00    -0.195 NA
ENDROOT
BRANCH   2   4
HETATM    4  N9  UNL     1     -33.375   6.273   2.656  1.00 20.00     0.100 N 
HETATM    5  H21 UNL     1     -33.172   5.527   2.004  1.00 20.00     0.317 HD
BRANCH   4   6
HETATM    6  C7  UNL     1     -33.418   5.686   4.018  1.00 20.00     0.221 C 
HETATM    7  C5  UNL     1     -34.068   4.312   3.940  1.00 20.00     0.043 C 
BRANCH   6   8
HETATM    8  C4  UNL     1     -34.186   6.622   4.939  1.00 20.00     0.018 A 
HETATM    9  C2  UNL     1     -34.344   6.289   6.397  1.00 20.00     0.007 A 
HETATM   10  C3  UNL     1     -33.456   7.427   5.979  1.00 20.00     0.007 A 
ENDBRANCH   6   8
ENDBRANCH   4   6
ENDBRANCH   2   4
TORSDOF 3
