REMARK  1 active torsions:
REMARK  status: ('A' for Active; 'I' for Inactive)
REMARK    1  A    between atoms: C7_7  and  O9_9 
ROOT
HETATM    1  C1  UNL     1     -32.741   7.799   3.201  1.00 20.00     0.097 C 
HETATM    2  C2  UNL     1     -32.995   7.209   5.500  1.00 20.00    -0.006 C 
HETATM    3  C3  UNL     1     -33.294   6.959   4.214  1.00 20.00     0.047 C 
HETATM    4  C4  UNL     1     -33.521   6.402   6.651  1.00 20.00     0.028 C 
HETATM    5  C5  UNL     1     -34.192   5.097   6.225  1.00 20.00     0.007 C 
HETATM    6  C6  UNL     1     -35.063   5.305   4.988  1.00 20.00     0.037 C 
HETATM    7  C7  UNL     1     -34.237   5.848   3.815  1.00 20.00     0.161 C 
HETATM    8  N8  UNL     1     -32.291   8.481   2.378  1.00 20.00    -0.192 NA
ENDROOT
BRANCH   7   9
HETATM    9  O9  UNL     1     -33.483   4.768   3.262  1.00 20.00    -0.390 OA
HETATM   10  H18 UNL     1     -34.123   4.082   3.021  1.00 20.00     0.210 HD
ENDBRANCH   7   9
TORSDOF 1
