REMARK  1 active torsions:
REMARK  status: ('A' for Active; 'I' for Inactive)
REMARK    1  A    between atoms: C7_7  and  N8_8 
ROOT
HETATM    1  C1  UNL     1     -32.149   8.270   1.267  1.00 20.00     0.013 C 
HETATM    2  C2  UNL     1     -32.361   7.206   1.781  1.00 20.00    -0.087 C 
HETATM    3  C7  UNL     1     -32.616   5.905   2.404  1.00 20.00     0.365 C 
ENDROOT
BRANCH   3   4
HETATM    4  N8  UNL     1     -33.555   6.040   3.507  1.00 20.00     0.106 N 
HETATM    5  C5  UNL     1     -33.062   6.936   4.555  1.00 20.00     0.351 C 
HETATM    6  C3  UNL     1     -33.847   6.457   5.748  1.00 20.00     0.156 C 
HETATM    7  C4  UNL     1     -34.539   5.157   5.455  1.00 20.00     0.110 C 
HETATM    8  O9  UNL     1     -33.914   7.051   6.815  1.00 20.00    -0.296 OA
HETATM    9  C6  UNL     1     -33.842   4.759   4.161  1.00 20.00     0.281 C 
ENDBRANCH   3   4
TORSDOF 1
