REMARK  3 active torsions:
REMARK  status: ('A' for Active; 'I' for Inactive)
REMARK    1  A    between atoms: C6_6  and  N8_8 
REMARK    2  A    between atoms: C6_6  and  O9_9 
REMARK    3  A    between atoms: C7_7  and  O9_9 
ROOT
HETATM    1  O9  UNL     1     -33.262   6.389   4.954  1.00 20.00    -0.352 OA
ENDROOT
BRANCH   1   2
HETATM    2  C6  UNL     1     -33.519   7.386   3.958  1.00 20.00     0.440 C 
BRANCH   2   3
HETATM    3  N8  UNL     1     -32.438   7.468   2.964  1.00 20.00     0.102 N 
HETATM    4  C4  UNL     1     -32.728   8.517   1.986  1.00 20.00     0.312 C 
HETATM    5  C5  UNL     1     -32.252   6.185   2.284  1.00 20.00     0.312 C 
ENDBRANCH   2   3
ENDBRANCH   1   2
BRANCH   1   6
HETATM    6  C7  UNL     1     -34.308   6.320   5.914  1.00 20.00     0.052 C 
HETATM    7  C1  UNL     1     -35.609   5.972   5.192  1.00 20.00     0.045 C 
HETATM    8  C2  UNL     1     -33.941   5.229   6.917  1.00 20.00     0.045 C 
HETATM    9  C3  UNL     1     -34.418   7.676   6.611  1.00 20.00     0.045 C 
ENDBRANCH   1   6
TORSDOF 3
