REMARK  0 active torsions:
REMARK  status: ('A' for Active; 'I' for Inactive)
ROOT
HETATM    1  C1  UNL     1     -33.780   6.055   4.629  1.00 20.00    -0.064 C 
HETATM    2  C2  UNL     1     -33.434   5.750   3.375  1.00 20.00     0.016 C 
HETATM    3  C3  UNL     1     -34.720   5.283   5.487  1.00 20.00     0.061 C 
HETATM    4  C4  UNL     1     -33.223   7.181   5.433  1.00 20.00     0.201 C 
HETATM    5  C5  UNL     1     -34.209   5.661   6.862  1.00 20.00     0.172 C 
HETATM    6  O6  UNL     1     -33.783   7.027   6.750  1.00 20.00    -0.387 OA
ENDROOT
TORSDOF 0
