REMARK  1 active torsions:
REMARK  status: ('A' for Active; 'I' for Inactive)
REMARK    1  A    between atoms: C1_1  and  C3_3 
ROOT
HETATM    1  C1  UNL     1     -33.413   6.789   4.668  1.00 20.00     0.035 C 
HETATM    2  C2  UNL     1     -34.233   5.827   5.089  1.00 20.00     0.053 C 
HETATM    3  C4  UNL     1     -33.218   7.780   5.745  1.00 20.00     0.073 C 
HETATM    4  C5  UNL     1     -33.832   7.033   6.923  1.00 20.00     0.180 C 
HETATM    5  C6  UNL     1     -34.754   4.635   4.370  1.00 20.00     0.077 C 
HETATM    6  O8  UNL     1     -34.679   5.989   6.402  1.00 20.00    -0.355 OA
ENDROOT
BRANCH   1   7
HETATM    7  C3  UNL     1     -32.789   6.909   3.361  1.00 20.00     0.250 C 
HETATM    8  O7  UNL     1     -32.534   8.036   2.908  1.00 20.00    -0.274 OA
HETATM    9 CL9  UNL     1     -32.431   5.423   2.497  1.00 20.00    -0.039 Cl
ENDBRANCH   1   7
TORSDOF 1
