REMARK  2 active torsions:
REMARK  status: ('A' for Active; 'I' for Inactive)
REMARK    1  A    between atoms: C3_3  and  C8_8 
REMARK    2  A    between atoms: C8_8  and  N10_10 
ROOT
HETATM    1  C1  UNL     1     -33.316   7.244   5.472  1.00 20.00     0.100 C 
HETATM    2  C8  UNL     1     -33.556   7.355   4.021  1.00 20.00     0.356 C 
HETATM    3  N9  UNL     1     -33.132   7.161   6.615  1.00 20.00    -0.195 NA
ENDROOT
BRANCH   2   4
HETATM    4  C3  UNL     1     -32.232   7.579   3.299  1.00 20.00    -0.041 C 
HETATM    5  C2  UNL     1     -31.086   7.610   4.010  1.00 20.00    -0.025 C 
HETATM    6  C4  UNL     1     -29.696   7.852   3.514  1.00 20.00     0.036 C 
HETATM    7  C5  UNL     1     -32.295   7.757   1.802  1.00 20.00     0.046 C 
ENDBRANCH   2   4
BRANCH   2   8
HETATM    8  N10 UNL     1     -34.262   6.168   3.533  1.00 20.00     0.102 N 
HETATM    9  C6  UNL     1     -35.550   6.028   4.210  1.00 20.00     0.311 C 
HETATM   10  C7  UNL     1     -33.445   4.972   3.732  1.00 20.00     0.311 C 
ENDBRANCH   2   8
TORSDOF 2
