REMARK  0 active torsions:
REMARK  status: ('A' for Active; 'I' for Inactive)
ROOT
HETATM    1  C1  UNL     1     -32.423   7.875   3.234  1.00 20.00     0.003 C 
HETATM    2  C2  UNL     1     -32.771   6.624   2.425  1.00 20.00     0.001 C 
HETATM    3  C3  UNL     1     -32.224   7.570   4.712  1.00 20.00     0.041 C 
HETATM    4  C4  UNL     1     -33.312   5.471   3.276  1.00 20.00     0.012 C 
HETATM    5  C5  UNL     1     -34.144   7.628   6.481  1.00 20.00     0.207 A 
HETATM    6  C6  UNL     1     -33.460   6.940   5.310  1.00 20.00     0.089 A 
HETATM    7  C7  UNL     1     -34.226   5.928   4.442  1.00 20.00    -0.014 C 
HETATM    8  C8  UNL     1     -35.507   6.574   3.874  1.00 20.00     0.018 C 
HETATM    9  C9  UNL     1     -34.638   4.669   5.233  1.00 20.00     0.018 C 
HETATM   10  O10 UNL     1     -33.245   6.536   6.677  1.00 20.00    -0.374 OA
ENDROOT
TORSDOF 0
