REMARK  3 active torsions:
REMARK  status: ('A' for Active; 'I' for Inactive)
REMARK    1  A    between atoms: C3_3  and  C6_6 
REMARK    2  A    between atoms: C3_3  and  O11_11 
REMARK    3  A    between atoms: C8_8  and  O11_11 
ROOT
HETATM    1  C1  UNL     1     -33.835   7.246   6.753  1.00 20.00    -0.025 C 
HETATM    2  C2  UNL     1     -35.005   6.594   6.730  1.00 20.00    -0.005 C 
HETATM    3  C4  UNL     1     -32.948   7.291   5.546  1.00 20.00     0.069 C 
HETATM    4  C5  UNL     1     -35.473   5.850   5.515  1.00 20.00     0.196 C 
HETATM    5  C6  UNL     1     -33.709   6.856   4.294  1.00 20.00     0.224 C 
HETATM    6  O10 UNL     1     -34.426   5.652   4.556  1.00 20.00    -0.372 OA
ENDROOT
BRANCH   5   7
HETATM    7  C3  UNL     1     -32.769   6.510   3.187  1.00 20.00     0.288 C 
HETATM    8  O9  UNL     1     -32.664   5.392   2.701  1.00 20.00    -0.262 OA
BRANCH   7   9
HETATM    9  O11 UNL     1     -32.068   7.621   2.822  1.00 20.00    -0.320 OA
BRANCH   9  10
HETATM   10  C8  UNL     1     -32.229   8.029   1.459  1.00 20.00     0.174 C 
HETATM   11  C7  UNL     1     -32.798   9.431   1.428  1.00 20.00     0.034 C 
ENDBRANCH   9  10
ENDBRANCH   7   9
ENDBRANCH   5   7
TORSDOF 3
