REMARK  2 active torsions:
REMARK  status: ('A' for Active; 'I' for Inactive)
REMARK    1  A    between atoms: C4_4  and  C6_6 
REMARK    2  A    between atoms: C5_5  and  C7_7 
ROOT
HETATM    1  C1  UNL     1     -33.602   4.824   3.829  1.00 20.00     0.007 C 
HETATM    2  C2  UNL     1     -33.523   6.337   3.502  1.00 20.00     0.007 C 
HETATM    3  C3  UNL     1     -35.626   5.866   4.489  1.00 20.00     0.014 C 
HETATM    4  C4  UNL     1     -34.651   4.772   4.963  1.00 20.00     0.017 C 
HETATM    5  C5  UNL     1     -34.537   6.955   4.492  1.00 20.00     0.017 C 
ENDROOT
BRANCH   4   6
HETATM    6  C6  UNL     1     -34.007   5.385   6.197  1.00 20.00     0.155 A 
HETATM    7  C7  UNL     1     -33.930   6.843   5.882  1.00 20.00     0.155 A 
HETATM    8  O8  UNL     1     -34.760   6.350   6.938  1.00 20.00    -0.375 OA
ENDBRANCH   4   6
TORSDOF 2
