REMARK  0 active torsions:
REMARK  status: ('A' for Active; 'I' for Inactive)
ROOT
HETATM    1  C1  UNL     1     -32.207   7.621   2.333  1.00 20.00     0.071 C 
HETATM    2  C2  UNL     1     -33.241   5.783   3.627  1.00 20.00     0.152 C 
HETATM    3  C3  UNL     1     -33.040   7.899   4.657  1.00 20.00     0.028 C 
HETATM    4  C4  UNL     1     -33.671   6.931   5.653  1.00 20.00     0.018 C 
HETATM    5  C5  UNL     1     -32.333   6.995   3.649  1.00 20.00     0.163 C 
HETATM    6  C6  UNL     1     -34.222   5.780   4.793  1.00 20.00     0.015 C 
HETATM    7  C7  UNL     1     -35.629   6.078   4.271  1.00 20.00     0.023 C 
HETATM    8  C8  UNL     1     -34.187   4.454   5.545  1.00 20.00     0.023 C 
HETATM    9  N9  UNL     1     -32.107   8.117   1.289  1.00 20.00    -0.196 NA
HETATM   10  O10 UNL     1     -33.191   4.904   2.774  1.00 20.00    -0.296 OA
ENDROOT
TORSDOF 0
