REMARK  3 active torsions:
REMARK  status: ('A' for Active; 'I' for Inactive)
REMARK    1  A    between atoms: C6_6  and  C7_7 
REMARK    2  A    between atoms: C7_7  and  C8_8 
REMARK    3  A    between atoms: C7_7  and  O9_9 
ROOT
HETATM    1  C1  UNL     1     -32.187   7.410   1.955  1.00 20.00     0.012 C 
HETATM    2  C2  UNL     1     -32.693   6.541   2.611  1.00 20.00    -0.115 C 
HETATM    3  C6  UNL     1     -33.313   5.471   3.414  1.00 20.00     0.125 C 
ENDROOT
BRANCH   3   4
HETATM    4  C7  UNL     1     -34.329   6.048   4.416  1.00 20.00     0.136 C 
BRANCH   4   5
HETATM    5  C8  UNL     1     -33.714   6.613   5.736  1.00 20.00    -0.025 C 
HETATM    6  C3  UNL     1     -34.851   7.102   6.659  1.00 20.00     0.017 C 
HETATM    7  C4  UNL     1     -32.902   5.551   6.501  1.00 20.00     0.017 C 
HETATM    8  C5  UNL     1     -32.797   7.814   5.435  1.00 20.00     0.017 C 
ENDBRANCH   4   5
BRANCH   4   9
HETATM    9  O9  UNL     1     -35.287   5.027   4.722  1.00 20.00    -0.394 OA
HETATM   10  H23 UNL     1     -34.785   4.293   5.104  1.00 20.00     0.210 HD
ENDBRANCH   4   9
ENDBRANCH   3   4
TORSDOF 3
