REMARK  1 active torsions:
REMARK  status: ('A' for Active; 'I' for Inactive)
REMARK    1  A    between atoms: C6_6  and  C8_8 
ROOT
HETATM    1  C1  UNL     1     -33.844   4.794   4.045  1.00 20.00     0.144 C 
HETATM    2  C2  UNL     1     -33.636   4.883   2.546  1.00 20.00     0.079 C 
HETATM    3  C3  UNL     1     -32.755   6.069   2.186  1.00 20.00     0.007 C 
HETATM    4  C4  UNL     1     -33.285   7.367   2.785  1.00 20.00     0.002 C 
HETATM    5  C5  UNL     1     -33.409   7.254   4.304  1.00 20.00     0.026 C 
HETATM    6  C6  UNL     1     -34.289   6.075   4.768  1.00 20.00     0.114 C 
HETATM    7  C7  UNL     1     -35.772   6.323   4.459  1.00 20.00     0.033 C 
HETATM    8  O9  UNL     1     -33.742   3.712   4.624  1.00 20.00    -0.297 OA
ENDROOT
BRANCH   6   9
HETATM    9  C8  UNL     1     -34.123   5.904   6.287  1.00 20.00     0.401 C 
HETATM   10  F10 UNL     1     -32.839   5.661   6.575  1.00 20.00    -0.170 F 
HETATM   11  F11 UNL     1     -34.512   7.023   6.909  1.00 20.00    -0.170 F 
HETATM   12  F12 UNL     1     -34.873   4.879   6.708  1.00 20.00    -0.170 F 
ENDBRANCH   6   9
TORSDOF 1
