REMARK  0 active torsions:
REMARK  status: ('A' for Active; 'I' for Inactive)
ROOT
HETATM    1  C1  UNL     1     -32.578   6.297   2.862  1.00 20.00    -0.003 C 
HETATM    2  C2  UNL     1     -32.990   7.196   3.921  1.00 20.00     0.011 C 
HETATM    3  C3  UNL     1     -33.235   5.125   2.958  1.00 20.00    -0.017 C 
HETATM    4  C4  UNL     1     -33.928   6.559   4.622  1.00 20.00    -0.005 C 
HETATM    5  C5  UNL     1     -34.429   6.637   5.997  1.00 20.00     0.156 C 
HETATM    6  C6  UNL     1     -34.804   5.237   6.428  1.00 20.00     0.084 C 
HETATM    7  C7  UNL     1     -34.186   4.362   5.307  1.00 20.00     0.021 C 
HETATM    8  C8  UNL     1     -34.261   5.221   4.045  1.00 20.00     0.045 C 
HETATM    9  O9  UNL     1     -34.514   7.653   6.663  1.00 20.00    -0.293 OA
ENDROOT
TORSDOF 0
