REMARK  1 active torsions:
REMARK  status: ('A' for Active; 'I' for Inactive)
REMARK    1  A    between atoms: C3_3  and  C8_8 
ROOT
HETATM    1  C1  UNL     1     -33.013   7.588   3.884  1.00 20.00     0.302 C 
HETATM    2  C2  UNL     1     -33.771   4.923   3.295  1.00 20.00     0.209 C 
HETATM    3  C3  UNL     1     -32.548   6.825   2.642  1.00 20.00     0.149 C 
HETATM    4  C4  UNL     1     -34.278   5.610   4.575  1.00 20.00     0.171 C 
HETATM    5  C5  UNL     1     -34.331   4.582   5.716  1.00 20.00     0.051 C 
HETATM    6  C6  UNL     1     -35.691   6.184   4.363  1.00 20.00     0.051 C 
HETATM    7  N9  UNL     1     -33.331   6.665   4.974  1.00 20.00     0.097 N 
HETATM    8  O10 UNL     1     -33.547   5.877   2.254  1.00 20.00    -0.382 OA
HETATM    9  H27 UNL     1     -32.463   6.229   5.287  1.00 20.00     0.317 HD
ENDROOT
BRANCH   3  10
HETATM   10  C8  UNL     1     -32.322   7.770   1.470  1.00 20.00     0.029 C 
HETATM   11  C7  UNL     1     -31.909   7.036   0.235  1.00 20.00     0.007 C 
ENDBRANCH   3  10
TORSDOF 1
