REMARK  3 active torsions:
REMARK  status: ('A' for Active; 'I' for Inactive)
REMARK    1  A    between atoms: C3_3  and  C6_6 
REMARK    2  A    between atoms: C3_3  and  C7_7 
REMARK    3  A    between atoms: C5_5  and  C7_7 
ROOT
HETATM    1  C1  UNL     1     -33.765   7.258   6.789  1.00 20.00     0.012 C 
HETATM    2  C2  UNL     1     -34.306   6.390   6.160  1.00 20.00    -0.117 C 
HETATM    3  C5  UNL     1     -34.968   5.324   5.393  1.00 20.00     0.100 C 
ENDROOT
BRANCH   3   4
HETATM    4  C7  UNL     1     -34.969   5.617   3.895  1.00 20.00     0.090 C 
BRANCH   4   5
HETATM    5  C3  UNL     1     -33.576   5.740   3.289  1.00 20.00     0.127 C 
HETATM    6  O8  UNL     1     -32.980   4.779   2.807  1.00 20.00    -0.298 OA
BRANCH   5   7
HETATM    7  C6  UNL     1     -32.980   7.139   3.302  1.00 20.00     0.074 C 
HETATM    8  C4  UNL     1     -32.055   7.392   2.126  1.00 20.00     0.013 C 
ENDBRANCH   5   7
ENDBRANCH   4   5
ENDBRANCH   3   4
TORSDOF 3
