REMARK  2 active torsions:
REMARK  status: ('A' for Active; 'I' for Inactive)
REMARK    1  A    between atoms: C1_1  and  C5_5 
REMARK       I    between atoms: C1_1  and  N7_7 
REMARK    2  A    between atoms: C5_5  and  C6_6 
ROOT
HETATM    1  C1  UNL     1     -32.831   7.020   3.767  1.00 20.00     0.220 C 
HETATM    2  C2  UNL     1     -35.405   5.749   5.594  1.00 20.00     0.040 C 
HETATM    3  C3  UNL     1     -34.419   6.909   5.776  1.00 20.00     0.127 C 
HETATM    4  C4  UNL     1     -35.060   5.744   4.100  1.00 20.00     0.127 C 
HETATM    5  N7  UNL     1     -33.941   6.596   4.444  1.00 20.00    -0.352 N 
HETATM    6  O8  UNL     1     -31.997   7.799   4.225  1.00 20.00    -0.273 OA
ENDROOT
BRANCH   1   7
HETATM    7  C5  UNL     1     -32.693   6.446   2.382  1.00 20.00     0.118 C 
BRANCH   7   8
HETATM    8  C6  UNL     1     -31.970   7.417   1.471  1.00 20.00     0.124 C 
HETATM    9 CL9  UNL     1     -32.863   8.950   1.308  1.00 20.00    -0.130 Cl
ENDBRANCH   7   8
ENDBRANCH   1   7
TORSDOF 2
