REMARK  1 active torsions:
REMARK  status: ('A' for Active; 'I' for Inactive)
REMARK    1  A    between atoms: C1_1  and  S9_9 
ROOT
HETATM    1  C1  UNL     1     -33.176   6.642   3.694  1.00 20.00     0.047 A 
HETATM    2  C2  UNL     1     -33.653   5.386   3.273  1.00 20.00     0.069 A 
HETATM    3  C3  UNL     1     -33.542   6.724   5.015  1.00 20.00     0.044 A 
HETATM    4  C4  UNL     1     -33.543   4.766   1.939  1.00 20.00     0.074 C 
HETATM    5  C5  UNL     1     -33.342   7.782   6.025  1.00 20.00     0.071 C 
HETATM    6  C6  UNL     1     -34.767   5.165   6.560  1.00 20.00     0.179 C 
HETATM    7  N7  UNL     1     -34.275   4.718   4.249  1.00 20.00    -0.176 NA
HETATM    8  N8  UNL     1     -34.191   5.557   5.295  1.00 20.00    -0.277 N 
ENDROOT
BRANCH   1   9
HETATM    9  S9  UNL     1     -32.319   7.817   2.743  1.00 20.00    -0.139 SA
HETATM   10  H19 UNL     1     -32.147   8.769   3.682  1.00 20.00     0.107 HD
ENDBRANCH   1   9
TORSDOF 1
