REMARK  3 active torsions:
REMARK  status: ('A' for Active; 'I' for Inactive)
REMARK    1  A    between atoms: C2_2  and  C5_5 
REMARK    2  A    between atoms: C2_2  and  C7_7 
REMARK    3  A    between atoms: C5_5  and  C6_6 
ROOT
HETATM    1  C1  UNL     1     -34.456   6.785   6.003  1.00 20.00     0.071 C 
HETATM    2  C4  UNL     1     -34.513   4.857   4.467  1.00 20.00     0.033 C 
HETATM    3  C7  UNL     1     -34.442   6.375   4.589  1.00 20.00     0.158 C 
HETATM    4  N8  UNL     1     -34.471   7.110   7.117  1.00 20.00    -0.196 NA
ENDROOT
BRANCH   3   5
HETATM    5  C2  UNL     1     -33.187   6.882   3.886  1.00 20.00     0.144 C 
HETATM    6  O9  UNL     1     -32.324   7.528   4.480  1.00 20.00    -0.297 OA
BRANCH   5   7
HETATM    7  C5  UNL     1     -33.072   6.555   2.402  1.00 20.00     0.079 C 
BRANCH   7   8
HETATM    8  C6  UNL     1     -32.280   7.587   1.603  1.00 20.00     0.003 C 
HETATM    9  C3  UNL     1     -32.863   8.988   1.723  1.00 20.00     0.005 C 
ENDBRANCH   7   8
ENDBRANCH   5   7
ENDBRANCH   3   5
TORSDOF 3
