REMARK  3 active torsions:
REMARK  status: ('A' for Active; 'I' for Inactive)
REMARK    1  A    between atoms: C2_2  and  C7_7 
REMARK    2  A    between atoms: C2_2  and  C8_8 
REMARK    3  A    between atoms: C7_7  and  C9_9 
ROOT
HETATM    1  C1  UNL     1     -32.424   7.869   1.369  1.00 20.00     0.071 C 
HETATM    2  C3  UNL     1     -32.841   5.662   2.388  1.00 20.00     0.033 C 
HETATM    3  C8  UNL     1     -32.296   7.069   2.599  1.00 20.00     0.158 C 
HETATM    4  N10 UNL     1     -32.520   8.499   0.399  1.00 20.00    -0.196 NA
ENDROOT
BRANCH   3   5
HETATM    5  C2  UNL     1     -33.040   7.728   3.756  1.00 20.00     0.144 C 
HETATM    6  O11 UNL     1     -33.652   8.788   3.622  1.00 20.00    -0.296 OA
BRANCH   5   7
HETATM    7  C7  UNL     1     -32.973   7.034   5.110  1.00 20.00     0.088 C 
BRANCH   7   8
HETATM    8  C9  UNL     1     -34.345   6.683   5.729  1.00 20.00    -0.045 C 
HETATM    9  C4  UNL     1     -34.461   5.178   6.015  1.00 20.00     0.015 C 
HETATM   10  C5  UNL     1     -35.500   7.116   4.810  1.00 20.00     0.015 C 
HETATM   11  C6  UNL     1     -34.475   7.445   7.062  1.00 20.00     0.015 C 
ENDBRANCH   7   8
ENDBRANCH   5   7
ENDBRANCH   3   5
TORSDOF 3
