REMARK  3 active torsions:
REMARK  status: ('A' for Active; 'I' for Inactive)
REMARK    1  A    between atoms: C2_2  and  C4_4 
REMARK    2  A    between atoms: C2_2  and  C9_9 
REMARK    3  A    between atoms: C8_8  and  C9_9 
ROOT
HETATM    1  C1  UNL     1     -33.150   5.503   2.206  1.00 20.00     0.071 C 
HETATM    2  C9  UNL     1     -33.340   6.828   2.825  1.00 20.00     0.162 C 
HETATM    3  N10 UNL     1     -33.003   4.461   1.717  1.00 20.00    -0.196 NA
ENDROOT
BRANCH   2   4
HETATM    4  C2  UNL     1     -33.599   6.707   4.319  1.00 20.00     0.148 C 
HETATM    5  O11 UNL     1     -32.922   7.251   5.184  1.00 20.00    -0.296 OA
BRANCH   4   6
HETATM    6  C4  UNL     1     -34.759   5.855   4.718  1.00 20.00     0.061 A 
HETATM    7  C3  UNL     1     -35.151   5.813   6.160  1.00 20.00     0.017 A 
HETATM    8  C5  UNL     1     -34.534   4.606   5.512  1.00 20.00    -0.007 A 
HETATM    9  C6  UNL     1     -33.182   4.143   5.933  1.00 20.00     0.011 C 
ENDBRANCH   4   6
ENDBRANCH   2   4
BRANCH   2  10
HETATM   10  C8  UNL     1     -32.157   7.765   2.541  1.00 20.00     0.022 C 
HETATM   11  C7  UNL     1     -31.868   7.995   1.061  1.00 20.00     0.007 C 
ENDBRANCH   2  10
TORSDOF 3
