REMARK  2 active torsions:
REMARK  status: ('A' for Active; 'I' for Inactive)
REMARK    1  A    between atoms: C2_2  and  C4_4 
REMARK    2  A    between atoms: C2_2  and  C8_8 
ROOT
HETATM    1  C1  UNL     1     -32.462   7.792   1.808  1.00 20.00     0.071 C 
HETATM    2  C7  UNL     1     -31.850   7.905   4.192  1.00 20.00     0.033 C 
HETATM    3  C8  UNL     1     -32.908   7.484   3.178  1.00 20.00     0.158 C 
HETATM    4  N9  UNL     1     -32.114   8.035   0.728  1.00 20.00    -0.196 NA
ENDROOT
BRANCH   3   5
HETATM    5  C2  UNL     1     -33.198   6.002   3.334  1.00 20.00     0.148 C 
HETATM    6  O10 UNL     1     -33.065   5.173   2.442  1.00 20.00    -0.296 OA
BRANCH   5   7
HETATM    7  C4  UNL     1     -33.693   5.569   4.676  1.00 20.00     0.061 A 
HETATM    8  C3  UNL     1     -35.166   5.447   4.885  1.00 20.00     0.017 A 
HETATM    9  C5  UNL     1     -34.410   6.580   5.527  1.00 20.00    -0.007 A 
HETATM   10  C6  UNL     1     -34.182   6.591   6.999  1.00 20.00     0.011 C 
ENDBRANCH   5   7
ENDBRANCH   3   5
TORSDOF 2
