REMARK  3 active torsions:
REMARK  status: ('A' for Active; 'I' for Inactive)
REMARK    1  A    between atoms: C1_1  and  C4_4 
REMARK       I    between atoms: C1_1  and  N7_7 
REMARK    2  A    between atoms: C5_5  and  C6_6 
REMARK    3  A    between atoms: C6_6  and  N7_7 
ROOT
HETATM    1  C1  UNL     1     -33.498   6.431   4.360  1.00 20.00     0.233 C 
HETATM    2  C3  UNL     1     -32.299   5.097   2.559  1.00 20.00     0.152 C 
HETATM    3  N7  UNL     1     -32.715   6.341   3.202  1.00 20.00    -0.356 N 
HETATM    4  O8  UNL     1     -33.827   7.506   4.869  1.00 20.00    -0.272 OA
ENDROOT
BRANCH   3   5
HETATM    5  C6  UNL     1     -32.259   7.561   2.546  1.00 20.00     0.125 C 
BRANCH   5   6
HETATM    6  C5  UNL     1     -33.245   8.057   1.494  1.00 20.00     0.015 C 
HETATM    7  C2  UNL     1     -32.766   9.318   0.789  1.00 20.00     0.006 C 
ENDBRANCH   5   6
ENDBRANCH   3   5
BRANCH   1   8
HETATM    8  C4  UNL     1     -33.928   5.109   4.964  1.00 20.00     0.217 C 
HETATM    9 CL9  UNL     1     -34.939   5.370   6.399  1.00 20.00    -0.121 Cl
ENDBRANCH   1   8
TORSDOF 3
