REMARK  3 active torsions:
REMARK  status: ('A' for Active; 'I' for Inactive)
REMARK    1  A    between atoms: C4_4  and  N9_9 
REMARK    2  A    between atoms: C6_6  and  N9_9 
REMARK    3  A    between atoms: C7_7  and  N9_9 
ROOT
HETATM    1  C1  UNL     1     -32.645   7.760   2.548  1.00 20.00     0.089 C 
HETATM    2  C6  UNL     1     -33.846   7.438   3.316  1.00 20.00     0.396 C 
HETATM    3  N8  UNL     1     -31.693   8.018   1.937  1.00 20.00    -0.195 NA
ENDROOT
BRANCH   2   4
HETATM    4  N9  UNL     1     -33.579   6.370   4.279  1.00 20.00     0.105 N 
BRANCH   4   5
HETATM    5  C4  UNL     1     -34.588   6.372   5.337  1.00 20.00     0.224 A 
HETATM    6  C2  UNL     1     -34.311   5.700   6.654  1.00 20.00     0.038 A 
HETATM    7  C3  UNL     1     -34.391   7.197   6.579  1.00 20.00     0.038 A 
ENDBRANCH   4   5
BRANCH   4   8
HETATM    8  C7  UNL     1     -33.546   5.072   3.606  1.00 20.00     0.269 C 
HETATM    9  C5  UNL     1     -32.521   5.054   2.523  1.00 20.00     0.037 C 
ENDBRANCH   4   8
ENDBRANCH   2   4
TORSDOF 3
