REMARK  0 active torsions:
REMARK  status: ('A' for Active; 'I' for Inactive)
ROOT
HETATM    1  C1  UNL     1     -33.082   5.283   2.384  1.00 20.00     0.039 A 
HETATM    2  C2  UNL     1     -32.581   6.105   1.372  1.00 20.00     0.022 A 
HETATM    3  C3  UNL     1     -32.597   8.027   2.866  1.00 20.00     0.029 A 
HETATM    4  C4  UNL     1     -33.084   7.200   3.862  1.00 20.00    -0.021 A 
HETATM    5  C5  UNL     1     -33.318   5.855   3.619  1.00 20.00     0.075 A 
HETATM    6  C6  UNL     1     -32.339   7.468   1.612  1.00 20.00     0.011 A 
HETATM    7  C7  UNL     1     -33.496   7.531   5.244  1.00 20.00     0.073 C 
HETATM    8  C8  UNL     1     -33.625   6.107   5.808  1.00 20.00     0.129 C 
HETATM    9  C9  UNL     1     -34.788   5.967   6.776  1.00 20.00     0.040 C 
HETATM   10  O10 UNL     1     -33.816   5.182   4.705  1.00 20.00    -0.345 OA
HETATM   11 BR11 UNL     1     -31.668   8.557   0.219  1.00 20.00    -0.051 Br
ENDROOT
TORSDOF 0
