REMARK  0 active torsions:
REMARK  status: ('A' for Active; 'I' for Inactive)
ROOT
HETATM    1  C1  UNL     1     -34.684   5.639   6.105  1.00 20.00     0.064 C 
HETATM    2  C2  UNL     1     -34.046   7.728   4.924  1.00 20.00     0.023 C 
HETATM    3  C3  UNL     1     -34.585   5.619   3.611  1.00 20.00     0.028 C 
HETATM    4  C4  UNL     1     -32.332   6.760   3.342  1.00 20.00     0.013 C 
HETATM    5  C5  UNL     1     -34.869   6.436   4.880  1.00 20.00     0.094 C 
HETATM    6  C6  UNL     1     -32.549   7.502   4.669  1.00 20.00    -0.017 C 
HETATM    7  C7  UNL     1     -33.090   5.416   3.256  1.00 20.00    -0.046 C 
HETATM    8  C8  UNL     1     -31.803   8.838   4.659  1.00 20.00     0.010 C 
HETATM    9  C9  UNL     1     -32.999   4.889   1.808  1.00 20.00     0.015 C 
HETATM   10  C10 UNL     1     -32.429   4.363   4.166  1.00 20.00     0.015 C 
HETATM   11  N11 UNL     1     -34.538   5.012   7.070  1.00 20.00    -0.197 NA
ENDROOT
TORSDOF 0
