REMARK  2 active torsions:
REMARK  status: ('A' for Active; 'I' for Inactive)
REMARK    1  A    between atoms: C7_7  and  C12_12 
REMARK    2  A    between atoms: C11_11  and  C12_12 
ROOT
HETATM    1  C1  UNL     1     -32.389   8.008   1.223  1.00 20.00     0.064 C 
HETATM    2  C2  UNL     1     -31.198   7.522   3.343  1.00 20.00     0.019 C 
HETATM    3  C3  UNL     1     -32.702   5.786   2.278  1.00 20.00     0.019 C 
HETATM    4  C4  UNL     1     -32.300   7.854   4.352  1.00 20.00     0.007 C 
HETATM    5  C5  UNL     1     -33.801   6.122   3.289  1.00 20.00     0.007 C 
HETATM    6  C6  UNL     1     -31.741   6.954   2.026  1.00 20.00     0.093 C 
HETATM    7  C7  UNL     1     -33.219   6.653   4.605  1.00 20.00    -0.007 C 
HETATM    8  N13 UNL     1     -32.898   8.837   0.591  1.00 20.00    -0.197 NA
ENDROOT
BRANCH   7   9
HETATM    9  C12 UNL     1     -34.337   7.024   5.577  1.00 20.00    -0.044 C 
HETATM   10  C9  UNL     1     -33.710   7.512   6.899  1.00 20.00     0.015 C 
HETATM   11  C10 UNL     1     -35.169   8.172   4.970  1.00 20.00     0.015 C 
BRANCH   9  12
HETATM   12  C11 UNL     1     -35.223   5.771   5.819  1.00 20.00     0.004 C 
HETATM   13  C8  UNL     1     -34.524   4.553   6.411  1.00 20.00     0.006 C 
ENDBRANCH   9  12
ENDBRANCH   7   9
TORSDOF 2
