REMARK  6 active torsions:
REMARK  status: ('A' for Active; 'I' for Inactive)
REMARK    1  A    between atoms: C1_1  and  C5_5 
REMARK    2  A    between atoms: C1_1  and  O10_10 
REMARK    3  A    between atoms: C5_5  and  C6_6 
REMARK    4  A    between atoms: C6_6  and  C7_7 
REMARK    5  A    between atoms: C7_7  and  O11_11 
REMARK    6  A    between atoms: C8_8  and  O11_11 
ROOT
HETATM    1  C6  UNL     1     -33.587   4.495   3.233  1.00 20.00     0.036 C 
ENDROOT
BRANCH   1   2
HETATM    2  C5  UNL     1     -34.691   5.198   4.016  1.00 20.00     0.113 C 
BRANCH   2   3
HETATM    3  C1  UNL     1     -34.186   5.761   5.325  1.00 20.00     0.258 C 
HETATM    4  O9  UNL     1     -34.190   5.170   6.396  1.00 20.00    -0.265 OA
BRANCH   3   5
HETATM    5  O10 UNL     1     -33.726   7.030   5.112  1.00 20.00    -0.326 OA
HETATM    6  C4  UNL     1     -33.209   7.700   6.267  1.00 20.00     0.213 C 
ENDBRANCH   3   5
ENDBRANCH   2   3
ENDBRANCH   1   2
BRANCH   1   7
HETATM    7  C7  UNL     1     -32.466   5.453   2.856  1.00 20.00     0.168 C 
BRANCH   7   8
HETATM    8  O11 UNL     1     -33.006   6.502   2.064  1.00 20.00    -0.387 OA
BRANCH   8   9
HETATM    9  C8  UNL     1     -32.004   7.433   1.678  1.00 20.00     0.113 C 
HETATM   10  C2  UNL     1     -32.490   8.221   0.472  1.00 20.00     0.039 C 
HETATM   11  C3  UNL     1     -31.684   8.341   2.856  1.00 20.00     0.039 C 
ENDBRANCH   8   9
ENDBRANCH   7   8
ENDBRANCH   1   7
TORSDOF 6
