REMARK  4 active torsions:
REMARK  status: ('A' for Active; 'I' for Inactive)
REMARK    1  A    between atoms: C1_1  and  C8_8 
REMARK    2  A    between atoms: C7_7  and  N10_10 
REMARK    3  A    between atoms: C8_8  and  N10_10 
REMARK    4  A    between atoms: C9_9  and  N10_10 
ROOT
HETATM    1  N10 UNL     1     -33.195   6.835   3.199  1.00 20.00     0.103 N 
ENDROOT
BRANCH   1   2
HETATM    2  C7  UNL     1     -32.567   5.562   2.815  1.00 20.00     0.269 C 
HETATM    3  C3  UNL     1     -33.402   4.401   3.238  1.00 20.00     0.037 C 
ENDBRANCH   1   2
BRANCH   1   4
HETATM    4  C8  UNL     1     -33.372   6.922   4.624  1.00 20.00     0.287 C 
HETATM    5  C4  UNL     1     -33.509   8.361   5.090  1.00 20.00     0.051 C 
BRANCH   4   6
HETATM    6  C1  UNL     1     -34.615   6.123   4.976  1.00 20.00     0.155 C 
HETATM    7  C2  UNL     1     -34.597   5.394   6.295  1.00 20.00     0.093 C 
HETATM    8  O11 UNL     1     -35.611   6.096   4.253  1.00 20.00    -0.296 OA
ENDBRANCH   4   6
ENDBRANCH   1   4
BRANCH   1   9
HETATM    9  C9  UNL     1     -32.387   7.954   2.690  1.00 20.00     0.216 C 
HETATM   10  C5  UNL     1     -32.306   7.861   1.173  1.00 20.00     0.042 C 
HETATM   11  C6  UNL     1     -31.008   7.898   3.332  1.00 20.00     0.042 C 
ENDBRANCH   1   9
TORSDOF 4
