REMARK  4 active torsions:
REMARK  status: ('A' for Active; 'I' for Inactive)
REMARK    1  A    between atoms: C1_1  and  C8_8 
REMARK    2  A    between atoms: C4_4  and  C7_7 
REMARK    3  A    between atoms: C7_7  and  O10_10 
REMARK    4  A    between atoms: C8_8  and  O10_10 
ROOT
HETATM    1  C6  UNL     1     -32.832   4.743   1.897  1.00 20.00     0.048 C 
HETATM    2  C8  UNL     1     -32.989   5.416   3.249  1.00 20.00     0.186 C 
ENDROOT
BRANCH   2   3
HETATM    3  C1  UNL     1     -32.663   6.901   3.174  1.00 20.00     0.151 C 
HETATM    4  C5  UNL     1     -33.457   7.730   2.196  1.00 20.00     0.093 C 
HETATM    5  O9  UNL     1     -31.788   7.415   3.871  1.00 20.00    -0.296 OA
ENDBRANCH   2   3
BRANCH   2   6
HETATM    6  O10 UNL     1     -34.334   5.256   3.669  1.00 20.00    -0.378 OA
BRANCH   6   7
HETATM    7  C7  UNL     1     -34.465   5.402   5.078  1.00 20.00     0.173 C 
BRANCH   7   8
HETATM    8  C4  UNL     1     -34.481   6.876   5.422  1.00 20.00     0.009 A 
HETATM    9  C2  UNL     1     -34.621   7.319   6.852  1.00 20.00     0.007 A 
HETATM   10  C3  UNL     1     -33.313   7.500   6.133  1.00 20.00     0.007 A 
ENDBRANCH   7   8
ENDBRANCH   6   7
ENDBRANCH   2   6
TORSDOF 4
