REMARK  3 active torsions:
REMARK  status: ('A' for Active; 'I' for Inactive)
REMARK    1  A    between atoms: C5_5  and  C6_6 
REMARK    2  A    between atoms: C6_6  and  C7_7 
REMARK    3  A    between atoms: C7_7  and  N9_9 
ROOT
HETATM    1  C1  UNL     1     -34.095   5.296   4.276  1.00 20.00     0.095 C 
HETATM    2  C7  UNL     1     -34.067   6.763   4.399  1.00 20.00     0.327 C 
HETATM    3  N8  UNL     1     -34.121   4.139   4.182  1.00 20.00    -0.195 NA
ENDROOT
BRANCH   2   4
HETATM    4  C6  UNL     1     -33.757   7.438   3.051  1.00 20.00     0.050 C 
BRANCH   4   5
HETATM    5  C5  UNL     1     -32.386   7.093   2.454  1.00 20.00    -0.001 C 
HETATM    6  C2  UNL     1     -32.146   7.844   1.153  1.00 20.00     0.005 C 
ENDBRANCH   4   5
ENDBRANCH   2   4
BRANCH   2   7
HETATM    7  N9  UNL     1     -33.108   7.170   5.424  1.00 20.00     0.098 N 
HETATM    8  C3  UNL     1     -33.474   6.603   6.722  1.00 20.00     0.311 C 
HETATM    9  C4  UNL     1     -33.035   8.629   5.506  1.00 20.00     0.311 C 
ENDBRANCH   2   7
TORSDOF 3
