REMARK  3 active torsions:
REMARK  status: ('A' for Active; 'I' for Inactive)
REMARK    1  A    between atoms: C5_5  and  C6_6 
REMARK    2  A    between atoms: C6_6  and  C7_7 
REMARK    3  A    between atoms: C7_7  and  N9_9 
ROOT
HETATM    1  C1  UNL     1     -33.450   6.209   3.531  1.00 20.00     0.095 C 
HETATM    2  C7  UNL     1     -34.204   6.828   4.633  1.00 20.00     0.327 C 
HETATM    3  N8  UNL     1     -32.859   5.722   2.659  1.00 20.00    -0.195 NA
ENDROOT
BRANCH   2   4
HETATM    4  C6  UNL     1     -35.170   5.826   5.290  1.00 20.00     0.050 C 
BRANCH   4   5
HETATM    5  C5  UNL     1     -34.511   4.831   6.255  1.00 20.00    -0.001 C 
HETATM    6  C2  UNL     1     -33.425   4.023   5.557  1.00 20.00     0.005 C 
ENDBRANCH   4   5
ENDBRANCH   2   4
BRANCH   2   7
HETATM    7  N9  UNL     1     -33.289   7.406   5.615  1.00 20.00     0.098 N 
HETATM    8  C3  UNL     1     -34.037   8.022   6.711  1.00 20.00     0.311 C 
HETATM    9  C4  UNL     1     -32.411   8.388   4.981  1.00 20.00     0.311 C 
ENDBRANCH   2   7
TORSDOF 3
