REMARK  3 active torsions:
REMARK  status: ('A' for Active; 'I' for Inactive)
REMARK    1  A    between atoms: C1_1  and  C4_4 
REMARK    2  A    between atoms: C1_1  and  C7_7 
REMARK    3  A    between atoms: C7_7  and  C8_8 
ROOT
HETATM    1  C1  UNL     1     -33.407   5.734   3.555  1.00 20.00     0.131 C 
HETATM    2  O9  UNL     1     -33.458   4.547   3.240  1.00 20.00    -0.298 OA
ENDROOT
BRANCH   1   3
HETATM    3  C4  UNL     1     -32.215   6.582   3.190  1.00 20.00     0.055 A 
HETATM    4  C2  UNL     1     -32.211   7.246   1.861  1.00 20.00     0.013 A 
HETATM    5  C3  UNL     1     -32.405   8.053   3.109  1.00 20.00     0.013 A 
ENDBRANCH   1   3
BRANCH   1   6
HETATM    6  C7  UNL     1     -34.497   6.425   4.360  1.00 20.00     0.082 C 
BRANCH   6   7
HETATM    7  C8  UNL     1     -34.321   6.297   5.880  1.00 20.00    -0.016 C 
HETATM    8  C5  UNL     1     -32.997   6.909   6.344  1.00 20.00     0.010 C 
HETATM    9  C6  UNL     1     -34.381   4.824   6.292  1.00 20.00     0.010 C 
ENDBRANCH   6   7
ENDBRANCH   1   6
TORSDOF 3
