REMARK  5 active torsions:
REMARK  status: ('A' for Active; 'I' for Inactive)
REMARK    1  A    between atoms: C4_4  and  C6_6 
REMARK    2  A    between atoms: C4_4  and  C7_7 
REMARK    3  A    between atoms: C5_5  and  C8_8 
REMARK    4  A    between atoms: C5_5  and  N9_9 
REMARK    5  A    between atoms: C7_7  and  N9_9 
ROOT
HETATM    1  C3  UNL     1     -32.322   8.067   6.585  1.00 20.00     0.042 C 
HETATM    2  C7  UNL     1     -32.813   7.221   5.413  1.00 20.00     0.217 C 
ENDROOT
BRANCH   2   3
HETATM    3  C4  UNL     1     -32.267   7.763   4.084  1.00 20.00     0.039 C 
BRANCH   3   4
HETATM    4  C6  UNL     1     -32.742   7.007   2.825  1.00 20.00    -0.021 C 
HETATM    5  C1  UNL     1     -32.305   5.541   2.909  1.00 20.00     0.009 C 
HETATM    6  C2  UNL     1     -32.209   7.629   1.533  1.00 20.00     0.009 C 
ENDBRANCH   3   4
ENDBRANCH   2   3
BRANCH   2   7
HETATM    7  N9  UNL     1     -34.261   7.238   5.399  1.00 20.00     0.092 N 
HETATM    8  H28 UNL     1     -34.597   8.177   5.627  1.00 20.00     0.316 HD
BRANCH   7   9
HETATM    9  C5  UNL     1     -34.812   6.294   6.368  1.00 20.00     0.340 C 
BRANCH   9  10
HETATM   10  C8  UNL     1     -34.773   4.884   5.817  1.00 20.00     0.381 C 
HETATM   11  F10 UNL     1     -33.515   4.387   5.906  1.00 20.00    -0.213 F 
HETATM   12  F11 UNL     1     -35.083   4.915   4.496  1.00 20.00    -0.213 F 
ENDBRANCH   9  10
ENDBRANCH   7   9
ENDBRANCH   2   7
TORSDOF 5
