REMARK  1 active torsions:
REMARK  status: ('A' for Active; 'I' for Inactive)
REMARK    1  A    between atoms: C2_2  and  C3_3 
ROOT
HETATM    1  C1  UNL     1     -33.197   7.231   4.591  1.00 20.00     0.064 C 
HETATM    2  C2  UNL     1     -34.203   7.354   5.656  1.00 20.00     0.194 C 
HETATM    3  N4  UNL     1     -32.402   7.135   3.752  1.00 20.00    -0.197 NA
ENDROOT
BRANCH   2   4
HETATM    4  C3  UNL     1     -35.090   6.126   5.726  1.00 20.00     0.366 C 
HETATM    5  F5  UNL     1     -34.343   5.018   5.958  1.00 20.00    -0.213 F 
HETATM    6  F6  UNL     1     -35.728   5.937   4.545  1.00 20.00    -0.213 F 
ENDBRANCH   2   4
TORSDOF 1
