REMARK  1 active torsions:
REMARK  status: ('A' for Active; 'I' for Inactive)
REMARK    1  A    between atoms: C3_3  and  C6_6 
ROOT
HETATM    1  C1  UNL     1     -33.472   4.785   3.279  1.00 20.00     0.019 A 
HETATM    2  C2  UNL     1     -32.718   5.532   2.327  1.00 20.00     0.028 A 
HETATM    3  C3  UNL     1     -33.742   5.517   4.414  1.00 20.00     0.015 A 
HETATM    4  C4  UNL     1     -32.441   6.806   2.772  1.00 20.00     0.051 A 
HETATM    5  S8  UNL     1     -33.088   7.097   4.331  1.00 20.00    -0.085 SA
HETATM    6 BR9  UNL     1     -31.462   8.099   1.784  1.00 20.00    -0.043 Br
ENDROOT
BRANCH   3   7
HETATM    7  C6  UNL     1     -34.534   4.988   5.613  1.00 20.00     0.185 A 
HETATM    8  C5  UNL     1     -34.885   5.948   6.730  1.00 20.00     0.206 A 
HETATM    9  O7  UNL     1     -33.963   4.876   6.935  1.00 20.00    -0.376 OA
ENDBRANCH   3   7
TORSDOF 1
