REMARK  2 active torsions:
REMARK  status: ('A' for Active; 'I' for Inactive)
REMARK    1  A    between atoms: C7_7  and  C10_10 
REMARK    2  A    between atoms: C8_8  and  C9_9 
ROOT
HETATM    1  C1  UNL     1     -32.908   5.618   3.205  1.00 20.00    -0.019 A 
HETATM    2  C3  UNL     1     -32.569   6.874   2.885  1.00 20.00    -0.087 A 
HETATM    3  C5  UNL     1     -32.340   7.743   4.087  1.00 20.00     0.039 A 
HETATM    4  C8  UNL     1     -32.968   5.410   4.681  1.00 20.00     0.021 A 
HETATM    5  C10 UNL     1     -32.617   6.814   5.274  1.00 20.00     0.005 A 
HETATM    6  C11 UNL     1     -32.418   7.424   1.513  1.00 20.00     0.043 C 
ENDROOT
BRANCH   4   7
HETATM    7  C9  UNL     1     -34.350   5.103   5.317  1.00 20.00     0.022 C 
HETATM    8  C4  UNL     1     -35.394   6.077   4.808  1.00 20.00    -0.082 C 
HETATM    9  C2  UNL     1     -35.094   7.285   5.310  1.00 20.00    -0.019 C 
HETATM   10  C12 UNL     1     -36.490   5.691   3.891  1.00 20.00     0.043 C 
HETATM   11  C7  UNL     1     -33.855   7.122   6.159  1.00 20.00     0.014 C 
HETATM   12  C6  UNL     1     -34.148   5.718   6.712  1.00 20.00     0.018 C 
ENDBRANCH   4   7
TORSDOF 2
