REMARK  1 active torsions:
REMARK  status: ('A' for Active; 'I' for Inactive)
REMARK    1  A    between atoms: C7_7  and  C8_8 
ROOT
HETATM    1  C1  UNL     1     -32.466   7.695   2.459  1.00 20.00     0.066 C 
HETATM    2  C4  UNL     1     -33.280   5.370   2.715  1.00 20.00     0.048 C 
HETATM    3  C5  UNL     1     -34.070   4.696   3.812  1.00 20.00     0.169 C 
HETATM    4  C6  UNL     1     -32.792   6.625   3.407  1.00 20.00     0.124 C 
HETATM    5  C8  UNL     1     -33.975   6.975   4.312  1.00 20.00     0.143 C 
HETATM    6  N9  UNL     1     -32.208   8.542   1.709  1.00 20.00    -0.197 NA
HETATM    7  O10 UNL     1     -34.695   5.750   4.554  1.00 20.00    -0.384 OA
ENDROOT
BRANCH   5   8
HETATM    8  C7  UNL     1     -33.555   7.568   5.623  1.00 20.00     0.016 A 
HETATM    9  C2  UNL     1     -34.457   7.470   6.822  1.00 20.00     0.007 A 
HETATM   10  C3  UNL     1     -33.183   6.674   6.773  1.00 20.00     0.007 A 
ENDBRANCH   5   8
TORSDOF 1
