REMARK  2 active torsions:
REMARK  status: ('A' for Active; 'I' for Inactive)
REMARK    1  A    between atoms: C2_2  and  C3_3 
REMARK    2  A    between atoms: C3_3  and  O11_11 
ROOT
HETATM    1  C1  UNL     1     -33.650   7.161   4.559  1.00 20.00    -0.074 C 
HETATM    2  C2  UNL     1     -32.607   7.507   3.791  1.00 20.00     0.085 C 
HETATM    3  C4  UNL     1     -33.843   7.702   5.951  1.00 20.00     0.034 C 
HETATM    4  C5  UNL     1     -34.701   6.184   4.102  1.00 20.00     0.034 C 
HETATM    5  C6  UNL     1     -34.014   6.563   6.957  1.00 20.00     0.004 C 
HETATM    6  C7  UNL     1     -34.867   5.052   5.117  1.00 20.00     0.004 C 
HETATM    7  C8  UNL     1     -35.110   5.586   6.529  1.00 20.00     0.001 C 
ENDROOT
BRANCH   2   8
HETATM    8  C3  UNL     1     -32.473   6.942   2.434  1.00 20.00     0.282 C 
HETATM    9  O10 UNL     1     -32.375   5.755   2.167  1.00 20.00    -0.260 OA
BRANCH   8  10
HETATM   10  O11 UNL     1     -32.482   7.981   1.556  1.00 20.00    -0.323 OA
HETATM   11  C9  UNL     1     -32.362   7.621   0.176  1.00 20.00     0.213 C 
ENDBRANCH   8  10
ENDBRANCH   2   8
TORSDOF 2
