REMARK  3 active torsions:
REMARK  status: ('A' for Active; 'I' for Inactive)
REMARK    1  A    between atoms: C2_2  and  C8_8 
REMARK    2  A    between atoms: C6_6  and  C7_7 
REMARK    3  A    between atoms: C6_6  and  C8_8 
ROOT
HETATM    1  C1  UNL     1     -32.613   6.059   2.800  1.00 20.00     0.063 C 
HETATM    2  C4  UNL     1     -31.375   8.176   2.882  1.00 20.00     0.025 C 
HETATM    3  C7  UNL     1     -32.656   7.448   3.293  1.00 20.00     0.089 C 
HETATM    4  N9  UNL     1     -32.582   4.966   2.410  1.00 20.00    -0.197 NA
ENDROOT
BRANCH   3   5
HETATM    5  C6  UNL     1     -32.821   7.494   4.826  1.00 20.00     0.030 C 
BRANCH   5   6
HETATM    6  C8  UNL     1     -34.258   7.229   5.313  1.00 20.00     0.052 C 
HETATM    7  C5  UNL     1     -34.259   6.772   6.770  1.00 20.00     0.018 C 
BRANCH   6   8
HETATM    8  C2  UNL     1     -34.952   6.160   4.474  1.00 20.00     0.127 C 
HETATM    9  C3  UNL     1     -35.725   6.638   3.272  1.00 20.00     0.091 C 
HETATM   10  O10 UNL     1     -34.918   4.966   4.772  1.00 20.00    -0.298 OA
ENDBRANCH   6   8
ENDBRANCH   5   6
ENDBRANCH   3   5
TORSDOF 3
