REMARK  0 active torsions:
REMARK  status: ('A' for Active; 'I' for Inactive)
ROOT
HETATM    1  C1  UNL     1     -32.710   4.584   1.426  1.00 20.00     0.015 C 
HETATM    2  C2  UNL     1     -32.632   5.488   2.211  1.00 20.00    -0.082 C 
HETATM    3  C3  UNL     1     -34.610   5.931   6.698  1.00 20.00     0.000 C 
HETATM    4  C4  UNL     1     -34.891   5.144   5.416  1.00 20.00     0.003 C 
HETATM    5  C5  UNL     1     -33.324   6.755   6.585  1.00 20.00     0.003 C 
HETATM    6  C6  UNL     1     -34.923   6.062   4.193  1.00 20.00     0.042 C 
HETATM    7  C7  UNL     1     -33.352   7.672   5.363  1.00 20.00     0.042 C 
HETATM    8  C8  UNL     1     -32.538   6.565   3.146  1.00 20.00     0.235 A 
HETATM    9  C9  UNL     1     -33.655   6.870   4.128  1.00 20.00     0.099 A 
HETATM   10  O10 UNL     1     -33.500   7.604   2.907  1.00 20.00    -0.356 OA
ENDROOT
TORSDOF 0
