REMARK  2 active torsions:
REMARK  status: ('A' for Active; 'I' for Inactive)
REMARK    1  A    between atoms: C1_1  and  C4_4 
REMARK    2  A    between atoms: C4_4  and  N5_5 
ROOT
HETATM    1  C4  UNL     1     -33.907   6.953   4.195  1.00 20.00     0.367 C 
ENDROOT
BRANCH   1   2
HETATM    2  C1  UNL     1     -32.968   6.282   3.213  1.00 20.00     0.247 C 
HETATM    3  O6  UNL     1     -32.751   5.075   3.197  1.00 20.00    -0.278 OA
HETATM    4 CL7  UNL     1     -32.255   7.446   2.128  1.00 20.00    -0.042 Cl
ENDBRANCH   1   2
BRANCH   1   5
HETATM    5  N5  UNL     1     -33.912   6.197   5.447  1.00 20.00     0.088 N 
HETATM    6  C2  UNL     1     -34.778   5.024   5.332  1.00 20.00     0.310 C 
HETATM    7  C3  UNL     1     -34.347   7.047   6.555  1.00 20.00     0.310 C 
ENDBRANCH   1   5
TORSDOF 2
