REMARK  1 active torsions:
REMARK  status: ('A' for Active; 'I' for Inactive)
REMARK    1  A    between atoms: C2_2  and  C7_7 
ROOT
HETATM    1  C1  UNL     1     -33.838   5.167   4.507  1.00 20.00     0.141 C 
HETATM    2  C3  UNL     1     -34.667   5.025   5.767  1.00 20.00     0.079 C 
HETATM    3  C4  UNL     1     -34.043   5.794   6.920  1.00 20.00     0.007 C 
HETATM    4  C5  UNL     1     -33.781   7.249   6.548  1.00 20.00     0.002 C 
HETATM    5  C6  UNL     1     -32.878   7.343   5.319  1.00 20.00     0.024 C 
HETATM    6  C7  UNL     1     -33.422   6.583   4.096  1.00 20.00     0.070 C 
HETATM    7  C8  UNL     1     -34.632   7.288   3.473  1.00 20.00     0.031 C 
HETATM    8  O9  UNL     1     -33.595   4.185   3.804  1.00 20.00    -0.297 OA
ENDROOT
BRANCH   6   9
HETATM    9  C2  UNL     1     -32.315   6.567   3.070  1.00 20.00     0.248 C 
HETATM   10  O10 UNL     1     -32.422   7.060   1.953  1.00 20.00    -0.306 OA
ENDBRANCH   6   9
TORSDOF 1
