REMARK  1 active torsions:
REMARK  status: ('A' for Active; 'I' for Inactive)
REMARK    1  A    between atoms: C3_3  and  C6_6 
ROOT
HETATM    1  C1  UNL     1     -32.294   7.444   1.759  1.00 20.00    -0.154 C 
HETATM    2  C5  UNL     1     -31.892   7.307   0.532  1.00 20.00     0.096 C 
HETATM    3  C6  UNL     1     -32.694   7.587   2.986  1.00 20.00     0.058 C 
ENDROOT
BRANCH   3   4
HETATM    4  C3  UNL     1     -33.314   6.518   3.715  1.00 20.00    -0.041 A 
HETATM    5  C2  UNL     1     -33.757   6.570   4.977  1.00 20.00    -0.009 A 
HETATM    6  C4  UNL     1     -34.304   5.227   5.257  1.00 20.00     0.156 A 
HETATM    7  C9  UNL     1     -33.768   7.651   5.992  1.00 20.00     0.052 C 
HETATM    8  C8  UNL     1     -34.176   4.313   4.075  1.00 20.00     0.088 A 
HETATM    9  O10 UNL     1     -34.801   4.907   6.327  1.00 20.00    -0.293 OA
HETATM   10  C7  UNL     1     -33.504   5.195   3.033  1.00 20.00     0.047 A 
ENDBRANCH   3   4
TORSDOF 1
