REMARK  4 active torsions:
REMARK  status: ('A' for Active; 'I' for Inactive)
REMARK    1  A    between atoms: C2_2  and  C6_6 
REMARK    2  A    between atoms: C3_3  and  C7_7 
REMARK    3  A    between atoms: C3_3  and  O9_9 
REMARK    4  A    between atoms: C6_6  and  C8_8 
ROOT
HETATM    1  C1  UNL     1     -33.362   8.681   4.558  1.00 20.00     0.045 A 
HETATM    2  C2  UNL     1     -32.290   7.704   4.149  1.00 20.00     0.023 A 
HETATM    3  C3  UNL     1     -33.349   7.293   5.149  1.00 20.00     0.062 A 
ENDROOT
BRANCH   3   4
HETATM    4  C7  UNL     1     -34.435   6.327   4.809  1.00 20.00     0.034 C 
HETATM    5  C4  UNL     1     -34.265   4.992   5.485  1.00 20.00     0.008 C 
ENDBRANCH   3   4
BRANCH   3   6
HETATM    6  O9  UNL     1     -32.904   7.197   6.515  1.00 20.00    -0.389 OA
HETATM    7  H25 UNL     1     -32.001   7.539   6.521  1.00 20.00     0.210 HD
ENDBRANCH   3   6
BRANCH   2   8
HETATM    8  C6  UNL     1     -32.254   7.167   2.760  1.00 20.00     0.007 C 
BRANCH   8   9
HETATM    9  C8  UNL     1     -31.653   8.167   1.756  1.00 20.00    -0.004 C 
HETATM   10  C5  UNL     1     -31.583   7.606   0.345  1.00 20.00     0.005 C 
ENDBRANCH   8   9
ENDBRANCH   2   8
TORSDOF 4
