REMARK  2 active torsions:
REMARK  status: ('A' for Active; 'I' for Inactive)
REMARK    1  A    between atoms: C6_6  and  C7_7 
REMARK    2  A    between atoms: C7_7  and  N8_8 
ROOT
HETATM    1  C7  UNL     1     -33.758   5.664   4.412  1.00 20.00     0.443 C 
HETATM    2  F9  UNL     1     -35.053   5.384   4.069  1.00 20.00    -0.172 F 
HETATM    3  F10 UNL     1     -33.209   4.456   4.728  1.00 20.00    -0.172 F 
ENDROOT
BRANCH   1   4
HETATM    4  C6  UNL     1     -33.054   6.226   3.144  1.00 20.00     0.046 C 
HETATM    5  C1  UNL     1     -31.895   7.173   3.496  1.00 20.00     0.023 C 
HETATM    6  C2  UNL     1     -32.479   5.048   2.330  1.00 20.00     0.023 C 
HETATM    7  C3  UNL     1     -34.062   6.980   2.256  1.00 20.00     0.023 C 
ENDBRANCH   1   4
BRANCH   1   8
HETATM    8  N8  UNL     1     -33.722   6.571   5.574  1.00 20.00     0.152 N 
HETATM    9  C4  UNL     1     -34.738   7.620   5.491  1.00 20.00     0.317 C 
HETATM   10  C5  UNL     1     -33.862   5.858   6.846  1.00 20.00     0.317 C 
ENDBRANCH   1   8
TORSDOF 2
