REMARK  1 active torsions:
REMARK  status: ('A' for Active; 'I' for Inactive)
REMARK    1  A    between atoms: C4_4  and  C6_6 
ROOT
HETATM    1  C1  UNL     1     -34.431   6.062   7.006  1.00 20.00     0.135 A 
HETATM    2  C2  UNL     1     -34.464   4.961   6.178  1.00 20.00     0.136 A 
HETATM    3  C3  UNL     1     -33.513   7.304   5.320  1.00 20.00     0.149 A 
HETATM    4  C4  UNL     1     -33.545   6.203   4.492  1.00 20.00     0.122 A 
HETATM    5  N7  UNL     1     -33.955   7.253   6.592  1.00 20.00    -0.269 NA
HETATM    6  N8  UNL     1     -34.022   5.012   4.906  1.00 20.00    -0.256 NA
ENDROOT
BRANCH   4   7
HETATM    7  C6  UNL     1     -33.047   6.296   3.092  1.00 20.00     0.285 C 
HETATM    8  C5  UNL     1     -31.933   7.331   2.947  1.00 20.00     0.097 C 
HETATM    9  F9  UNL     1     -34.027   6.637   2.193  1.00 20.00    -0.200 F 
HETATM   10  F10 UNL     1     -32.553   5.108   2.616  1.00 20.00    -0.200 F 
ENDBRANCH   4   7
TORSDOF 1
