REMARK  0 active torsions:
REMARK  status: ('A' for Active; 'I' for Inactive)
ROOT
HETATM    1  C1  UNL     1     -32.210   7.595   1.643  1.00 20.00     0.097 C 
HETATM    2  C2  UNL     1     -34.070   5.164   5.980  1.00 20.00     0.008 C 
HETATM    3  C3  UNL     1     -33.882   4.284   4.984  1.00 20.00     0.029 C 
HETATM    4  C4  UNL     1     -33.209   7.081   4.745  1.00 20.00    -0.004 C 
HETATM    5  C5  UNL     1     -33.347   5.440   1.682  1.00 20.00     0.136 C 
HETATM    6  C6  UNL     1     -32.736   6.458   2.298  1.00 20.00     0.053 C 
HETATM    7  C7  UNL     1     -33.882   6.604   5.813  1.00 20.00    -0.065 C 
HETATM    8  C8  UNL     1     -33.452   4.882   3.707  1.00 20.00     0.047 C 
HETATM    9  C9  UNL     1     -32.603   6.145   3.749  1.00 20.00     0.106 C 
HETATM   10  C10 UNL     1     -34.454   7.489   6.876  1.00 20.00     0.048 C 
HETATM   11  N11 UNL     1     -31.778   8.528   1.106  1.00 20.00    -0.192 NA
HETATM   12  N12 UNL     1     -33.781   4.452   2.527  1.00 20.00    -0.263 NA
ENDROOT
TORSDOF 0
