REMARK  2 active torsions:
REMARK  status: ('A' for Active; 'I' for Inactive)
REMARK    1  A    between atoms: C1_1  and  C4_4 
REMARK    2  A    between atoms: C2_2  and  C3_3 
ROOT
HETATM    1  C1  UNL     1     -32.847   7.622   4.010  1.00 20.00     0.015 C 
HETATM    2  C3  UNL     1     -33.678   6.857   4.732  1.00 20.00     0.069 C 
HETATM    3 CL6  UNL     1     -34.139   7.186   6.354  1.00 20.00    -0.081 Cl
ENDROOT
BRANCH   2   4
HETATM    4  C2  UNL     1     -34.252   5.647   4.097  1.00 20.00     0.282 C 
HETATM    5  O5  UNL     1     -33.572   4.723   3.664  1.00 20.00    -0.301 OA
ENDBRANCH   2   4
BRANCH   1   6
HETATM    6  C4  UNL     1     -32.416   7.393   2.595  1.00 20.00     0.143 C 
HETATM    7 CL7  UNL     1     -32.917   8.766   1.584  1.00 20.00    -0.126 Cl
ENDBRANCH   1   6
TORSDOF 2
