REMARK  3 active torsions:
REMARK  status: ('A' for Active; 'I' for Inactive)
REMARK    1  A    between atoms: C3_3  and  C7_7 
REMARK    2  A    between atoms: C7_7  and  C8_8 
REMARK    3  A    between atoms: C8_8  and  C9_9 
ROOT
HETATM    1  C1  UNL     1     -34.043   5.976   5.780  1.00 20.00     0.088 C 
HETATM    2  C2  UNL     1     -33.524   6.943   4.877  1.00 20.00     0.096 C 
HETATM    3  C3  UNL     1     -32.941   6.641   3.702  1.00 20.00    -0.074 C 
HETATM    4  C4  UNL     1     -32.807   5.203   3.272  1.00 20.00     0.044 C 
HETATM    5  N10 UNL     1     -34.467   5.191   6.522  1.00 20.00    -0.192 NA
ENDROOT
BRANCH   3   6
HETATM    6  C7  UNL     1     -32.361   7.663   2.745  1.00 20.00     0.034 C 
BRANCH   6   7
HETATM    7  C8  UNL     1     -33.003   7.581   1.354  1.00 20.00     0.008 C 
BRANCH   7   8
HETATM    8  C9  UNL     1     -32.480   8.651   0.377  1.00 20.00    -0.023 C 
HETATM    9  C5  UNL     1     -30.969   8.492   0.191  1.00 20.00     0.009 C 
HETATM   10  C6  UNL     1     -32.796  10.073   0.845  1.00 20.00     0.009 C 
ENDBRANCH   7   8
ENDBRANCH   6   7
ENDBRANCH   3   6
TORSDOF 3
