REMARK  4 active torsions:
REMARK  status: ('A' for Active; 'I' for Inactive)
REMARK    1  A    between atoms: C7_7  and  C9_9 
REMARK    2  A    between atoms: C9_9  and  C11_11 
REMARK    3  A    between atoms: C10_10  and  C12_12 
REMARK    4  A    between atoms: C11_11  and  C12_12 
ROOT
HETATM    1  C1  UNL     1     -34.162   5.749   6.993  1.00 20.00     0.004 C 
HETATM    2  C2  UNL     1     -33.795   4.712   5.938  1.00 20.00     0.008 C 
HETATM    3  C3  UNL     1     -33.332   6.966   6.609  1.00 20.00     0.038 C 
HETATM    4  C4  UNL     1     -34.456   5.455   3.579  1.00 20.00     0.034 C 
HETATM    5  C5  UNL     1     -35.421   6.545   3.981  1.00 20.00     0.169 C 
HETATM    6  C6  UNL     1     -33.410   5.495   4.672  1.00 20.00     0.022 C 
HETATM    7  C7  UNL     1     -33.397   6.972   5.083  1.00 20.00     0.064 C 
HETATM    8  O13 UNL     1     -34.649   7.545   4.655  1.00 20.00    -0.380 OA
ENDROOT
BRANCH   7   9
HETATM    9  C9  UNL     1     -32.273   7.780   4.451  1.00 20.00     0.038 C 
BRANCH   9  10
HETATM   10  C11 UNL     1     -32.387   7.798   2.927  1.00 20.00     0.003 C 
BRANCH  10  11
HETATM   11  C12 UNL     1     -31.237   8.583   2.293  1.00 20.00    -0.000 C 
BRANCH  11  12
HETATM   12  C10 UNL     1     -31.368   8.630   0.771  1.00 20.00    -0.005 C 
HETATM   13  C8  UNL     1     -32.681   9.267   0.345  1.00 20.00     0.005 C 
ENDBRANCH  11  12
ENDBRANCH  10  11
ENDBRANCH   9  10
ENDBRANCH   7   9
TORSDOF 4
