REMARK  3 active torsions:
REMARK  status: ('A' for Active; 'I' for Inactive)
REMARK    1  A    between atoms: C6_6  and  C8_8 
REMARK    2  A    between atoms: C7_7  and  O11_11 
REMARK    3  A    between atoms: C9_9  and  C10_10 
ROOT
HETATM    1  C1  UNL     1     -32.503   7.558   3.297  1.00 20.00    -0.023 C 
HETATM    2  C2  UNL     1     -32.396   6.671   2.282  1.00 20.00     0.001 C 
HETATM    3  C6  UNL     1     -33.694   7.170   4.093  1.00 20.00     0.019 C 
HETATM    4  C7  UNL     1     -33.390   5.518   2.441  1.00 20.00     0.145 C 
HETATM    5  C10 UNL     1     -33.546   5.650   3.938  1.00 20.00     0.030 C 
ENDROOT
BRANCH   4   6
HETATM    6  O11 UNL     1     -32.793   4.286   2.092  1.00 20.00    -0.391 OA
HETATM    7  H25 UNL     1     -32.512   4.354   1.163  1.00 20.00     0.210 HD
ENDBRANCH   4   6
BRANCH   5   8
HETATM    8  C9  UNL     1     -34.591   5.106   4.927  1.00 20.00    -0.007 C 
HETATM    9  C4  UNL     1     -33.821   4.969   6.268  1.00 20.00     0.005 C 
HETATM   10  C3  UNL     1     -33.405   6.436   6.560  1.00 20.00     0.005 C 
HETATM   11  C8  UNL     1     -34.213   7.255   5.531  1.00 20.00    -0.006 C 
HETATM   12  C5  UNL     1     -35.442   6.330   5.319  1.00 20.00     0.010 C 
ENDBRANCH   5   8
TORSDOF 3
