REMARK  2 active torsions:
REMARK  status: ('A' for Active; 'I' for Inactive)
REMARK    1  A    between atoms: C1_1  and  C5_5 
REMARK    2  A    between atoms: C1_1  and  C6_6 
ROOT
HETATM    1  C2  UNL     1     -34.717   5.987   6.755  1.00 20.00     0.029 C 
HETATM    2  C3  UNL     1     -33.790   7.072   6.267  1.00 20.00     0.042 C 
HETATM    3  C4  UNL     1     -34.617   4.968   5.644  1.00 20.00     0.168 C 
HETATM    4  C5  UNL     1     -34.010   7.034   4.766  1.00 20.00     0.192 C 
HETATM    5  O8  UNL     1     -34.453   5.714   4.431  1.00 20.00    -0.378 OA
ENDROOT
BRANCH   4   6
HETATM    6  C1  UNL     1     -32.755   7.262   3.992  1.00 20.00     0.169 C 
HETATM    7  O7  UNL     1     -31.894   8.036   4.408  1.00 20.00    -0.294 OA
BRANCH   6   8
HETATM    8  C6  UNL     1     -32.633   6.492   2.697  1.00 20.00     0.195 C 
HETATM    9 CL9  UNL     1     -32.487   7.597   1.323  1.00 20.00    -0.122 Cl
ENDBRANCH   6   8
ENDBRANCH   4   6
TORSDOF 2
