REMARK  1 active torsions:
REMARK  status: ('A' for Active; 'I' for Inactive)
REMARK    1  A    between atoms: C6_6  and  N12_12 
ROOT
HETATM    1  C1  UNL     1     -33.554   4.834   3.248  1.00 20.00     0.026 A 
HETATM    2  C2  UNL     1     -33.001   5.879   2.537  1.00 20.00     0.097 A 
HETATM    3  C3  UNL     1     -33.868   5.325   4.539  1.00 20.00    -0.034 A 
HETATM    4  C4  UNL     1     -33.499   6.655   4.568  1.00 20.00     0.022 A 
HETATM    5  C7  UNL     1     -34.495   4.643   5.704  1.00 20.00     0.040 C 
HETATM    6  C8  UNL     1     -33.619   7.576   5.728  1.00 20.00     0.058 C 
HETATM    7  C9  UNL     1     -34.297   5.459   6.997  1.00 20.00     0.005 C 
HETATM    8  C10 UNL     1     -34.561   6.963   6.782  1.00 20.00     0.006 C 
HETATM    9  N12 UNL     1     -32.972   6.984   3.351  1.00 20.00    -0.330 N 
ENDROOT
BRANCH   9  10
HETATM   10  C6  UNL     1     -32.488   8.224   2.973  1.00 20.00     0.003 C 
HETATM   11  C5  UNL     1     -31.921   9.110   3.816  1.00 20.00     0.038 C 
HETATM   12  C11 UNL     1     -32.590   8.638   1.519  1.00 20.00     0.068 C 
ENDBRANCH   9  10
TORSDOF 1
