REMARK  1 active torsions:
REMARK  status: ('A' for Active; 'I' for Inactive)
REMARK    1  A    between atoms: C7_7  and  N8_8 
ROOT
HETATM    1  C1  UNL     1     -32.304   8.888   1.404  1.00 20.00     0.013 C 
HETATM    2  C2  UNL     1     -32.331   7.815   1.941  1.00 20.00    -0.087 C 
HETATM    3  C7  UNL     1     -32.359   6.503   2.592  1.00 20.00     0.364 C 
ENDROOT
BRANCH   3   4
HETATM    4  N8  UNL     1     -33.438   6.444   3.597  1.00 20.00     0.100 N 
HETATM    5  C3  UNL     1     -33.752   5.035   3.874  1.00 20.00     0.283 C 
HETATM    6  C5  UNL     1     -34.951   4.878   4.806  1.00 20.00     0.104 C 
HETATM    7  S9  UNL     1     -34.636   5.620   6.431  1.00 20.00    -0.166 SA
HETATM    8  C6  UNL     1     -34.105   7.256   5.855  1.00 20.00     0.104 C 
HETATM    9  C4  UNL     1     -32.999   7.153   4.808  1.00 20.00     0.283 C 
ENDBRANCH   3   4
TORSDOF 1
