REMARK  1 active torsions:
REMARK  status: ('A' for Active; 'I' for Inactive)
REMARK    1  A    between atoms: C3_3  and  C7_7 
ROOT
HETATM    1  C1  UNL     1     -35.051   5.785   3.954  1.00 20.00    -0.025 C 
HETATM    2  C2  UNL     1     -33.790   5.385   3.729  1.00 20.00    -0.024 C 
HETATM    3  C4  UNL     1     -34.374   8.100   4.310  1.00 20.00     0.021 C 
HETATM    4  C5  UNL     1     -34.988   6.862   5.019  1.00 20.00     0.017 C 
HETATM    5  C6  UNL     1     -32.891   6.209   4.638  1.00 20.00     0.027 C 
HETATM    6  C7  UNL     1     -32.896   7.659   4.079  1.00 20.00     0.056 C 
HETATM    7  C8  UNL     1     -33.814   6.327   5.884  1.00 20.00    -0.033 C 
HETATM    8  C9  UNL     1     -34.101   4.985   6.599  1.00 20.00     0.016 C 
HETATM    9  C10 UNL     1     -33.323   7.296   6.976  1.00 20.00     0.016 C 
ENDROOT
BRANCH   6  10
HETATM   10  C3  UNL     1     -32.477   7.750   2.642  1.00 20.00     0.236 C 
HETATM   11  O11 UNL     1     -31.654   7.000   2.129  1.00 20.00    -0.306 OA
ENDBRANCH   6  10
TORSDOF 1
