REMARK  1 active torsions:
REMARK  status: ('A' for Active; 'I' for Inactive)
REMARK    1  A    between atoms: C4_4  and  C10_10 
ROOT
HETATM    1  C1  UNL     1     -33.511   6.685   5.089  1.00 20.00     0.092 C 
HETATM    2  C2  UNL     1     -33.403   6.387   2.334  1.00 20.00     0.029 C 
HETATM    3  C3  UNL     1     -33.766   5.134   3.115  1.00 20.00     0.016 C 
HETATM    4  C4  UNL     1     -32.303   7.132   3.083  1.00 20.00     0.110 C 
HETATM    5  C5  UNL     1     -34.265   5.496   4.520  1.00 20.00    -0.014 C 
HETATM    6  C6  UNL     1     -35.752   5.882   4.486  1.00 20.00     0.020 C 
HETATM    7  C7  UNL     1     -34.077   4.304   5.466  1.00 20.00     0.020 C 
HETATM    8  N11 UNL     1     -32.669   7.435   4.468  1.00 20.00    -0.299 NA
ENDROOT
BRANCH   4   9
HETATM    9  C10 UNL     1     -31.973   8.449   2.388  1.00 20.00     0.002 C 
HETATM   10  C8  UNL     1     -31.460   8.196   0.971  1.00 20.00     0.011 C 
HETATM   11  C9  UNL     1     -33.196   9.363   2.358  1.00 20.00     0.011 C 
ENDBRANCH   4   9
TORSDOF 1
