REMARK  0 active torsions:
REMARK  status: ('A' for Active; 'I' for Inactive)
ROOT
HETATM    1  C1  UNL     1     -32.623   6.970   4.120  1.00 20.00     0.131 C 
HETATM    2  C2  UNL     1     -33.789   4.530   4.237  1.00 20.00     0.059 C 
HETATM    3  C3  UNL     1     -33.366   5.050   2.878  1.00 20.00     0.179 C 
HETATM    4  C4  UNL     1     -34.354   5.671   5.088  1.00 20.00     0.051 C 
HETATM    5  C5  UNL     1     -31.652   8.107   4.080  1.00 20.00     0.099 C 
HETATM    6  C6  UNL     1     -35.703   6.180   4.562  1.00 20.00     0.040 C 
HETATM    7  C7  UNL     1     -34.531   5.191   6.535  1.00 20.00     0.040 C 
HETATM    8  N8  UNL     1     -33.417   6.799   5.116  1.00 20.00    -0.261 NA
HETATM    9  O9  UNL     1     -32.515   6.199   3.007  1.00 20.00    -0.338 OA
ENDROOT
TORSDOF 0
