REMARK  0 active torsions:
REMARK  status: ('A' for Active; 'I' for Inactive)
ROOT
HETATM    1  C1  UNL     1     -33.547   5.157   3.004  1.00 20.00     0.011 A 
HETATM    2  C2  UNL     1     -32.921   6.051   2.137  1.00 20.00     0.024 A 
HETATM    3  C3  UNL     1     -32.555   7.581   3.970  1.00 20.00     0.031 A 
HETATM    4  C4  UNL     1     -33.676   5.465   4.364  1.00 20.00    -0.028 A 
HETATM    5  C5  UNL     1     -33.192   6.694   4.846  1.00 20.00    -0.046 A 
HETATM    6  C6  UNL     1     -32.423   7.260   2.619  1.00 20.00     0.034 A 
HETATM    7  C7  UNL     1     -33.305   7.019   6.312  1.00 20.00     0.065 C 
HETATM    8  C8  UNL     1     -34.381   4.510   5.293  1.00 20.00     0.206 C 
HETATM    9  C9  UNL     1     -34.376   6.166   6.981  1.00 20.00     0.172 C 
HETATM   10  O10 UNL     1     -34.138   4.792   6.676  1.00 20.00    -0.386 OA
HETATM   11 CL11 UNL     1     -31.644   8.358   1.548  1.00 20.00    -0.084 Cl
ENDROOT
TORSDOF 0
