REMARK  1 active torsions:
REMARK  status: ('A' for Active; 'I' for Inactive)
REMARK    1  A    between atoms: C1_1  and  C5_5 
ROOT
HETATM    1  C2  UNL     1     -33.671   4.942   3.525  1.00 20.00     0.015 C 
HETATM    2  C3  UNL     1     -33.086   5.657   2.309  1.00 20.00     0.026 C 
HETATM    3  C4  UNL     1     -34.497   7.249   3.382  1.00 20.00     0.038 C 
HETATM    4  C5  UNL     1     -34.666   5.929   4.147  1.00 20.00     0.074 C 
HETATM    5  C6  UNL     1     -33.144   7.141   2.669  1.00 20.00     0.034 C 
HETATM    6  C7  UNL     1     -33.041   8.050   1.451  1.00 20.00     0.032 C 
HETATM    7 CL10 UNL     1     -31.812   7.552   3.806  1.00 20.00    -0.120 Cl
ENDROOT
BRANCH   4   8
HETATM    8  C1  UNL     1     -34.418   6.105   5.615  1.00 20.00     0.223 C 
HETATM    9  O8  UNL     1     -34.125   7.197   6.094  1.00 20.00    -0.279 OA
HETATM   10 CL9  UNL     1     -34.597   4.615   6.492  1.00 20.00    -0.043 Cl
ENDBRANCH   4   8
TORSDOF 1
