REMARK  3 active torsions:
REMARK  status: ('A' for Active; 'I' for Inactive)
REMARK    1  A    between atoms: C1_1  and  C4_4 
REMARK    2  A    between atoms: C3_3  and  C10_10 
REMARK    3  A    between atoms: C5_5  and  C10_10 
ROOT
HETATM    1  C1  UNL     1     -32.443   8.441   2.160  1.00 20.00    -0.101 C 
HETATM    2  C2  UNL     1     -32.626   8.982   1.103  1.00 20.00    -0.111 C 
HETATM    3  C7  UNL     1     -32.849   9.639  -0.184  1.00 20.00     0.112 C 
ENDROOT
BRANCH   1   4
HETATM    4  C4  UNL     1     -32.223   7.795   3.421  1.00 20.00     0.078 A 
HETATM    5  C5  UNL     1     -32.522   6.323   3.599  1.00 20.00     0.017 A 
HETATM    6  C6  UNL     1     -33.398   7.356   4.287  1.00 20.00    -0.028 A 
HETATM    7  C8  UNL     1     -34.818   7.574   3.822  1.00 20.00     0.016 C 
HETATM    8  C9  UNL     1     -33.240   7.498   5.783  1.00 20.00     0.016 C 
BRANCH   5   9
HETATM    9  C10 UNL     1     -33.016   5.455   2.490  1.00 20.00     0.076 C 
BRANCH   9  10
HETATM   10  C3  UNL     1     -33.752   4.216   2.970  1.00 20.00     0.231 C 
HETATM   11  O11 UNL     1     -33.977   3.969   4.150  1.00 20.00    -0.307 OA
ENDBRANCH   9  10
ENDBRANCH   5   9
ENDBRANCH   1   4
TORSDOF 3
