REMARK  3 active torsions:
REMARK  status: ('A' for Active; 'I' for Inactive)
REMARK    1  A    between atoms: C8_8  and  C9_9 
REMARK    2  A    between atoms: C8_8  and  O11_11 
REMARK    3  A    between atoms: N10_10  and  O11_11 
ROOT
HETATM    1  C1  UNL     1     -33.292   6.700   5.302  1.00 20.00     0.107 A 
HETATM    2  C2  UNL     1     -33.842   5.735   4.261  1.00 20.00     0.049 A 
HETATM    3  C3  UNL     1     -34.007   7.005   6.572  1.00 20.00     0.031 C 
HETATM    4  C4  UNL     1     -35.197   5.105   4.453  1.00 20.00     0.036 C 
HETATM    5  C5  UNL     1     -32.855   4.848   3.544  1.00 20.00     0.036 C 
HETATM    6  N10 UNL     1     -33.840   7.194   4.045  1.00 20.00    -0.180 NA
ENDROOT
BRANCH   6   7
HETATM    7  O11 UNL     1     -32.734   7.572   3.183  1.00 20.00    -0.302 OA
BRANCH   7   8
HETATM    8  C8  UNL     1     -33.242   8.458   2.195  1.00 20.00     0.197 C 
BRANCH   8   9
HETATM    9  C9  UNL     1     -32.115   8.891   1.254  1.00 20.00     0.003 C 
HETATM   10  C6  UNL     1     -31.488   7.689   0.544  1.00 20.00     0.011 C 
HETATM   11  C7  UNL     1     -32.632   9.900   0.232  1.00 20.00     0.011 C 
ENDBRANCH   8   9
ENDBRANCH   7   8
ENDBRANCH   6   7
TORSDOF 3
