REMARK  1 active torsions:
REMARK  status: ('A' for Active; 'I' for Inactive)
REMARK    1  A    between atoms: C2_2  and  C3_3 
ROOT
HETATM    1  C1  UNL     1     -33.589   5.834   3.013  1.00 20.00    -0.010 A 
HETATM    2  C2  UNL     1     -33.624   6.339   4.255  1.00 20.00    -0.016 A 
HETATM    3  C4  UNL     1     -32.494   7.307   4.463  1.00 20.00     0.048 A 
HETATM    4  C5  UNL     1     -32.456   6.333   2.214  1.00 20.00     0.022 A 
HETATM    5  C6  UNL     1     -31.732   7.298   3.148  1.00 20.00     0.007 A 
HETATM    6  C7  UNL     1     -32.292   7.787   1.823  1.00 20.00    -0.036 A 
HETATM    7  C9  UNL     1     -31.291   8.086   0.732  1.00 20.00     0.016 C 
HETATM    8  C10 UNL     1     -33.484   8.712   1.794  1.00 20.00     0.016 C 
ENDROOT
BRANCH   2   9
HETATM    9  C3  UNL     1     -34.627   6.013   5.250  1.00 20.00     0.151 C 
HETATM   10  C8  UNL     1     -34.236   6.052   6.713  1.00 20.00     0.096 C 
HETATM   11  O11 UNL     1     -35.782   5.701   4.921  1.00 20.00    -0.293 OA
ENDBRANCH   2   9
TORSDOF 1
