REMARK  2 active torsions:
REMARK  status: ('A' for Active; 'I' for Inactive)
REMARK    1  A    between atoms: C1_1  and  C4_4 
REMARK    2  A    between atoms: C2_2  and  C5_5 
ROOT
HETATM    1  C5  UNL     1     -33.606   5.423   3.305  1.00 20.00     0.235 A 
HETATM    2  C6  UNL     1     -34.013   5.460   4.760  1.00 20.00     0.092 A 
HETATM    3  C8  UNL     1     -33.866   6.696   5.594  1.00 20.00     0.049 C 
HETATM    4  C9  UNL     1     -34.108   4.164   5.504  1.00 20.00     0.049 C 
HETATM    5  O10 UNL     1     -34.973   5.589   3.703  1.00 20.00    -0.357 OA
ENDROOT
BRANCH   1   6
HETATM    6  C2  UNL     1     -33.074   6.589   2.648  1.00 20.00    -0.066 C 
HETATM    7  C1  UNL     1     -32.630   7.562   2.101  1.00 20.00    -0.070 C 
BRANCH   7   8
HETATM    8  C4  UNL     1     -32.095   8.714   1.449  1.00 20.00    -0.018 C 
HETATM    9  C3  UNL     1     -32.875   9.792   1.278  1.00 20.00     0.028 C 
HETATM   10  C7  UNL     1     -30.673   8.684   0.974  1.00 20.00     0.057 C 
ENDBRANCH   7   8
ENDBRANCH   1   6
TORSDOF 2
