REMARK  2 active torsions:
REMARK  status: ('A' for Active; 'I' for Inactive)
REMARK    1  A    between atoms: C2_2  and  C3_3 
REMARK    2  A    between atoms: C3_3  and  C6_6 
ROOT
HETATM    1  C3  UNL     1     -33.370   6.620   4.249  1.00 20.00     0.170 C 
HETATM    2  O7  UNL     1     -32.826   7.363   5.057  1.00 20.00    -0.291 OA
ENDROOT
BRANCH   1   3
HETATM    3  C2  UNL     1     -32.736   6.258   2.944  1.00 20.00     0.047 C 
HETATM    4  C1  UNL     1     -32.439   4.993   2.616  1.00 20.00     0.035 C 
HETATM    5 BR8  UNL     1     -32.339   7.668   1.775  1.00 20.00    -0.048 Br
ENDBRANCH   1   3
BRANCH   1   6
HETATM    6  C6  UNL     1     -34.705   6.037   4.573  1.00 20.00     0.061 A 
HETATM    7  C4  UNL     1     -34.759   4.684   5.200  1.00 20.00     0.013 A 
HETATM    8  C5  UNL     1     -35.093   5.902   6.007  1.00 20.00     0.013 A 
ENDBRANCH   1   6
TORSDOF 2
