REMARK  1 active torsions:
REMARK  status: ('A' for Active; 'I' for Inactive)
REMARK    1  A    between atoms: C3_3  and  C7_7 
ROOT
HETATM    1  C1  UNL     1     -34.967   6.200   6.591  1.00 20.00    -0.030 C 
HETATM    2  C2  UNL     1     -34.961   4.980   6.035  1.00 20.00    -0.026 C 
HETATM    3  C4  UNL     1     -34.289   7.391   5.984  1.00 20.00     0.027 C 
HETATM    4  C5  UNL     1     -33.368   7.040   4.812  1.00 20.00     0.018 C 
HETATM    5  C6  UNL     1     -34.288   4.666   4.720  1.00 20.00     0.016 C 
HETATM    6  C7  UNL     1     -33.993   5.959   3.927  1.00 20.00     0.080 C 
HETATM    7  C8  UNL     1     -33.049   3.805   4.996  1.00 20.00     0.015 C 
ENDROOT
BRANCH   6   8
HETATM    8  C3  UNL     1     -33.136   5.701   2.724  1.00 20.00     0.223 C 
HETATM    9  O9  UNL     1     -33.133   4.612   2.156  1.00 20.00    -0.279 OA
HETATM   10 CL10 UNL     1     -32.198   7.093   2.278  1.00 20.00    -0.043 Cl
ENDBRANCH   6   8
TORSDOF 1
