REMARK  2 active torsions:
REMARK  status: ('A' for Active; 'I' for Inactive)
REMARK    1  A    between atoms: C3_3  and  C5_5 
REMARK    2  A    between atoms: C3_3  and  O11_11 
ROOT
HETATM    1  C1  UNL     1     -33.339   3.791   2.797  1.00 20.00     0.013 C 
HETATM    2  C2  UNL     1     -33.464   4.832   3.384  1.00 20.00    -0.096 C 
HETATM    3  C4  UNL     1     -35.019   6.459   4.517  1.00 20.00     0.044 A 
HETATM    4  C5  UNL     1     -33.615   6.080   4.087  1.00 20.00     0.118 A 
HETATM    5  C6  UNL     1     -34.017   6.056   5.569  1.00 20.00    -0.018 A 
HETATM    6  C7  UNL     1     -33.501   7.136   6.491  1.00 20.00     0.017 C 
HETATM    7  C8  UNL     1     -34.229   4.734   6.268  1.00 20.00     0.017 C 
ENDROOT
BRANCH   4   8
HETATM    8  C3  UNL     1     -32.737   7.165   3.602  1.00 20.00     0.280 C 
HETATM    9  O10 UNL     1     -31.905   7.735   4.295  1.00 20.00    -0.263 OA
BRANCH   8  10
HETATM   10  O11 UNL     1     -33.004   7.416   2.289  1.00 20.00    -0.325 OA
HETATM   11  C9  UNL     1     -32.220   8.451   1.688  1.00 20.00     0.213 C 
ENDBRANCH   8  10
ENDBRANCH   4   8
TORSDOF 2
