REMARK  0 active torsions:
REMARK  status: ('A' for Active; 'I' for Inactive)
ROOT
HETATM    1  C1  UNL     1     -33.702   6.658   5.681  1.00 20.00    -0.056 A 
HETATM    2  C2  UNL     1     -33.325   5.976   3.497  1.00 20.00     0.087 A 
HETATM    3  C3  UNL     1     -34.085   6.746   6.960  1.00 20.00     0.017 C 
HETATM    4  C4  UNL     1     -32.914   7.740   4.959  1.00 20.00     0.158 A 
HETATM    5  C5  UNL     1     -32.155   7.594   2.415  1.00 20.00     0.144 A 
HETATM    6  C6  UNL     1     -32.445   6.396   1.469  1.00 20.00     0.141 A 
HETATM    7  C7  UNL     1     -33.973   5.490   4.719  1.00 20.00     0.035 A 
HETATM    8  C8  UNL     1     -35.472   5.286   4.483  1.00 20.00     0.028 C 
HETATM    9  C9  UNL     1     -33.308   4.197   5.196  1.00 20.00     0.028 C 
HETATM   10  N10 UNL     1     -32.777   7.154   3.644  1.00 20.00    -0.365 N 
HETATM   11  N11 UNL     1     -33.206   5.441   2.305  1.00 20.00    -0.377 N 
HETATM   12  H26 UNL     1     -33.593   4.532   2.081  1.00 20.00     0.160 HD
ENDROOT
TORSDOF 0
