REMARK  3 active torsions:
REMARK  status: ('A' for Active; 'I' for Inactive)
REMARK    1  A    between atoms: C1_1  and  C3_3 
REMARK    2  A    between atoms: C2_2  and  N8_8 
REMARK    3  A    between atoms: C4_4  and  C5_5 
ROOT
HETATM    1  C1  UNL     1     -32.851   7.352   3.937  1.00 20.00    -0.056 C 
HETATM    2  C2  UNL     1     -32.575   7.561   2.787  1.00 20.00     0.012 C 
ENDROOT
BRANCH   1   3
HETATM    3  C3  UNL     1     -33.172   7.106   5.299  1.00 20.00     0.069 C 
HETATM    4  C4  UNL     1     -34.364   6.615   5.653  1.00 20.00     0.050 C 
BRANCH   4   5
HETATM    5  C5  UNL     1     -35.358   6.325   4.602  1.00 20.00     0.259 C 
HETATM    6  O9  UNL     1     -35.136   5.523   3.703  1.00 20.00    -0.302 OA
ENDBRANCH   4   5
ENDBRANCH   1   3
BRANCH   2   7
HETATM    7  N8  UNL     1     -32.244   7.811   1.411  1.00 20.00    -0.350 N 
HETATM    8  C6  UNL     1     -32.712   9.051   0.810  1.00 20.00     0.159 C 
HETATM    9  C7  UNL     1     -32.057   6.665   0.533  1.00 20.00     0.159 C 
ENDBRANCH   2   7
TORSDOF 3
