REMARK  1 active torsions:
REMARK  status: ('A' for Active; 'I' for Inactive)
REMARK    1  A    between atoms: C1_1  and  C3_3 
ROOT
HETATM    1  C1  UNL     1     -33.839   5.675   3.665  1.00 20.00    -0.007 C 
HETATM    2  C2  UNL     1     -33.089   6.740   3.985  1.00 20.00    -0.016 C 
HETATM    3  C4  UNL     1     -34.892   5.288   4.661  1.00 20.00     0.058 C 
HETATM    4  C5  UNL     1     -34.554   5.971   5.991  1.00 20.00     0.052 C 
HETATM    5  C6  UNL     1     -31.983   7.382   3.214  1.00 20.00     0.056 C 
HETATM    6  C7  UNL     1     -33.759   5.067   6.928  1.00 20.00     0.022 C 
HETATM    7  S9  UNL     1     -33.535   7.422   5.533  1.00 20.00    -0.129 SA
ENDROOT
BRANCH   1   8
HETATM    8  C3  UNL     1     -33.702   4.897   2.436  1.00 20.00     0.266 C 
HETATM    9  O8  UNL     1     -32.870   5.161   1.574  1.00 20.00    -0.302 OA
ENDBRANCH   1   8
TORSDOF 1
