REMARK  1 active torsions:
REMARK  status: ('A' for Active; 'I' for Inactive)
REMARK    1  A    between atoms: C1_1  and  C6_6 
ROOT
HETATM    1  C1  UNL     1     -32.826   7.798   2.446  1.00 20.00    -0.100 C 
HETATM    2  C2  UNL     1     -32.740   8.565   1.526  1.00 20.00    -0.111 C 
HETATM    3  C7  UNL     1     -32.636   9.499   0.407  1.00 20.00     0.112 C 
ENDROOT
BRANCH   1   4
HETATM    4  C6  UNL     1     -32.931   6.862   3.567  1.00 20.00     0.090 C 
HETATM    5  C4  UNL     1     -33.777   7.400   4.703  1.00 20.00     0.072 C 
HETATM    6  C3  UNL     1     -34.310   6.109   5.240  1.00 20.00     0.004 C 
HETATM    7  C8  UNL     1     -34.902   6.042   6.610  1.00 20.00     0.065 C 
HETATM    8  N9  UNL     1     -34.264   5.079   4.451  1.00 20.00    -0.297 NA
HETATM    9  C5  UNL     1     -33.661   5.577   3.197  1.00 20.00     0.166 C 
ENDBRANCH   1   4
TORSDOF 1
