REMARK  2 active torsions:
REMARK  status: ('A' for Active; 'I' for Inactive)
REMARK    1  A    between atoms: C1_1  and  C3_3 
REMARK    2  A    between atoms: C2_2  and  C7_7 
ROOT
HETATM    1  C4  UNL     1     -34.240   4.738   6.222  1.00 20.00     0.002 C 
HETATM    2  C5  UNL     1     -35.153   5.938   5.918  1.00 20.00     0.013 C 
HETATM    3  C6  UNL     1     -33.064   5.723   6.336  1.00 20.00     0.013 C 
HETATM    4  C7  UNL     1     -33.887   6.747   5.491  1.00 20.00    -0.026 C 
HETATM    5  C9  UNL     1     -33.838   8.215   5.998  1.00 20.00     0.019 C 
ENDROOT
BRANCH   4   6
HETATM    6  C2  UNL     1     -33.594   6.675   3.991  1.00 20.00    -0.014 C 
HETATM    7  C1  UNL     1     -32.558   7.295   3.412  1.00 20.00     0.046 C 
BRANCH   7   8
HETATM    8  C3  UNL     1     -32.329   7.184   1.945  1.00 20.00     0.145 C 
HETATM    9  C8  UNL     1     -31.664   8.355   1.270  1.00 20.00     0.096 C 
HETATM   10  O10 UNL     1     -32.673   6.195   1.302  1.00 20.00    -0.294 OA
ENDBRANCH   7   8
ENDBRANCH   4   6
TORSDOF 2
