REMARK  1 active torsions:
REMARK  status: ('A' for Active; 'I' for Inactive)
REMARK    1  A    between atoms: C3_3  and  C7_7 
ROOT
HETATM    1  C1  UNL     1     -31.881   7.493   3.965  1.00 20.00    -0.020 C 
HETATM    2  C2  UNL     1     -32.418   7.825   5.152  1.00 20.00    -0.086 C 
HETATM    3  C4  UNL     1     -33.856   7.527   5.499  1.00 20.00     0.045 C 
HETATM    4  C5  UNL     1     -34.169   6.867   3.070  1.00 20.00     0.020 C 
HETATM    5  C6  UNL     1     -32.645   6.825   2.852  1.00 20.00     0.005 C 
HETATM    6  C7  UNL     1     -34.565   6.584   4.518  1.00 20.00     0.059 C 
HETATM    7  C8  UNL     1     -31.615   8.512   6.217  1.00 20.00     0.043 C 
HETATM    8  C10 UNL     1     -32.295   7.453   1.501  1.00 20.00     0.014 C 
ENDROOT
BRANCH   6   9
HETATM    9  C3  UNL     1     -34.294   5.146   4.860  1.00 20.00     0.127 C 
HETATM   10  C9  UNL     1     -34.686   4.694   6.241  1.00 20.00     0.091 C 
HETATM   11  O11 UNL     1     -33.780   4.377   4.050  1.00 20.00    -0.298 OA
ENDBRANCH   6   9
TORSDOF 1
