REMARK  0 active torsions:
REMARK  status: ('A' for Active; 'I' for Inactive)
ROOT
HETATM    1  C1  UNL     1     -33.106   4.708   2.540  1.00 20.00     0.015 C 
HETATM    2  C2  UNL     1     -33.590   5.340   3.439  1.00 20.00    -0.073 C 
HETATM    3  C3  UNL     1     -33.949   5.439   5.891  1.00 20.00     0.225 C 
HETATM    4  C4  UNL     1     -33.881   7.713   6.174  1.00 20.00     0.442 C 
HETATM    5  C5  UNL     1     -34.186   6.115   4.542  1.00 20.00     0.240 C 
HETATM    6  C6  UNL     1     -35.694   6.264   4.259  1.00 20.00     0.066 C 
HETATM    7  C7  UNL     1     -32.160   7.545   4.509  1.00 20.00     0.315 C 
HETATM    8  N8  UNL     1     -33.605   7.464   4.750  1.00 20.00     0.130 N 
HETATM    9  O9  UNL     1     -34.045   6.475   6.876  1.00 20.00    -0.359 OA
ENDROOT
TORSDOF 0
