REMARK  3 active torsions:
REMARK  status: ('A' for Active; 'I' for Inactive)
REMARK    1  A    between atoms: C2_2  and  C6_6 
REMARK    2  A    between atoms: C3_3  and  C5_5 
REMARK    3  A    between atoms: C3_3  and  O10_10 
ROOT
HETATM    1  C4  UNL     1     -35.691   5.828   4.595  1.00 20.00     0.033 A 
HETATM    2  C5  UNL     1     -34.435   5.052   4.309  1.00 20.00     0.101 A 
HETATM    3  C6  UNL     1     -34.727   5.530   5.721  1.00 20.00     0.023 A 
HETATM    4  C7  UNL     1     -35.134   4.497   6.738  1.00 20.00     0.023 C 
ENDROOT
BRANCH   2   5
HETATM    5  C3  UNL     1     -33.378   5.670   3.496  1.00 20.00     0.263 C 
HETATM    6  O9  UNL     1     -32.702   5.064   2.675  1.00 20.00    -0.265 OA
BRANCH   5   7
HETATM    7  O10 UNL     1     -33.281   6.994   3.805  1.00 20.00    -0.326 OA
HETATM    8  C8  UNL     1     -32.284   7.723   3.082  1.00 20.00     0.213 C 
ENDBRANCH   5   7
ENDBRANCH   2   5
BRANCH   3   9
HETATM    9  C2  UNL     1     -33.962   6.664   6.253  1.00 20.00     0.093 C 
HETATM   10  C1  UNL     1     -32.737   6.597   6.787  1.00 20.00     0.052 C 
HETATM   11  F11 UNL     1     -34.547   7.884   6.197  1.00 20.00    -0.211 F 
ENDBRANCH   3   9
TORSDOF 3
