REMARK  1 active torsions:
REMARK  status: ('A' for Active; 'I' for Inactive)
REMARK    1  A    between atoms: C1_1  and  C3_3 
ROOT
HETATM    1  C2  UNL     1     -34.834   4.905   6.527  1.00 20.00     0.090 C 
HETATM    2  C3  UNL     1     -34.345   5.231   3.891  1.00 20.00     0.195 C 
HETATM    3  C4  UNL     1     -34.901   6.409   6.291  1.00 20.00     0.054 C 
HETATM    4  C5  UNL     1     -33.630   7.150   6.699  1.00 20.00     0.022 C 
HETATM    5  S7  UNL     1     -33.821   4.141   5.232  1.00 20.00    -0.143 SA
HETATM    6  S8  UNL     1     -35.256   6.661   4.522  1.00 20.00    -0.139 SA
ENDROOT
BRANCH   2   7
HETATM    7  C1  UNL     1     -33.135   5.713   3.169  1.00 20.00     0.242 C 
HETATM    8  O6  UNL     1     -32.869   6.908   3.081  1.00 20.00    -0.278 OA
HETATM    9 CL9  UNL     1     -32.206   4.404   2.505  1.00 20.00    -0.042 Cl
ENDBRANCH   2   7
TORSDOF 1
