REMARK  0 active torsions:
REMARK  status: ('A' for Active; 'I' for Inactive)
ROOT
HETATM    1  C1  UNL     1     -34.087   7.146   5.049  1.00 20.00     0.251 C 
HETATM    2  C2  UNL     1     -32.973   6.768   4.095  1.00 20.00     0.251 C 
HETATM    3  C3  UNL     1     -34.711   5.842   5.501  1.00 20.00     0.271 C 
HETATM    4  C4  UNL     1     -33.590   5.839   3.069  1.00 20.00     0.271 C 
HETATM    5  F5  UNL     1     -33.579   7.808   6.117  1.00 20.00    -0.242 F 
HETATM    6  F6  UNL     1     -32.510   7.884   3.474  1.00 20.00    -0.242 F 
HETATM    7  F7  UNL     1     -33.870   5.225   6.373  1.00 20.00    -0.235 F 
HETATM    8  F8  UNL     1     -32.626   5.056   2.525  1.00 20.00    -0.235 F 
HETATM    9  S9  UNL     1     -34.803   4.852   3.982  1.00 20.00    -0.089 SA
ENDROOT
TORSDOF 0
