REMARK  2 active torsions:
REMARK  status: ('A' for Active; 'I' for Inactive)
REMARK    1  A    between atoms: C3_3  and  C6_6 
REMARK    2  A    between atoms: C3_3  and  O10_10 
ROOT
HETATM    1  C1  UNL     1     -35.332   6.187   5.528  1.00 20.00    -0.023 C 
HETATM    2  C2  UNL     1     -34.293   5.801   6.276  1.00 20.00    -0.087 C 
HETATM    3  C4  UNL     1     -35.460   5.374   4.282  1.00 20.00     0.042 C 
HETATM    4  C5  UNL     1     -33.548   4.663   5.650  1.00 20.00     0.048 C 
HETATM    5  C6  UNL     1     -34.150   4.582   4.242  1.00 20.00     0.093 C 
HETATM    6  C7  UNL     1     -33.882   6.360   7.589  1.00 20.00     0.043 C 
ENDROOT
BRANCH   5   7
HETATM    7  C3  UNL     1     -33.215   5.181   3.230  1.00 20.00     0.263 C 
HETATM    8  O9  UNL     1     -32.765   4.573   2.269  1.00 20.00    -0.265 OA
BRANCH   7   9
HETATM    9  O10 UNL     1     -32.962   6.480   3.557  1.00 20.00    -0.326 OA
HETATM   10  C8  UNL     1     -32.079   7.176   2.671  1.00 20.00     0.213 C 
ENDBRANCH   7   9
ENDBRANCH   5   7
TORSDOF 2
