REMARK  2 active torsions:
REMARK  status: ('A' for Active; 'I' for Inactive)
REMARK    1  A    between atoms: C7_7  and  O10_10 
REMARK    2  A    between atoms: C9_9  and  O10_10 
ROOT
HETATM    1  C1  UNL     1     -33.462   3.841   3.706  1.00 20.00     0.015 C 
HETATM    2  C2  UNL     1     -33.668   4.995   3.965  1.00 20.00    -0.079 C 
HETATM    3  C3  UNL     1     -35.109   6.282   6.390  1.00 20.00     0.004 C 
HETATM    4  C4  UNL     1     -33.621   6.477   6.686  1.00 20.00     0.004 C 
HETATM    5  C5  UNL     1     -35.296   6.622   4.913  1.00 20.00     0.051 C 
HETATM    6  C6  UNL     1     -32.982   6.923   5.372  1.00 20.00     0.051 C 
HETATM    7  C7  UNL     1     -33.921   6.409   4.283  1.00 20.00     0.122 C 
ENDROOT
BRANCH   7   8
HETATM    8  O10 UNL     1     -33.776   7.195   3.110  1.00 20.00    -0.368 OA
BRANCH   8   9
HETATM    9  C9  UNL     1     -32.467   7.087   2.565  1.00 20.00     0.165 C 
HETATM   10  C8  UNL     1     -32.379   7.946   1.321  1.00 20.00     0.033 C 
ENDBRANCH   8   9
ENDBRANCH   7   8
TORSDOF 2
