REMARK  2 active torsions:
REMARK  status: ('A' for Active; 'I' for Inactive)
REMARK    1  A    between atoms: C1_1  and  C5_5 
REMARK    2  A    between atoms: C6_6  and  C9_9 
ROOT
HETATM    1  C2  UNL     1     -32.950   5.558   2.295  1.00 20.00     0.012 C 
HETATM    2  C3  UNL     1     -33.988   5.498   3.407  1.00 20.00     0.006 C 
HETATM    3  C4  UNL     1     -32.757   7.528   3.745  1.00 20.00     0.016 C 
HETATM    4  C5  UNL     1     -32.386   6.980   2.361  1.00 20.00     0.047 C 
HETATM    5  C6  UNL     1     -33.355   6.342   4.508  1.00 20.00    -0.010 C 
ENDROOT
BRANCH   5   6
HETATM    6  C9  UNL     1     -34.342   6.758   5.585  1.00 20.00    -0.019 C 
HETATM    7  C7  UNL     1     -34.982   5.533   6.241  1.00 20.00     0.010 C 
HETATM    8  C8  UNL     1     -33.660   7.630   6.641  1.00 20.00     0.010 C 
ENDBRANCH   5   6
BRANCH   4   9
HETATM    9  C1  UNL     1     -32.985   7.835   1.288  1.00 20.00     0.235 C 
HETATM   10  O10 UNL     1     -32.321   8.402   0.426  1.00 20.00    -0.306 OA
ENDBRANCH   4   9
TORSDOF 2
