REMARK  1 active torsions:
REMARK  status: ('A' for Active; 'I' for Inactive)
REMARK    1  A    between atoms: C1_1  and  C3_3 
ROOT
HETATM    1  C2  UNL     1     -33.051   7.279   5.510  1.00 20.00     0.080 C 
HETATM    2  C3  UNL     1     -33.667   7.109   4.103  1.00 20.00     0.310 C 
HETATM    3  C4  UNL     1     -34.246   6.424   5.992  1.00 20.00     0.222 C 
HETATM    4  C5  UNL     1     -33.938   5.358   7.025  1.00 20.00     0.043 C 
HETATM    5  C6  UNL     1     -35.702   5.788   4.160  1.00 20.00     0.311 C 
HETATM    6  N7  UNL     1     -34.317   5.868   4.613  1.00 20.00     0.101 N 
ENDROOT
BRANCH   2   7
HETATM    7  C1  UNL     1     -32.741   6.789   2.927  1.00 20.00     0.252 C 
HETATM    8  O8  UNL     1     -32.722   5.679   2.403  1.00 20.00    -0.277 OA
HETATM    9 CL9  UNL     1     -31.772   8.157   2.468  1.00 20.00    -0.042 Cl
ENDBRANCH   2   7
TORSDOF 1
