REMARK  1 active torsions:
REMARK  status: ('A' for Active; 'I' for Inactive)
REMARK    1  A    between atoms: C3_3  and  C7_7 
ROOT
HETATM    1  C1  UNL     1     -33.093   6.770   6.802  1.00 20.00    -0.030 C 
HETATM    2  C2  UNL     1     -34.219   6.057   6.900  1.00 20.00    -0.026 C 
HETATM    3  C4  UNL     1     -32.888   7.385   5.451  1.00 20.00     0.033 C 
HETATM    4  C5  UNL     1     -34.582   4.950   4.624  1.00 20.00     0.021 C 
HETATM    5  C6  UNL     1     -34.945   6.075   5.617  1.00 20.00     0.013 C 
HETATM    6  C7  UNL     1     -34.272   6.024   3.557  1.00 20.00     0.060 C 
HETATM    7  C8  UNL     1     -34.193   7.077   4.700  1.00 20.00     0.008 C 
ENDROOT
BRANCH   6   8
HETATM    8  C3  UNL     1     -33.046   5.826   2.664  1.00 20.00     0.127 C 
HETATM    9  C9  UNL     1     -32.749   4.417   2.226  1.00 20.00     0.091 C 
HETATM   10  O10 UNL     1     -32.340   6.771   2.318  1.00 20.00    -0.298 OA
ENDBRANCH   6   8
TORSDOF 1
