REMARK  2 active torsions:
REMARK  status: ('A' for Active; 'I' for Inactive)
REMARK    1  A    between atoms: C2_2  and  C7_7 
REMARK    2  A    between atoms: C6_6  and  C7_7 
ROOT
HETATM    1  C1  UNL     1     -32.214   7.485   2.692  1.00 20.00     0.064 C 
HETATM    2  C4  UNL     1     -32.929   5.154   2.365  1.00 20.00     0.026 C 
HETATM    3  C6  UNL     1     -32.713   6.277   3.382  1.00 20.00     0.099 C 
HETATM    4  N8  UNL     1     -31.821   8.434   2.151  1.00 20.00    -0.197 NA
ENDROOT
BRANCH   3   5
HETATM    5  C7  UNL     1     -33.968   6.610   4.223  1.00 20.00     0.068 C 
HETATM    6  C5  UNL     1     -33.907   7.967   4.931  1.00 20.00     0.019 C 
BRANCH   5   7
HETATM    7  C2  UNL     1     -34.249   5.497   5.235  1.00 20.00     0.128 C 
HETATM    8  C3  UNL     1     -34.289   5.891   6.690  1.00 20.00     0.091 C 
HETATM    9  O9  UNL     1     -34.413   4.324   4.897  1.00 20.00    -0.298 OA
ENDBRANCH   5   7
ENDBRANCH   3   5
TORSDOF 2
