REMARK  1 active torsions:
REMARK  status: ('A' for Active; 'I' for Inactive)
REMARK    1  A    between atoms: C3_3  and  C8_8 
ROOT
HETATM    1  C1  UNL     1     -34.768   6.946   6.853  1.00 20.00    -0.025 C 
HETATM    2  C2  UNL     1     -34.021   7.904   6.284  1.00 20.00    -0.024 C 
HETATM    3  C4  UNL     1     -32.754   5.984   6.301  1.00 20.00     0.018 C 
HETATM    4  C5  UNL     1     -34.237   5.615   6.370  1.00 20.00     0.013 C 
HETATM    5  C6  UNL     1     -32.999   7.213   5.410  1.00 20.00     0.024 C 
HETATM    6  C7  UNL     1     -34.617   5.469   4.866  1.00 20.00     0.005 C 
HETATM    7  C8  UNL     1     -33.707   6.562   4.179  1.00 20.00     0.027 C 
HETATM    8  C10 UNL     1     -34.420   4.038   4.372  1.00 20.00     0.012 C 
HETATM    9  C11 UNL     1     -34.527   7.555   3.346  1.00 20.00     0.024 C 
ENDROOT
BRANCH   7  10
HETATM   10  C3  UNL     1     -32.665   5.983   3.250  1.00 20.00     0.132 C 
HETATM   11  C9  UNL     1     -31.655   6.944   2.683  1.00 20.00     0.091 C 
HETATM   12  O12 UNL     1     -32.642   4.785   2.972  1.00 20.00    -0.298 OA
ENDBRANCH   7  10
TORSDOF 1
