REMARK  1 active torsions:
REMARK  status: ('A' for Active; 'I' for Inactive)
REMARK    1  A    between atoms: C5_5  and  C8_8 
ROOT
HETATM    1  C1  UNL     1     -34.799   6.082   6.590  1.00 20.00    -0.004 C 
HETATM    2  C2  UNL     1     -34.965   5.265   5.388  1.00 20.00    -0.004 C 
HETATM    3  C3  UNL     1     -34.013   7.160   6.804  1.00 20.00    -0.026 C 
HETATM    4  C4  UNL     1     -34.077   5.157   4.379  1.00 20.00    -0.021 C 
HETATM    5  C6  UNL     1     -33.053   7.857   5.849  1.00 20.00     0.033 C 
HETATM    6  C7  UNL     1     -32.818   5.896   4.369  1.00 20.00     0.026 A 
HETATM    7  C8  UNL     1     -32.200   6.873   3.428  1.00 20.00     0.085 A 
HETATM    8  C9  UNL     1     -33.180   7.382   4.443  1.00 20.00     0.011 A 
ENDROOT
BRANCH   7   9
HETATM    9  C5  UNL     1     -32.570   6.838   2.008  1.00 20.00     0.224 C 
HETATM   10  O10 UNL     1     -32.464   7.827   1.290  1.00 20.00    -0.279 OA
HETATM   11 CL11 UNL     1     -33.148   5.273   1.521  1.00 20.00    -0.043 Cl
ENDBRANCH   7   9
TORSDOF 1
