REMARK  0 active torsions:
REMARK  status: ('A' for Active; 'I' for Inactive)
ROOT
HETATM    1  C1  UNL     1     -32.654   4.396   2.085  1.00 20.00     0.015 C 
HETATM    2  C2  UNL     1     -33.196   4.853   3.053  1.00 20.00    -0.076 C 
HETATM    3  C3  UNL     1     -34.323   4.877   6.635  1.00 20.00     0.004 C 
HETATM    4  C4  UNL     1     -34.804   6.313   6.799  1.00 20.00     0.003 C 
HETATM    5  C5  UNL     1     -34.442   4.417   5.184  1.00 20.00     0.055 C 
HETATM    6  C6  UNL     1     -33.902   7.280   6.035  1.00 20.00     0.042 C 
HETATM    7  C7  UNL     1     -33.844   5.399   4.211  1.00 20.00     0.154 A 
HETATM    8  C8  UNL     1     -33.613   6.854   4.620  1.00 20.00     0.102 A 
HETATM    9  C9  UNL     1     -32.675   7.740   3.854  1.00 20.00     0.050 C 
HETATM   10  O10 UNL     1     -34.763   6.460   3.869  1.00 20.00    -0.350 OA
ENDROOT
TORSDOF 0
