REMARK  3 active torsions:
REMARK  status: ('A' for Active; 'I' for Inactive)
REMARK    1  A    between atoms: C1_1  and  C5_5 
REMARK    2  A    between atoms: C6_6  and  C8_8 
REMARK    3  A    between atoms: C8_8  and  C9_9 
ROOT
HETATM    1  C2  UNL     1     -34.018   7.943   3.566  1.00 20.00     0.030 C 
HETATM    2  C3  UNL     1     -32.886   6.186   3.177  1.00 20.00     0.030 C 
HETATM    3  C4  UNL     1     -32.189   7.607   4.597  1.00 20.00     0.030 C 
HETATM    4  C5  UNL     1     -33.499   6.792   4.463  1.00 20.00     0.050 C 
HETATM    5  C6  UNL     1     -32.535   7.725   3.056  1.00 20.00    -0.037 C 
ENDROOT
BRANCH   4   6
HETATM    6  C1  UNL     1     -34.210   6.100   5.505  1.00 20.00     0.181 C 
HETATM    7  O10 UNL     1     -34.101   6.603   6.658  1.00 20.00    -0.647 OA
HETATM    8  O11 UNL     1     -34.849   5.079   5.123  1.00 20.00    -0.647 OA
ENDBRANCH   4   6
BRANCH   5   9
HETATM    9  C8  UNL     1     -31.801   8.436   1.988  1.00 20.00     0.009 C 
BRANCH   9  10
HETATM   10  C9  UNL     1     -32.456   8.276   0.600  1.00 20.00    -0.004 C 
HETATM   11  C7  UNL     1     -31.722   9.038  -0.493  1.00 20.00     0.005 C 
ENDBRANCH   9  10
ENDBRANCH   5   9
TORSDOF 3
