REMARK  2 active torsions:
REMARK  status: ('A' for Active; 'I' for Inactive)
REMARK    1  A    between atoms: C1_1  and  C5_5 
REMARK    2  A    between atoms: C3_3  and  C6_6 
ROOT
HETATM    1  C1  UNL     1     -33.821   5.685   4.740  1.00 20.00    -0.053 C 
HETATM    2  C2  UNL     1     -34.095   5.567   5.903  1.00 20.00     0.106 C 
HETATM    3  F9  UNL     1     -34.401   5.435   7.199  1.00 20.00    -0.144 F 
ENDROOT
BRANCH   1   4
HETATM    4  C5  UNL     1     -33.498   5.824   3.370  1.00 20.00     0.114 A 
HETATM    5  C6  UNL     1     -32.365   6.611   2.997  1.00 20.00     0.108 A 
HETATM    6  C7  UNL     1     -32.472   5.195   2.800  1.00 20.00     0.186 A 
HETATM    7  F10 UNL     1     -32.531   4.754   1.526  1.00 20.00    -0.235 F 
BRANCH   5   8
HETATM    8  C3  UNL     1     -32.382   7.471   2.027  1.00 20.00    -0.080 C 
HETATM    9  C4  UNL     1     -32.398   8.268   1.129  1.00 20.00     0.272 C 
HETATM   10  O8  UNL     1     -32.414   9.048   0.250  1.00 20.00    -0.274 OA
ENDBRANCH   5   8
ENDBRANCH   1   4
TORSDOF 2
