REMARK  3 active torsions:
REMARK  status: ('A' for Active; 'I' for Inactive)
REMARK    1  A    between atoms: C1_1  and  C7_7 
REMARK    2  A    between atoms: C1_1  and  N8_8 
REMARK    3  A    between atoms: C6_6  and  N8_8 
ROOT
HETATM    1  C1  UNL     1     -33.262   6.307   3.369  1.00 20.00     0.078 C 
HETATM    2  S9  UNL     1     -33.045   4.830   2.558  1.00 20.00    -0.065 SA
ENDROOT
BRANCH   1   3
HETATM    3  C7  UNL     1     -32.373   7.521   2.984  1.00 20.00     0.039 C 
HETATM    4  C3  UNL     1     -31.095   7.544   3.826  1.00 20.00     0.017 C 
HETATM    5  C4  UNL     1     -32.033   7.608   1.492  1.00 20.00     0.017 C 
ENDBRANCH   1   3
BRANCH   1   6
HETATM    6  N8  UNL     1     -34.180   6.499   4.418  1.00 20.00    -0.380 N 
HETATM    7  C5  UNL     1     -35.456   5.791   4.510  1.00 20.00     0.150 C 
BRANCH   6   8
HETATM    8  C6  UNL     1     -33.948   7.442   5.516  1.00 20.00     0.118 C 
HETATM    9  C2  UNL     1     -33.264   6.777   6.661  1.00 20.00     0.026 C 
ENDBRANCH   6   8
ENDBRANCH   1   6
TORSDOF 3
