REMARK  5 active torsions:
REMARK  status: ('A' for Active; 'I' for Inactive)
REMARK    1  A    between atoms: C1_1  and  C5_5 
REMARK    2  A    between atoms: C5_5  and  C8_8 
REMARK    3  A    between atoms: C6_6  and  N9_9 
REMARK    4  A    between atoms: C7_7  and  N9_9 
REMARK    5  A    between atoms: C8_8  and  N9_9 
ROOT
HETATM    1  C1  UNL     1     -32.530   7.799   1.179  1.00 20.00    -0.092 C 
HETATM    2  C2  UNL     1     -32.593   8.028   0.002  1.00 20.00    -0.022 C 
HETATM    3  S10 UNL     1     -32.688   8.369  -1.752  1.00 20.00     0.008 SA
ENDROOT
BRANCH   1   4
HETATM    4  C5  UNL     1     -32.454   7.521   2.621  1.00 20.00     0.122 C 
BRANCH   4   5
HETATM    5  C8  UNL     1     -33.509   6.521   3.073  1.00 20.00     0.246 C 
BRANCH   5   6
HETATM    6  N9  UNL     1     -33.349   6.225   4.537  1.00 20.00    -0.071 N 
HETATM    7  H25 UNL     1     -32.406   5.832   4.660  1.00 20.00     0.279 HD
BRANCH   6   8
HETATM    8  C6  UNL     1     -33.414   7.471   5.373  1.00 20.00     0.230 C 
HETATM    9  C3  UNL     1     -33.164   7.113   6.821  1.00 20.00     0.034 C 
ENDBRANCH   6   8
BRANCH   6  10
HETATM   10  C7  UNL     1     -34.320   5.181   5.008  1.00 20.00     0.230 C 
HETATM   11  C4  UNL     1     -34.146   3.927   4.179  1.00 20.00     0.034 C 
ENDBRANCH   6  10
ENDBRANCH   5   6
ENDBRANCH   4   5
ENDBRANCH   1   4
TORSDOF 5
