REMARK  2 active torsions:
REMARK  status: ('A' for Active; 'I' for Inactive)
REMARK    1  A    between atoms: C3_3  and  C4_4 
REMARK    2  A    between atoms: C5_5  and  C7_7 
ROOT
HETATM    1  C1  UNL     1     -34.102   4.517   3.855  1.00 20.00    -0.007 C 
HETATM    2  C2  UNL     1     -33.098   4.648   2.985  1.00 20.00     0.042 C 
HETATM    3  C4  UNL     1     -34.707   5.803   4.331  1.00 20.00     0.084 C 
HETATM    4  C5  UNL     1     -33.758   6.958   3.951  1.00 20.00     0.065 C 
HETATM    5  S9  UNL     1     -32.709   6.285   2.595  1.00 20.00    -0.136 SA
ENDROOT
BRANCH   3   6
HETATM    6  C3  UNL     1     -34.978   5.674   5.799  1.00 20.00     0.240 C 
HETATM    7  O8  UNL     1     -34.101   5.481   6.634  1.00 20.00    -0.306 OA
ENDBRANCH   3   6
BRANCH   4   8
HETATM    8  C7  UNL     1     -32.839   7.472   5.056  1.00 20.00     0.012 C 
HETATM    9  C6  UNL     1     -31.861   8.483   4.545  1.00 20.00     0.006 C 
ENDBRANCH   4   8
TORSDOF 2
