REMARK  1 active torsions:
REMARK  status: ('A' for Active; 'I' for Inactive)
REMARK    1  A    between atoms: C1_1  and  C7_7 
ROOT
HETATM    1  C2  UNL     1     -34.314   4.274   5.272  1.00 20.00     0.001 C 
HETATM    2  C3  UNL     1     -33.282   8.180   5.477  1.00 20.00     0.014 C 
HETATM    3  C4  UNL     1     -34.481   4.868   6.664  1.00 20.00     0.005 C 
HETATM    4  C5  UNL     1     -35.194   5.162   4.402  1.00 20.00     0.006 C 
HETATM    5  C6  UNL     1     -33.196   7.083   6.529  1.00 20.00     0.006 C 
HETATM    6  C7  UNL     1     -33.997   7.505   4.310  1.00 20.00     0.076 C 
HETATM    7  C8  UNL     1     -34.546   6.375   6.433  1.00 20.00    -0.010 C 
HETATM    8  C9  UNL     1     -35.022   6.570   4.975  1.00 20.00     0.002 C 
ENDROOT
BRANCH   6   9
HETATM    9  C1  UNL     1     -33.005   6.820   3.416  1.00 20.00     0.223 C 
HETATM   10  O10 UNL     1     -32.675   5.651   3.594  1.00 20.00    -0.279 OA
HETATM   11 CL11 UNL     1     -32.423   7.869   2.158  1.00 20.00    -0.043 Cl
ENDBRANCH   6   9
TORSDOF 1
