REMARK  3 active torsions:
REMARK  status: ('A' for Active; 'I' for Inactive)
REMARK    1  A    between atoms: C1_1  and  C2_2 
REMARK    2  A    between atoms: C1_1  and  O10_10 
REMARK    3  A    between atoms: C7_7  and  O10_10 
ROOT
HETATM    1  C1  UNL     1     -33.297   5.492   3.348  1.00 20.00     0.291 C 
HETATM    2  O8  UNL     1     -32.620   4.712   2.692  1.00 20.00    -0.262 OA
ENDROOT
BRANCH   1   3
HETATM    3  C2  UNL     1     -34.495   5.110   4.092  1.00 20.00     0.250 A 
HETATM    4  C3  UNL     1     -34.561   5.203   5.595  1.00 20.00     0.157 A 
HETATM    5  C4  UNL     1     -33.431   5.707   6.422  1.00 20.00     0.042 C 
HETATM    6  O9  UNL     1     -34.307   3.961   4.935  1.00 20.00    -0.365 OA
ENDBRANCH   1   3
BRANCH   1   7
HETATM    7  O10 UNL     1     -33.068   6.827   3.506  1.00 20.00    -0.315 OA
BRANCH   7   8
HETATM    8  C7  UNL     1     -31.917   7.339   2.826  1.00 20.00     0.123 C 
HETATM    9  C5  UNL     1     -32.313   7.762   1.420  1.00 20.00     0.040 C 
HETATM   10  C6  UNL     1     -31.338   8.497   3.624  1.00 20.00     0.040 C 
ENDBRANCH   7   8
ENDBRANCH   1   7
TORSDOF 3
