REMARK  2 active torsions:
REMARK  status: ('A' for Active; 'I' for Inactive)
REMARK    1  A    between atoms: C1_1  and  C5_5 
REMARK    2  A    between atoms: C5_5  and  C6_6 
ROOT
HETATM    1  C2  UNL     1     -34.437   7.293   6.992  1.00 20.00     0.003 C 
HETATM    2  C3  UNL     1     -33.055   7.040   6.365  1.00 20.00     0.026 C 
HETATM    3  C4  UNL     1     -34.951   7.665   5.590  1.00 20.00     0.026 C 
HETATM    4  C5  UNL     1     -33.755   6.867   4.980  1.00 20.00     0.110 C 
ENDROOT
BRANCH   4   5
HETATM    5  C1  UNL     1     -33.039   7.558   3.785  1.00 20.00     0.249 C 
HETATM    6  O7  UNL     1     -31.894   7.290   3.437  1.00 20.00    -0.306 OA
ENDBRANCH   4   5
BRANCH   4   7
HETATM    7  C6  UNL     1     -34.098   5.413   4.647  1.00 20.00     0.401 C 
HETATM    8  F8  UNL     1     -32.977   4.733   4.372  1.00 20.00    -0.170 F 
HETATM    9  F9  UNL     1     -34.713   4.841   5.691  1.00 20.00    -0.170 F 
HETATM   10  F10 UNL     1     -34.909   5.369   3.582  1.00 20.00    -0.170 F 
ENDBRANCH   4   7
TORSDOF 2
