REMARK  1 active torsions:
REMARK  status: ('A' for Active; 'I' for Inactive)
REMARK    1  A    between atoms: C1_1  and  N7_7 
ROOT
HETATM    1  C2  UNL     1     -33.246   7.042   5.106  1.00 20.00     0.159 C 
HETATM    2  C3  UNL     1     -33.884   5.769   5.624  1.00 20.00     0.138 C 
HETATM    3  C4  UNL     1     -33.978   5.669   3.317  1.00 20.00     0.221 C 
HETATM    4  C5  UNL     1     -34.776   5.982   6.831  1.00 20.00     0.041 C 
HETATM    5  C6  UNL     1     -33.173   4.486   2.798  1.00 20.00     0.063 C 
HETATM    6  N7  UNL     1     -33.147   6.792   3.692  1.00 20.00    -0.330 N 
HETATM    7  O9  UNL     1     -34.673   5.285   4.517  1.00 20.00    -0.360 OA
ENDROOT
BRANCH   6   8
HETATM    8  C1  UNL     1     -32.479   7.609   2.812  1.00 20.00     0.352 C 
HETATM    9  O8  UNL     1     -32.358   7.452   1.602  1.00 20.00    -0.283 OA
ENDBRANCH   6   8
TORSDOF 1
