REMARK  1 active torsions:
REMARK  status: ('A' for Active; 'I' for Inactive)
REMARK    1  A    between atoms: C6_6  and  N7_7 
ROOT
HETATM    1  C1  UNL     1     -33.718   5.534   3.946  1.00 20.00     0.284 C 
HETATM    2  C2  UNL     1     -34.901   4.682   4.384  1.00 20.00     0.106 C 
HETATM    3  C3  UNL     1     -33.896   6.362   6.157  1.00 20.00     0.280 C 
HETATM    4  C4  UNL     1     -34.592   7.438   6.981  1.00 20.00     0.055 C 
HETATM    5  N7  UNL     1     -33.760   6.764   4.749  1.00 20.00     0.102 N 
HETATM    6  S8  UNL     1     -34.898   4.832   6.183  1.00 20.00    -0.132 SA
ENDROOT
BRANCH   5   7
HETATM    7  C6  UNL     1     -32.579   7.588   4.512  1.00 20.00     0.269 C 
HETATM    8  C5  UNL     1     -32.478   7.985   3.079  1.00 20.00     0.037 C 
ENDBRANCH   5   7
TORSDOF 1
