REMARK  1 active torsions:
REMARK  status: ('A' for Active; 'I' for Inactive)
REMARK    1  A    between atoms: C3_3  and  C9_9 
ROOT
HETATM    1  C1  UNL     1     -33.850   5.409   6.747  1.00 20.00    -0.030 C 
HETATM    2  C2  UNL     1     -34.308   6.666   6.643  1.00 20.00    -0.026 C 
HETATM    3  C4  UNL     1     -34.042   4.385   5.661  1.00 20.00     0.031 C 
HETATM    4  C5  UNL     1     -34.192   7.999   4.524  1.00 20.00     0.022 C 
HETATM    5  C6  UNL     1     -35.685   5.977   4.667  1.00 20.00     0.013 C 
HETATM    6  C7  UNL     1     -33.379   5.740   3.609  1.00 20.00     0.018 C 
HETATM    7  C8  UNL     1     -35.095   7.159   5.447  1.00 20.00     0.009 C 
HETATM    8  C9  UNL     1     -33.660   7.218   3.310  1.00 20.00     0.073 C 
HETATM    9  C10 UNL     1     -34.537   5.014   4.338  1.00 20.00    -0.010 C 
ENDROOT
BRANCH   8  10
HETATM   10  C3  UNL     1     -32.409   7.864   2.797  1.00 20.00     0.223 C 
HETATM   11  O11 UNL     1     -31.622   8.433   3.547  1.00 20.00    -0.279 OA
HETATM   12 CL12 UNL     1     -32.245   7.697   1.075  1.00 20.00    -0.043 Cl
ENDBRANCH   8  10
TORSDOF 1
