REMARK  0 active torsions:
REMARK  status: ('A' for Active; 'I' for Inactive)
ROOT
HETATM    1  C1  UNL     1     -32.322   8.031   1.148  1.00 20.00     0.017 C 
HETATM    2  C2  UNL     1     -32.325   7.433   2.189  1.00 20.00    -0.057 C 
HETATM    3  C3  UNL     1     -32.329   6.705   3.458  1.00 20.00     0.342 C 
HETATM    4  C4  UNL     1     -33.516   7.569   5.194  1.00 20.00     0.150 C 
HETATM    5  C5  UNL     1     -33.963   6.146   4.925  1.00 20.00     0.150 C 
HETATM    6  C6  UNL     1     -33.387   7.918   6.662  1.00 20.00     0.042 C 
HETATM    7  C7  UNL     1     -35.458   5.928   5.037  1.00 20.00     0.042 C 
HETATM    8  O8  UNL     1     -32.233   7.623   4.559  1.00 20.00    -0.343 OA
HETATM    9  O9  UNL     1     -33.532   5.931   3.577  1.00 20.00    -0.343 OA
ENDROOT
TORSDOF 0
