REMARK  1 active torsions:
REMARK  status: ('A' for Active; 'I' for Inactive)
REMARK    1  A    between atoms: C1_1  and  C4_4 
ROOT
HETATM    1  C1  UNL     1     -32.863   6.644   3.523  1.00 20.00    -0.068 C 
HETATM    2  C2  UNL     1     -32.053   7.390   3.045  1.00 20.00    -0.108 C 
HETATM    3  C6  UNL     1     -31.065   8.298   2.463  1.00 20.00     0.112 C 
ENDROOT
BRANCH   1   4
HETATM    4  C4  UNL     1     -33.842   5.742   4.102  1.00 20.00     0.129 C 
HETATM    5  C5  UNL     1     -34.270   6.042   5.588  1.00 20.00     0.016 C 
HETATM    6  C3  UNL     1     -35.696   6.018   4.997  1.00 20.00     0.182 C 
HETATM    7  C8  UNL     1     -33.907   7.422   6.149  1.00 20.00     0.021 C 
HETATM    8  C9  UNL     1     -34.002   4.955   6.625  1.00 20.00     0.021 C 
HETATM    9  O10 UNL     1     -35.176   6.120   3.646  1.00 20.00    -0.366 OA
HETATM   10  C7  UNL     1     -33.553   4.300   3.692  1.00 20.00     0.061 C 
ENDBRANCH   1   4
TORSDOF 1
