REMARK  1 active torsions:
REMARK  status: ('A' for Active; 'I' for Inactive)
REMARK    1  A    between atoms: C1_1  and  C4_4 
ROOT
HETATM    1  C2  UNL     1     -34.332   4.884   3.665  1.00 20.00     0.016 C 
HETATM    2  C3  UNL     1     -33.472   5.313   2.461  1.00 20.00     0.022 C 
HETATM    3  C4  UNL     1     -34.285   6.362   4.137  1.00 20.00     0.090 C 
HETATM    4  C5  UNL     1     -32.951   6.470   3.342  1.00 20.00     0.094 C 
HETATM    5 CL8  UNL     1     -32.543   8.022   2.556  1.00 20.00    -0.124 Cl
ENDROOT
BRANCH   3   6
HETATM    6  C1  UNL     1     -34.236   6.627   5.645  1.00 20.00     0.224 C 
HETATM    7  O6  UNL     1     -34.042   7.751   6.096  1.00 20.00    -0.279 OA
HETATM    8 CL7  UNL     1     -34.484   5.178   6.571  1.00 20.00    -0.043 Cl
ENDBRANCH   3   6
TORSDOF 1
