REMARK  2 active torsions:
REMARK  status: ('A' for Active; 'I' for Inactive)
REMARK    1  A    between atoms: C1_1  and  C4_4 
REMARK    2  A    between atoms: C1_1  and  C6_6 
ROOT
HETATM    1  C1  UNL     1     -33.431   6.657   4.201  1.00 20.00     0.145 C 
HETATM    2  O7  UNL     1     -32.667   7.411   4.792  1.00 20.00    -0.296 OA
ENDROOT
BRANCH   1   3
HETATM    3  C4  UNL     1     -34.465   5.901   4.967  1.00 20.00     0.057 A 
HETATM    4  C2  UNL     1     -34.159   4.503   5.390  1.00 20.00     0.013 A 
HETATM    5  C3  UNL     1     -34.207   5.604   6.406  1.00 20.00     0.013 A 
ENDBRANCH   1   3
BRANCH   1   6
HETATM    6  C6  UNL     1     -33.418   6.444   2.705  1.00 20.00     0.123 C 
HETATM    7  C5  UNL     1     -33.066   5.019   2.325  1.00 20.00     0.030 C 
HETATM    8 BR8  UNL     1     -32.060   7.659   2.017  1.00 20.00    -0.084 Br
ENDBRANCH   1   6
TORSDOF 2
