REMARK  4 active torsions:
REMARK  status: ('A' for Active; 'I' for Inactive)
REMARK    1  A    between atoms: C1_1  and  C7_7 
REMARK    2  A    between atoms: C6_6  and  O10_10 
REMARK    3  A    between atoms: C7_7  and  C8_8 
REMARK    4  A    between atoms: C7_7  and  O10_10 
ROOT
HETATM    1  C7  UNL     1     -33.202   6.627   4.569  1.00 20.00     0.193 C 
ENDROOT
BRANCH   1   2
HETATM    2  C1  UNL     1     -33.793   7.089   5.898  1.00 20.00     0.152 C 
HETATM    3  C2  UNL     1     -33.120   8.249   6.587  1.00 20.00     0.093 C 
HETATM    4  O9  UNL     1     -34.781   6.549   6.397  1.00 20.00    -0.296 OA
ENDBRANCH   1   2
BRANCH   1   5
HETATM    5  C8  UNL     1     -33.993   5.463   3.943  1.00 20.00     0.014 C 
HETATM    6  C4  UNL     1     -34.023   4.223   4.843  1.00 20.00     0.012 C 
HETATM    7  C5  UNL     1     -35.428   5.897   3.628  1.00 20.00     0.012 C 
ENDBRANCH   1   5
BRANCH   1   8
HETATM    8  O10 UNL     1     -33.167   7.729   3.675  1.00 20.00    -0.378 OA
BRANCH   8   9
HETATM    9  C6  UNL     1     -32.242   7.514   2.617  1.00 20.00     0.164 C 
HETATM   10  C3  UNL     1     -32.251   8.720   1.702  1.00 20.00     0.033 C 
ENDBRANCH   8   9
ENDBRANCH   1   8
TORSDOF 4
