REMARK  1 active torsions:
REMARK  status: ('A' for Active; 'I' for Inactive)
REMARK    1  A    between atoms: C2_2  and  C3_3 
ROOT
HETATM    1  C1  UNL     1     -33.261   5.266   3.858  1.00 20.00    -0.011 C 
HETATM    2  C2  UNL     1     -32.899   6.504   4.225  1.00 20.00    -0.019 C 
HETATM    3  C4  UNL     1     -35.628   5.793   4.115  1.00 20.00     0.010 C 
HETATM    4  C5  UNL     1     -35.197   7.231   4.532  1.00 20.00     0.011 C 
HETATM    5  C6  UNL     1     -34.484   4.919   4.689  1.00 20.00     0.017 C 
HETATM    6  C7  UNL     1     -33.865   6.980   5.286  1.00 20.00     0.030 C 
HETATM    7  C8  UNL     1     -34.131   5.639   6.022  1.00 20.00    -0.033 C 
HETATM    8  C9  UNL     1     -32.902   5.056   6.758  1.00 20.00     0.016 C 
HETATM    9  C10 UNL     1     -35.272   5.682   7.056  1.00 20.00     0.016 C 
ENDROOT
BRANCH   2  10
HETATM   10  C3  UNL     1     -31.786   7.257   3.687  1.00 20.00     0.265 C 
HETATM   11  O11 UNL     1     -31.497   8.398   4.060  1.00 20.00    -0.302 OA
ENDBRANCH   2  10
TORSDOF 1
