REMARK  1 active torsions:
REMARK  status: ('A' for Active; 'I' for Inactive)
REMARK    1  A    between atoms: C3_3  and  C9_9 
ROOT
HETATM    1  C1  UNL     1     -33.304   5.044   6.342  1.00 20.00    -0.030 C 
HETATM    2  C2  UNL     1     -32.911   6.314   6.570  1.00 20.00    -0.029 C 
HETATM    3  C4  UNL     1     -34.418   4.661   5.388  1.00 20.00     0.032 C 
HETATM    4  C5  UNL     1     -33.498   7.527   5.869  1.00 20.00     0.044 C 
HETATM    5  C6  UNL     1     -36.034   6.282   3.823  1.00 20.00     0.007 C 
HETATM    6  C7  UNL     1     -35.477   7.733   4.001  1.00 20.00     0.018 C 
HETATM    7  C8  UNL     1     -35.178   5.932   5.062  1.00 20.00     0.005 C 
HETATM    8  C9  UNL     1     -34.189   7.053   4.586  1.00 20.00     0.027 C 
ENDROOT
BRANCH   8   9
HETATM    9  C3  UNL     1     -33.128   6.723   3.470  1.00 20.00     0.132 C 
HETATM   10  C10 UNL     1     -32.230   7.849   3.037  1.00 20.00     0.091 C 
HETATM   11  O11 UNL     1     -33.037   5.599   2.979  1.00 20.00    -0.298 OA
ENDBRANCH   8   9
TORSDOF 1
