REMARK  1 active torsions:
REMARK  status: ('A' for Active; 'I' for Inactive)
REMARK    1  A    between atoms: C3_3  and  C4_4 
ROOT
HETATM    1  C1  UNL     1     -34.923   4.879   4.253  1.00 20.00    -0.018 A 
HETATM    2  C2  UNL     1     -34.674   4.632   5.551  1.00 20.00    -0.025 A 
HETATM    3  C4  UNL     1     -34.317   6.268   4.292  1.00 20.00     0.084 A 
HETATM    4  C5  UNL     1     -33.943   5.943   5.766  1.00 20.00     0.018 A 
HETATM    5  C7  UNL     1     -34.534   6.865   6.821  1.00 20.00     0.015 C 
ENDROOT
BRANCH   3   6
HETATM    6  C3  UNL     1     -33.193   6.404   3.259  1.00 20.00     0.131 C 
HETATM    7  C6  UNL     1     -33.023   5.265   2.290  1.00 20.00     0.091 C 
HETATM    8  O8  UNL     1     -32.466   7.396   3.223  1.00 20.00    -0.298 OA
ENDBRANCH   3   6
TORSDOF 1
