REMARK  0 active torsions:
REMARK  status: ('A' for Active; 'I' for Inactive)
ROOT
HETATM    1  C1  UNL     1     -35.426   5.023   7.568  1.00 20.00     0.012 C 
HETATM    2  C2  UNL     1     -34.761   5.266   6.598  1.00 20.00    -0.111 C 
HETATM    3  C3  UNL     1     -33.075   6.923   3.766  1.00 20.00     0.132 C 
HETATM    4  C4  UNL     1     -33.518   5.656   3.063  1.00 20.00     0.084 C 
HETATM    5  C5  UNL     1     -35.257   7.464   4.662  1.00 20.00     0.014 C 
HETATM    6  C6  UNL     1     -35.799   6.185   3.990  1.00 20.00     0.007 C 
HETATM    7  C7  UNL     1     -33.949   5.564   5.415  1.00 20.00     0.080 C 
HETATM    8  C8  UNL     1     -33.835   7.055   5.074  1.00 20.00     0.071 C 
HETATM    9  C9  UNL     1     -34.604   5.204   4.071  1.00 20.00     0.009 C 
HETATM   10  O10 UNL     1     -32.262   7.725   3.333  1.00 20.00    -0.298 OA
ENDROOT
TORSDOF 0
