REMARK  1 active torsions:
REMARK  status: ('A' for Active; 'I' for Inactive)
REMARK    1  A    between atoms: C8_8  and  C9_9 
ROOT
HETATM    1  C1  UNL     1     -34.252   5.027   4.702  1.00 20.00     0.008 A 
HETATM    2  C2  UNL     1     -33.127   6.181   2.757  1.00 20.00     0.026 A 
HETATM    3  C3  UNL     1     -32.524   8.186   3.724  1.00 20.00     0.026 A 
HETATM    4  C4  UNL     1     -34.570   5.211   5.996  1.00 20.00    -0.022 A 
HETATM    5  C5  UNL     1     -33.509   7.540   5.963  1.00 20.00    -0.011 A 
HETATM    6  C6  UNL     1     -33.563   6.088   4.025  1.00 20.00    -0.026 A 
HETATM    7  C7  UNL     1     -33.201   7.339   4.675  1.00 20.00    -0.029 A 
HETATM    8  C8  UNL     1     -32.488   7.478   2.582  1.00 20.00     0.003 A 
HETATM    9  C10 UNL     1     -34.237   6.479   6.767  1.00 20.00     0.055 A 
ENDROOT
BRANCH   8  10
HETATM   10  C9  UNL     1     -31.891   7.953   1.346  1.00 20.00     0.269 C 
HETATM   11  O11 UNL     1     -31.869   7.286   0.311  1.00 20.00    -0.301 OA
ENDBRANCH   8  10
TORSDOF 1
