REMARK  3 active torsions:
REMARK  status: ('A' for Active; 'I' for Inactive)
REMARK    1  A    between atoms: C2_2  and  C5_5 
REMARK    2  A    between atoms: C3_3  and  C6_6 
REMARK    3  A    between atoms: C3_3  and  O10_10 
ROOT
HETATM    1  C4  UNL     1     -35.843   6.124   4.497  1.00 20.00     0.025 A 
HETATM    2  C5  UNL     1     -35.115   5.395   5.592  1.00 20.00     0.028 A 
HETATM    3  C6  UNL     1     -34.744   5.159   4.148  1.00 20.00     0.094 A 
ENDROOT
BRANCH   3   4
HETATM    4  C3  UNL     1     -33.487   5.673   3.588  1.00 20.00     0.263 C 
HETATM    5  O9  UNL     1     -32.838   5.101   2.724  1.00 20.00    -0.265 OA
BRANCH   4   6
HETATM    6  O10 UNL     1     -33.177   6.862   4.180  1.00 20.00    -0.326 OA
HETATM    7  C8  UNL     1     -31.968   7.478   3.725  1.00 20.00     0.213 C 
ENDBRANCH   4   6
ENDBRANCH   3   4
BRANCH   2   8
HETATM    8  C2  UNL     1     -34.234   6.147   6.474  1.00 20.00    -0.088 C 
HETATM    9  C1  UNL     1     -32.956   5.791   6.671  1.00 20.00     0.014 C 
HETATM   10  C7  UNL     1     -34.838   7.343   7.148  1.00 20.00     0.043 C 
ENDBRANCH   2   8
TORSDOF 3
