REMARK  1 active torsions:
REMARK  status: ('A' for Active; 'I' for Inactive)
REMARK    1  A    between atoms: C5_5  and  O10_10 
ROOT
HETATM    1  C1  UNL     1     -34.044   4.583   2.978  1.00 20.00     0.011 A 
HETATM    2  C2  UNL     1     -34.620   4.401   4.237  1.00 20.00     0.040 A 
HETATM    3  C3  UNL     1     -33.238   5.692   2.779  1.00 20.00    -0.049 A 
HETATM    4  C4  UNL     1     -32.994   6.602   3.814  1.00 20.00    -0.010 A 
HETATM    5  C5  UNL     1     -34.375   5.315   5.275  1.00 20.00     0.104 A 
HETATM    6  C6  UNL     1     -33.551   6.423   5.069  1.00 20.00     0.156 A 
HETATM    7  C7  UNL     1     -32.488   6.076   1.543  1.00 20.00     0.039 C 
HETATM    8  C8  UNL     1     -32.057   7.679   3.366  1.00 20.00     0.042 C 
HETATM    9  C9  UNL     1     -32.161   7.548   1.839  1.00 20.00     0.009 C 
HETATM   10  F11 UNL     1     -33.304   7.289   6.060  1.00 20.00    -0.203 F 
ENDROOT
BRANCH   5  11
HETATM   11  O10 UNL     1     -34.944   5.112   6.497  1.00 20.00    -0.358 OA
HETATM   12  H20 UNL     1     -35.481   4.304   6.486  1.00 20.00     0.217 HD
ENDBRANCH   5  11
TORSDOF 1
