REMARK  2 active torsions:
REMARK  status: ('A' for Active; 'I' for Inactive)
REMARK    1  A    between atoms: C3_3  and  C8_8 
REMARK    2  A    between atoms: C9_9  and  N11_11 
ROOT
HETATM    1  C1  UNL     1     -34.926   5.112   6.222  1.00 20.00     0.089 C 
HETATM    2  C9  UNL     1     -34.966   5.100   4.761  1.00 20.00     0.395 C 
HETATM    3  N10 UNL     1     -34.898   5.121   7.382  1.00 20.00    -0.195 NA
ENDROOT
BRANCH   2   4
HETATM    4  N11 UNL     1     -33.804   5.792   4.202  1.00 20.00     0.101 N 
HETATM    5  C6  UNL     1     -34.008   7.245   4.236  1.00 20.00     0.274 C 
HETATM    6  C4  UNL     1     -32.777   7.993   3.714  1.00 20.00     0.039 C 
HETATM    7  C8  UNL     1     -32.327   7.512   2.335  1.00 20.00     0.011 C 
HETATM    8  C5  UNL     1     -32.282   5.986   2.261  1.00 20.00     0.039 C 
HETATM    9  C7  UNL     1     -33.542   5.330   2.833  1.00 20.00     0.274 C 
BRANCH   7  10
HETATM   10  C3  UNL     1     -33.213   8.059   1.254  1.00 20.00    -0.032 C 
HETATM   11  C2  UNL     1     -32.787   8.859   0.271  1.00 20.00     0.007 C 
ENDBRANCH   7  10
ENDBRANCH   2   4
TORSDOF 2
