REMARK  2 active torsions:
REMARK  status: ('A' for Active; 'I' for Inactive)
REMARK    1  A    between atoms: C5_5  and  O10_10 
REMARK    2  A    between atoms: C9_9  and  O10_10 
ROOT
HETATM    1  C1  UNL     1     -32.135   8.004   1.190  1.00 20.00     0.012 C 
HETATM    2  C2  UNL     1     -32.207   7.048   1.913  1.00 20.00    -0.110 C 
HETATM    3  C3  UNL     1     -32.714   4.585   2.191  1.00 20.00     0.053 A 
HETATM    4  C4  UNL     1     -32.293   5.907   2.776  1.00 20.00     0.095 A 
HETATM    5  C5  UNL     1     -33.652   5.337   3.090  1.00 20.00     0.139 A 
ENDROOT
BRANCH   5   6
HETATM    6  O10 UNL     1     -33.818   4.807   4.396  1.00 20.00    -0.375 OA
BRANCH   6   7
HETATM    7  C9  UNL     1     -34.230   5.818   5.316  1.00 20.00     0.050 C 
HETATM    8  C6  UNL     1     -35.562   6.396   4.840  1.00 20.00     0.045 C 
HETATM    9  C7  UNL     1     -34.389   5.157   6.684  1.00 20.00     0.045 C 
HETATM   10  C8  UNL     1     -33.153   6.901   5.365  1.00 20.00     0.045 C 
ENDBRANCH   6   7
ENDBRANCH   5   6
TORSDOF 2
