REMARK  2 active torsions:
REMARK  status: ('A' for Active; 'I' for Inactive)
REMARK    1  A    between atoms: C1_1  and  C6_6 
REMARK    2  A    between atoms: C7_7  and  C9_9 
ROOT
HETATM    1  C2  UNL     1     -34.198   7.235   5.268  1.00 20.00     0.012 C 
HETATM    2  C3  UNL     1     -34.464   5.746   3.212  1.00 20.00     0.012 C 
HETATM    3  C4  UNL     1     -32.686   7.260   5.036  1.00 20.00     0.005 C 
HETATM    4  C5  UNL     1     -32.948   5.785   3.009  1.00 20.00     0.005 C 
HETATM    5  C6  UNL     1     -34.894   6.029   4.647  1.00 20.00     0.047 C 
HETATM    6  C7  UNL     1     -32.296   7.055   3.567  1.00 20.00    -0.015 C 
ENDROOT
BRANCH   5   7
HETATM    7  C1  UNL     1     -34.622   4.795   5.494  1.00 20.00     0.235 C 
HETATM    8  O10 UNL     1     -33.910   4.805   6.493  1.00 20.00    -0.306 OA
ENDBRANCH   5   7
BRANCH   6   9
HETATM    9  C9  UNL     1     -32.624   8.284   2.715  1.00 20.00     0.000 C 
HETATM   10  C8  UNL     1     -32.193   8.103   1.297  1.00 20.00     0.005 C 
ENDBRANCH   6   9
TORSDOF 2
