REMARK  2 active torsions:
REMARK  status: ('A' for Active; 'I' for Inactive)
REMARK    1  A    between atoms: C4_4  and  C6_6 
REMARK    2  A    between atoms: C7_7  and  O10_10 
ROOT
HETATM    1  C1  UNL     1     -32.494   8.151   2.695  1.00 20.00     0.218 C 
HETATM    2  C4  UNL     1     -32.491   7.495   3.818  1.00 20.00     0.043 C 
HETATM    3  O9  UNL     1     -32.496   8.745   1.680  1.00 20.00    -0.284 OA
ENDROOT
BRANCH   2   4
HETATM    4  C6  UNL     1     -33.650   7.398   4.752  1.00 20.00     0.064 C 
HETATM    5  C3  UNL     1     -33.250   7.254   6.191  1.00 20.00    -0.020 C 
HETATM    6  C2  UNL     1     -34.053   6.405   6.841  1.00 20.00    -0.027 C 
HETATM    7  C5  UNL     1     -35.102   5.833   5.941  1.00 20.00     0.059 C 
HETATM    8  C7  UNL     1     -34.556   6.166   4.547  1.00 20.00     0.135 C 
BRANCH   8   9
HETATM    9  O10 UNL     1     -33.823   5.031   4.086  1.00 20.00    -0.389 OA
HETATM   10  C8  UNL     1     -33.674   5.053   2.675  1.00 20.00     0.202 C 
ENDBRANCH   8   9
ENDBRANCH   2   4
TORSDOF 2
