REMARK  0 active torsions:
REMARK  status: ('A' for Active; 'I' for Inactive)
ROOT
HETATM    1  C1  UNL     1     -36.843   6.257   3.589  1.00 20.00     0.015 C 
HETATM    2  C2  UNL     1     -35.741   6.102   4.037  1.00 20.00    -0.075 C 
HETATM    3  C3  UNL     1     -32.842   5.864   2.766  1.00 20.00     0.034 C 
HETATM    4  C4  UNL     1     -34.323   6.881   6.770  1.00 20.00     0.034 C 
HETATM    5  C5  UNL     1     -33.585   4.939   3.717  1.00 20.00     0.057 C 
HETATM    6  C6  UNL     1     -34.457   5.536   6.070  1.00 20.00     0.057 C 
HETATM    7  C7  UNL     1     -32.485   7.038   3.661  1.00 20.00     0.275 C 
HETATM    8  C8  UNL     1     -33.313   7.607   5.898  1.00 20.00     0.275 C 
HETATM    9  C9  UNL     1     -34.383   5.909   4.589  1.00 20.00     0.221 C 
HETATM   10  N10 UNL     1     -33.655   7.198   4.531  1.00 20.00     0.110 N 
ENDROOT
TORSDOF 0
