REMARK  0 active torsions:
REMARK  status: ('A' for Active; 'I' for Inactive)
ROOT
HETATM    1  C1  UNL     1     -32.597   6.636   3.538  1.00 20.00     0.026 C 
HETATM    2  C2  UNL     1     -33.895   7.052   5.194  1.00 20.00     0.017 C 
HETATM    3  C3  UNL     1     -31.466   6.626   2.824  1.00 20.00     0.040 C 
HETATM    4  C4  UNL     1     -33.762   5.726   3.279  1.00 20.00     0.073 C 
HETATM    5  C5  UNL     1     -34.553   5.825   4.591  1.00 20.00    -0.002 C 
HETATM    6  C6  UNL     1     -34.440   7.730   6.412  1.00 20.00     0.066 C 
HETATM    7  C7  UNL     1     -36.043   6.028   4.335  1.00 20.00     0.021 C 
HETATM    8  C8  UNL     1     -34.309   4.609   5.488  1.00 20.00     0.021 C 
HETATM    9  N9  UNL     1     -32.811   7.464   4.611  1.00 20.00    -0.263 NA
ENDROOT
TORSDOF 0
