REMARK  2 active torsions:
REMARK  status: ('A' for Active; 'I' for Inactive)
REMARK    1  A    between atoms: C5_5  and  C7_7 
REMARK    2  A    between atoms: C5_5  and  O11_11 
ROOT
HETATM    1  C1  UNL     1     -31.624   8.597   2.750  1.00 20.00     0.003 A 
HETATM    2  C2  UNL     1     -31.729   7.418   3.368  1.00 20.00    -0.007 A 
HETATM    3  C3  UNL     1     -32.794   8.870   1.960  1.00 20.00    -0.066 A 
HETATM    4  C4  UNL     1     -33.026   9.990   1.271  1.00 20.00     0.019 C 
HETATM    5  C6  UNL     1     -33.708   7.674   2.044  1.00 20.00     0.061 A 
HETATM    6  C7  UNL     1     -33.037   6.740   3.076  1.00 20.00     0.066 A 
HETATM    7  C8  UNL     1     -32.858   5.321   2.547  1.00 20.00     0.031 C 
ENDROOT
BRANCH   6   8
HETATM    8  C5  UNL     1     -33.803   6.718   4.371  1.00 20.00     0.271 C 
HETATM    9  O10 UNL     1     -34.920   6.236   4.498  1.00 20.00    -0.264 OA
BRANCH   8  10
HETATM   10  O11 UNL     1     -33.061   7.311   5.350  1.00 20.00    -0.326 OA
HETATM   11  C9  UNL     1     -33.673   7.359   6.642  1.00 20.00     0.213 C 
ENDBRANCH   8  10
ENDBRANCH   6   8
TORSDOF 2
