REMARK  1 active torsions:
REMARK  status: ('A' for Active; 'I' for Inactive)
REMARK    1  A    between atoms: C5_5  and  C10_10 
ROOT
HETATM    1  C1  UNL     1     -34.173   4.333   4.584  1.00 20.00     0.003 C 
HETATM    2  C2  UNL     1     -33.831   4.225   3.291  1.00 20.00    -0.025 C 
HETATM    3  C3  UNL     1     -34.118   5.818   6.592  1.00 20.00    -0.019 C 
HETATM    4  C4  UNL     1     -34.017   5.578   5.280  1.00 20.00    -0.057 C 
HETATM    5  C6  UNL     1     -33.231   5.357   2.495  1.00 20.00     0.039 C 
HETATM    6  C7  UNL     1     -33.805   7.247   6.900  1.00 20.00     0.028 C 
HETATM    7  C8  UNL     1     -33.118   7.725   5.616  1.00 20.00     0.014 C 
HETATM    8  C9  UNL     1     -33.672   6.821   4.508  1.00 20.00     0.029 C 
HETATM    9  C10 UNL     1     -32.693   6.505   3.374  1.00 20.00     0.059 C 
ENDROOT
BRANCH   9  10
HETATM   10  C5  UNL     1     -32.474   7.715   2.519  1.00 20.00     0.236 C 
HETATM   11  O11 UNL     1     -32.217   7.659   1.320  1.00 20.00    -0.306 OA
ENDBRANCH   9  10
TORSDOF 1
