REMARK  3 active torsions:
REMARK  status: ('A' for Active; 'I' for Inactive)
REMARK    1  A    between atoms: C1_1  and  C3_3 
REMARK    2  A    between atoms: C2_2  and  C7_7 
REMARK    3  A    between atoms: C7_7  and  C8_8 
ROOT
HETATM    1  C1  UNL     1     -33.503   6.206   4.595  1.00 20.00    -0.029 C 
HETATM    2  C2  UNL     1     -32.974   6.225   3.517  1.00 20.00    -0.098 C 
ENDROOT
BRANCH   2   3
HETATM    3  C7  UNL     1     -32.326   6.248   2.198  1.00 20.00     0.098 C 
BRANCH   3   4
HETATM    4  C8  UNL     1     -32.146   7.664   1.622  1.00 20.00    -0.012 C 
HETATM    5  C5  UNL     1     -31.284   8.552   2.522  1.00 20.00     0.010 C 
HETATM    6  C6  UNL     1     -31.593   7.645   0.195  1.00 20.00     0.010 C 
ENDBRANCH   3   4
ENDBRANCH   2   3
BRANCH   1   7
HETATM    7  C3  UNL     1     -34.138   6.192   5.891  1.00 20.00     0.198 C 
HETATM    8  C4  UNL     1     -34.018   7.448   6.702  1.00 20.00     0.106 C 
HETATM    9  O9  UNL     1     -34.731   5.190   6.268  1.00 20.00    -0.284 OA
ENDBRANCH   1   7
TORSDOF 3
