REMARK  1 active torsions:
REMARK  status: ('A' for Active; 'I' for Inactive)
REMARK    1  A    between atoms: C1_1  and  C3_3 
ROOT
HETATM    1  C1  UNL     1     -32.784   6.389   3.379  1.00 20.00    -0.010 C 
HETATM    2  C2  UNL     1     -33.236   6.575   4.629  1.00 20.00    -0.066 C 
HETATM    3  C4  UNL     1     -32.933   5.085   2.640  1.00 20.00     0.042 C 
HETATM    4  C5  UNL     1     -33.293   7.855   5.421  1.00 20.00     0.035 C 
HETATM    5  C6  UNL     1     -33.492   3.936   3.491  1.00 20.00     0.005 C 
HETATM    6  C7  UNL     1     -34.136   7.493   6.647  1.00 20.00     0.005 C 
HETATM    7  C8  UNL     1     -34.553   4.421   4.480  1.00 20.00     0.009 C 
HETATM    8  C9  UNL     1     -34.943   6.269   6.223  1.00 20.00     0.009 C 
HETATM    9  C10 UNL     1     -33.942   5.481   5.390  1.00 20.00     0.015 C 
ENDROOT
BRANCH   1  10
HETATM   10  C3  UNL     1     -32.149   7.495   2.653  1.00 20.00     0.152 C 
HETATM   11  C11 UNL     1     -32.778   7.945   1.360  1.00 20.00     0.096 C 
HETATM   12  O12 UNL     1     -31.130   8.029   3.093  1.00 20.00    -0.293 OA
ENDBRANCH   1  10
TORSDOF 1
