REMARK  1 active torsions:
REMARK  status: ('A' for Active; 'I' for Inactive)
REMARK    1  A    between atoms: C3_3  and  C4_4 
ROOT
HETATM    1  C1  UNL     1     -34.687   5.282   3.792  1.00 20.00     0.061 C 
HETATM    2  C2  UNL     1     -34.953   4.797   5.007  1.00 20.00     0.087 C 
HETATM    3  C4  UNL     1     -33.750   6.437   3.897  1.00 20.00     0.376 C 
HETATM    4  C5  UNL     1     -34.225   5.582   6.040  1.00 20.00     0.463 C 
HETATM    5  C6  UNL     1     -33.096   7.756   5.871  1.00 20.00     0.324 C 
HETATM    6  N7  UNL     1     -33.283   6.435   5.296  1.00 20.00     0.211 N 
HETATM    7  F9  UNL     1     -34.382   7.597   3.575  1.00 20.00    -0.195 F 
HETATM    8  F10 UNL     1     -35.094   6.314   6.786  1.00 20.00    -0.169 F 
HETATM    9  F11 UNL     1     -33.542   4.782   6.897  1.00 20.00    -0.169 F 
ENDROOT
BRANCH   3  10
HETATM   10  C3  UNL     1     -32.571   6.189   3.016  1.00 20.00     0.312 C 
HETATM   11  O8  UNL     1     -32.254   6.925   2.087  1.00 20.00    -0.301 OA
ENDBRANCH   3  10
TORSDOF 1
