REMARK  1 active torsions:
REMARK  status: ('A' for Active; 'I' for Inactive)
REMARK    1  A    between atoms: C6_6  and  C7_7 
ROOT
HETATM    1  C1  UNL     1     -33.068   4.731   3.259  1.00 20.00    -0.003 C 
HETATM    2  C2  UNL     1     -32.809   5.764   2.261  1.00 20.00     0.015 C 
HETATM    3  C3  UNL     1     -32.951   7.647   3.796  1.00 20.00     0.011 C 
HETATM    4  C4  UNL     1     -33.988   4.630   4.239  1.00 20.00    -0.026 C 
HETATM    5  C5  UNL     1     -34.254   7.744   4.109  1.00 20.00    -0.021 C 
HETATM    6  C6  UNL     1     -32.681   7.086   2.490  1.00 20.00     0.009 C 
HETATM    7  C8  UNL     1     -35.149   5.524   4.631  1.00 20.00     0.035 C 
HETATM    8  C9  UNL     1     -34.836   6.923   5.233  1.00 20.00     0.007 C 
HETATM    9  C11 UNL     1     -34.009   6.838   6.516  1.00 20.00     0.014 C 
ENDROOT
BRANCH   6  10
HETATM   10  C7  UNL     1     -32.329   7.962   1.369  1.00 20.00     0.155 C 
HETATM   11  C10 UNL     1     -32.832   9.382   1.398  1.00 20.00     0.096 C 
HETATM   12  O12 UNL     1     -31.650   7.537   0.434  1.00 20.00    -0.293 OA
ENDBRANCH   6  10
TORSDOF 1
