REMARK  1 active torsions:
REMARK  status: ('A' for Active; 'I' for Inactive)
REMARK    1  A    between atoms: C3_3  and  C7_7 
ROOT
HETATM    1  C1  UNL     1     -33.574   4.595   6.171  1.00 20.00    -0.025 C 
HETATM    2  C2  UNL     1     -34.374   4.548   5.096  1.00 20.00    -0.020 C 
HETATM    3  C4  UNL     1     -32.760   6.862   5.618  1.00 20.00     0.021 C 
HETATM    4  C5  UNL     1     -34.994   6.416   6.312  1.00 20.00     0.022 C 
HETATM    5  C6  UNL     1     -33.551   6.027   6.650  1.00 20.00     0.010 C 
HETATM    6  C7  UNL     1     -33.696   6.852   4.375  1.00 20.00     0.067 C 
HETATM    7  C8  UNL     1     -34.877   5.958   4.847  1.00 20.00    -0.016 C 
HETATM    8  C10 UNL     1     -36.160   6.070   4.054  1.00 20.00     0.020 C 
ENDROOT
BRANCH   6   9
HETATM    9  C3  UNL     1     -33.003   6.341   3.148  1.00 20.00     0.128 C 
HETATM   10  C9  UNL     1     -31.799   7.113   2.680  1.00 20.00     0.091 C 
HETATM   11  O11 UNL     1     -33.397   5.339   2.554  1.00 20.00    -0.298 OA
ENDBRANCH   6   9
TORSDOF 1
