REMARK  0 active torsions:
REMARK  status: ('A' for Active; 'I' for Inactive)
ROOT
HETATM    1  C1  UNL     1     -33.640   5.879   4.311  1.00 20.00     0.080 A 
HETATM    2  C2  UNL     1     -34.438   4.856   6.556  1.00 20.00     0.019 A 
HETATM    3  C3  UNL     1     -33.736   7.356   6.163  1.00 20.00     0.128 A 
HETATM    4  C4  UNL     1     -34.731   5.375   5.174  1.00 20.00     0.053 A 
HETATM    5  C5  UNL     1     -34.788   6.305   6.360  1.00 20.00     0.015 A 
HETATM    6  C6  UNL     1     -32.009   7.834   4.394  1.00 20.00     0.150 C 
HETATM    7  N7  UNL     1     -33.100   7.014   4.893  1.00 20.00    -0.379 N 
HETATM    8  S8  UNL     1     -33.274   5.062   2.921  1.00 20.00    -0.065 SA
ENDROOT
TORSDOF 0
