REMARK  1 active torsions:
REMARK  status: ('A' for Active; 'I' for Inactive)
REMARK    1  A    between atoms: C7_7  and  C9_9 
ROOT
HETATM    1  C1  UNL     1     -34.205   4.929   6.003  1.00 20.00    -0.004 A 
HETATM    2  C2  UNL     1     -33.575   6.177   6.342  1.00 20.00    -0.004 A 
HETATM    3  C3  UNL     1     -34.474   4.600   4.733  1.00 20.00    -0.017 A 
HETATM    4  C4  UNL     1     -33.274   7.089   5.410  1.00 20.00    -0.020 A 
HETATM    5  C5  UNL     1     -33.106   4.897   2.680  1.00 20.00    -0.021 C 
HETATM    6  C6  UNL     1     -32.102   5.738   2.428  1.00 20.00    -0.017 C 
HETATM    7  C8  UNL     1     -34.154   5.497   3.568  1.00 20.00     0.039 A 
HETATM    8  C9  UNL     1     -32.284   7.061   3.092  1.00 20.00     0.086 C 
HETATM    9  C10 UNL     1     -33.565   6.896   3.939  1.00 20.00     0.034 A 
ENDROOT
BRANCH   8  10
HETATM   10  C7  UNL     1     -32.459   8.077   2.006  1.00 20.00     0.131 C 
HETATM   11  C11 UNL     1     -31.327   8.221   1.025  1.00 20.00     0.091 C 
HETATM   12  O12 UNL     1     -33.479   8.759   1.919  1.00 20.00    -0.298 OA
ENDBRANCH   8  10
TORSDOF 1
