REMARK  1 active torsions:
REMARK  status: ('A' for Active; 'I' for Inactive)
REMARK    1  A    between atoms: C3_3  and  N9_9 
ROOT
HETATM    1  C1  UNL     1     -32.378   7.282   2.265  1.00 20.00     0.096 C 
HETATM    2  C2  UNL     1     -32.933   6.131   2.894  1.00 20.00     0.040 A 
HETATM    3  C3  UNL     1     -33.813   5.979   3.910  1.00 20.00     0.005 A 
HETATM    4  C4  UNL     1     -32.750   4.657   2.656  1.00 20.00     0.057 A 
HETATM    5  C5  UNL     1     -33.740   4.453   3.810  1.00 20.00     0.057 A 
HETATM    6  N8  UNL     1     -31.925   8.219   1.753  1.00 20.00    -0.192 NA
ENDROOT
BRANCH   3   7
HETATM    7  N9  UNL     1     -34.522   6.715   4.742  1.00 20.00    -0.283 NA
HETATM    8  C6  UNL     1     -34.268   6.537   6.181  1.00 20.00     0.110 A 
HETATM    9  C7  UNL     1     -33.807   7.763   5.489  1.00 20.00     0.110 A 
ENDBRANCH   3   7
TORSDOF 1
