REMARK  1 active torsions:
REMARK  status: ('A' for Active; 'I' for Inactive)
REMARK    1  A    between atoms: C9_9  and  O10_10 
ROOT
HETATM    1  C1  UNL     1     -32.407   7.813   1.390  1.00 20.00     0.012 C 
HETATM    2  C2  UNL     1     -32.502   7.362   2.498  1.00 20.00    -0.112 C 
HETATM    3  C3  UNL     1     -35.391   7.477   4.689  1.00 20.00     0.007 C 
HETATM    4  C4  UNL     1     -35.130   6.431   3.597  1.00 20.00     0.009 C 
HETATM    5  C5  UNL     1     -32.933   7.879   4.921  1.00 20.00     0.024 C 
HETATM    6  C6  UNL     1     -32.618   6.811   3.851  1.00 20.00     0.071 C 
HETATM    7  C7  UNL     1     -34.180   7.306   5.625  1.00 20.00     0.016 C 
HETATM    8  C8  UNL     1     -33.782   5.807   4.027  1.00 20.00     0.030 C 
HETATM    9  C9  UNL     1     -33.910   5.800   5.556  1.00 20.00     0.127 C 
ENDROOT
BRANCH   9  10
HETATM   10  O10 UNL     1     -34.987   5.024   6.035  1.00 20.00    -0.395 OA
HETATM   11  H22 UNL     1     -34.729   4.089   5.954  1.00 20.00     0.210 HD
ENDBRANCH   9  10
TORSDOF 1
