REMARK  1 active torsions:
REMARK  status: ('A' for Active; 'I' for Inactive)
REMARK    1  A    between atoms: C2_2  and  C3_3 
ROOT
HETATM    1  C1  UNL     1     -33.053   7.738   4.955  1.00 20.00    -0.015 C 
HETATM    2  C2  UNL     1     -33.421   6.811   4.066  1.00 20.00    -0.012 C 
HETATM    3  C4  UNL     1     -34.001   7.780   6.109  1.00 20.00     0.032 C 
HETATM    4  C5  UNL     1     -34.669   6.087   4.470  1.00 20.00     0.022 C 
HETATM    5  C6  UNL     1     -34.764   6.445   5.979  1.00 20.00    -0.007 C 
HETATM    6  C8  UNL     1     -34.682   4.596   4.156  1.00 20.00     0.015 C 
HETATM    7  C9  UNL     1     -34.168   5.399   6.928  1.00 20.00     0.011 C 
ENDROOT
BRANCH   2   8
HETATM    8  C3  UNL     1     -32.690   6.610   2.825  1.00 20.00     0.151 C 
HETATM    9  C7  UNL     1     -31.989   7.797   2.201  1.00 20.00     0.096 C 
HETATM   10  O10 UNL     1     -32.645   5.497   2.282  1.00 20.00    -0.293 OA
ENDBRANCH   2   8
TORSDOF 1
