REMARK  3 active torsions:
REMARK  status: ('A' for Active; 'I' for Inactive)
REMARK    1  A    between atoms: C1_1  and  C7_7 
REMARK    2  A    between atoms: C2_2  and  C8_8 
REMARK    3  A    between atoms: C4_4  and  C9_9 
ROOT
HETATM    1  C8  UNL     1     -34.105   5.089   4.187  1.00 20.00     0.233 A 
HETATM    2  C9  UNL     1     -34.250   5.496   5.617  1.00 20.00     0.186 A 
HETATM    3  O10 UNL     1     -35.260   5.783   4.640  1.00 20.00    -0.358 OA
ENDROOT
BRANCH   1   4
HETATM    4  C2  UNL     1     -33.330   5.900   3.249  1.00 20.00    -0.071 C 
HETATM    5  C1  UNL     1     -32.694   6.567   2.479  1.00 20.00    -0.099 C 
BRANCH   5   6
HETATM    6  C7  UNL     1     -31.919   7.378   1.542  1.00 20.00     0.065 A 
HETATM    7  C5  UNL     1     -32.551   8.618   1.006  1.00 20.00     0.018 A 
HETATM    8  C6  UNL     1     -32.368   7.421   0.120  1.00 20.00     0.018 A 
ENDBRANCH   5   6
ENDBRANCH   1   4
BRANCH   2   9
HETATM    9  C4  UNL     1     -33.408   6.530   6.202  1.00 20.00    -0.002 C 
HETATM   10  C3  UNL     1     -33.444   7.817   5.840  1.00 20.00     0.009 C 
ENDBRANCH   2   9
TORSDOF 3
