REMARK  1 active torsions:
REMARK  status: ('A' for Active; 'I' for Inactive)
REMARK    1  A    between atoms: C3_3  and  C7_7 
ROOT
HETATM    1  C1  UNL     1     -34.502   5.906   6.801  1.00 20.00     0.346 C 
HETATM    2  C2  UNL     1     -34.389   5.833   4.418  1.00 20.00     0.233 C 
HETATM    3  C3  UNL     1     -33.927   7.293   4.614  1.00 20.00     0.081 C 
HETATM    4  C4  UNL     1     -35.871   5.774   4.012  1.00 20.00     0.044 C 
HETATM    5  C6  UNL     1     -32.898   4.419   5.757  1.00 20.00     0.311 C 
HETATM    6  N8  UNL     1     -34.213   5.042   5.653  1.00 20.00     0.098 N 
HETATM    7  S9  UNL     1     -34.144   7.630   6.386  1.00 20.00    -0.132 SA
ENDROOT
BRANCH   3   8
HETATM    8  C7  UNL     1     -32.477   7.543   4.215  1.00 20.00     0.013 C 
HETATM    9  C5  UNL     1     -32.260   7.339   2.749  1.00 20.00     0.006 C 
ENDBRANCH   3   8
TORSDOF 1
