REMARK  1 active torsions:
REMARK  status: ('A' for Active; 'I' for Inactive)
REMARK    1  A    between atoms: C4_4  and  C7_7 
ROOT
HETATM    1  C1  UNL     1     -35.439   5.977   4.200  1.00 20.00    -0.024 C 
HETATM    2  C2  UNL     1     -34.725   6.477   3.177  1.00 20.00    -0.013 C 
HETATM    3  C3  UNL     1     -33.192   4.671   3.327  1.00 20.00     0.140 C 
HETATM    4  C5  UNL     1     -33.937   4.035   4.505  1.00 20.00     0.088 C 
HETATM    5  C6  UNL     1     -34.461   5.333   5.168  1.00 20.00     0.027 C 
HETATM    6  C7  UNL     1     -33.246   6.266   4.999  1.00 20.00     0.074 C 
HETATM    7  C8  UNL     1     -33.267   6.198   3.462  1.00 20.00     0.045 C 
HETATM    8  C9  UNL     1     -32.225   6.995   2.724  1.00 20.00     0.029 C 
HETATM    9  O10 UNL     1     -32.656   4.053   2.420  1.00 20.00    -0.297 OA
ENDROOT
BRANCH   6  10
HETATM   10  C4  UNL     1     -33.434   7.622   5.622  1.00 20.00     0.237 C 
HETATM   11  O11 UNL     1     -34.428   7.936   6.269  1.00 20.00    -0.306 OA
ENDBRANCH   6  10
TORSDOF 1
