REMARK  1 active torsions:
REMARK  status: ('A' for Active; 'I' for Inactive)
REMARK    1  A    between atoms: C3_3  and  C8_8 
ROOT
HETATM    1  C1  UNL     1     -35.392   6.400   4.318  1.00 20.00    -0.024 C 
HETATM    2  C2  UNL     1     -35.089   7.412   5.147  1.00 20.00    -0.021 C 
HETATM    3  C4  UNL     1     -34.457   4.717   5.841  1.00 20.00     0.010 C 
HETATM    4  C5  UNL     1     -34.084   5.874   6.800  1.00 20.00     0.014 C 
HETATM    5  C6  UNL     1     -32.671   6.926   5.012  1.00 20.00     0.026 C 
HETATM    6  C7  UNL     1     -34.441   5.221   4.381  1.00 20.00     0.019 C 
HETATM    7  C8  UNL     1     -33.007   5.728   4.085  1.00 20.00     0.063 C 
HETATM    8  C9  UNL     1     -33.848   7.183   5.996  1.00 20.00    -0.026 C 
HETATM    9  C11 UNL     1     -33.554   8.360   6.921  1.00 20.00     0.019 C 
ENDROOT
BRANCH   7  10
HETATM   10  C3  UNL     1     -32.835   6.110   2.644  1.00 20.00     0.128 C 
HETATM   11  C10 UNL     1     -33.081   5.030   1.624  1.00 20.00     0.091 C 
HETATM   12  O12 UNL     1     -32.511   7.249   2.312  1.00 20.00    -0.298 OA
ENDBRANCH   7  10
TORSDOF 1
