REMARK  1 active torsions:
REMARK  status: ('A' for Active; 'I' for Inactive)
REMARK    1  A    between atoms: C2_2  and  C7_7 
ROOT
HETATM    1  C1  UNL     1     -32.717   6.700   2.783  1.00 20.00     0.132 C 
HETATM    2  C3  UNL     1     -33.210   5.268   2.746  1.00 20.00     0.084 C 
HETATM    3  C4  UNL     1     -34.805   7.645   3.562  1.00 20.00     0.013 C 
HETATM    4  C5  UNL     1     -35.394   6.219   3.563  1.00 20.00     0.007 C 
HETATM    5  C6  UNL     1     -33.344   7.410   3.969  1.00 20.00     0.068 C 
HETATM    6  C7  UNL     1     -33.414   6.219   4.927  1.00 20.00     0.088 C 
HETATM    7  C8  UNL     1     -34.186   5.331   3.944  1.00 20.00     0.006 C 
HETATM    8  O9  UNL     1     -31.963   7.210   1.969  1.00 20.00    -0.298 OA
ENDROOT
BRANCH   6   9
HETATM    9  C2  UNL     1     -34.125   6.494   6.215  1.00 20.00     0.224 C 
HETATM   10  O10 UNL     1     -34.500   7.623   6.517  1.00 20.00    -0.279 OA
HETATM   11 CL11 UNL     1     -34.330   5.055   7.168  1.00 20.00    -0.043 Cl
ENDBRANCH   6   9
TORSDOF 1
