REMARK  3 active torsions:
REMARK  status: ('A' for Active; 'I' for Inactive)
REMARK    1  A    between atoms: C7_7  and  C8_8 
REMARK    2  A    between atoms: C8_8  and  N10_10 
REMARK    3  A    between atoms: C9_9  and  N10_10 
ROOT
HETATM    1  C1  UNL     1     -33.898   4.722   6.380  1.00 20.00     0.015 C 
HETATM    2  C2  UNL     1     -33.826   5.726   5.724  1.00 20.00    -0.076 C 
HETATM    3  C4  UNL     1     -35.146   7.504   4.656  1.00 20.00     0.063 C 
HETATM    4  C5  UNL     1     -32.907   8.009   5.666  1.00 20.00     0.063 C 
HETATM    5  C9  UNL     1     -33.737   6.961   4.919  1.00 20.00     0.213 C 
ENDROOT
BRANCH   5   6
HETATM    6  N10 UNL     1     -33.095   6.655   3.655  1.00 20.00     0.104 N 
HETATM    7  C6  UNL     1     -33.554   5.364   3.133  1.00 20.00     0.312 C 
BRANCH   6   8
HETATM    8  C8  UNL     1     -33.346   7.713   2.671  1.00 20.00     0.273 C 
BRANCH   8   9
HETATM    9  C7  UNL     1     -32.303   7.732   1.560  1.00 20.00     0.026 C 
HETATM   10  C3  UNL     1     -32.544   8.841   0.545  1.00 20.00     0.007 C 
ENDBRANCH   8   9
ENDBRANCH   6   8
ENDBRANCH   5   6
TORSDOF 3
