REMARK  1 active torsions:
REMARK  status: ('A' for Active; 'I' for Inactive)
REMARK    1  A    between atoms: C3_3  and  C7_7 
ROOT
HETATM    1  C1  UNL     1     -34.930   4.781   5.833  1.00 20.00    -0.029 C 
HETATM    2  C2  UNL     1     -34.522   5.669   6.750  1.00 20.00    -0.026 C 
HETATM    3  C4  UNL     1     -34.460   4.788   4.410  1.00 20.00     0.039 C 
HETATM    4  C5  UNL     1     -32.779   6.532   5.135  1.00 20.00     0.020 C 
HETATM    5  C6  UNL     1     -33.519   6.758   6.467  1.00 20.00     0.004 C 
HETATM    6  C7  UNL     1     -33.725   6.076   4.021  1.00 20.00     0.059 C 
HETATM    7  C9  UNL     1     -34.210   8.123   6.503  1.00 20.00     0.014 C 
ENDROOT
BRANCH   6   8
HETATM    8  C3  UNL     1     -32.956   5.847   2.757  1.00 20.00     0.127 C 
HETATM    9  C8  UNL     1     -32.202   7.025   2.200  1.00 20.00     0.091 C 
HETATM   10  O10 UNL     1     -32.939   4.750   2.201  1.00 20.00    -0.298 OA
ENDBRANCH   6   8
TORSDOF 1
