REMARK  0 active torsions:
REMARK  status: ('A' for Active; 'I' for Inactive)
ROOT
HETATM    1  C1  UNL     1     -36.624   6.226   4.014  1.00 20.00     0.015 C 
HETATM    2  C2  UNL     1     -35.556   5.923   4.471  1.00 20.00    -0.073 C 
HETATM    3  C3  UNL     1     -34.308   5.558   6.564  1.00 20.00     0.225 C 
HETATM    4  C4  UNL     1     -33.445   7.558   5.859  1.00 20.00     0.442 C 
HETATM    5  C5  UNL     1     -34.239   5.550   5.033  1.00 20.00     0.240 C 
HETATM    6  C6  UNL     1     -33.825   4.174   4.510  1.00 20.00     0.066 C 
HETATM    7  C7  UNL     1     -33.048   7.111   3.499  1.00 20.00     0.315 C 
HETATM    8  N8  UNL     1     -33.187   6.554   4.833  1.00 20.00     0.130 N 
HETATM    9  O9  UNL     1     -34.111   6.927   6.962  1.00 20.00    -0.359 OA
ENDROOT
TORSDOF 0
