REMARK  1 active torsions:
REMARK  status: ('A' for Active; 'I' for Inactive)
REMARK    1  A    between atoms: C5_5  and  C9_9 
ROOT
HETATM    1  C1  UNL     1     -35.760   6.739   4.594  1.00 20.00    -0.029 C 
HETATM    2  C2  UNL     1     -35.581   5.431   4.325  1.00 20.00    -0.021 C 
HETATM    3  C3  UNL     1     -34.314   4.579   6.261  1.00 20.00    -0.021 C 
HETATM    4  C4  UNL     1     -33.859   5.708   6.829  1.00 20.00    -0.024 C 
HETATM    5  C6  UNL     1     -34.709   7.550   5.335  1.00 20.00     0.036 C 
HETATM    6  C7  UNL     1     -34.304   4.737   4.757  1.00 20.00     0.045 C 
HETATM    7  C8  UNL     1     -33.476   6.704   5.753  1.00 20.00     0.026 C 
HETATM    8  C9  UNL     1     -33.116   5.708   4.641  1.00 20.00     0.106 C 
ENDROOT
BRANCH   8   9
HETATM    9  C5  UNL     1     -32.876   6.309   3.267  1.00 20.00     0.178 C 
HETATM   10  O10 UNL     1     -32.392   7.474   3.265  1.00 20.00    -0.648 OA
HETATM   11  O11 UNL     1     -33.194   5.562   2.300  1.00 20.00    -0.648 OA
ENDBRANCH   8   9
TORSDOF 1
