REMARK  1 active torsions:
REMARK  status: ('A' for Active; 'I' for Inactive)
REMARK    1  A    between atoms: C5_5  and  C6_6 
ROOT
HETATM    1  C1  UNL     1     -33.232   8.180   2.248  1.00 20.00    -0.003 A 
HETATM    2  C2  UNL     1     -32.150   7.235   2.077  1.00 20.00    -0.003 A 
HETATM    3  C3  UNL     1     -33.990   7.765   3.279  1.00 20.00    -0.012 A 
HETATM    4  C4  UNL     1     -32.284   6.275   3.009  1.00 20.00    -0.012 A 
HETATM    5  C6  UNL     1     -33.437   6.232   5.333  1.00 20.00     0.073 A 
HETATM    6  C7  UNL     1     -33.468   6.513   3.858  1.00 20.00     0.013 A 
HETATM    7  C8  UNL     1     -34.340   5.410   4.414  1.00 20.00    -0.021 A 
HETATM    8  C9  UNL     1     -33.952   3.967   4.181  1.00 20.00     0.017 C 
HETATM    9  C10 UNL     1     -35.839   5.604   4.464  1.00 20.00     0.017 C 
ENDROOT
BRANCH   5  10
HETATM   10  C5  UNL     1     -34.011   7.176   6.303  1.00 20.00     0.237 C 
HETATM   11  O11 UNL     1     -34.416   6.844   7.412  1.00 20.00    -0.306 OA
ENDBRANCH   5  10
TORSDOF 1
