REMARK  1 active torsions:
REMARK  status: ('A' for Active; 'I' for Inactive)
REMARK    1  A    between atoms: C1_1  and  C4_4 
ROOT
HETATM    1  C1  UNL     1     -33.786   6.385   4.424  1.00 20.00    -0.049 C 
HETATM    2  C2  UNL     1     -33.061   6.718   3.527  1.00 20.00     0.008 C 
HETATM    3 CL8  UNL     1     -32.001   7.205   2.217  1.00 20.00    -0.023 Cl
ENDROOT
BRANCH   1   4
HETATM    4  C4  UNL     1     -34.652   5.987   5.493  1.00 20.00     0.147 A 
HETATM    5  C3  UNL     1     -34.564   6.666   6.845  1.00 20.00     0.166 A 
HETATM    6  C5  UNL     1     -33.611   7.768   7.148  1.00 20.00     0.044 C 
HETATM    7  O7  UNL     1     -33.945   5.398   6.599  1.00 20.00    -0.356 OA
HETATM    8  C6  UNL     1     -35.901   5.251   5.127  1.00 20.00     0.063 C 
ENDBRANCH   1   4
TORSDOF 1
