REMARK  0 active torsions:
REMARK  status: ('A' for Active; 'I' for Inactive)
ROOT
HETATM    1  C1  UNL     1     -32.801   6.180   2.094  1.00 20.00     0.057 C 
HETATM    2  C2  UNL     1     -34.240   5.183   5.348  1.00 20.00    -0.019 C 
HETATM    3  C3  UNL     1     -33.775   5.860   4.290  1.00 20.00    -0.051 C 
HETATM    4  C4  UNL     1     -33.490   5.403   2.948  1.00 20.00    -0.052 C 
HETATM    5  C5  UNL     1     -32.235   7.491   2.521  1.00 20.00     0.150 C 
HETATM    6  C6  UNL     1     -34.374   6.066   6.548  1.00 20.00     0.028 C 
HETATM    7  C7  UNL     1     -32.300   7.859   3.991  1.00 20.00     0.092 C 
HETATM    8  C8  UNL     1     -33.558   7.298   6.151  1.00 20.00     0.013 C 
HETATM    9  C9  UNL     1     -33.571   7.311   4.621  1.00 20.00     0.026 C 
HETATM   10  C10 UNL     1     -34.003   4.055   2.528  1.00 20.00     0.049 C 
HETATM   11  O11 UNL     1     -31.668   8.209   1.699  1.00 20.00    -0.293 OA
ENDROOT
TORSDOF 0
