REMARK  1 active torsions:
REMARK  status: ('A' for Active; 'I' for Inactive)
REMARK    1  A    between atoms: C1_1  and  C3_3 
REMARK       I    between atoms: C3_3  and  N8_8 
ROOT
HETATM    1  C3  UNL     1     -33.375   7.167   4.193  1.00 20.00     0.243 C 
HETATM    2  C4  UNL     1     -35.680   5.983   4.248  1.00 20.00     0.151 A 
HETATM    3  C5  UNL     1     -35.136   6.116   5.739  1.00 20.00     0.101 A 
HETATM    4  C7  UNL     1     -34.654   4.924   6.479  1.00 20.00     0.034 C 
HETATM    5  N8  UNL     1     -34.482   6.544   4.613  1.00 20.00    -0.341 N 
HETATM    6  O9  UNL     1     -32.452   7.538   4.912  1.00 20.00    -0.268 OA
ENDROOT
BRANCH   1   7
HETATM    7  C1  UNL     1     -33.322   7.394   2.738  1.00 20.00     0.070 C 
HETATM    8  C2  UNL     1     -32.299   8.002   2.122  1.00 20.00    -0.026 C 
HETATM    9  C6  UNL     1     -32.243   8.238   0.648  1.00 20.00     0.036 C 
ENDBRANCH   1   7
TORSDOF 1
