REMARK  1 active torsions:
REMARK  status: ('A' for Active; 'I' for Inactive)
REMARK    1  A    between atoms: C2_2  and  C5_5 
ROOT
HETATM    1  C1  UNL     1     -32.759   6.350   2.692  1.00 20.00     0.016 C 
HETATM    2  C2  UNL     1     -32.975   7.442   3.440  1.00 20.00    -0.019 C 
HETATM    3  C3  UNL     1     -33.000   5.010   3.201  1.00 20.00    -0.066 C 
HETATM    4  C4  UNL     1     -32.931   3.934   2.402  1.00 20.00     0.019 C 
HETATM    5  C6  UNL     1     -33.507   7.407   4.845  1.00 20.00     0.050 C 
HETATM    6  C7  UNL     1     -33.334   4.890   4.672  1.00 20.00     0.047 C 
HETATM    7  C8  UNL     1     -34.200   6.063   5.197  1.00 20.00    -0.040 C 
HETATM    8  C9  UNL     1     -35.615   6.010   4.582  1.00 20.00     0.015 C 
HETATM    9  C10 UNL     1     -34.340   5.950   6.725  1.00 20.00     0.015 C 
ENDROOT
BRANCH   2  10
HETATM   10  C5  UNL     1     -32.697   8.746   2.833  1.00 20.00     0.265 C 
HETATM   11  O11 UNL     1     -32.281   8.865   1.687  1.00 20.00    -0.302 OA
ENDBRANCH   2  10
TORSDOF 1
