REMARK  1 active torsions:
REMARK  status: ('A' for Active; 'I' for Inactive)
REMARK    1  A    between atoms: C3_3  and  C6_6 
ROOT
HETATM    1  C1  UNL     1     -34.770   5.776   6.748  1.00 20.00    -0.030 A 
HETATM    2  C2  UNL     1     -34.715   4.806   5.821  1.00 20.00    -0.025 A 
HETATM    3  C4  UNL     1     -34.456   7.104   6.107  1.00 20.00     0.033 A 
HETATM    4  C5  UNL     1     -34.386   5.293   4.472  1.00 20.00     0.024 A 
HETATM    5  C6  UNL     1     -33.050   5.937   4.195  1.00 20.00     0.068 A 
HETATM    6  C7  UNL     1     -34.213   6.790   4.644  1.00 20.00     0.009 A 
ENDROOT
BRANCH   5   7
HETATM    7  C3  UNL     1     -32.588   6.042   2.806  1.00 20.00     0.128 C 
HETATM    8  C8  UNL     1     -32.520   4.763   2.017  1.00 20.00     0.091 C 
HETATM    9  O9  UNL     1     -32.273   7.123   2.311  1.00 20.00    -0.298 OA
ENDBRANCH   5   7
TORSDOF 1
