REMARK  0 active torsions:
REMARK  status: ('A' for Active; 'I' for Inactive)
ROOT
HETATM    1  C1  UNL     1     -33.422   4.575   3.352  1.00 20.00     0.012 C 
HETATM    2  C2  UNL     1     -32.465   5.703   2.967  1.00 20.00     0.077 C 
HETATM    3  C3  UNL     1     -33.849   4.683   4.814  1.00 20.00     0.082 C 
HETATM    4  C4  UNL     1     -34.003   7.182   4.477  1.00 20.00     0.264 A 
HETATM    5  C5  UNL     1     -32.955   7.047   3.405  1.00 20.00     0.237 A 
HETATM    6  C6  UNL     1     -34.634   5.965   5.052  1.00 20.00     0.274 C 
HETATM    7  O7  UNL     1     -32.617   7.362   4.770  1.00 20.00    -0.332 OA
HETATM    8  F8  UNL     1     -32.841   8.090   2.497  1.00 20.00    -0.209 F 
HETATM    9  F9  UNL     1     -34.821   6.138   6.386  1.00 20.00    -0.203 F 
HETATM   10  F10 UNL     1     -35.873   5.827   4.507  1.00 20.00    -0.203 F 
ENDROOT
TORSDOF 0
