REMARK  1 active torsions:
REMARK  status: ('A' for Active; 'I' for Inactive)
REMARK    1  A    between atoms: C1_1  and  C5_5 
ROOT
HETATM    1  C2  UNL     1     -33.039   5.192   3.993  1.00 20.00     0.013 C 
HETATM    2  C3  UNL     1     -32.367   5.902   2.822  1.00 20.00     0.009 C 
HETATM    3  C4  UNL     1     -34.099   7.367   3.570  1.00 20.00     0.021 C 
HETATM    4  C5  UNL     1     -34.242   6.063   4.367  1.00 20.00     0.055 C 
HETATM    5  C6  UNL     1     -32.648   7.391   3.056  1.00 20.00    -0.047 C 
HETATM    6  C8  UNL     1     -32.525   8.194   1.758  1.00 20.00     0.015 C 
HETATM    7  C9  UNL     1     -31.694   7.984   4.105  1.00 20.00     0.015 C 
ENDROOT
BRANCH   4   8
HETATM    8  C1  UNL     1     -34.294   6.319   5.843  1.00 20.00     0.127 C 
HETATM    9  C7  UNL     1     -34.407   5.113   6.735  1.00 20.00     0.091 C 
HETATM   10  O10 UNL     1     -34.245   7.459   6.303  1.00 20.00    -0.298 OA
ENDBRANCH   4   8
TORSDOF 1
