REMARK  2 active torsions:
REMARK  status: ('A' for Active; 'I' for Inactive)
REMARK    1  A    between atoms: C2_2  and  C5_5 
REMARK    2  A    between atoms: C2_2  and  C9_9 
ROOT
HETATM    1  C1  UNL     1     -33.140   5.547   3.249  1.00 20.00     0.225 C 
HETATM    2  C2  UNL     1     -33.200   6.363   4.267  1.00 20.00    -0.014 C 
HETATM    3  O10 UNL     1     -33.088   4.812   2.332  1.00 20.00    -0.284 OA
ENDROOT
BRANCH   2   4
HETATM    4  C5  UNL     1     -32.167   7.425   4.286  1.00 20.00     0.019 A 
HETATM    5  C3  UNL     1     -31.569   7.847   2.986  1.00 20.00     0.010 A 
HETATM    6  C4  UNL     1     -32.517   8.755   3.709  1.00 20.00     0.010 A 
ENDBRANCH   2   4
BRANCH   2   7
HETATM    7  C9  UNL     1     -34.266   6.313   5.366  1.00 20.00    -0.024 C 
HETATM    8  C6  UNL     1     -34.036   7.472   6.354  1.00 20.00     0.019 C 
HETATM    9  C7  UNL     1     -34.211   4.976   6.132  1.00 20.00     0.019 C 
HETATM   10  C8  UNL     1     -35.692   6.451   4.784  1.00 20.00     0.019 C 
ENDBRANCH   2   7
TORSDOF 2
