REMARK  1 active torsions:
REMARK  status: ('A' for Active; 'I' for Inactive)
REMARK    1  A    between atoms: C4_4  and  C5_5 
ROOT
HETATM    1  C1  UNL     1     -34.088   4.462   5.487  1.00 20.00    -0.021 C 
HETATM    2  C2  UNL     1     -34.604   5.015   6.592  1.00 20.00    -0.025 C 
HETATM    3  C3  UNL     1     -32.768   7.174   4.582  1.00 20.00    -0.015 C 
HETATM    4  C4  UNL     1     -33.326   6.194   3.848  1.00 20.00    -0.009 C 
HETATM    5  C6  UNL     1     -33.087   7.562   6.003  1.00 20.00     0.028 C 
HETATM    6  C7  UNL     1     -34.548   7.547   6.490  1.00 20.00     0.012 C 
HETATM    7  C8  UNL     1     -35.655   6.047   4.770  1.00 20.00     0.022 C 
HETATM    8  C9  UNL     1     -34.437   5.268   4.265  1.00 20.00     0.045 C 
HETATM    9  C10 UNL     1     -35.362   6.267   6.258  1.00 20.00     0.009 C 
ENDROOT
BRANCH   4  10
HETATM   10  C5  UNL     1     -32.785   6.025   2.491  1.00 20.00     0.152 C 
HETATM   11  C11 UNL     1     -32.240   7.243   1.794  1.00 20.00     0.096 C 
HETATM   12  O12 UNL     1     -32.790   4.919   1.952  1.00 20.00    -0.293 OA
ENDBRANCH   4  10
TORSDOF 1
