REMARK  3 active torsions:
REMARK  status: ('A' for Active; 'I' for Inactive)
REMARK    1  A    between atoms: C3_3  and  C7_7 
REMARK    2  A    between atoms: C4_4  and  O11_11 
REMARK    3  A    between atoms: C7_7  and  C8_8 
ROOT
HETATM    1  C1  UNL     1     -33.488   7.346   4.096  1.00 20.00     0.180 C 
HETATM    2  C2  UNL     1     -33.419   5.455   2.467  1.00 20.00     0.180 C 
HETATM    3  C3  UNL     1     -33.591   5.828   3.940  1.00 20.00     0.034 C 
HETATM    4  C4  UNL     1     -32.151   7.424   2.148  1.00 20.00     0.412 C 
HETATM    5  O9  UNL     1     -32.269   7.817   3.520  1.00 20.00    -0.339 OA
HETATM    6  O10 UNL     1     -32.203   6.006   1.960  1.00 20.00    -0.339 OA
ENDROOT
BRANCH   3   7
HETATM    7  C7  UNL     1     -34.903   5.297   4.502  1.00 20.00     0.008 C 
BRANCH   7   8
HETATM    8  C8  UNL     1     -35.023   5.579   5.997  1.00 20.00    -0.004 C 
HETATM    9  C5  UNL     1     -33.910   4.904   6.781  1.00 20.00     0.005 C 
ENDBRANCH   7   8
ENDBRANCH   3   7
BRANCH   4  10
HETATM   10  O11 UNL     1     -33.056   8.126   1.295  1.00 20.00    -0.344 OA
HETATM   11  C6  UNL     1     -32.903   9.530   1.425  1.00 20.00     0.207 C 
ENDBRANCH   4  10
TORSDOF 3
