REMARK  2 active torsions:
REMARK  status: ('A' for Active; 'I' for Inactive)
REMARK    1  A    between atoms: C1_1  and  C6_6 
REMARK    2  A    between atoms: C7_7  and  C8_8 
ROOT
HETATM    1  C2  UNL     1     -32.889   7.540   4.409  1.00 20.00     0.014 C 
HETATM    2  C3  UNL     1     -34.099   5.546   3.443  1.00 20.00     0.014 C 
HETATM    3  C4  UNL     1     -32.568   8.031   2.998  1.00 20.00     0.008 C 
HETATM    4  C5  UNL     1     -33.778   6.033   2.031  1.00 20.00     0.008 C 
HETATM    5  C6  UNL     1     -34.167   6.709   4.425  1.00 20.00     0.072 C 
HETATM    6  C7  UNL     1     -32.491   6.869   1.998  1.00 20.00     0.014 C 
ENDROOT
BRANCH   5   7
HETATM    7  C1  UNL     1     -34.319   6.128   5.818  1.00 20.00     0.223 C 
HETATM    8  O9  UNL     1     -34.361   4.916   6.010  1.00 20.00    -0.279 OA
HETATM    9 CL11 UNL     1     -34.419   7.363   7.036  1.00 20.00    -0.043 Cl
ENDBRANCH   5   7
BRANCH   6  10
HETATM   10  C8  UNL     1     -32.221   7.388   0.587  1.00 20.00     0.226 C 
HETATM   11  F10 UNL     1     -31.336   8.408   0.677  1.00 20.00    -0.255 F 
ENDBRANCH   6  10
TORSDOF 2
