REMARK  1 active torsions:
REMARK  status: ('A' for Active; 'I' for Inactive)
REMARK    1  A    between atoms: C4_4  and  O11_11 
ROOT
HETATM    1  C1  UNL     1     -33.448   6.784   6.184  1.00 20.00     0.034 C 
HETATM    2  C2  UNL     1     -32.558   7.447   5.417  1.00 20.00     0.003 C 
HETATM    3  C3  UNL     1     -34.658   5.883   4.257  1.00 20.00     0.017 C 
HETATM    4  C4  UNL     1     -34.386   5.837   5.577  1.00 20.00     0.062 C 
HETATM    5  C5  UNL     1     -32.625   7.894   1.920  1.00 20.00     0.004 C 
HETATM    6  C6  UNL     1     -33.712   6.838   1.972  1.00 20.00     0.065 C 
HETATM    7  C7  UNL     1     -33.986   6.952   3.454  1.00 20.00     0.045 C 
HETATM    8  C8  UNL     1     -32.548   7.138   3.953  1.00 20.00     0.139 C 
HETATM    9  C9  UNL     1     -32.319   8.603   0.642  1.00 20.00     0.065 C 
HETATM   10  N10 UNL     1     -31.991   8.151   3.036  1.00 20.00    -0.289 NA
ENDROOT
BRANCH   4  11
HETATM   11  O11 UNL     1     -34.980   4.961   6.453  1.00 20.00    -0.361 OA
HETATM   12  H22 UNL     1     -35.581   4.373   5.980  1.00 20.00     0.217 HD
ENDBRANCH   4  11
TORSDOF 1
