REMARK  2 active torsions:
REMARK  status: ('A' for Active; 'I' for Inactive)
REMARK    1  A    between atoms: C3_3  and  C6_6 
REMARK    2  A    between atoms: C3_3  and  O10_10 
ROOT
HETATM    1  C1  UNL     1     -33.060   5.915   3.459  1.00 20.00    -0.010 C 
HETATM    2  C2  UNL     1     -34.025   5.739   4.370  1.00 20.00    -0.087 C 
HETATM    3  C4  UNL     1     -33.989   6.799   5.425  1.00 20.00     0.034 C 
HETATM    4  C5  UNL     1     -32.643   7.489   5.179  1.00 20.00     0.023 C 
HETATM    5  C6  UNL     1     -32.222   7.113   3.758  1.00 20.00     0.108 C 
HETATM    6  C7  UNL     1     -35.057   4.672   4.384  1.00 20.00     0.043 C 
ENDROOT
BRANCH   5   7
HETATM    7  C3  UNL     1     -32.566   8.178   2.765  1.00 20.00     0.266 C 
HETATM    8  O9  UNL     1     -33.047   9.263   3.062  1.00 20.00    -0.265 OA
BRANCH   7   9
HETATM    9  O10 UNL     1     -32.261   7.745   1.508  1.00 20.00    -0.326 OA
HETATM   10  C8  UNL     1     -32.541   8.671   0.454  1.00 20.00     0.213 C 
ENDBRANCH   7   9
ENDBRANCH   5   7
TORSDOF 2
