REMARK  1 active torsions:
REMARK  status: ('A' for Active; 'I' for Inactive)
REMARK    1  A    between atoms: C1_1  and  C5_5 
ROOT
HETATM    1  C1  UNL     1     -32.699   6.892   2.853  1.00 20.00    -0.068 C 
HETATM    2  C2  UNL     1     -32.202   7.550   1.980  1.00 20.00    -0.108 C 
HETATM    3  C6  UNL     1     -31.598   8.351   0.916  1.00 20.00     0.112 C 
ENDROOT
BRANCH   1   4
HETATM    4  C5  UNL     1     -33.298   6.097   3.908  1.00 20.00     0.126 C 
HETATM    5  C3  UNL     1     -34.584   6.718   4.529  1.00 20.00     0.057 C 
HETATM    6  C4  UNL     1     -33.824   6.570   5.863  1.00 20.00     0.127 C 
HETATM    7  C7  UNL     1     -35.909   5.987   4.423  1.00 20.00     0.016 C 
HETATM    8  C8  UNL     1     -33.720   7.806   6.732  1.00 20.00     0.040 C 
HETATM    9  O10 UNL     1     -32.578   6.324   5.155  1.00 20.00    -0.362 OA
HETATM   10  C9  UNL     1     -33.292   4.613   3.568  1.00 20.00     0.061 C 
ENDBRANCH   1   4
TORSDOF 1
