REMARK  2 active torsions:
REMARK  status: ('A' for Active; 'I' for Inactive)
REMARK    1  A    between atoms: C2_2  and  C8_8 
REMARK    2  A    between atoms: C8_8  and  N9_9 
ROOT
HETATM    1  C1  UNL     1     -32.106   7.601   1.431  1.00 20.00    -0.109 C 
HETATM    2  C2  UNL     1     -32.300   7.384   2.596  1.00 20.00    -0.077 C 
HETATM    3  C7  UNL     1     -31.869   7.863   0.012  1.00 20.00     0.112 C 
ENDROOT
BRANCH   2   4
HETATM    4  C8  UNL     1     -32.531   7.121   4.019  1.00 20.00     0.365 C 
BRANCH   4   5
HETATM    5  N9  UNL     1     -33.959   7.122   4.326  1.00 20.00     0.103 N 
HETATM    6  C3  UNL     1     -34.607   5.853   3.963  1.00 20.00     0.299 C 
HETATM    7  C5  UNL     1     -34.302   4.725   4.945  1.00 20.00     0.198 C 
HETATM    8  O10 UNL     1     -34.654   5.113   6.273  1.00 20.00    -0.388 OA
HETATM    9  C6  UNL     1     -33.930   6.275   6.677  1.00 20.00     0.198 C 
HETATM   10  C4  UNL     1     -34.225   7.440   5.735  1.00 20.00     0.299 C 
ENDBRANCH   4   5
ENDBRANCH   2   4
TORSDOF 2
