REMARK  2 active torsions:
REMARK  status: ('A' for Active; 'I' for Inactive)
REMARK    1  A    between atoms: C1_1  and  N9_9 
REMARK    2  A    between atoms: C4_4  and  C8_8 
ROOT
HETATM    1  C2  UNL     1     -33.026   5.660   2.833  1.00 20.00     0.031 C 
HETATM    2  C3  UNL     1     -33.148   7.904   3.659  1.00 20.00     0.130 C 
HETATM    3  C4  UNL     1     -33.258   7.102   2.365  1.00 20.00     0.005 C 
HETATM    4  C5  UNL     1     -33.706   5.613   4.205  1.00 20.00     0.083 C 
HETATM    5  C6  UNL     1     -35.167   5.178   4.112  1.00 20.00     0.032 C 
HETATM    6  N9  UNL     1     -33.590   6.984   4.695  1.00 20.00    -0.355 N 
ENDROOT
BRANCH   3   7
HETATM    7  C8  UNL     1     -32.274   7.549   1.298  1.00 20.00     0.002 C 
HETATM    8  C7  UNL     1     -32.500   8.971   0.887  1.00 20.00     0.005 C 
ENDBRANCH   3   7
BRANCH   6   9
HETATM    9  C1  UNL     1     -33.783   7.358   6.005  1.00 20.00     0.351 C 
HETATM   10  O10 UNL     1     -34.152   6.643   6.930  1.00 20.00    -0.284 OA
ENDBRANCH   6   9
TORSDOF 2
