REMARK  1 active torsions:
REMARK  status: ('A' for Active; 'I' for Inactive)
REMARK    1  A    between atoms: C1_1  and  C5_5 
ROOT
HETATM    1  C2  UNL     1     -33.391   4.784   5.509  1.00 20.00     0.026 C 
HETATM    2  C3  UNL     1     -35.174   5.685   4.779  1.00 20.00     0.026 C 
HETATM    3  C4  UNL     1     -33.824   6.813   5.973  1.00 20.00     0.026 C 
HETATM    4  C5  UNL     1     -33.672   6.036   4.642  1.00 20.00     0.022 C 
HETATM    5  C6  UNL     1     -34.615   5.469   6.245  1.00 20.00    -0.041 C 
HETATM    6  C8  UNL     1     -35.331   5.037   7.464  1.00 20.00     0.015 C 
ENDROOT
BRANCH   4   7
HETATM    7  C1  UNL     1     -32.952   6.468   3.414  1.00 20.00     0.131 C 
HETATM    8  C7  UNL     1     -32.284   7.815   3.460  1.00 20.00     0.091 C 
HETATM    9  O9  UNL     1     -32.904   5.757   2.412  1.00 20.00    -0.298 OA
ENDBRANCH   4   7
TORSDOF 1
