REMARK  1 active torsions:
REMARK  status: ('A' for Active; 'I' for Inactive)
REMARK    1  A    between atoms: C1_1  and  C2_2 
ROOT
HETATM    1  C2  UNL     1     -33.051   6.312   4.514  1.00 20.00     0.084 A 
HETATM    2  C3  UNL     1     -34.049   7.319   5.033  1.00 20.00     0.018 A 
HETATM    3  C4  UNL     1     -34.387   5.842   5.071  1.00 20.00     0.048 A 
HETATM    4  C6  UNL     1     -33.739   8.113   6.256  1.00 20.00     0.012 C 
HETATM    5  C7  UNL     1     -35.462   5.336   4.154  1.00 20.00     0.034 C 
HETATM    6 CL9  UNL     1     -34.320   4.978   6.627  1.00 20.00    -0.118 Cl
ENDROOT
BRANCH   1   7
HETATM    7  C1  UNL     1     -32.778   6.253   3.072  1.00 20.00     0.129 C 
HETATM    8  C5  UNL     1     -32.385   7.543   2.404  1.00 20.00     0.091 C 
HETATM    9  O8  UNL     1     -32.863   5.200   2.442  1.00 20.00    -0.298 OA
ENDBRANCH   1   7
TORSDOF 1
