REMARK  1 active torsions:
REMARK  status: ('A' for Active; 'I' for Inactive)
REMARK    1  A    between atoms: C3_3  and  C6_6 
ROOT
HETATM    1  C1  UNL     1     -35.564   5.955   4.557  1.00 20.00    -0.022 C 
HETATM    2  C2  UNL     1     -35.222   5.746   5.837  1.00 20.00    -0.022 C 
HETATM    3  C4  UNL     1     -34.284   6.150   3.776  1.00 20.00     0.053 C 
HETATM    4  C5  UNL     1     -33.712   5.795   5.913  1.00 20.00     0.047 C 
HETATM    5  C6  UNL     1     -33.704   7.523   4.202  1.00 20.00     0.062 C 
HETATM    6  C7  UNL     1     -33.214   7.247   5.666  1.00 20.00     0.003 C 
HETATM    7  C8  UNL     1     -33.386   5.180   4.551  1.00 20.00     0.186 C 
HETATM    8  C9  UNL     1     -33.723   8.273   6.670  1.00 20.00     0.011 C 
HETATM    9  F11 UNL     1     -33.804   3.899   4.450  1.00 20.00    -0.248 F 
ENDROOT
BRANCH   5  10
HETATM   10  C3  UNL     1     -32.579   7.924   3.298  1.00 20.00     0.236 C 
HETATM   11  O10 UNL     1     -32.216   7.258   2.334  1.00 20.00    -0.306 OA
ENDBRANCH   5  10
TORSDOF 1
