REMARK  1 active torsions:
REMARK  status: ('A' for Active; 'I' for Inactive)
REMARK    1  A    between atoms: C1_1  and  C4_4 
ROOT
HETATM    1  C2  UNL     1     -32.570   6.841   2.965  1.00 20.00     0.180 C 
HETATM    2  C3  UNL     1     -32.599   5.403   2.483  1.00 20.00     0.103 C 
HETATM    3  C4  UNL     1     -34.264   6.055   4.363  1.00 20.00     0.165 C 
HETATM    4  C6  UNL     1     -35.771   5.900   4.226  1.00 20.00     0.067 C 
HETATM    5  O8  UNL     1     -33.840   7.154   3.553  1.00 20.00    -0.362 OA
HETATM    6  S9  UNL     1     -33.401   4.551   3.848  1.00 20.00    -0.122 SA
ENDROOT
BRANCH   3   7
HETATM    7  C1  UNL     1     -33.894   6.350   5.785  1.00 20.00     0.167 C 
HETATM    8  C5  UNL     1     -34.278   5.319   6.811  1.00 20.00     0.095 C 
HETATM    9  O7  UNL     1     -33.304   7.383   6.097  1.00 20.00    -0.294 OA
ENDBRANCH   3   7
TORSDOF 1
