REMARK  1 active torsions:
REMARK  status: ('A' for Active; 'I' for Inactive)
REMARK    1  A    between atoms: C2_2  and  C3_3 
ROOT
HETATM    1  C1  UNL     1     -33.409   5.927   3.590  1.00 20.00     0.050 C 
HETATM    2  C2  UNL     1     -32.844   6.329   2.447  1.00 20.00     0.082 C 
HETATM    3  C4  UNL     1     -33.592   6.775   4.806  1.00 20.00     0.071 C 
HETATM    4  C5  UNL     1     -34.439   4.597   5.077  1.00 20.00     0.179 C 
HETATM    5  C6  UNL     1     -34.729   6.034   5.478  1.00 20.00     0.012 C 
HETATM    6  C8  UNL     1     -34.801   6.244   6.979  1.00 20.00     0.012 C 
HETATM    7  O10 UNL     1     -33.949   4.654   3.727  1.00 20.00    -0.355 OA
ENDROOT
BRANCH   2   8
HETATM    8  C3  UNL     1     -32.334   7.718   2.299  1.00 20.00     0.147 C 
HETATM    9  C7  UNL     1     -32.369   8.307   0.914  1.00 20.00     0.096 C 
HETATM   10  O9  UNL     1     -31.925   8.370   3.257  1.00 20.00    -0.294 OA
ENDBRANCH   2   8
TORSDOF 1
