REMARK  1 active torsions:
REMARK  status: ('A' for Active; 'I' for Inactive)
REMARK    1  A    between atoms: C4_4  and  C10_10 
ROOT
HETATM    1  C1  UNL     1     -33.385   4.866   2.786  1.00 20.00     0.174 C 
HETATM    2  C2  UNL     1     -32.279   5.849   2.950  1.00 20.00     0.025 A 
HETATM    3  C3  UNL     1     -32.738   6.845   3.947  1.00 20.00     0.030 A 
HETATM    4  C4  UNL     1     -34.119   6.441   4.357  1.00 20.00     0.130 C 
HETATM    5  C5  UNL     1     -32.375   7.309   2.546  1.00 20.00    -0.035 A 
HETATM    6  C6  UNL     1     -31.077   8.061   2.389  1.00 20.00     0.016 C 
HETATM    7  C7  UNL     1     -33.448   7.769   1.593  1.00 20.00     0.016 C 
HETATM    8  O11 UNL     1     -34.544   5.407   3.445  1.00 20.00    -0.385 OA
ENDROOT
BRANCH   4   9
HETATM    9  C10 UNL     1     -34.163   5.882   5.772  1.00 20.00     0.007 C 
HETATM   10  C8  UNL     1     -34.128   7.011   6.802  1.00 20.00     0.012 C 
HETATM   11  C9  UNL     1     -35.407   5.016   5.974  1.00 20.00     0.012 C 
ENDBRANCH   4   9
TORSDOF 1
