REMARK  1 active torsions:
REMARK  status: ('A' for Active; 'I' for Inactive)
REMARK    1  A    between atoms: C8_8  and  C9_9 
ROOT
HETATM    1  C1  UNL     1     -32.979   8.363   1.272  1.00 20.00     0.218 C 
HETATM    2  C8  UNL     1     -33.469   7.883   2.377  1.00 20.00     0.044 C 
HETATM    3  O10 UNL     1     -32.537   8.798   0.273  1.00 20.00    -0.284 OA
ENDROOT
BRANCH   2   4
HETATM    4  C9  UNL     1     -32.744   6.951   3.303  1.00 20.00     0.057 C 
HETATM    5  C6  UNL     1     -32.463   7.609   4.629  1.00 20.00    -0.014 C 
HETATM    6  C4  UNL     1     -33.124   7.511   5.791  1.00 20.00    -0.003 C 
HETATM    7  C2  UNL     1     -34.342   6.788   6.049  1.00 20.00    -0.000 C 
HETATM    8  C3  UNL     1     -34.831   5.740   5.376  1.00 20.00    -0.000 C 
HETATM    9  C5  UNL     1     -34.257   5.082   4.232  1.00 20.00    -0.003 C 
HETATM   10  C7  UNL     1     -33.401   5.595   3.338  1.00 20.00    -0.014 C 
ENDBRANCH   2   4
TORSDOF 1
