REMARK  1 active torsions:
REMARK  status: ('A' for Active; 'I' for Inactive)
REMARK    1  A    between atoms: C3_3  and  C7_7 
ROOT
HETATM    1  C1  UNL     1     -32.261   7.736   3.360  1.00 20.00    -0.019 C 
HETATM    2  C2  UNL     1     -32.594   7.120   2.212  1.00 20.00    -0.087 C 
HETATM    3  C4  UNL     1     -33.485   5.906   2.187  1.00 20.00     0.034 C 
HETATM    4  C5  UNL     1     -33.641   5.248   3.558  1.00 20.00     0.017 C 
HETATM    5  C6  UNL     1     -32.764   7.321   4.723  1.00 20.00     0.015 C 
HETATM    6  C7  UNL     1     -33.910   6.291   4.643  1.00 20.00     0.062 C 
HETATM    7  C8  UNL     1     -32.096   7.601   0.881  1.00 20.00     0.043 C 
HETATM    8  C10 UNL     1     -33.209   8.560   5.510  1.00 20.00     0.015 C 
ENDROOT
BRANCH   6   9
HETATM    9  C3  UNL     1     -34.065   5.590   5.961  1.00 20.00     0.127 C 
HETATM   10  C9  UNL     1     -32.872   4.823   6.464  1.00 20.00     0.091 C 
HETATM   11  O11 UNL     1     -35.116   5.641   6.599  1.00 20.00    -0.298 OA
ENDBRANCH   6   9
TORSDOF 1
