REMARK  2 active torsions:
REMARK  status: ('A' for Active; 'I' for Inactive)
REMARK    1  A    between atoms: C1_1  and  C2_2 
REMARK    2  A    between atoms: N7_7  and  O8_8 
ROOT
HETATM    1  C2  UNL     1     -33.060   7.132   5.016  1.00 20.00     0.115 A 
HETATM    2  C3  UNL     1     -34.442   6.906   5.628  1.00 20.00     0.033 A 
HETATM    3  C4  UNL     1     -33.563   5.754   5.271  1.00 20.00     0.260 A 
HETATM    4  C5  UNL     1     -35.677   7.132   4.796  1.00 20.00     0.022 C 
HETATM    5  C6  UNL     1     -34.615   7.238   7.086  1.00 20.00     0.022 C 
HETATM    6  F9  UNL     1     -32.981   4.977   6.249  1.00 20.00    -0.205 F 
HETATM    7  F10 UNL     1     -33.881   4.914   4.226  1.00 20.00    -0.205 F 
ENDROOT
BRANCH   1   8
HETATM    8  C1  UNL     1     -32.920   7.614   3.637  1.00 20.00     0.130 C 
HETATM    9  N7  UNL     1     -32.242   6.944   2.767  1.00 20.00    -0.152 NA
BRANCH   9  10
HETATM   10  O8  UNL     1     -32.278   7.630   1.551  1.00 20.00    -0.267 OA
HETATM   11  H19 UNL     1     -31.747   7.048   0.982  1.00 20.00     0.247 HD
ENDBRANCH   9  10
ENDBRANCH   1   8
TORSDOF 2
