REMARK  1 active torsions:
REMARK  status: ('A' for Active; 'I' for Inactive)
REMARK    1  A    between atoms: C3_3  and  C7_7 
ROOT
HETATM    1  C1  UNL     1     -33.704   4.619   3.819  1.00 20.00    -0.029 C 
HETATM    2  C2  UNL     1     -34.303   5.038   4.943  1.00 20.00    -0.026 C 
HETATM    3  C4  UNL     1     -33.004   5.541   2.866  1.00 20.00     0.039 C 
HETATM    4  C5  UNL     1     -33.288   7.334   4.619  1.00 20.00     0.020 C 
HETATM    5  C6  UNL     1     -34.310   6.478   5.390  1.00 20.00     0.004 C 
HETATM    6  C7  UNL     1     -33.319   7.019   3.123  1.00 20.00     0.059 C 
HETATM    7  C9  UNL     1     -34.054   6.582   6.894  1.00 20.00     0.014 C 
ENDROOT
BRANCH   6   8
HETATM    8  C3  UNL     1     -32.328   7.874   2.395  1.00 20.00     0.127 C 
HETATM    9  C8  UNL     1     -32.670   8.251   0.979  1.00 20.00     0.091 C 
HETATM   10  O10 UNL     1     -31.286   8.251   2.929  1.00 20.00    -0.298 OA
ENDBRANCH   6   8
TORSDOF 1
