REMARK  1 active torsions:
REMARK  status: ('A' for Active; 'I' for Inactive)
REMARK    1  A    between atoms: C9_9  and  C10_10 
ROOT
HETATM    1  C1  UNL     1     -34.928   5.083   5.309  1.00 20.00     0.001 A 
HETATM    2  C2  UNL     1     -34.673   6.306   6.080  1.00 20.00     0.001 A 
HETATM    3  C3  UNL     1     -34.352   4.858   4.110  1.00 20.00     0.012 A 
HETATM    4  C4  UNL     1     -33.848   7.277   5.635  1.00 20.00     0.012 A 
HETATM    5  C5  UNL     1     -32.762   5.904   2.445  1.00 20.00     0.001 A 
HETATM    6  C6  UNL     1     -32.353   7.866   3.683  1.00 20.00     0.001 A 
HETATM    7  C7  UNL     1     -33.461   5.867   3.589  1.00 20.00    -0.029 A 
HETATM    8  C8  UNL     1     -33.207   7.083   4.355  1.00 20.00    -0.029 A 
HETATM    9  C10 UNL     1     -31.979   7.191   2.388  1.00 20.00     0.094 A 
ENDROOT
BRANCH   9  10
HETATM   10  C9  UNL     1     -32.466   8.017   1.240  1.00 20.00     0.243 C 
HETATM   11  O11 UNL     1     -31.734   8.428   0.345  1.00 20.00    -0.306 OA
ENDBRANCH   9  10
TORSDOF 1
