REMARK  2 active torsions:
REMARK  status: ('A' for Active; 'I' for Inactive)
REMARK    1  A    between atoms: C1_1  and  C5_5 
REMARK    2  A    between atoms: C5_5  and  O8_8 
ROOT
HETATM    1  C2  UNL     1     -32.606   8.197   2.468  1.00 20.00     0.007 C 
HETATM    2  C3  UNL     1     -34.084   7.879   2.749  1.00 20.00     0.047 C 
HETATM    3  C4  UNL     1     -32.307   7.851   3.935  1.00 20.00     0.047 C 
HETATM    4  C5  UNL     1     -33.622   7.010   3.961  1.00 20.00     0.136 C 
ENDROOT
BRANCH   4   5
HETATM    5  C1  UNL     1     -33.463   5.493   3.675  1.00 20.00     0.253 C 
HETATM    6  O7  UNL     1     -32.679   5.074   2.829  1.00 20.00    -0.276 OA
HETATM    7 CL9  UNL     1     -34.503   4.526   4.678  1.00 20.00    -0.041 Cl
ENDBRANCH   4   5
BRANCH   4   8
HETATM    8  O8  UNL     1     -34.421   7.212   5.149  1.00 20.00    -0.376 OA
HETATM    9  C6  UNL     1     -33.637   7.030   6.310  1.00 20.00     0.203 C 
ENDBRANCH   4   8
TORSDOF 2
