REMARK  1 active torsions:
REMARK  status: ('A' for Active; 'I' for Inactive)
REMARK    1  A    between atoms: C1_1  and  C8_8 
ROOT
HETATM    1  C2  UNL     1     -34.500   7.524   6.821  1.00 20.00     0.005 C 
HETATM    2  C3  UNL     1     -35.482   6.351   6.679  1.00 20.00     0.006 C 
HETATM    3  C4  UNL     1     -33.286   5.491   6.578  1.00 20.00     0.010 C 
HETATM    4  C5  UNL     1     -33.361   6.921   4.667  1.00 20.00     0.023 C 
HETATM    5  C6  UNL     1     -33.204   6.968   6.201  1.00 20.00    -0.013 C 
HETATM    6  C7  UNL     1     -34.657   5.304   5.910  1.00 20.00     0.003 C 
HETATM    7  C8  UNL     1     -34.370   5.767   4.454  1.00 20.00     0.036 C 
HETATM    8  C9  UNL     1     -35.599   6.204   3.658  1.00 20.00     0.025 C 
ENDROOT
BRANCH   7   9
HETATM    9  C1  UNL     1     -33.738   4.620   3.701  1.00 20.00     0.227 C 
HETATM   10  O10 UNL     1     -33.658   3.496   4.186  1.00 20.00    -0.279 OA
HETATM   11 CL11 UNL     1     -33.171   5.102   2.131  1.00 20.00    -0.043 Cl
ENDBRANCH   7   9
TORSDOF 1
