REMARK  0 active torsions:
REMARK  status: ('A' for Active; 'I' for Inactive)
ROOT
HETATM    1  C1  UNL     1     -33.345   6.732   4.528  1.00 20.00     0.169 C 
HETATM    2  C2  UNL     1     -33.407   5.598   2.721  1.00 20.00     0.062 C 
HETATM    3  C3  UNL     1     -32.440   6.672   3.285  1.00 20.00     0.058 C 
HETATM    4  C4  UNL     1     -34.158   5.481   4.080  1.00 20.00     0.174 C 
HETATM    5  C5  UNL     1     -32.332   7.956   2.488  1.00 20.00     0.018 C 
HETATM    6  O6  UNL     1     -33.392   7.470   5.490  1.00 20.00    -0.294 OA
HETATM    7 CL7  UNL     1     -33.759   4.052   5.092  1.00 20.00    -0.093 Cl
HETATM    8 CL8  UNL     1     -35.920   5.808   4.034  1.00 20.00    -0.093 Cl
ENDROOT
TORSDOF 0
