REMARK  3 active torsions:
REMARK  status: ('A' for Active; 'I' for Inactive)
REMARK    1  A    between atoms: C1_1  and  C4_4 
REMARK    2  A    between atoms: C3_3  and  C7_7 
REMARK    3  A    between atoms: C7_7  and  O9_9 
ROOT
HETATM    1  C1  UNL     1     -33.315   6.871   4.825  1.00 20.00    -0.066 C 
HETATM    2  C2  UNL     1     -32.507   7.601   4.319  1.00 20.00    -0.108 C 
HETATM    3  C5  UNL     1     -31.523   8.490   3.703  1.00 20.00     0.112 C 
ENDROOT
BRANCH   1   4
HETATM    4  C4  UNL     1     -34.279   5.999   5.428  1.00 20.00     0.148 A 
HETATM    5  C3  UNL     1     -34.469   4.588   4.910  1.00 20.00     0.194 A 
HETATM    6  O8  UNL     1     -35.354   5.650   4.540  1.00 20.00    -0.354 OA
HETATM    7  C6  UNL     1     -34.735   6.335   6.812  1.00 20.00     0.063 C 
BRANCH   5   8
HETATM    8  C7  UNL     1     -33.686   4.017   3.780  1.00 20.00     0.200 C 
BRANCH   8   9
HETATM    9  O9  UNL     1     -33.906   4.786   2.596  1.00 20.00    -0.398 OA
HETATM   10  H19 UNL     1     -33.375   4.372   1.899  1.00 20.00     0.209 HD
ENDBRANCH   8   9
ENDBRANCH   5   8
ENDBRANCH   1   4
TORSDOF 3
