REMARK  1 active torsions:
REMARK  status: ('A' for Active; 'I' for Inactive)
REMARK    1  A    between atoms: C3_3  and  C7_7 
ROOT
HETATM    1  C1  UNL     1     -33.568   6.654   5.885  1.00 20.00     0.218 C 
HETATM    2  C4  UNL     1     -34.192   5.272   5.913  1.00 20.00     0.103 C 
HETATM    3  C5  UNL     1     -34.820   4.836   4.599  1.00 20.00     0.012 C 
HETATM    4  C6  UNL     1     -33.847   5.074   3.454  1.00 20.00     0.029 C 
HETATM    5  C7  UNL     1     -33.535   6.559   3.374  1.00 20.00     0.106 C 
HETATM    6  N8  UNL     1     -33.154   7.122   4.657  1.00 20.00    -0.353 N 
HETATM    7  O9  UNL     1     -33.370   7.275   6.930  1.00 20.00    -0.274 OA
HETATM    8  H20 UNL     1     -32.536   7.921   4.649  1.00 20.00     0.163 HD
ENDROOT
BRANCH   5   9
HETATM    9  C3  UNL     1     -32.434   6.718   2.347  1.00 20.00    -0.012 C 
HETATM   10  C2  UNL     1     -32.309   7.779   1.543  1.00 20.00     0.009 C 
ENDBRANCH   5   9
TORSDOF 1
