REMARK  1 active torsions:
REMARK  status: ('A' for Active; 'I' for Inactive)
REMARK    1  A    between atoms: C2_2  and  C9_9 
ROOT
HETATM    1  C1  UNL     1     -35.124   5.677   4.334  1.00 20.00     0.144 C 
HETATM    2  C3  UNL     1     -35.545   4.871   5.545  1.00 20.00     0.084 C 
HETATM    3  C4  UNL     1     -34.093   7.394   6.431  1.00 20.00     0.002 C 
HETATM    4  C5  UNL     1     -34.042   6.083   7.227  1.00 20.00     0.005 C 
HETATM    5  C6  UNL     1     -33.390   7.306   5.068  1.00 20.00     0.027 C 
HETATM    6  C7  UNL     1     -33.167   4.814   5.260  1.00 20.00     0.031 C 
HETATM    7  C8  UNL     1     -34.237   4.828   6.353  1.00 20.00    -0.006 C 
HETATM    8  C9  UNL     1     -33.632   5.964   4.361  1.00 20.00     0.097 C 
HETATM    9  O10 UNL     1     -35.894   6.052   3.460  1.00 20.00    -0.297 OA
ENDROOT
BRANCH   8  10
HETATM   10  C2  UNL     1     -32.959   5.903   3.028  1.00 20.00     0.234 C 
HETATM   11  O11 UNL     1     -32.957   4.878   2.353  1.00 20.00    -0.279 OA
HETATM   12 CL12 UNL     1     -32.219   7.415   2.599  1.00 20.00    -0.043 Cl
ENDBRANCH   8  10
TORSDOF 1
