REMARK  0 active torsions:
REMARK  status: ('A' for Active; 'I' for Inactive)
ROOT
HETATM    1  C1  UNL     1     -34.453   5.200   5.111  1.00 20.00     0.013 A 
HETATM    2  C2  UNL     1     -34.883   5.498   6.346  1.00 20.00    -0.025 A 
HETATM    3  C3  UNL     1     -33.709   6.170   4.377  1.00 20.00     0.035 A 
HETATM    4  C4  UNL     1     -33.401   7.384   4.844  1.00 20.00    -0.046 A 
HETATM    5  C5  UNL     1     -33.144   6.058   3.020  1.00 20.00     0.254 A 
HETATM    6  C6  UNL     1     -34.619   6.826   7.016  1.00 20.00     0.031 A 
HETATM    7  C7  UNL     1     -33.807   7.862   6.199  1.00 20.00     0.040 A 
HETATM    8  C8  UNL     1     -32.617   8.199   3.877  1.00 20.00     0.161 A 
HETATM    9  C9  UNL     1     -31.824   7.577   1.535  1.00 20.00     0.153 C 
HETATM   10  N10 UNL     1     -32.513   7.273   2.771  1.00 20.00    -0.348 N 
HETATM   11  O11 UNL     1     -33.240   5.076   2.303  1.00 20.00    -0.267 OA
ENDROOT
TORSDOF 0
