REMARK  1 active torsions:
REMARK  status: ('A' for Active; 'I' for Inactive)
REMARK    1  A    between atoms: C3_3  and  C7_7 
ROOT
HETATM    1  C1  UNL     1     -34.107   5.559   6.871  1.00 20.00    -0.030 C 
HETATM    2  C2  UNL     1     -33.797   6.772   6.387  1.00 20.00    -0.025 C 
HETATM    3  C4  UNL     1     -34.628   4.473   5.972  1.00 20.00     0.027 C 
HETATM    4  C5  UNL     1     -34.132   4.596   4.524  1.00 20.00     0.010 C 
HETATM    5  C6  UNL     1     -33.984   7.151   4.983  1.00 20.00     0.025 A 
HETATM    6  C7  UNL     1     -32.924   6.837   3.961  1.00 20.00     0.085 A 
HETATM    7  C8  UNL     1     -34.192   6.010   4.011  1.00 20.00     0.007 A 
ENDROOT
BRANCH   6   8
HETATM    8  C3  UNL     1     -32.723   7.755   2.833  1.00 20.00     0.224 C 
HETATM    9  O9  UNL     1     -32.243   7.376   1.769  1.00 20.00    -0.279 OA
HETATM   10 CL10 UNL     1     -33.238   9.373   3.207  1.00 20.00    -0.043 Cl
ENDBRANCH   6   8
TORSDOF 1
