REMARK  1 active torsions:
REMARK  status: ('A' for Active; 'I' for Inactive)
REMARK    1  A    between atoms: C8_8  and  O11_11 
ROOT
HETATM    1  C1  UNL     1     -35.369   6.733   3.595  1.00 20.00    -0.023 C 
HETATM    2  C2  UNL     1     -35.104   7.387   4.738  1.00 20.00    -0.022 C 
HETATM    3  C3  UNL     1     -33.635   4.627   6.958  1.00 20.00     0.011 A 
HETATM    4  C4  UNL     1     -35.075   5.049   7.055  1.00 20.00     0.011 A 
HETATM    5  C5  UNL     1     -34.590   4.543   4.491  1.00 20.00     0.021 C 
HETATM    6  C6  UNL     1     -34.318   5.651   3.428  1.00 20.00     0.038 C 
HETATM    7  C7  UNL     1     -33.894   6.716   5.361  1.00 20.00     0.046 C 
HETATM    8  C8  UNL     1     -33.117   6.365   4.074  1.00 20.00     0.136 C 
HETATM    9  C9  UNL     1     -34.300   5.309   5.791  1.00 20.00    -0.030 A 
ENDROOT
BRANCH   8  10
HETATM   10  O11 UNL     1     -32.655   7.483   3.343  1.00 20.00    -0.389 OA
HETATM   11  C10 UNL     1     -32.235   7.121   2.031  1.00 20.00     0.202 C 
ENDBRANCH   8  10
TORSDOF 1
