REMARK  0 active torsions:
REMARK  status: ('A' for Active; 'I' for Inactive)
ROOT
HETATM    1  C1  UNL     1     -32.060   8.361   1.527  1.00 20.00     0.015 C 
HETATM    2  C2  UNL     1     -32.295   7.738   2.526  1.00 20.00    -0.076 C 
HETATM    3  C3  UNL     1     -33.260   7.891   4.778  1.00 20.00     0.057 C 
HETATM    4  C4  UNL     1     -34.037   6.935   5.665  1.00 20.00     0.044 C 
HETATM    5  C5  UNL     1     -32.586   6.972   3.754  1.00 20.00     0.218 C 
HETATM    6  C6  UNL     1     -34.466   5.794   4.724  1.00 20.00     0.154 C 
HETATM    7  C7  UNL     1     -31.275   6.393   4.313  1.00 20.00     0.064 C 
HETATM    8  C8  UNL     1     -34.331   4.445   5.451  1.00 20.00     0.049 C 
HETATM    9  C9  UNL     1     -35.933   5.986   4.301  1.00 20.00     0.049 C 
HETATM   10  C10 UNL     1     -33.242   4.767   2.800  1.00 20.00     0.313 C 
HETATM   11  N11 UNL     1     -33.638   5.971   3.511  1.00 20.00     0.114 N 
ENDROOT
TORSDOF 0
