REMARK  1 active torsions:
REMARK  status: ('A' for Active; 'I' for Inactive)
REMARK    1  A    between atoms: C3_3  and  C7_7 
ROOT
HETATM    1  C1  UNL     1     -34.110   4.592   6.282  1.00 20.00    -0.023 C 
HETATM    2  C2  UNL     1     -34.317   5.740   6.947  1.00 20.00    -0.015 C 
HETATM    3  C4  UNL     1     -35.285   5.992   4.863  1.00 20.00     0.029 C 
HETATM    4  C5  UNL     1     -34.225   4.881   4.799  1.00 20.00     0.029 C 
HETATM    5  C6  UNL     1     -34.606   6.828   5.945  1.00 20.00     0.071 C 
HETATM    6  C7  UNL     1     -32.930   5.568   4.319  1.00 20.00     0.116 C 
HETATM    7  S9  UNL     1     -33.022   7.229   5.109  1.00 20.00    -0.148 SA
ENDROOT
BRANCH   6   8
HETATM    8  C3  UNL     1     -32.881   5.752   2.839  1.00 20.00     0.246 C 
HETATM    9  O8  UNL     1     -32.385   6.734   2.296  1.00 20.00    -0.306 OA
ENDBRANCH   6   8
TORSDOF 1
