REMARK  0 active torsions:
REMARK  status: ('A' for Active; 'I' for Inactive)
ROOT
HETATM    1  C1  UNL     1     -34.645   6.648   6.966  1.00 20.00     0.004 A 
HETATM    2  C2  UNL     1     -33.978   7.393   6.068  1.00 20.00     0.031 A 
HETATM    3  C3  UNL     1     -34.948   5.261   6.687  1.00 20.00     0.017 A 
HETATM    4  C4  UNL     1     -32.927   4.599   2.185  1.00 20.00     0.044 A 
HETATM    5  C5  UNL     1     -32.886   7.577   3.885  1.00 20.00     0.146 A 
HETATM    6  C6  UNL     1     -34.548   4.734   5.519  1.00 20.00     0.093 A 
HETATM    7  C7  UNL     1     -33.543   6.819   4.793  1.00 20.00     0.053 A 
HETATM    8  C8  UNL     1     -33.499   4.810   3.371  1.00 20.00     0.136 A 
HETATM    9  C9  UNL     1     -32.752   5.883   2.581  1.00 20.00     0.069 A 
HETATM   10  N10 UNL     1     -32.447   7.080   2.675  1.00 20.00    -0.260 NA
HETATM   11  N11 UNL     1     -33.844   5.442   4.541  1.00 20.00    -0.333 N 
ENDROOT
TORSDOF 0
