REMARK  1 active torsions:
REMARK  status: ('A' for Active; 'I' for Inactive)
REMARK    1  A    between atoms: C1_1  and  C6_6 
ROOT
HETATM    1  C2  UNL     1     -33.036   8.161   5.966  1.00 20.00     0.002 C 
HETATM    2  C3  UNL     1     -32.363   7.558   4.733  1.00 20.00     0.013 C 
HETATM    3  C4  UNL     1     -34.390   7.532   6.306  1.00 20.00     0.020 C 
HETATM    4  C5  UNL     1     -34.306   5.950   4.332  1.00 20.00     0.033 C 
HETATM    5  C6  UNL     1     -33.374   7.013   3.730  1.00 20.00     0.073 C 
HETATM    6  C7  UNL     1     -34.523   6.083   5.845  1.00 20.00     0.083 C 
HETATM    7 CL10 UNL     1     -33.377   5.036   6.743  1.00 20.00    -0.125 Cl
ENDROOT
BRANCH   5   8
HETATM    8  C1  UNL     1     -32.655   6.435   2.550  1.00 20.00     0.223 C 
HETATM    9  O8  UNL     1     -32.345   5.248   2.501  1.00 20.00    -0.279 OA
HETATM   10 CL9  UNL     1     -32.340   7.627   1.326  1.00 20.00    -0.043 Cl
ENDBRANCH   5   8
TORSDOF 1
