REMARK  1 active torsions:
REMARK  status: ('A' for Active; 'I' for Inactive)
REMARK    1  A    between atoms: C1_1  and  C4_4 
ROOT
HETATM    1  C2  UNL     1     -33.422   7.051   5.790  1.00 20.00     0.038 C 
HETATM    2  C3  UNL     1     -34.881   5.969   4.660  1.00 20.00     0.038 C 
HETATM    3  C4  UNL     1     -33.855   7.070   4.305  1.00 20.00     0.076 C 
HETATM    4  C5  UNL     1     -34.041   5.633   5.923  1.00 20.00     0.035 C 
HETATM    5  C6  UNL     1     -34.887   5.457   7.182  1.00 20.00     0.032 C 
HETATM    6 CL9  UNL     1     -32.884   4.264   5.741  1.00 20.00    -0.120 Cl
ENDROOT
BRANCH   3   7
HETATM    7  C1  UNL     1     -32.792   6.742   3.248  1.00 20.00     0.223 C 
HETATM    8  O7  UNL     1     -31.851   7.499   3.022  1.00 20.00    -0.279 OA
HETATM    9 CL8  UNL     1     -33.099   5.225   2.460  1.00 20.00    -0.043 Cl
ENDBRANCH   3   7
TORSDOF 1
