REMARK  0 active torsions:
REMARK  status: ('A' for Active; 'I' for Inactive)
ROOT
HETATM    1  C1  UNL     1     -33.338   6.519   6.691  1.00 20.00     0.012 A 
HETATM    2  C2  UNL     1     -33.195   5.552   2.952  1.00 20.00     0.006 A 
HETATM    3  C3  UNL     1     -35.304   5.536   5.710  1.00 20.00     0.101 C 
HETATM    4  C4  UNL     1     -34.646   6.645   6.452  1.00 20.00     0.016 A 
HETATM    5  C5  UNL     1     -34.098   5.972   3.854  1.00 20.00     0.035 A 
HETATM    6  C6  UNL     1     -32.412   7.877   2.090  1.00 20.00     0.015 A 
HETATM    7  C7  UNL     1     -33.727   7.564   5.794  1.00 20.00     0.017 A 
HETATM    8  C8  UNL     1     -32.125   6.530   2.687  1.00 20.00     0.015 A 
HETATM    9  C9  UNL     1     -33.761   7.405   4.296  1.00 20.00     0.048 A 
HETATM   10  C10 UNL     1     -32.451   7.713   3.587  1.00 20.00     0.004 A 
HETATM   11  N11 UNL     1     -35.069   5.221   4.469  1.00 20.00    -0.269 NA
ENDROOT
TORSDOF 0
