REMARK  2 active torsions:
REMARK  status: ('A' for Active; 'I' for Inactive)
REMARK    1  A    between atoms: C1_1  and  C7_7 
REMARK    2  A    between atoms: C4_4  and  C7_7 
ROOT
HETATM    1  C6  UNL     1     -33.548   7.737   3.588  1.00 20.00     0.018 C 
HETATM    2  C7  UNL     1     -33.515   6.513   4.501  1.00 20.00     0.055 C 
ENDROOT
BRANCH   2   3
HETATM    3  C1  UNL     1     -33.716   5.229   3.702  1.00 20.00     0.127 C 
HETATM    4  C5  UNL     1     -33.273   5.246   2.261  1.00 20.00     0.091 C 
HETATM    5  O8  UNL     1     -34.239   4.225   4.187  1.00 20.00    -0.298 OA
ENDBRANCH   2   3
BRANCH   2   6
HETATM    6  C4  UNL     1     -34.577   6.621   5.588  1.00 20.00    -0.004 A 
HETATM    7  C2  UNL     1     -34.378   5.938   6.913  1.00 20.00     0.006 A 
HETATM    8  C3  UNL     1     -34.315   7.438   6.823  1.00 20.00     0.006 A 
ENDBRANCH   2   6
TORSDOF 2
