REMARK  1 active torsions:
REMARK  status: ('A' for Active; 'I' for Inactive)
REMARK    1  A    between atoms: C1_1  and  C7_7 
ROOT
HETATM    1  C2  UNL     1     -33.315   5.221   2.172  1.00 20.00     0.004 C 
HETATM    2  C3  UNL     1     -32.341   6.366   2.418  1.00 20.00     0.037 C 
HETATM    3  C4  UNL     1     -33.718   4.534   3.478  1.00 20.00     0.016 C 
HETATM    4  C5  UNL     1     -33.279   6.686   4.737  1.00 20.00     0.053 C 
HETATM    5  C6  UNL     1     -32.888   7.363   3.428  1.00 20.00     0.171 C 
HETATM    6  C7  UNL     1     -34.256   5.512   4.541  1.00 20.00     0.012 C 
HETATM    7  C8  UNL     1     -35.663   6.010   4.182  1.00 20.00     0.023 C 
HETATM    8  F10 UNL     1     -31.923   8.285   3.691  1.00 20.00    -0.249 F 
ENDROOT
BRANCH   6   9
HETATM    9  C1  UNL     1     -34.377   4.772   5.848  1.00 20.00     0.240 C 
HETATM   10  O9  UNL     1     -33.776   5.096   6.867  1.00 20.00    -0.306 OA
ENDBRANCH   6   9
TORSDOF 1
