REMARK  3 active torsions:
REMARK  status: ('A' for Active; 'I' for Inactive)
REMARK    1  A    between atoms: C2_2  and  N9_9 
REMARK    2  A    between atoms: C6_6  and  N9_9 
REMARK    3  A    between atoms: C7_7  and  N9_9 
ROOT
HETATM    1  C1  UNL     1     -32.849   7.477   2.400  1.00 20.00     0.036 C 
HETATM    2  C2  UNL     1     -33.163   7.013   3.462  1.00 20.00     0.024 C 
HETATM    3  C3  UNL     1     -32.491   8.009   1.187  1.00 20.00     0.154 C 
HETATM    4  N8  UNL     1     -32.188   8.458   0.162  1.00 20.00    -0.182 NA
ENDROOT
BRANCH   2   5
HETATM    5  N9  UNL     1     -33.543   6.450   4.748  1.00 20.00    -0.342 N 
BRANCH   5   6
HETATM    6  C6  UNL     1     -34.673   5.544   4.771  1.00 20.00     0.128 C 
HETATM    7  C4  UNL     1     -34.940   5.053   6.153  1.00 20.00     0.027 C 
ENDBRANCH   5   6
BRANCH   5   8
HETATM    8  C7  UNL     1     -33.260   7.236   5.930  1.00 20.00     0.128 C 
HETATM    9  C5  UNL     1     -33.958   8.552   5.881  1.00 20.00     0.027 C 
ENDBRANCH   5   8
ENDBRANCH   2   5
TORSDOF 3
