REMARK  0 active torsions:
REMARK  status: ('A' for Active; 'I' for Inactive)
ROOT
HETATM    1  C1  UNL     1     -33.086   7.281   5.821  1.00 20.00     0.053 A 
HETATM    2  C2  UNL     1     -34.146   6.479   5.618  1.00 20.00    -0.070 A 
HETATM    3  C3  UNL     1     -32.498   7.542   4.490  1.00 20.00     0.155 A 
HETATM    4  C4  UNL     1     -33.316   6.869   3.445  1.00 20.00     0.082 A 
HETATM    5  C5  UNL     1     -34.454   6.164   4.191  1.00 20.00    -0.002 A 
HETATM    6  C6  UNL     1     -33.457   5.361   3.344  1.00 20.00    -0.024 A 
HETATM    7  C7  UNL     1     -34.975   5.895   6.712  1.00 20.00     0.044 C 
HETATM    8  C8  UNL     1     -35.871   6.376   3.734  1.00 20.00     0.021 C 
HETATM    9  C9  UNL     1     -33.902   4.804   2.010  1.00 20.00     0.016 C 
HETATM   10  C10 UNL     1     -32.455   4.454   4.025  1.00 20.00     0.016 C 
HETATM   11  O11 UNL     1     -31.500   8.203   4.264  1.00 20.00    -0.293 OA
ENDROOT
TORSDOF 0
