REMARK  1 active torsions:
REMARK  status: ('A' for Active; 'I' for Inactive)
REMARK    1  A    between atoms: C2_2  and  C6_6 
ROOT
HETATM    1  C1  UNL     1     -33.327   6.574   4.412  1.00 20.00    -0.067 C 
HETATM    2  C3  UNL     1     -32.749   6.565   3.204  1.00 20.00    -0.085 C 
HETATM    3  C4  UNL     1     -33.266   7.737   5.365  1.00 20.00     0.036 C 
HETATM    4  C5  UNL     1     -34.224   7.336   6.484  1.00 20.00     0.009 C 
HETATM    5  C6  UNL     1     -34.083   5.421   5.021  1.00 20.00     0.080 C 
HETATM    6  C7  UNL     1     -34.142   5.808   6.504  1.00 20.00    -0.004 C 
HETATM    7  C8  UNL     1     -32.839   5.379   2.288  1.00 20.00     0.043 C 
HETATM    8  C9  UNL     1     -31.971   7.740   2.686  1.00 20.00     0.043 C 
HETATM    9  C10 UNL     1     -35.256   5.156   7.309  1.00 20.00     0.011 C 
ENDROOT
BRANCH   5  10
HETATM   10  C2  UNL     1     -35.421   5.354   4.345  1.00 20.00     0.240 C 
HETATM   11  O11 UNL     1     -35.986   6.331   3.865  1.00 20.00    -0.306 OA
ENDBRANCH   5  10
TORSDOF 1
