REMARK  2 active torsions:
REMARK  status: ('A' for Active; 'I' for Inactive)
REMARK    1  A    between atoms: C2_2  and  C5_5 
REMARK    2  A    between atoms: C4_4  and  C8_8 
ROOT
HETATM    1  C1  UNL     1     -33.652   7.997   5.404  1.00 20.00    -0.015 C 
HETATM    2  C2  UNL     1     -33.366   6.833   4.813  1.00 20.00    -0.009 C 
HETATM    3  C6  UNL     1     -34.392   7.780   6.682  1.00 20.00     0.028 C 
HETATM    4  C7  UNL     1     -34.189   6.283   6.942  1.00 20.00     0.017 C 
HETATM    5  C8  UNL     1     -33.853   5.648   5.582  1.00 20.00     0.044 C 
ENDROOT
BRANCH   2   6
HETATM    6  C5  UNL     1     -32.639   6.750   3.557  1.00 20.00     0.152 C 
HETATM    7  C9  UNL     1     -32.930   5.587   2.633  1.00 20.00     0.096 C 
HETATM    8  O10 UNL     1     -31.796   7.603   3.248  1.00 20.00    -0.293 OA
ENDBRANCH   2   6
BRANCH   5   9
HETATM    9  C4  UNL     1     -35.045   5.001   4.951  1.00 20.00    -0.027 C 
HETATM   10  C3  UNL     1     -35.912   5.641   4.159  1.00 20.00     0.007 C 
ENDBRANCH   5   9
TORSDOF 2
