REMARK  1 active torsions:
REMARK  status: ('A' for Active; 'I' for Inactive)
REMARK    1  A    between atoms: C1_1  and  C4_4 
ROOT
HETATM    1  C2  UNL     1     -32.301   8.371   4.452  1.00 20.00     0.014 C 
HETATM    2  C3  UNL     1     -33.808   8.486   4.723  1.00 20.00     0.012 C 
HETATM    3  C4  UNL     1     -32.514   6.873   4.146  1.00 20.00     0.064 C 
HETATM    4  C5  UNL     1     -34.935   6.101   5.065  1.00 20.00    -0.000 A 
HETATM    5  C6  UNL     1     -33.752   7.019   4.971  1.00 20.00    -0.019 A 
HETATM    6  C7  UNL     1     -34.057   6.331   6.290  1.00 20.00    -0.035 A 
HETATM    7  C9  UNL     1     -34.990   4.789   4.362  1.00 20.00     0.011 C 
HETATM    8  C10 UNL     1     -33.141   5.237   6.779  1.00 20.00     0.016 C 
HETATM    9  C11 UNL     1     -34.661   7.138   7.414  1.00 20.00     0.016 C 
ENDROOT
BRANCH   3  10
HETATM   10  C1  UNL     1     -32.757   6.477   2.683  1.00 20.00     0.128 C 
HETATM   11  C8  UNL     1     -32.544   7.548   1.648  1.00 20.00     0.091 C 
HETATM   12  O12 UNL     1     -33.106   5.340   2.372  1.00 20.00    -0.298 OA
ENDBRANCH   3  10
TORSDOF 1
