REMARK  1 active torsions:
REMARK  status: ('A' for Active; 'I' for Inactive)
REMARK    1  A    between atoms: C2_2  and  C3_3 
ROOT
HETATM    1  C1  UNL     1     -33.794   5.557   3.333  1.00 20.00    -0.009 C 
HETATM    2  C2  UNL     1     -33.040   6.622   3.742  1.00 20.00    -0.007 C 
HETATM    3  C4  UNL     1     -34.320   5.413   7.025  1.00 20.00     0.002 C 
HETATM    4  C5  UNL     1     -34.876   4.705   5.759  1.00 20.00     0.009 C 
HETATM    5  C6  UNL     1     -33.333   6.498   6.491  1.00 20.00     0.015 C 
HETATM    6  C7  UNL     1     -33.822   5.103   4.768  1.00 20.00     0.021 C 
HETATM    7  C8  UNL     1     -33.800   6.664   5.055  1.00 20.00    -0.007 C 
HETATM    8  C10 UNL     1     -35.016   7.611   4.978  1.00 20.00     0.021 C 
ENDROOT
BRANCH   2   9
HETATM    9  C3  UNL     1     -32.306   7.569   2.916  1.00 20.00     0.152 C 
HETATM   10  C9  UNL     1     -31.536   8.676   3.601  1.00 20.00     0.096 C 
HETATM   11  O11 UNL     1     -32.315   7.478   1.681  1.00 20.00    -0.293 OA
ENDBRANCH   2   9
TORSDOF 1
