REMARK  5 active torsions:
REMARK  status: ('A' for Active; 'I' for Inactive)
REMARK    1  A    between atoms: C1_1  and  C5_5 
REMARK    2  A    between atoms: C2_2  and  C9_9 
REMARK    3  A    between atoms: C3_3  and  C6_6 
REMARK    4  A    between atoms: C9_9  and  C11_11 
REMARK    5  A    between atoms: C10_10  and  C11_11 
ROOT
HETATM    1  C4  UNL     1     -34.565   6.459   6.161  1.00 20.00     0.022 A 
HETATM    2  C5  UNL     1     -33.977   7.385   5.158  1.00 20.00     0.020 A 
HETATM    3  C6  UNL     1     -34.796   6.230   4.693  1.00 20.00     0.063 A 
ENDROOT
BRANCH   2   4
HETATM    4  C1  UNL     1     -32.496   7.358   4.976  1.00 20.00    -0.025 C 
HETATM    5  C2  UNL     1     -31.874   7.760   3.858  1.00 20.00    -0.030 C 
BRANCH   5   6
HETATM    6  C9  UNL     1     -32.589   8.290   2.649  1.00 20.00     0.027 C 
BRANCH   6   7
HETATM    7  C11 UNL     1     -31.846   8.002   1.340  1.00 20.00     0.003 C 
BRANCH   7   8
HETATM    8  C10 UNL     1     -32.562   8.561   0.108  1.00 20.00    -0.004 C 
HETATM    9  C8  UNL     1     -32.729  10.070   0.202  1.00 20.00     0.005 C 
ENDBRANCH   7   8
ENDBRANCH   6   7
ENDBRANCH   5   6
ENDBRANCH   2   4
BRANCH   3  10
HETATM   10  C3  UNL     1     -34.206   5.050   4.048  1.00 20.00     0.128 C 
HETATM   11  C7  UNL     1     -34.494   3.717   4.682  1.00 20.00     0.091 C 
HETATM   12  O12 UNL     1     -33.512   5.148   3.037  1.00 20.00    -0.298 OA
ENDBRANCH   3  10
TORSDOF 5
