REMARK  1 active torsions:
REMARK  status: ('A' for Active; 'I' for Inactive)
REMARK    1  A    between atoms: C1_1  and  C8_8 
REMARK       I    between atoms: C1_1  and  N9_9 
ROOT
HETATM    1  C1  UNL     1     -31.805   7.378   3.582  1.00 20.00     0.237 C 
HETATM    2  C2  UNL     1     -34.041   4.536   5.934  1.00 20.00     0.013 A 
HETATM    3  C3  UNL     1     -33.586   5.568   3.577  1.00 20.00     0.130 A 
HETATM    4  C4  UNL     1     -33.306   7.009   5.524  1.00 20.00     0.130 A 
HETATM    5  C5  UNL     1     -34.536   5.121   4.639  1.00 20.00     0.010 A 
HETATM    6  C6  UNL     1     -34.364   6.002   5.829  1.00 20.00     0.010 A 
HETATM    7  N9  UNL     1     -32.838   6.675   4.181  1.00 20.00    -0.350 N 
HETATM    8  O10 UNL     1     -31.198   8.305   4.123  1.00 20.00    -0.272 OA
ENDROOT
BRANCH   1   9
HETATM    9  C8  UNL     1     -31.440   6.939   2.186  1.00 20.00     0.170 C 
HETATM   10  C7  UNL     1     -32.194   7.754   1.161  1.00 20.00     0.036 C 
HETATM   11 CL11 UNL     1     -29.692   7.180   2.035  1.00 20.00    -0.115 Cl
ENDBRANCH   1   9
TORSDOF 1
