REMARK  1 active torsions:
REMARK  status: ('A' for Active; 'I' for Inactive)
REMARK    1  A    between atoms: C2_2  and  C6_6 
ROOT
HETATM    1  C1  UNL     1     -33.922   5.784   3.921  1.00 20.00     0.139 C 
HETATM    2  C3  UNL     1     -35.034   5.280   4.817  1.00 20.00     0.089 C 
HETATM    3  C4  UNL     1     -34.680   5.422   6.287  1.00 20.00     0.081 C 
HETATM    4  C5  UNL     1     -33.059   7.508   5.531  1.00 20.00     0.093 C 
HETATM    5  C6  UNL     1     -33.513   7.239   4.099  1.00 20.00     0.133 C 
HETATM    6  O8  UNL     1     -33.432   5.062   3.053  1.00 20.00    -0.297 OA
HETATM    7  S10 UNL     1     -34.378   7.158   6.734  1.00 20.00    -0.168 SA
ENDROOT
BRANCH   5   8
HETATM    8  C2  UNL     1     -32.414   7.647   3.164  1.00 20.00     0.135 C 
HETATM    9  C7  UNL     1     -31.515   8.762   3.623  1.00 20.00     0.091 C 
HETATM   10  O9  UNL     1     -32.255   7.095   2.076  1.00 20.00    -0.298 OA
ENDBRANCH   5   8
TORSDOF 1
