REMARK  1 active torsions:
REMARK  status: ('A' for Active; 'I' for Inactive)
REMARK    1  A    between atoms: C7_7  and  O11_11 
ROOT
HETATM    1  C1  UNL     1     -33.603   6.044   6.754  1.00 20.00    -0.029 C 
HETATM    2  C2  UNL     1     -33.846   4.589   3.896  1.00 20.00    -0.022 C 
HETATM    3  C3  UNL     1     -33.254   5.451   3.063  1.00 20.00     0.002 C 
HETATM    4  C4  UNL     1     -33.557   7.039   5.862  1.00 20.00    -0.018 C 
HETATM    5  C5  UNL     1     -34.506   4.939   6.316  1.00 20.00     0.036 C 
HETATM    6  C6  UNL     1     -34.792   5.274   4.846  1.00 20.00     0.026 C 
HETATM    7  C7  UNL     1     -33.726   6.850   3.289  1.00 20.00     0.155 C 
HETATM    8  C8  UNL     1     -34.437   6.777   4.661  1.00 20.00     0.010 C 
HETATM    9  C9  UNL     1     -35.663   7.689   4.713  1.00 20.00     0.023 C 
ENDROOT
BRANCH   7  10
HETATM   10  O11 UNL     1     -32.652   7.775   3.294  1.00 20.00    -0.386 OA
HETATM   11  C10 UNL     1     -32.239   8.109   1.974  1.00 20.00     0.202 C 
ENDBRANCH   7  10
TORSDOF 1
