REMARK  3 active torsions:
REMARK  status: ('A' for Active; 'I' for Inactive)
REMARK    1  A    between atoms: C2_2  and  N7_7 
REMARK    2  A    between atoms: C4_4  and  C5_5 
REMARK    3  A    between atoms: C5_5  and  N7_7 
ROOT
HETATM    1  C1  UNL     1     -32.564   9.014   1.463  1.00 20.00     0.060 C 
HETATM    2  C4  UNL     1     -32.404   7.899   2.409  1.00 20.00     0.143 C 
HETATM    3  N6  UNL     1     -32.688   9.894   0.716  1.00 20.00    -0.197 NA
ENDROOT
BRANCH   2   4
HETATM    4  C5  UNL     1     -33.685   7.085   2.553  1.00 20.00     0.138 C 
BRANCH   4   5
HETATM    5  N7  UNL     1     -33.502   5.986   3.505  1.00 20.00    -0.366 N 
HETATM    6  C3  UNL     1     -32.815   4.801   2.982  1.00 20.00     0.151 C 
BRANCH   5   7
HETATM    7  C2  UNL     1     -33.763   6.139   4.844  1.00 20.00     0.167 C 
HETATM    8  S8  UNL     1     -34.740   5.006   5.711  1.00 20.00    -0.048 SA
HETATM    9  S9  UNL     1     -33.125   7.469   5.745  1.00 20.00    -0.048 SA
ENDBRANCH   5   7
ENDBRANCH   4   5
ENDBRANCH   2   4
TORSDOF 3
