REMARK  1 active torsions:
REMARK  status: ('A' for Active; 'I' for Inactive)
REMARK    1  A    between atoms: C3_3  and  C6_6 
ROOT
HETATM    1  C1  UNL     1     -33.573   6.885   6.594  1.00 20.00    -0.029 C 
HETATM    2  C2  UNL     1     -34.611   6.131   6.221  1.00 20.00    -0.021 C 
HETATM    3  C4  UNL     1     -32.727   7.279   5.427  1.00 20.00     0.046 C 
HETATM    4  C5  UNL     1     -34.619   5.872   4.731  1.00 20.00    -0.015 C 
HETATM    5  C6  UNL     1     -33.666   7.015   4.225  1.00 20.00     0.046 C 
HETATM    6  C7  UNL     1     -36.045   5.941   4.170  1.00 20.00     0.020 C 
HETATM    7  C8  UNL     1     -34.063   4.454   4.492  1.00 20.00     0.020 C 
HETATM    8  C9  UNL     1     -34.391   8.326   3.855  1.00 20.00     0.026 C 
ENDROOT
BRANCH   5   9
HETATM    9  C3  UNL     1     -32.874   6.601   3.011  1.00 20.00     0.228 C 
HETATM   10  O10 UNL     1     -33.050   5.516   2.465  1.00 20.00    -0.279 OA
HETATM   11 CL11 UNL     1     -31.735   7.821   2.526  1.00 20.00    -0.043 Cl
ENDBRANCH   5   9
TORSDOF 1
