REMARK  2 active torsions:
REMARK  status: ('A' for Active; 'I' for Inactive)
REMARK    1  A    between atoms: C3_3  and  C5_5 
REMARK    2  A    between atoms: C3_3  and  O8_8 
ROOT
HETATM    1  C1  UNL     1     -33.902   7.458   5.799  1.00 20.00    -0.005 C 
HETATM    2  C2  UNL     1     -33.991   6.584   6.805  1.00 20.00     0.042 C 
HETATM    3  C4  UNL     1     -35.230   5.697   4.728  1.00 20.00     0.097 C 
HETATM    4  C5  UNL     1     -34.440   6.985   4.485  1.00 20.00     0.118 C 
HETATM    5  S9  UNL     1     -34.716   5.077   6.371  1.00 20.00    -0.141 SA
ENDROOT
BRANCH   4   6
HETATM    6  C3  UNL     1     -33.264   6.753   3.586  1.00 20.00     0.267 C 
HETATM    7  O7  UNL     1     -32.992   5.673   3.078  1.00 20.00    -0.265 OA
BRANCH   6   8
HETATM    8  O8  UNL     1     -32.569   7.916   3.434  1.00 20.00    -0.326 OA
HETATM    9  C6  UNL     1     -31.413   7.837   2.594  1.00 20.00     0.213 C 
ENDBRANCH   6   8
ENDBRANCH   4   6
TORSDOF 2
