REMARK  1 active torsions:
REMARK  status: ('A' for Active; 'I' for Inactive)
REMARK    1  A    between atoms: C1_1  and  C4_4 
ROOT
HETATM    1  C2  UNL     1     -35.165   5.586   3.909  1.00 20.00     0.041 A 
HETATM    2  C3  UNL     1     -33.838   4.893   3.925  1.00 20.00     0.100 A 
HETATM    3  C4  UNL     1     -34.211   5.817   5.065  1.00 20.00     0.050 A 
HETATM    4  C5  UNL     1     -34.559   5.168   6.381  1.00 20.00     0.026 C 
HETATM    5 CL8  UNL     1     -32.632   5.331   2.742  1.00 20.00    -0.124 Cl
ENDROOT
BRANCH   3   6
HETATM    6  C1  UNL     1     -33.570   7.150   5.142  1.00 20.00     0.228 C 
HETATM    7  O6  UNL     1     -32.858   7.577   4.238  1.00 20.00    -0.279 OA
HETATM    8 CL7  UNL     1     -33.953   7.975   6.622  1.00 20.00    -0.043 Cl
ENDBRANCH   3   6
TORSDOF 1
