REMARK  1 active torsions:
REMARK  status: ('A' for Active; 'I' for Inactive)
REMARK    1  A    between atoms: C2_2  and  C8_8 
ROOT
HETATM    1  C1  UNL     1     -33.320   5.896   3.330  1.00 20.00     0.136 C 
HETATM    2  C3  UNL     1     -34.718   5.545   3.782  1.00 20.00     0.079 C 
HETATM    3  C4  UNL     1     -34.845   5.616   5.300  1.00 20.00     0.007 C 
HETATM    4  C5  UNL     1     -34.386   6.967   5.847  1.00 20.00     0.002 C 
HETATM    5  C6  UNL     1     -32.933   7.244   5.465  1.00 20.00     0.018 C 
HETATM    6  C7  UNL     1     -31.485   7.729   3.384  1.00 20.00     0.030 A 
HETATM    7  C8  UNL     1     -32.795   8.431   3.163  1.00 20.00     0.064 A 
HETATM    8  C9  UNL     1     -32.752   7.135   3.963  1.00 20.00     0.031 A 
HETATM    9  O10 UNL     1     -32.715   5.268   2.470  1.00 20.00    -0.297 OA
ENDROOT
BRANCH   7  10
HETATM   10  C2  UNL     1     -33.378   8.461   1.815  1.00 20.00     0.236 C 
HETATM   11  O11 UNL     1     -32.720   8.316   0.790  1.00 20.00    -0.306 OA
ENDBRANCH   7  10
TORSDOF 1
