REMARK  2 active torsions:
REMARK  status: ('A' for Active; 'I' for Inactive)
REMARK    1  A    between atoms: C5_5  and  O9_9 
REMARK    2  A    between atoms: C8_8  and  O9_9 
ROOT
HETATM    1  C1  UNL     1     -33.358   7.780   5.938  1.00 20.00    -0.028 C 
HETATM    2  C2  UNL     1     -32.590   7.534   4.869  1.00 20.00     0.002 C 
HETATM    3  C3  UNL     1     -34.630   7.045   6.226  1.00 20.00     0.028 C 
HETATM    4  C4  UNL     1     -35.136   6.214   5.041  1.00 20.00     0.022 C 
HETATM    5  C5  UNL     1     -32.891   6.464   3.858  1.00 20.00     0.158 C 
HETATM    6  C6  UNL     1     -34.017   5.511   4.273  1.00 20.00     0.090 C 
HETATM    7 BR10 UNL     1     -33.287   4.046   5.356  1.00 20.00    -0.088 Br
ENDROOT
BRANCH   5   8
HETATM    8  O9  UNL     1     -33.277   7.099   2.636  1.00 20.00    -0.381 OA
BRANCH   8   9
HETATM    9  C8  UNL     1     -32.145   7.548   1.908  1.00 20.00     0.164 C 
HETATM   10  C7  UNL     1     -32.613   8.209   0.628  1.00 20.00     0.033 C 
ENDBRANCH   8   9
ENDBRANCH   5   8
TORSDOF 2
