REMARK  3 active torsions:
REMARK  status: ('A' for Active; 'I' for Inactive)
REMARK    1  A    between atoms: C3_3  and  C7_7 
REMARK    2  A    between atoms: C4_4  and  C6_6 
REMARK    3  A    between atoms: C4_4  and  O11_11 
ROOT
HETATM    1  C1  UNL     1     -32.305   7.679   1.543  1.00 20.00     0.074 C 
HETATM    2  C5  UNL     1     -32.643   5.384   2.510  1.00 20.00     0.046 A 
HETATM    3  C6  UNL     1     -33.911   6.155   2.737  1.00 20.00     0.114 A 
HETATM    4  C7  UNL     1     -32.570   6.887   2.724  1.00 20.00     0.079 A 
HETATM    5  N9  UNL     1     -32.093   8.314   0.595  1.00 20.00    -0.196 NA
ENDROOT
BRANCH   4   6
HETATM    6  C3  UNL     1     -32.018   7.314   4.020  1.00 20.00    -0.012 C 
HETATM    7  C2  UNL     1     -32.295   8.486   4.603  1.00 20.00     0.008 C 
ENDBRANCH   4   6
BRANCH   3   8
HETATM    8  C4  UNL     1     -34.661   5.954   3.985  1.00 20.00     0.264 C 
HETATM    9  O10 UNL     1     -35.882   5.926   4.054  1.00 20.00    -0.265 OA
BRANCH   8  10
HETATM   10  O11 UNL     1     -33.789   5.808   5.023  1.00 20.00    -0.326 OA
HETATM   11  C8  UNL     1     -34.388   5.604   6.306  1.00 20.00     0.213 C 
ENDBRANCH   8  10
ENDBRANCH   3   8
TORSDOF 3
