REMARK  3 active torsions:
REMARK  status: ('A' for Active; 'I' for Inactive)
REMARK    1  A    between atoms: C1_1  and  C2_2 
REMARK    2  A    between atoms: C4_4  and  C9_9 
REMARK    3  A    between atoms: C5_5  and  C9_9 
ROOT
HETATM    1  C2  UNL     1     -32.941   6.978   2.186  1.00 20.00    -0.004 C 
HETATM    2  C4  UNL     1     -33.096   5.800   2.809  1.00 20.00    -0.015 C 
ENDROOT
BRANCH   2   3
HETATM    3  C9  UNL     1     -34.052   5.584   3.952  1.00 20.00     0.073 C 
HETATM    4  C8  UNL     1     -33.992   4.149   4.463  1.00 20.00     0.022 C 
BRANCH   3   5
HETATM    5  C5  UNL     1     -33.708   6.550   5.085  1.00 20.00     0.130 C 
HETATM    6  C7  UNL     1     -34.583   6.488   6.311  1.00 20.00     0.091 C 
HETATM    7  O10 UNL     1     -32.793   7.370   5.006  1.00 20.00    -0.298 OA
ENDBRANCH   3   5
ENDBRANCH   2   3
BRANCH   1   8
HETATM    8  C1  UNL     1     -32.021   7.177   1.089  1.00 20.00    -0.005 C 
HETATM    9  C3  UNL     1     -31.867   8.354   0.466  1.00 20.00    -0.031 C 
HETATM   10  C6  UNL     1     -32.622   9.590   0.831  1.00 20.00     0.036 C 
ENDBRANCH   1   8
TORSDOF 3
