REMARK  2 active torsions:
REMARK  status: ('A' for Active; 'I' for Inactive)
REMARK    1  A    between atoms: C1_1  and  C7_7 
REMARK    2  A    between atoms: C1_1  and  C9_9 
ROOT
HETATM    1  C2  UNL     1     -33.978   4.664   5.625  1.00 20.00     0.000 C 
HETATM    2  C3  UNL     1     -34.008   6.106   6.119  1.00 20.00     0.001 C 
HETATM    3  C4  UNL     1     -34.334   4.573   4.145  1.00 20.00     0.001 C 
HETATM    4  C5  UNL     1     -33.101   7.010   5.283  1.00 20.00     0.017 C 
HETATM    5  C6  UNL     1     -33.430   5.461   3.289  1.00 20.00     0.017 C 
HETATM    6  C7  UNL     1     -33.384   6.910   3.781  1.00 20.00     0.018 C 
HETATM    7  C8  UNL     1     -34.709   7.601   3.463  1.00 20.00     0.023 C 
ENDROOT
BRANCH   6   8
HETATM    8  C1  UNL     1     -32.377   7.732   2.977  1.00 20.00     0.148 C 
HETATM    9  O10 UNL     1     -31.486   8.362   3.545  1.00 20.00    -0.296 OA
BRANCH   8  10
HETATM   10  C9  UNL     1     -32.561   7.709   1.476  1.00 20.00     0.193 C 
HETATM   11 CL11 UNL     1     -32.861   9.340   0.858  1.00 20.00    -0.123 Cl
ENDBRANCH   8  10
ENDBRANCH   6   8
TORSDOF 2
