REMARK  2 active torsions:
REMARK  status: ('A' for Active; 'I' for Inactive)
REMARK    1  A    between atoms: C1_1  and  C7_7 
REMARK    2  A    between atoms: C4_4  and  C7_7 
ROOT
HETATM    1  C6  UNL     1     -33.170   7.452   3.680  1.00 20.00     0.018 C 
HETATM    2  C7  UNL     1     -34.069   6.513   4.479  1.00 20.00     0.055 C 
ENDROOT
BRANCH   2   3
HETATM    3  C1  UNL     1     -33.937   5.076   3.984  1.00 20.00     0.127 C 
HETATM    4  C5  UNL     1     -32.946   4.826   2.875  1.00 20.00     0.091 C 
HETATM    5  O8  UNL     1     -34.619   4.156   4.437  1.00 20.00    -0.298 OA
ENDBRANCH   2   3
BRANCH   2   6
HETATM    6  C4  UNL     1     -33.741   6.582   5.966  1.00 20.00    -0.004 A 
HETATM    7  C2  UNL     1     -34.299   7.691   6.815  1.00 20.00     0.006 A 
HETATM    8  C3  UNL     1     -34.801   6.284   6.990  1.00 20.00     0.006 A 
ENDBRANCH   2   6
TORSDOF 2
