REMARK  1 active torsions:
REMARK  status: ('A' for Active; 'I' for Inactive)
REMARK    1  A    between atoms: C3_3  and  C7_7 
ROOT
HETATM    1  C1  UNL     1     -34.285   5.861   4.265  1.00 20.00    -0.020 C 
HETATM    2  C2  UNL     1     -33.578   5.292   3.274  1.00 20.00    -0.086 C 
HETATM    3  C4  UNL     1     -32.309   5.904   2.732  1.00 20.00     0.045 C 
HETATM    4  C5  UNL     1     -32.429   7.541   4.665  1.00 20.00     0.020 C 
HETATM    5  C6  UNL     1     -33.886   7.138   4.959  1.00 20.00     0.005 C 
HETATM    6  C7  UNL     1     -32.046   7.341   3.200  1.00 20.00     0.059 C 
HETATM    7  C8  UNL     1     -34.010   4.004   2.636  1.00 20.00     0.043 C 
HETATM    8  C10 UNL     1     -34.101   7.025   6.469  1.00 20.00     0.014 C 
ENDROOT
BRANCH   6   9
HETATM    9  C3  UNL     1     -32.769   8.332   2.333  1.00 20.00     0.127 C 
HETATM   10  C9  UNL     1     -32.454   8.301   0.862  1.00 20.00     0.091 C 
HETATM   11  O11 UNL     1     -33.581   9.128   2.802  1.00 20.00    -0.298 OA
ENDBRANCH   6   9
TORSDOF 1
