REMARK  0 active torsions:
REMARK  status: ('A' for Active; 'I' for Inactive)
ROOT
HETATM    1  C1  UNL     1     -32.386   6.837   3.792  1.00 20.00     0.459 C 
HETATM    2  C2  UNL     1     -34.353   5.853   4.371  1.00 20.00     0.090 C 
HETATM    3  C3  UNL     1     -33.734   6.549   5.601  1.00 20.00     0.090 C 
HETATM    4  C4  UNL     1     -35.403   6.701   3.631  1.00 20.00     0.049 C 
HETATM    5  C5  UNL     1     -34.935   4.466   4.639  1.00 20.00     0.049 C 
HETATM    6  C6  UNL     1     -34.721   7.338   6.461  1.00 20.00     0.049 C 
HETATM    7  C7  UNL     1     -32.918   5.611   6.507  1.00 20.00     0.049 C 
HETATM    8  O8  UNL     1     -33.220   5.716   3.494  1.00 20.00    -0.322 OA
HETATM    9  O9  UNL     1     -32.803   7.470   5.002  1.00 20.00    -0.322 OA
HETATM   10  F10 UNL     1     -32.520   7.738   2.785  1.00 20.00    -0.189 F 
ENDROOT
TORSDOF 0
