REMARK  1 active torsions:
REMARK  status: ('A' for Active; 'I' for Inactive)
REMARK    1  A    between atoms: C2_2  and  C3_3 
ROOT
HETATM    1  C1  UNL     1     -34.049   7.096   4.539  1.00 20.00    -0.007 C 
HETATM    2  C2  UNL     1     -33.050   6.885   3.678  1.00 20.00    -0.012 C 
HETATM    3  C4  UNL     1     -33.870   4.743   4.233  1.00 20.00     0.022 C 
HETATM    4  C5  UNL     1     -32.922   5.461   3.251  1.00 20.00     0.019 C 
HETATM    5  C6  UNL     1     -34.791   5.825   4.851  1.00 20.00    -0.029 C 
HETATM    6  C8  UNL     1     -33.315   5.244   1.794  1.00 20.00     0.015 C 
HETATM    7  C9  UNL     1     -36.176   5.834   4.194  1.00 20.00     0.019 C 
HETATM    8  C10 UNL     1     -34.935   5.624   6.363  1.00 20.00     0.019 C 
ENDROOT
BRANCH   2   9
HETATM    9  C3  UNL     1     -32.174   7.952   3.225  1.00 20.00     0.151 C 
HETATM   10  C7  UNL     1     -32.563   8.726   1.984  1.00 20.00     0.096 C 
HETATM   11  O11 UNL     1     -31.128   8.222   3.831  1.00 20.00    -0.293 OA
ENDBRANCH   2   9
TORSDOF 1
