REMARK  1 active torsions:
REMARK  status: ('A' for Active; 'I' for Inactive)
REMARK    1  A    between atoms: C3_3  and  C8_8 
ROOT
HETATM    1  C1  UNL     1     -34.645   5.876   6.599  1.00 20.00    -0.025 C 
HETATM    2  C2  UNL     1     -33.358   5.515   6.495  1.00 20.00    -0.024 C 
HETATM    3  C4  UNL     1     -34.465   4.559   4.718  1.00 20.00     0.018 C 
HETATM    4  C5  UNL     1     -35.252   5.774   5.220  1.00 20.00     0.013 C 
HETATM    5  C6  UNL     1     -33.100   5.189   5.042  1.00 20.00     0.024 C 
HETATM    6  C7  UNL     1     -34.681   6.892   4.298  1.00 20.00     0.005 C 
HETATM    7  C8  UNL     1     -33.152   6.506   4.203  1.00 20.00     0.027 C 
HETATM    8  C10 UNL     1     -35.010   8.303   4.770  1.00 20.00     0.012 C 
HETATM    9  C11 UNL     1     -32.158   7.570   4.681  1.00 20.00     0.024 C 
ENDROOT
BRANCH   7  10
HETATM   10  C3  UNL     1     -32.773   6.174   2.778  1.00 20.00     0.132 C 
HETATM   11  C9  UNL     1     -32.759   7.315   1.797  1.00 20.00     0.091 C 
HETATM   12  O12 UNL     1     -32.488   5.027   2.437  1.00 20.00    -0.298 OA
ENDBRANCH   7  10
TORSDOF 1
