REMARK  0 active torsions:
REMARK  status: ('A' for Active; 'I' for Inactive)
ROOT
HETATM    1  C1  UNL     1     -34.455   6.842   6.865  1.00 20.00     0.003 A 
HETATM    2  C2  UNL     1     -34.738   5.587   6.479  1.00 20.00     0.013 A 
HETATM    3  C3  UNL     1     -33.759   7.540   5.794  1.00 20.00     0.030 A 
HETATM    4  C4  UNL     1     -34.317   4.422   4.298  1.00 20.00    -0.011 C 
HETATM    5  C5  UNL     1     -34.229   5.460   5.135  1.00 20.00    -0.013 A 
HETATM    6  C6  UNL     1     -33.602   6.714   4.744  1.00 20.00     0.039 A 
HETATM    7  C7  UNL     1     -33.761   4.519   2.904  1.00 20.00     0.048 C 
HETATM    8  C8  UNL     1     -32.716   5.635   2.711  1.00 20.00     0.126 C 
HETATM    9  C9  UNL     1     -32.358   8.069   3.074  1.00 20.00     0.149 C 
HETATM   10  N10 UNL     1     -33.014   6.841   3.503  1.00 20.00    -0.384 N 
ENDROOT
TORSDOF 0
