REMARK  1 active torsions:
REMARK  status: ('A' for Active; 'I' for Inactive)
REMARK    1  A    between atoms: C2_2  and  C4_4 
ROOT
HETATM    1  C1  UNL     1     -34.487   6.048   5.917  1.00 20.00     0.131 C 
HETATM    2  C3  UNL     1     -34.193   4.141   4.920  1.00 20.00     0.191 C 
HETATM    3  C4  UNL     1     -34.328   5.241   3.887  1.00 20.00     0.219 C 
HETATM    4  C5  UNL     1     -34.650   7.155   6.892  1.00 20.00     0.099 C 
HETATM    5  N7  UNL     1     -34.164   4.831   6.218  1.00 20.00    -0.268 NA
HETATM    6  O9  UNL     1     -34.692   6.391   4.626  1.00 20.00    -0.323 OA
ENDROOT
BRANCH   3   7
HETATM    7  C2  UNL     1     -33.034   5.552   3.204  1.00 20.00     0.153 C 
HETATM    8  C6  UNL     1     -32.451   6.918   3.450  1.00 20.00     0.093 C 
HETATM    9  O8  UNL     1     -32.473   4.732   2.479  1.00 20.00    -0.295 OA
ENDBRANCH   3   7
TORSDOF 1
