REMARK  1 active torsions:
REMARK  status: ('A' for Active; 'I' for Inactive)
REMARK    1  A    between atoms: C1_1  and  C4_4 
ROOT
HETATM    1  C2  UNL     1     -34.275   7.239   3.261  1.00 20.00     0.037 C 
HETATM    2  C3  UNL     1     -32.499   7.443   4.437  1.00 20.00     0.037 C 
HETATM    3  C4  UNL     1     -33.981   7.159   4.778  1.00 20.00     0.058 C 
HETATM    4  C5  UNL     1     -32.771   6.964   2.984  1.00 20.00     0.035 C 
HETATM    5  C7  UNL     1     -32.173   7.885   1.922  1.00 20.00     0.032 C 
HETATM    6 CL9  UNL     1     -32.347   5.247   2.643  1.00 20.00    -0.120 Cl
ENDROOT
BRANCH   3   7
HETATM    7  C1  UNL     1     -34.308   5.846   5.501  1.00 20.00     0.127 C 
HETATM    8  C6  UNL     1     -35.072   4.814   4.716  1.00 20.00     0.091 C 
HETATM    9  O8  UNL     1     -33.962   5.646   6.664  1.00 20.00    -0.298 OA
ENDBRANCH   3   7
TORSDOF 1
