REMARK  4 active torsions:
REMARK  status: ('A' for Active; 'I' for Inactive)
REMARK    1  A    between atoms: C1_1  and  C2_2 
REMARK    2  A    between atoms: C1_1  and  C3_3 
REMARK    3  A    between atoms: C2_2  and  C8_8 
REMARK    4  A    between atoms: C3_3  and  C6_6 
ROOT
HETATM    1  C1  UNL     1     -33.349   5.937   3.569  1.00 20.00     0.125 C 
HETATM    2 CL11 UNL     1     -32.888   4.660   2.491  1.00 20.00    -0.076 Cl
ENDROOT
BRANCH   1   3
HETATM    3  C2  UNL     1     -34.169   5.766   4.637  1.00 20.00     0.174 C 
HETATM    4  O9  UNL     1     -34.762   4.730   5.060  1.00 20.00    -0.291 OA
BRANCH   3   5
HETATM    5  C8  UNL     1     -34.461   6.949   5.574  1.00 20.00     0.080 C 
HETATM    6  C7  UNL     1     -33.465   7.050   6.728  1.00 20.00     0.013 C 
ENDBRANCH   3   5
ENDBRANCH   1   3
BRANCH   1   7
HETATM    7  C3  UNL     1     -32.725   7.271   3.295  1.00 20.00     0.178 C 
HETATM    8  O10 UNL     1     -31.964   7.827   4.077  1.00 20.00    -0.291 OA
BRANCH   7   9
HETATM    9  C6  UNL     1     -33.044   7.916   1.987  1.00 20.00     0.061 A 
HETATM   10  C4  UNL     1     -32.526   9.291   1.726  1.00 20.00     0.013 A 
HETATM   11  C5  UNL     1     -31.938   8.116   1.005  1.00 20.00     0.013 A 
ENDBRANCH   7   9
ENDBRANCH   1   7
TORSDOF 4
