REMARK  2 active torsions:
REMARK  status: ('A' for Active; 'I' for Inactive)
REMARK    1  A    between atoms: C3_3  and  C8_8 
REMARK    2  A    between atoms: C8_8  and  C10_10 
ROOT
HETATM    1  C1  UNL     1     -35.362   5.470   6.018  1.00 20.00    -0.026 C 
HETATM    2  C2  UNL     1     -35.683   6.191   4.933  1.00 20.00    -0.024 C 
HETATM    3  C4  UNL     1     -34.260   7.489   6.190  1.00 20.00     0.018 C 
HETATM    4  C5  UNL     1     -32.930   5.616   5.553  1.00 20.00     0.025 C 
HETATM    5  C6  UNL     1     -34.055   6.013   6.541  1.00 20.00     0.010 C 
HETATM    6  C7  UNL     1     -34.570   7.197   4.715  1.00 20.00     0.024 C 
HETATM    7  C8  UNL     1     -33.284   6.438   4.269  1.00 20.00     0.020 C 
ENDROOT
BRANCH   7   8
HETATM    8  C3  UNL     1     -33.539   5.538   3.088  1.00 20.00     0.241 C 
HETATM    9  O11 UNL     1     -32.703   4.761   2.638  1.00 20.00    -0.306 OA
ENDBRANCH   7   8
BRANCH   7  10
HETATM   10  C10 UNL     1     -32.152   7.387   3.866  1.00 20.00     0.013 C 
HETATM   11  C9  UNL     1     -32.520   8.207   2.676  1.00 20.00     0.006 C 
ENDBRANCH   7  10
TORSDOF 2
