REMARK  1 active torsions:
REMARK  status: ('A' for Active; 'I' for Inactive)
REMARK    1  A    between atoms: C4_4  and  C5_5 
ROOT
HETATM    1  C1  UNL     1     -33.865   6.295   6.635  1.00 20.00    -0.022 C 
HETATM    2  C2  UNL     1     -33.906   7.324   5.766  1.00 20.00    -0.021 C 
HETATM    3  C3  UNL     1     -33.363   4.741   4.782  1.00 20.00    -0.006 C 
HETATM    4  C4  UNL     1     -33.412   5.775   3.921  1.00 20.00     0.009 C 
HETATM    5  C6  UNL     1     -35.688   5.112   5.491  1.00 20.00     0.013 C 
HETATM    6  C7  UNL     1     -35.736   6.308   4.484  1.00 20.00     0.014 C 
HETATM    7  C8  UNL     1     -34.234   4.949   6.019  1.00 20.00     0.031 C 
HETATM    8  C9  UNL     1     -34.313   6.923   4.351  1.00 20.00     0.045 C 
ENDROOT
BRANCH   4   9
HETATM    9  C5  UNL     1     -32.667   5.778   2.672  1.00 20.00     0.248 C 
HETATM   10  O10 UNL     1     -32.432   4.702   2.100  1.00 20.00    -0.274 OA
HETATM   11 CL11 UNL     1     -32.142   7.333   2.050  1.00 20.00    -0.039 Cl
ENDBRANCH   4   9
TORSDOF 1
