REMARK  3 active torsions:
REMARK  status: ('A' for Active; 'I' for Inactive)
REMARK    1  A    between atoms: C1_1  and  C10_10 
REMARK    2  A    between atoms: C7_7  and  C8_8 
REMARK    3  A    between atoms: C9_9  and  C10_10 
ROOT
HETATM    1  C2  UNL     1     -34.269   4.243   4.976  1.00 20.00     0.006 C 
HETATM    2  C3  UNL     1     -35.808   6.076   4.285  1.00 20.00     0.006 C 
HETATM    3  C4  UNL     1     -33.191   4.783   4.008  1.00 20.00     0.019 C 
HETATM    4  C5  UNL     1     -34.733   6.619   3.323  1.00 20.00     0.019 C 
HETATM    5  C7  UNL     1     -35.140   5.408   5.503  1.00 20.00    -0.010 C 
HETATM    6  C10 UNL     1     -33.321   6.323   3.879  1.00 20.00     0.040 C 
ENDROOT
BRANCH   6   7
HETATM    7  C1  UNL     1     -32.294   6.865   2.931  1.00 20.00     0.228 C 
HETATM    8  O11 UNL     1     -31.457   7.688   3.290  1.00 20.00    -0.279 OA
HETATM    9 CL12 UNL     1     -32.455   6.193   1.337  1.00 20.00    -0.043 Cl
ENDBRANCH   6   7
BRANCH   6  10
HETATM   10  C9  UNL     1     -33.148   6.899   5.280  1.00 20.00     0.007 A 
HETATM   11  C6  UNL     1     -34.101   7.853   5.956  1.00 20.00     0.011 A 
HETATM   12  C8  UNL     1     -34.206   6.371   6.218  1.00 20.00    -0.005 A 
ENDBRANCH   6  10
TORSDOF 3
