REMARK  1 active torsions:
REMARK  status: ('A' for Active; 'I' for Inactive)
REMARK    1  A    between atoms: C3_3  and  C4_4 
ROOT
HETATM    1  C1  UNL     1     -34.017   5.436   3.669  1.00 20.00     0.012 A 
HETATM    2  C2  UNL     1     -32.930   5.397   2.901  1.00 20.00     0.003 A 
HETATM    3  C4  UNL     1     -34.037   6.699   4.441  1.00 20.00     0.231 A 
HETATM    4  C5  UNL     1     -32.125   6.630   3.104  1.00 20.00     0.141 A 
HETATM    5  C6  UNL     1     -31.926   7.427   1.826  1.00 20.00     0.044 C 
HETATM    6  O8  UNL     1     -32.874   7.435   4.042  1.00 20.00    -0.364 OA
ENDROOT
BRANCH   3   7
HETATM    7  C3  UNL     1     -33.908   6.393   5.898  1.00 20.00     0.251 C 
HETATM    8  O7  UNL     1     -33.300   7.136   6.662  1.00 20.00    -0.277 OA
HETATM    9 CL9  UNL     1     -34.703   4.909   6.327  1.00 20.00    -0.041 Cl
ENDBRANCH   3   7
TORSDOF 1
