REMARK  3 active torsions:
REMARK  status: ('A' for Active; 'I' for Inactive)
REMARK    1  A    between atoms: C1_1  and  C7_7 
REMARK    2  A    between atoms: C2_2  and  C9_9 
REMARK    3  A    between atoms: C9_9  and  C10_10 
ROOT
HETATM    1  C3  UNL     1     -33.958   6.103   5.785  1.00 20.00     0.128 C 
HETATM    2  C4  UNL     1     -34.488   4.888   5.070  1.00 20.00     0.079 C 
HETATM    3  C5  UNL     1     -33.095   6.960   4.894  1.00 20.00     0.095 C 
HETATM    4  C6  UNL     1     -34.158   5.214   3.618  1.00 20.00     0.025 C 
HETATM    5  C7  UNL     1     -32.873   6.037   3.695  1.00 20.00     0.072 C 
HETATM    6  O11 UNL     1     -34.199   6.364   6.957  1.00 20.00    -0.298 OA
ENDROOT
BRANCH   5   7
HETATM    7  C1  UNL     1     -32.614   6.784   2.461  1.00 20.00    -0.101 C 
HETATM    8  C2  UNL     1     -32.402   7.398   1.451  1.00 20.00    -0.106 C 
BRANCH   8   9
HETATM    9  C9  UNL     1     -32.140   8.145   0.213  1.00 20.00     0.093 C 
BRANCH   9  10
HETATM   10  C10 UNL     1     -32.518   9.621   0.336  1.00 20.00     0.007 C 
HETATM   11  C8  UNL     1     -33.994   9.834   0.649  1.00 20.00     0.006 C 
ENDBRANCH   9  10
ENDBRANCH   8   9
ENDBRANCH   5   7
TORSDOF 3
