REMARK  2 active torsions:
REMARK  status: ('A' for Active; 'I' for Inactive)
REMARK    1  A    between atoms: C7_7  and  O11_11 
REMARK    2  A    between atoms: C10_10  and  O11_11 
ROOT
HETATM    1  C1  UNL     1     -35.570   7.589   4.997  1.00 20.00    -0.019 C 
HETATM    2  C2  UNL     1     -35.557   6.431   4.308  1.00 20.00    -0.019 C 
HETATM    3  C3  UNL     1     -34.379   6.497   6.856  1.00 20.00    -0.019 C 
HETATM    4  C4  UNL     1     -34.366   5.338   6.166  1.00 20.00    -0.019 C 
HETATM    5  C5  UNL     1     -34.299   7.622   5.834  1.00 20.00     0.060 C 
HETATM    6  C6  UNL     1     -34.279   5.699   4.691  1.00 20.00     0.060 C 
HETATM    7  C7  UNL     1     -33.350   6.914   4.853  1.00 20.00     0.144 C 
ENDROOT
BRANCH   7   8
HETATM    8  O11 UNL     1     -33.114   7.639   3.660  1.00 20.00    -0.379 OA
BRANCH   8   9
HETATM    9  C10 UNL     1     -31.885   7.261   3.049  1.00 20.00     0.114 C 
HETATM   10  C8  UNL     1     -32.011   7.406   1.540  1.00 20.00     0.039 C 
HETATM   11  C9  UNL     1     -30.762   8.120   3.609  1.00 20.00     0.039 C 
ENDBRANCH   8   9
ENDBRANCH   7   8
TORSDOF 2
