REMARK  1 active torsions:
REMARK  status: ('A' for Active; 'I' for Inactive)
REMARK    1  A    between atoms: C3_3  and  C7_7 
ROOT
HETATM    1  C1  UNL     1     -32.830   7.941   2.959  1.00 20.00    -0.007 C 
HETATM    2  C2  UNL     1     -32.473   6.952   2.127  1.00 20.00     0.008 C 
HETATM    3  C4  UNL     1     -33.410   7.690   4.320  1.00 20.00     0.042 C 
HETATM    4  C5  UNL     1     -32.644   5.497   2.446  1.00 20.00     0.051 C 
HETATM    5  C6  UNL     1     -33.571   5.259   3.643  1.00 20.00     0.019 C 
HETATM    6  C7  UNL     1     -33.266   6.233   4.783  1.00 20.00     0.076 C 
HETATM    7 CL9  UNL     1     -31.790   7.308   0.581  1.00 20.00    -0.089 Cl
ENDROOT
BRANCH   6   8
HETATM    8  C3  UNL     1     -34.176   5.972   5.946  1.00 20.00     0.223 C 
HETATM    9  O8  UNL     1     -34.630   4.855   6.172  1.00 20.00    -0.279 OA
HETATM   10 CL10 UNL     1     -34.476   7.409   6.877  1.00 20.00    -0.043 Cl
ENDBRANCH   6   8
TORSDOF 1
