REMARK  2 active torsions:
REMARK  status: ('A' for Active; 'I' for Inactive)
REMARK    1  A    between atoms: C2_2  and  C3_3 
REMARK    2  A    between atoms: C4_4  and  C5_5 
ROOT
HETATM    1  C1  UNL     1     -32.416   7.697   2.374  1.00 20.00     0.087 C 
HETATM    2  C2  UNL     1     -32.689   6.552   3.169  1.00 20.00     0.093 C 
HETATM    3  N8  UNL     1     -32.193   8.634   1.727  1.00 20.00    -0.192 NA
ENDROOT
BRANCH   2   4
HETATM    4  C3  UNL     1     -32.900   5.349   2.616  1.00 20.00     0.012 C 
HETATM    5  C4  UNL     1     -33.180   4.163   3.394  1.00 20.00     0.017 C 
BRANCH   5   6
HETATM    6  C5  UNL     1     -33.974   4.164   4.472  1.00 20.00     0.084 C 
HETATM    7  N9  UNL     1     -34.633   5.222   5.011  1.00 20.00    -0.398 N 
HETATM    8  C6  UNL     1     -35.622   5.979   4.248  1.00 20.00     0.148 C 
HETATM    9  C7  UNL     1     -34.581   5.509   6.443  1.00 20.00     0.148 C 
ENDBRANCH   5   6
ENDBRANCH   2   4
TORSDOF 2
