REMARK  0 active torsions:
REMARK  status: ('A' for Active; 'I' for Inactive)
ROOT
HETATM    1  C1  UNL     1     -32.562   7.365   4.398  1.00 20.00     0.037 C 
HETATM    2  C2  UNL     1     -32.998   7.768   5.820  1.00 20.00     0.019 C 
HETATM    3  C3  UNL     1     -33.210   4.887   3.963  1.00 20.00     0.051 C 
HETATM    4  C4  UNL     1     -35.080   4.713   5.635  1.00 20.00     0.052 C 
HETATM    5  C5  UNL     1     -33.550   6.389   3.720  1.00 20.00     0.224 C 
HETATM    6  C6  UNL     1     -35.060   6.247   5.595  1.00 20.00     0.237 C 
HETATM    7  C7  UNL     1     -33.849   6.686   6.486  1.00 20.00     0.081 C 
HETATM    8  C8  UNL     1     -33.640   4.323   5.331  1.00 20.00     0.052 C 
HETATM    9  C9  UNL     1     -35.957   6.383   3.296  1.00 20.00     0.310 C 
HETATM   10  N10 UNL     1     -34.886   6.747   4.214  1.00 20.00     0.094 N 
HETATM   11  S11 UNL     1     -32.805   5.193   6.681  1.00 20.00    -0.157 SA
ENDROOT
TORSDOF 0
