REMARK  1 active torsions:
REMARK  status: ('A' for Active; 'I' for Inactive)
REMARK    1  A    between atoms: C3_3  and  C7_7 
ROOT
HETATM    1  C1  UNL     1     -33.949   5.083   3.806  1.00 20.00     0.346 C 
HETATM    2  C2  UNL     1     -33.211   7.135   4.722  1.00 20.00     0.233 C 
HETATM    3  C3  UNL     1     -32.452   7.220   3.378  1.00 20.00     0.081 C 
HETATM    4  C4  UNL     1     -33.548   8.517   5.285  1.00 20.00     0.044 C 
HETATM    5  C6  UNL     1     -35.171   5.991   5.673  1.00 20.00     0.311 C 
HETATM    6  N8  UNL     1     -34.409   6.307   4.470  1.00 20.00     0.098 N 
HETATM    7  S9  UNL     1     -32.548   5.517   2.740  1.00 20.00    -0.132 SA
ENDROOT
BRANCH   3   8
HETATM    8  C7  UNL     1     -33.055   8.164   2.340  1.00 20.00     0.013 C 
HETATM    9  C5  UNL     1     -32.335   8.081   1.034  1.00 20.00     0.006 C 
ENDBRANCH   3   8
TORSDOF 1
