REMARK  2 active torsions:
REMARK  status: ('A' for Active; 'I' for Inactive)
REMARK    1  A    between atoms: C4_4  and  O11_11 
REMARK    2  A    between atoms: C10_10  and  O11_11 
ROOT
HETATM    1  C1  UNL     1     -34.152   5.034   4.904  1.00 20.00    -0.075 C 
HETATM    2  C2  UNL     1     -33.886   6.274   4.510  1.00 20.00    -0.049 C 
HETATM    3  C5  UNL     1     -34.642   4.954   6.292  1.00 20.00     0.034 C 
HETATM    4  C6  UNL     1     -33.994   4.034   3.832  1.00 20.00     0.037 C 
HETATM    5  C7  UNL     1     -34.145   7.284   5.553  1.00 20.00     0.037 C 
HETATM    6  C8  UNL     1     -34.383   6.392   6.790  1.00 20.00     0.009 C 
HETATM    7  C9  UNL     1     -33.303   4.869   2.734  1.00 20.00     0.041 C 
HETATM    8  C10 UNL     1     -33.503   6.359   3.089  1.00 20.00     0.157 C 
ENDROOT
BRANCH   8   9
HETATM    9  O11 UNL     1     -32.299   7.086   2.934  1.00 20.00    -0.354 OA
BRANCH   9  10
HETATM   10  C4  UNL     1     -32.083   7.576   1.717  1.00 20.00     0.125 C 
HETATM   11  C3  UNL     1     -31.399   8.691   1.452  1.00 20.00     0.037 C 
ENDBRANCH   9  10
ENDBRANCH   8   9
TORSDOF 2
