REMARK  1 active torsions:
REMARK  status: ('A' for Active; 'I' for Inactive)
REMARK    1  A    between atoms: C3_3  and  C7_7 
ROOT
HETATM    1  C1  UNL     1     -34.328   5.914   6.777  1.00 20.00     0.006 C 
HETATM    2  C2  UNL     1     -34.439   7.049   6.073  1.00 20.00     0.007 C 
HETATM    3  C4  UNL     1     -32.843   4.873   5.087  1.00 20.00     0.054 C 
HETATM    4  C5  UNL     1     -34.220   4.795   5.773  1.00 20.00     0.244 C 
HETATM    5  C6  UNL     1     -34.391   6.656   4.618  1.00 20.00     0.255 C 
HETATM    6  C7  UNL     1     -32.952   6.206   4.294  1.00 20.00     0.094 C 
HETATM    7  N9  UNL     1     -35.042   5.316   4.653  1.00 20.00     0.100 N 
HETATM    8  H21 UNL     1     -34.869   4.793   3.795  1.00 20.00     0.317 HD
ENDROOT
BRANCH   6   9
HETATM    9  C3  UNL     1     -32.715   6.008   2.826  1.00 20.00     0.129 C 
HETATM   10  C8  UNL     1     -32.143   7.176   2.070  1.00 20.00     0.091 C 
HETATM   11  O10 UNL     1     -32.974   4.943   2.269  1.00 20.00    -0.298 OA
ENDBRANCH   6   9
TORSDOF 1
