REMARK  3 active torsions:
REMARK  status: ('A' for Active; 'I' for Inactive)
REMARK    1  A    between atoms: C3_3  and  C8_8 
REMARK    2  A    between atoms: C6_6  and  C9_9 
REMARK    3  A    between atoms: C7_7  and  C10_10 
ROOT
HETATM    1  C5  UNL     1     -32.489   4.595   3.444  1.00 20.00     0.019 C 
HETATM    2  C8  UNL     1     -33.027   5.946   2.766  1.00 20.00     0.078 C 
HETATM    3  C9  UNL     1     -32.957   5.253   4.776  1.00 20.00    -0.001 C 
HETATM    4  C10 UNL     1     -34.131   5.821   3.855  1.00 20.00     0.010 C 
ENDROOT
BRANCH   2   5
HETATM    5  C3  UNL     1     -32.125   7.185   2.756  1.00 20.00     0.223 C 
HETATM    6  O11 UNL     1     -31.575   7.592   3.775  1.00 20.00    -0.279 OA
HETATM    7 CL12 UNL     1     -32.002   7.892   1.173  1.00 20.00    -0.043 Cl
ENDBRANCH   2   5
BRANCH   4   8
HETATM    8  C7  UNL     1     -35.076   6.433   4.887  1.00 20.00     0.014 C 
HETATM    9  C2  UNL     1     -34.365   7.327   5.868  1.00 20.00    -0.025 C 
HETATM   10  C1  UNL     1     -33.623   6.544   6.670  1.00 20.00    -0.025 C 
HETATM   11  C6  UNL     1     -33.718   5.126   6.117  1.00 20.00     0.013 C 
HETATM   12  C4  UNL     1     -35.209   5.170   5.778  1.00 20.00     0.017 C 
ENDBRANCH   4   8
TORSDOF 3
