REMARK  1 active torsions:
REMARK  status: ('A' for Active; 'I' for Inactive)
REMARK    1  A    between atoms: C3_3  and  C5_5 
ROOT
HETATM    1  C1  UNL     1     -32.557   7.826   3.559  1.00 20.00     0.050 A 
HETATM    2  C2  UNL     1     -33.217   7.164   4.619  1.00 20.00    -0.026 A 
HETATM    3  C3  UNL     1     -32.527   6.929   2.511  1.00 20.00     0.113 A 
HETATM    4  C4  UNL     1     -33.543   5.918   4.134  1.00 20.00     0.060 A 
HETATM    5  C6  UNL     1     -33.573   7.595   5.995  1.00 20.00     0.041 C 
HETATM    6  C7  UNL     1     -34.224   4.818   4.848  1.00 20.00     0.066 C 
HETATM    7  C8  UNL     1     -33.948   6.378   6.870  1.00 20.00     0.005 C 
HETATM    8  C9  UNL     1     -34.868   5.379   6.134  1.00 20.00     0.007 C 
HETATM    9  O11 UNL     1     -33.128   5.755   2.856  1.00 20.00    -0.311 OA
ENDROOT
BRANCH   3  10
HETATM   10  C5  UNL     1     -31.993   7.038   1.196  1.00 20.00     0.295 C 
HETATM   11  O10 UNL     1     -31.417   8.056   0.752  1.00 20.00    -0.299 OA
ENDBRANCH   3  10
TORSDOF 1
