REMARK  2 active torsions:
REMARK  status: ('A' for Active; 'I' for Inactive)
REMARK    1  A    between atoms: C3_3  and  C4_4 
REMARK    2  A    between atoms: C3_3  and  O10_10 
ROOT
HETATM    1  C1  UNL     1     -32.895   6.853   3.549  1.00 20.00    -0.065 A 
HETATM    2  C2  UNL     1     -32.583   8.067   3.151  1.00 20.00    -0.027 C 
HETATM    3  C4  UNL     1     -32.877   5.925   4.615  1.00 20.00     0.122 A 
HETATM    4  C5  UNL     1     -33.465   5.615   3.189  1.00 20.00     0.029 A 
HETATM    5  C6  UNL     1     -32.847   8.612   1.774  1.00 20.00     0.036 C 
HETATM    6  C7  UNL     1     -32.760   4.675   2.278  1.00 20.00     0.016 C 
ENDROOT
BRANCH   3   7
HETATM    7  C3  UNL     1     -33.797   6.207   5.717  1.00 20.00     0.267 C 
HETATM    8  O9  UNL     1     -34.236   7.319   5.976  1.00 20.00    -0.265 OA
BRANCH   7   9
HETATM    9  O10 UNL     1     -34.073   5.051   6.386  1.00 20.00    -0.326 OA
HETATM   10  C8  UNL     1     -34.967   5.183   7.497  1.00 20.00     0.213 C 
ENDBRANCH   7   9
ENDBRANCH   3   7
TORSDOF 2
