REMARK  0 active torsions:
REMARK  status: ('A' for Active; 'I' for Inactive)
ROOT
HETATM    1  C1  UNL     1     -32.654   4.622   3.483  1.00 20.00     0.012 A 
HETATM    2  C2  UNL     1     -33.277   7.602   5.919  1.00 20.00     0.006 A 
HETATM    3  C3  UNL     1     -32.135   6.841   2.719  1.00 20.00     0.101 C 
HETATM    4  C4  UNL     1     -32.868   5.557   2.555  1.00 20.00     0.016 A 
HETATM    5  C5  UNL     1     -33.279   7.338   4.602  1.00 20.00     0.035 A 
HETATM    6  C6  UNL     1     -34.220   5.360   6.755  1.00 20.00     0.015 A 
HETATM    7  C7  UNL     1     -33.969   5.185   3.436  1.00 20.00     0.017 A 
HETATM    8  C8  UNL     1     -34.309   6.858   6.663  1.00 20.00     0.015 A 
HETATM    9  C9  UNL     1     -34.409   6.350   4.281  1.00 20.00     0.048 A 
HETATM   10  C10 UNL     1     -35.004   5.984   5.630  1.00 20.00     0.004 A 
HETATM   11  N11 UNL     1     -32.334   7.702   3.675  1.00 20.00    -0.269 NA
ENDROOT
TORSDOF 0
