REMARK  1 active torsions:
REMARK  status: ('A' for Active; 'I' for Inactive)
REMARK    1  A    between atoms: C1_1  and  C9_9 
ROOT
HETATM    1  C2  UNL     1     -34.272   6.821   6.881  1.00 20.00     0.010 C 
HETATM    2  C3  UNL     1     -34.166   5.356   4.731  1.00 20.00     0.025 C 
HETATM    3  C4  UNL     1     -32.780   7.429   4.834  1.00 20.00     0.025 C 
HETATM    4  C5  UNL     1     -34.821   7.353   3.634  1.00 20.00     0.026 C 
HETATM    5  C6  UNL     1     -35.047   6.116   5.739  1.00 20.00    -0.008 C 
HETATM    6  C7  UNL     1     -33.865   7.884   5.828  1.00 20.00    -0.008 C 
HETATM    7  C8  UNL     1     -35.200   7.533   5.094  1.00 20.00    -0.005 C 
HETATM    8  C9  UNL     1     -33.577   6.505   3.900  1.00 20.00     0.049 C 
ENDROOT
BRANCH   8   9
HETATM    9  C1  UNL     1     -32.861   6.111   2.634  1.00 20.00     0.181 C 
HETATM   10  O10 UNL     1     -32.384   7.069   1.964  1.00 20.00    -0.647 OA
HETATM   11  O11 UNL     1     -32.832   4.869   2.407  1.00 20.00    -0.647 OA
ENDBRANCH   8   9
TORSDOF 1
