REMARK  0 active torsions:
REMARK  status: ('A' for Active; 'I' for Inactive)
ROOT
HETATM    1  C1  UNL     1     -33.049   7.224   4.152  1.00 20.00     0.131 A 
HETATM    2  C2  UNL     1     -33.165   5.144   3.117  1.00 20.00     0.233 A 
HETATM    3  C3  UNL     1     -33.763   6.672   5.147  1.00 20.00     0.010 A 
HETATM    4  C4  UNL     1     -34.133   5.383   5.060  1.00 20.00     0.070 A 
HETATM    5  C5  UNL     1     -34.411   6.791   6.425  1.00 20.00     0.017 A 
HETATM    6  C6  UNL     1     -34.792   5.481   6.344  1.00 20.00     0.033 A 
HETATM    7  N7  UNL     1     -32.727   6.449   3.087  1.00 20.00    -0.253 NA
HETATM    8  N8  UNL     1     -33.886   4.530   4.087  1.00 20.00    -0.241 NA
ENDROOT
TORSDOF 0
