REMARK  1 active torsions:
REMARK  status: ('A' for Active; 'I' for Inactive)
REMARK    1  A    between atoms: C2_2  and  C4_4 
ROOT
HETATM    1  C1  UNL     1     -33.253   5.245   3.300  1.00 20.00     0.318 A 
HETATM    2  C2  UNL     1     -33.779   6.482   3.989  1.00 20.00     0.357 A 
HETATM    3  C3  UNL     1     -32.221   7.189   2.260  1.00 20.00     0.310 C 
HETATM    4  N5  UNL     1     -32.412   6.424   3.487  1.00 20.00     0.102 N 
ENDROOT
BRANCH   2   5
HETATM    5  C4  UNL     1     -34.005   6.482   5.460  1.00 20.00     0.419 C 
HETATM    6  F6  UNL     1     -35.236   6.009   5.775  1.00 20.00    -0.169 F 
HETATM    7  F7  UNL     1     -33.098   5.707   6.103  1.00 20.00    -0.169 F 
HETATM    8  F8  UNL     1     -33.909   7.731   5.979  1.00 20.00    -0.169 F 
ENDBRANCH   2   5
TORSDOF 1
