REMARK  2 active torsions:
REMARK  status: ('A' for Active; 'I' for Inactive)
REMARK    1  A    between atoms: C3_3  and  C7_7 
REMARK    2  A    between atoms: C6_6  and  O11_11 
ROOT
HETATM    1  C1  UNL     1     -34.571   5.582   6.761  1.00 20.00    -0.028 C 
HETATM    2  C2  UNL     1     -33.956   4.779   5.882  1.00 20.00     0.002 C 
HETATM    3  C4  UNL     1     -34.507   7.077   6.694  1.00 20.00     0.028 C 
HETATM    4  C5  UNL     1     -33.440   7.590   5.721  1.00 20.00     0.023 C 
HETATM    5  C6  UNL     1     -33.153   5.290   4.718  1.00 20.00     0.158 C 
HETATM    6  C7  UNL     1     -33.404   6.790   4.404  1.00 20.00     0.039 C 
HETATM    7  C8  UNL     1     -34.685   7.019   3.583  1.00 20.00     0.026 C 
ENDROOT
BRANCH   6   8
HETATM    8  C3  UNL     1     -32.246   7.323   3.595  1.00 20.00     0.243 C 
HETATM    9  O10 UNL     1     -32.372   7.824   2.483  1.00 20.00    -0.306 OA
ENDBRANCH   6   8
BRANCH   5  10
HETATM   10  O11 UNL     1     -33.461   4.478   3.585  1.00 20.00    -0.386 OA
HETATM   11  C9  UNL     1     -32.452   4.575   2.592  1.00 20.00     0.202 C 
ENDBRANCH   5  10
TORSDOF 2
