REMARK  1 active torsions:
REMARK  status: ('A' for Active; 'I' for Inactive)
REMARK    1  A    between atoms: C5_5  and  C7_7 
ROOT
HETATM    1  C1  UNL     1     -34.405   5.560   6.774  1.00 20.00    -0.003 A 
HETATM    2  C2  UNL     1     -34.398   7.005   6.667  1.00 20.00    -0.003 A 
HETATM    3  C3  UNL     1     -34.262   5.048   5.538  1.00 20.00    -0.012 A 
HETATM    4  C4  UNL     1     -34.250   7.328   5.369  1.00 20.00    -0.012 A 
HETATM    5  C6  UNL     1     -34.778   6.025   3.188  1.00 20.00     0.032 A 
HETATM    6  C7  UNL     1     -33.270   5.997   3.330  1.00 20.00     0.072 A 
HETATM    7  C8  UNL     1     -34.146   6.120   4.537  1.00 20.00     0.006 A 
ENDROOT
BRANCH   6   8
HETATM    8  C5  UNL     1     -32.486   7.140   2.844  1.00 20.00     0.128 C 
HETATM    9  C9  UNL     1     -32.738   7.579   1.427  1.00 20.00     0.091 C 
HETATM   10  O10 UNL     1     -31.666   7.711   3.560  1.00 20.00    -0.298 OA
ENDBRANCH   6   8
TORSDOF 1
