REMARK  1 active torsions:
REMARK  status: ('A' for Active; 'I' for Inactive)
REMARK    1  A    between atoms: C3_3  and  C6_6 
ROOT
HETATM    1  C1  UNL     1     -34.810   6.222   4.850  1.00 20.00    -0.024 C 
HETATM    2  C2  UNL     1     -33.956   7.166   5.286  1.00 20.00    -0.083 C 
HETATM    3  C4  UNL     1     -34.515   5.262   3.736  1.00 20.00     0.032 C 
HETATM    4  C5  UNL     1     -32.586   7.366   4.647  1.00 20.00     0.021 C 
HETATM    5  C6  UNL     1     -32.442   6.655   3.275  1.00 20.00     0.066 C 
HETATM    6  C7  UNL     1     -33.029   5.233   3.343  1.00 20.00    -0.003 C 
HETATM    7  C8  UNL     1     -34.313   8.022   6.470  1.00 20.00     0.043 C 
HETATM    8  C10 UNL     1     -32.161   8.839   4.550  1.00 20.00     0.015 C 
HETATM    9  C11 UNL     1     -32.822   4.440   2.052  1.00 20.00     0.011 C 
ENDROOT
BRANCH   5  10
HETATM   10  C3  UNL     1     -33.081   7.442   2.159  1.00 20.00     0.128 C 
HETATM   11  C9  UNL     1     -32.172   7.913   1.056  1.00 20.00     0.091 C 
HETATM   12  O12 UNL     1     -34.287   7.686   2.150  1.00 20.00    -0.298 OA
ENDBRANCH   5  10
TORSDOF 1
