REMARK  1 active torsions:
REMARK  status: ('A' for Active; 'I' for Inactive)
REMARK    1  A    between atoms: C1_1  and  C9_9 
ROOT
HETATM    1  C2  UNL     1     -33.308   7.732   5.965  1.00 20.00     0.002 C 
HETATM    2  C3  UNL     1     -34.693   7.256   6.417  1.00 20.00     0.005 C 
HETATM    3  C4  UNL     1     -34.000   4.812   6.204  1.00 20.00     0.006 C 
HETATM    4  C5  UNL     1     -33.007   7.385   4.502  1.00 20.00     0.018 C 
HETATM    5  C6  UNL     1     -32.967   4.897   5.069  1.00 20.00     0.019 C 
HETATM    6  C7  UNL     1     -35.013   5.900   4.344  1.00 20.00     0.023 C 
HETATM    7  C8  UNL     1     -35.064   5.866   5.868  1.00 20.00    -0.013 C 
HETATM    8  C9  UNL     1     -33.503   5.980   4.114  1.00 20.00     0.036 C 
ENDROOT
BRANCH   8   9
HETATM    9  C1  UNL     1     -33.150   5.685   2.688  1.00 20.00     0.227 C 
HETATM   10  O10 UNL     1     -33.446   4.619   2.157  1.00 20.00    -0.279 OA
HETATM   11 CL11 UNL     1     -32.305   7.005   1.938  1.00 20.00    -0.043 Cl
ENDBRANCH   8   9
TORSDOF 1
