REMARK  1 active torsions:
REMARK  status: ('A' for Active; 'I' for Inactive)
REMARK    1  A    between atoms: C3_3  and  C9_9 
ROOT
HETATM    1  C1  UNL     1     -31.836   7.602   3.355  1.00 20.00    -0.067 A 
HETATM    2  C2  UNL     1     -30.669   7.778   3.937  1.00 20.00     0.016 C 
HETATM    3  C4  UNL     1     -34.756   4.628   4.398  1.00 20.00     0.000 C 
HETATM    4  C5  UNL     1     -33.341   4.400   3.862  1.00 20.00     0.001 C 
HETATM    5  C6  UNL     1     -35.205   6.089   4.330  1.00 20.00     0.001 C 
HETATM    6  C7  UNL     1     -32.968   5.417   2.787  1.00 20.00     0.015 C 
HETATM    7  C8  UNL     1     -34.030   7.054   4.454  1.00 20.00     0.015 C 
HETATM    8  C9  UNL     1     -32.722   8.052   2.357  1.00 20.00     0.096 A 
HETATM    9  C10 UNL     1     -33.028   6.831   3.336  1.00 20.00    -0.003 A 
ENDROOT
BRANCH   8  10
HETATM   10  C3  UNL     1     -32.303   7.805   0.975  1.00 20.00     0.132 C 
HETATM   11  C11 UNL     1     -32.624   8.877  -0.031  1.00 20.00     0.091 C 
HETATM   12  O12 UNL     1     -31.717   6.773   0.654  1.00 20.00    -0.298 OA
ENDBRANCH   8  10
TORSDOF 1
