REMARK  1 active torsions:
REMARK  status: ('A' for Active; 'I' for Inactive)
REMARK    1  A    between atoms: C6_6  and  N10_10 
ROOT
HETATM    1  C1  UNL     1     -34.151   4.906   5.676  1.00 20.00    -0.017 A 
HETATM    2  C2  UNL     1     -34.032   4.616   4.417  1.00 20.00     0.079 A 
HETATM    3  C3  UNL     1     -33.537   5.674   3.561  1.00 20.00     0.047 A 
HETATM    4  C4  UNL     1     -33.259   7.420   5.367  1.00 20.00     0.057 A 
HETATM    5  C5  UNL     1     -33.660   6.788   6.495  1.00 20.00     0.129 A 
HETATM    6  C6  UNL     1     -33.200   6.912   3.990  1.00 20.00     0.135 A 
HETATM    7  N9  UNL     1     -34.129   5.497   6.687  1.00 20.00    -0.218 NA
ENDROOT
BRANCH   6   8
HETATM    8  N10 UNL     1     -32.736   7.803   2.981  1.00 20.00    -0.049 N 
HETATM    9  C7  UNL     1     -33.665   8.975   2.868  1.00 20.00     0.276 C 
HETATM   10  C8  UNL     1     -31.319   8.200   3.263  1.00 20.00     0.276 C 
HETATM   11  H21 UNL     1     -32.745   7.313   2.075  1.00 20.00     0.285 HD
ENDBRANCH   6   8
TORSDOF 1
