REMARK  0 active torsions:
REMARK  status: ('A' for Active; 'I' for Inactive)
ROOT
HETATM    1  C1  UNL     1     -33.053   7.706   5.506  1.00 20.00     0.352 C 
HETATM    2  C2  UNL     1     -34.486   6.129   4.786  1.00 20.00     0.451 C 
HETATM    3  C3  UNL     1     -34.359   6.042   6.270  1.00 20.00     0.451 C 
HETATM    4  O4  UNL     1     -33.993   7.420   4.462  1.00 20.00    -0.294 OA
HETATM    5  O5  UNL     1     -33.164   6.748   6.568  1.00 20.00    -0.294 OA
HETATM    6  F6  UNL     1     -35.751   5.982   4.355  1.00 20.00    -0.166 F 
HETATM    7  F7  UNL     1     -33.708   5.214   4.167  1.00 20.00    -0.166 F 
HETATM    8  F8  UNL     1     -34.288   4.777   6.720  1.00 20.00    -0.166 F 
HETATM    9  F9  UNL     1     -35.383   6.666   6.893  1.00 20.00    -0.166 F 
ENDROOT
TORSDOF 0
