REMARK  1 active torsions:
REMARK  status: ('A' for Active; 'I' for Inactive)
REMARK    1  A    between atoms: C2_2  and  C3_3 
ROOT
HETATM    1  C1  UNL     1     -33.303   6.782   5.361  1.00 20.00    -0.007 C 
HETATM    2  C2  UNL     1     -33.148   6.635   4.043  1.00 20.00    -0.012 C 
HETATM    3  C4  UNL     1     -34.858   5.127   4.651  1.00 20.00     0.022 C 
HETATM    4  C5  UNL     1     -33.939   5.506   3.472  1.00 20.00     0.019 C 
HETATM    5  C6  UNL     1     -34.245   5.755   5.928  1.00 20.00    -0.029 C 
HETATM    6  C8  UNL     1     -33.064   4.343   3.016  1.00 20.00     0.015 C 
HETATM    7  C9  UNL     1     -35.328   6.412   6.790  1.00 20.00     0.019 C 
HETATM    8  C10 UNL     1     -33.477   4.720   6.757  1.00 20.00     0.019 C 
ENDROOT
BRANCH   2   9
HETATM    9  C3  UNL     1     -32.296   7.511   3.256  1.00 20.00     0.151 C 
HETATM   10  C7  UNL     1     -32.187   7.262   1.767  1.00 20.00     0.096 C 
HETATM   11  O11 UNL     1     -31.667   8.437   3.786  1.00 20.00    -0.293 OA
ENDBRANCH   2   9
TORSDOF 1
