REMARK  3 active torsions:
REMARK  status: ('A' for Active; 'I' for Inactive)
REMARK    1  A    between atoms: C1_1  and  C2_2 
REMARK    2  A    between atoms: C4_4  and  C8_8 
REMARK    3  A    between atoms: C8_8  and  N9_9 
ROOT
HETATM    1  C1  UNL     1     -32.374   7.601   1.723  1.00 20.00    -0.015 C 
HETATM    2  C3  UNL     1     -32.215   8.187   0.687  1.00 20.00    -0.097 C 
HETATM    3  C5  UNL     1     -32.022   8.902  -0.574  1.00 20.00     0.113 C 
ENDROOT
BRANCH   1   4
HETATM    4  C2  UNL     1     -32.555   6.932   2.906  1.00 20.00    -0.013 C 
HETATM    5  C4  UNL     1     -32.714   6.346   3.943  1.00 20.00    -0.062 C 
BRANCH   5   6
HETATM    6  C8  UNL     1     -32.903   5.627   5.206  1.00 20.00     0.365 C 
BRANCH   6   7
HETATM    7  N9  UNL     1     -34.088   6.106   5.905  1.00 20.00     0.090 N 
HETATM    8  C6  UNL     1     -35.285   5.909   5.086  1.00 20.00     0.310 C 
HETATM    9  C7  UNL     1     -33.943   7.519   6.259  1.00 20.00     0.310 C 
ENDBRANCH   6   7
ENDBRANCH   5   6
ENDBRANCH   1   4
TORSDOF 3
