REMARK  2 active torsions:
REMARK  status: ('A' for Active; 'I' for Inactive)
REMARK    1  A    between atoms: C4_4  and  C5_5 
REMARK    2  A    between atoms: C9_9  and  C11_11 
ROOT
HETATM    1  C1  UNL     1     -32.371   9.781   0.722  1.00 20.00     0.012 C 
HETATM    2  C2  UNL     1     -32.866   8.768   1.135  1.00 20.00    -0.117 C 
HETATM    3  C11 UNL     1     -33.481   7.536   1.634  1.00 20.00     0.098 C 
ENDROOT
BRANCH   3   4
HETATM    4  C9  UNL     1     -32.457   6.673   2.380  1.00 20.00     0.000 C 
HETATM    5  C6  UNL     1     -31.831   7.437   3.562  1.00 20.00     0.033 C 
HETATM    6  C3  UNL     1     -32.666   7.422   4.812  1.00 20.00    -0.016 C 
HETATM    7  C4  UNL     1     -33.697   6.583   4.981  1.00 20.00    -0.016 C 
HETATM    8  C7  UNL     1     -34.119   5.560   3.970  1.00 20.00     0.042 C 
HETATM    9  C8  UNL     1     -33.076   5.354   2.866  1.00 20.00     0.010 C 
BRANCH   7  10
HETATM   10  C5  UNL     1     -34.442   6.665   6.241  1.00 20.00     0.151 C 
HETATM   11  C10 UNL     1     -34.517   8.002   6.934  1.00 20.00     0.096 C 
HETATM   12  O12 UNL     1     -34.982   5.664   6.717  1.00 20.00    -0.293 OA
ENDBRANCH   7  10
ENDBRANCH   3   4
TORSDOF 2
