REMARK  2 active torsions:
REMARK  status: ('A' for Active; 'I' for Inactive)
REMARK    1  A    between atoms: C1_1  and  C8_8 
REMARK    2  A    between atoms: C2_2  and  C9_9 
ROOT
HETATM    1  C3  UNL     1     -33.965   5.780   4.868  1.00 20.00     0.142 C 
HETATM    2  C4  UNL     1     -34.649   6.328   6.134  1.00 20.00     0.081 C 
HETATM    3  C5  UNL     1     -33.725   7.562   6.005  1.00 20.00     0.032 C 
HETATM    4  C8  UNL     1     -32.829   6.825   4.967  1.00 20.00     0.135 C 
HETATM    5  O10 UNL     1     -34.224   4.878   4.100  1.00 20.00    -0.297 OA
ENDROOT
BRANCH   4   6
HETATM    6  C1  UNL     1     -32.590   7.533   3.734  1.00 20.00    -0.094 C 
HETATM    7  C2  UNL     1     -32.390   8.123   2.707  1.00 20.00    -0.101 C 
BRANCH   7   8
HETATM    8  C9  UNL     1     -32.147   8.840   1.457  1.00 20.00     0.065 A 
HETATM    9  C6  UNL     1     -33.251   9.680   0.909  1.00 20.00     0.018 A 
HETATM   10  C7  UNL     1     -32.881   8.389   0.240  1.00 20.00     0.018 A 
ENDBRANCH   7   8
ENDBRANCH   4   6
TORSDOF 2
