REMARK  1 active torsions:
REMARK  status: ('A' for Active; 'I' for Inactive)
REMARK    1  A    between atoms: C5_5  and  C9_9 
ROOT
HETATM    1  C1  UNL     1     -34.145   4.950   6.719  1.00 20.00    -0.021 C 
HETATM    2  C2  UNL     1     -32.986   5.533   6.372  1.00 20.00    -0.024 C 
HETATM    3  C3  UNL     1     -35.373   6.202   4.989  1.00 20.00    -0.065 C 
HETATM    4  C4  UNL     1     -36.455   5.921   4.254  1.00 20.00     0.016 C 
HETATM    5  C6  UNL     1     -34.458   7.228   6.868  1.00 20.00     0.023 C 
HETATM    6  C7  UNL     1     -35.238   5.965   6.488  1.00 20.00     0.038 C 
HETATM    7  C8  UNL     1     -33.311   6.937   5.886  1.00 20.00     0.028 C 
HETATM    8  C9  UNL     1     -34.074   6.874   4.523  1.00 20.00     0.046 C 
HETATM    9  C11 UNL     1     -34.299   8.260   3.913  1.00 20.00     0.029 C 
ENDROOT
BRANCH   8  10
HETATM   10  C5  UNL     1     -33.357   6.007   3.517  1.00 20.00     0.136 C 
HETATM   11  C10 UNL     1     -32.060   6.537   2.970  1.00 20.00     0.092 C 
HETATM   12  O12 UNL     1     -33.810   4.919   3.164  1.00 20.00    -0.297 OA
ENDBRANCH   8  10
TORSDOF 1
