REMARK  1 active torsions:
REMARK  status: ('A' for Active; 'I' for Inactive)
REMARK    1  A    between atoms: C4_4  and  C6_6 
ROOT
HETATM    1  C1  UNL     1     -33.277   7.060   6.041  1.00 20.00     0.009 A 
HETATM    2  C2  UNL     1     -33.968   5.918   6.093  1.00 20.00     0.082 A 
HETATM    3  C3  UNL     1     -32.724   7.529   4.804  1.00 20.00     0.037 A 
HETATM    4  C4  UNL     1     -32.915   6.798   3.701  1.00 20.00     0.079 A 
HETATM    5  C5  UNL     1     -34.177   5.113   4.871  1.00 20.00     0.288 A 
HETATM    6  O10 UNL     1     -34.811   4.063   4.916  1.00 20.00    -0.260 OA
HETATM    7  O11 UNL     1     -33.636   5.588   3.705  1.00 20.00    -0.276 OA
ENDROOT
BRANCH   4   8
HETATM    8  C6  UNL     1     -32.401   7.176   2.384  1.00 20.00     0.039 C 
HETATM    9  C7  UNL     1     -32.715   8.310   1.735  1.00 20.00    -0.085 C 
HETATM   10  C8  UNL     1     -32.208   8.733   0.384  1.00 20.00     0.043 C 
HETATM   11  C9  UNL     1     -33.663   9.296   2.368  1.00 20.00     0.043 C 
ENDBRANCH   4   8
TORSDOF 1
