REMARK  1 active torsions:
REMARK  status: ('A' for Active; 'I' for Inactive)
REMARK    1  A    between atoms: C3_3  and  C9_9 
ROOT
HETATM    1  C1  UNL     1     -33.920   4.709   6.383  1.00 20.00    -0.030 C 
HETATM    2  C2  UNL     1     -33.739   4.038   5.227  1.00 20.00    -0.029 C 
HETATM    3  C4  UNL     1     -34.696   6.006   6.498  1.00 20.00     0.032 C 
HETATM    4  C5  UNL     1     -34.250   4.513   3.877  1.00 20.00     0.044 C 
HETATM    5  C6  UNL     1     -36.011   7.452   4.531  1.00 20.00     0.007 C 
HETATM    6  C7  UNL     1     -35.681   6.731   3.183  1.00 20.00     0.018 C 
HETATM    7  C8  UNL     1     -35.477   6.169   5.208  1.00 20.00     0.005 C 
HETATM    8  C9  UNL     1     -34.525   6.018   3.970  1.00 20.00     0.027 C 
ENDROOT
BRANCH   8   9
HETATM    9  C3  UNL     1     -33.180   6.835   3.927  1.00 20.00     0.132 C 
HETATM   10  C10 UNL     1     -32.329   6.674   2.697  1.00 20.00     0.091 C 
HETATM   11  O11 UNL     1     -32.842   7.571   4.853  1.00 20.00    -0.298 OA
ENDBRANCH   8   9
TORSDOF 1
