REMARK  1 active torsions:
REMARK  status: ('A' for Active; 'I' for Inactive)
REMARK    1  A    between atoms: C1_1  and  C2_2 
ROOT
HETATM    1  C2  UNL     1     -33.029   6.337   4.777  1.00 20.00     0.154 A 
HETATM    2  C3  UNL     1     -34.288   6.913   5.400  1.00 20.00     0.073 A 
HETATM    3  C4  UNL     1     -34.193   5.462   5.096  1.00 20.00     0.259 A 
HETATM    4  C5  UNL     1     -34.273   7.389   6.812  1.00 20.00     0.017 C 
HETATM    5  F7  UNL     1     -34.959   4.909   4.095  1.00 20.00    -0.205 F 
HETATM    6  F8  UNL     1     -34.104   4.530   6.106  1.00 20.00    -0.205 F 
ENDROOT
BRANCH   1   7
HETATM    7  C1  UNL     1     -32.721   6.652   3.378  1.00 20.00     0.229 C 
HETATM    8  O6  UNL     1     -32.114   7.671   3.065  1.00 20.00    -0.279 OA
HETATM    9 CL9  UNL     1     -33.311   5.433   2.288  1.00 20.00    -0.043 Cl
ENDBRANCH   1   7
TORSDOF 1
