REMARK  2 active torsions:
REMARK  status: ('A' for Active; 'I' for Inactive)
REMARK    1  A    between atoms: C1_1  and  C6_6 
REMARK    2  A    between atoms: C1_1  and  O10_10 
ROOT
HETATM    1  C2  UNL     1     -35.039   5.069   6.005  1.00 20.00     0.006 C 
HETATM    2  C3  UNL     1     -33.984   6.004   6.614  1.00 20.00     0.036 C 
HETATM    3  C4  UNL     1     -34.568   4.826   4.562  1.00 20.00     0.052 C 
HETATM    4  C5  UNL     1     -33.445   6.777   5.451  1.00 20.00     0.168 A 
HETATM    5  C6  UNL     1     -33.786   6.056   4.195  1.00 20.00     0.174 A 
HETATM    6  O9  UNL     1     -34.416   7.304   4.542  1.00 20.00    -0.358 OA
ENDROOT
BRANCH   5   7
HETATM    7  C1  UNL     1     -32.940   6.139   3.009  1.00 20.00     0.296 C 
HETATM    8  O8  UNL     1     -32.362   5.182   2.512  1.00 20.00    -0.262 OA
BRANCH   7   9
HETATM    9  O10 UNL     1     -32.905   7.427   2.563  1.00 20.00    -0.324 OA
HETATM   10  C7  UNL     1     -32.105   7.652   1.398  1.00 20.00     0.213 C 
ENDBRANCH   7   9
ENDBRANCH   5   7
TORSDOF 2
