REMARK  1 active torsions:
REMARK  status: ('A' for Active; 'I' for Inactive)
REMARK    1  A    between atoms: C8_8  and  O11_11 
ROOT
HETATM    1  C1  UNL     1     -34.316   4.661   5.543  1.00 20.00     0.005 C 
HETATM    2  C2  UNL     1     -34.332   5.839   6.193  1.00 20.00     0.005 C 
HETATM    3  C3  UNL     1     -33.849   4.518   4.167  1.00 20.00    -0.063 C 
HETATM    4  C4  UNL     1     -33.695   3.309   3.608  1.00 20.00     0.019 C 
HETATM    5  C5  UNL     1     -32.218   7.333   2.144  1.00 20.00     0.001 C 
HETATM    6  C6  UNL     1     -32.636   5.859   2.251  1.00 20.00     0.010 C 
HETATM    7  C7  UNL     1     -32.598   7.995   3.476  1.00 20.00     0.008 C 
HETATM    8  C8  UNL     1     -33.817   7.126   5.594  1.00 20.00     0.145 C 
HETATM    9  C9  UNL     1     -33.587   5.820   3.448  1.00 20.00     0.024 C 
HETATM   10  C10 UNL     1     -32.920   6.823   4.395  1.00 20.00     0.026 C 
ENDROOT
BRANCH   8  11
HETATM   11  O11 UNL     1     -33.066   7.821   6.583  1.00 20.00    -0.391 OA
HETATM   12  H25 UNL     1     -33.672   7.995   7.321  1.00 20.00     0.210 HD
ENDBRANCH   8  11
TORSDOF 1
