REMARK  1 active torsions:
REMARK  status: ('A' for Active; 'I' for Inactive)
REMARK    1  A    between atoms: C3_3  and  C7_7 
ROOT
HETATM    1  C1  UNL     1     -34.036   6.472   5.745  1.00 20.00    -0.070 C 
HETATM    2  C2  UNL     1     -33.614   7.359   6.652  1.00 20.00     0.015 C 
HETATM    3  C4  UNL     1     -33.547   4.063   5.598  1.00 20.00     0.009 C 
HETATM    4  C5  UNL     1     -33.596   4.165   4.063  1.00 20.00     0.006 C 
HETATM    5  C6  UNL     1     -35.643   4.980   4.936  1.00 20.00     0.014 C 
HETATM    6  C7  UNL     1     -34.118   6.668   4.253  1.00 20.00     0.119 C 
HETATM    7  C8  UNL     1     -34.594   5.095   6.044  1.00 20.00     0.015 C 
HETATM    8  C9  UNL     1     -34.636   5.281   3.817  1.00 20.00     0.004 C 
ENDROOT
BRANCH   6   9
HETATM    9  C3  UNL     1     -32.790   7.032   3.641  1.00 20.00     0.181 C 
HETATM   10  O10 UNL     1     -32.595   6.591   2.474  1.00 20.00    -0.647 OA
HETATM   11  O11 UNL     1     -32.042   7.735   4.377  1.00 20.00    -0.647 OA
ENDBRANCH   6   9
TORSDOF 1
