REMARK  4 active torsions:
REMARK  status: ('A' for Active; 'I' for Inactive)
REMARK    1  A    between atoms: C1_1  and  C7_7 
REMARK    2  A    between atoms: C2_2  and  C9_9 
REMARK    3  A    between atoms: C4_4  and  C9_9 
REMARK    4  A    between atoms: C9_9  and  O10_10 
ROOT
HETATM    1  C1  UNL     1     -32.806   7.583   3.295  1.00 20.00    -0.094 C 
HETATM    2  C2  UNL     1     -33.203   7.348   4.404  1.00 20.00    -0.070 C 
ENDROOT
BRANCH   2   3
HETATM    3  C9  UNL     1     -33.694   7.068   5.760  1.00 20.00     0.219 C 
BRANCH   3   4
HETATM    4  C4  UNL     1     -33.576   5.603   6.053  1.00 20.00     0.007 C 
HETATM    5  C3  UNL     1     -34.610   4.826   6.397  1.00 20.00     0.010 C 
ENDBRANCH   3   4
BRANCH   3   6
HETATM    6  O10 UNL     1     -32.908   7.774   6.717  1.00 20.00    -0.380 OA
HETATM    7  H22 UNL     1     -31.997   7.461   6.611  1.00 20.00     0.211 HD
ENDBRANCH   3   6
ENDBRANCH   2   3
BRANCH   1   8
HETATM    8  C7  UNL     1     -32.329   7.864   1.966  1.00 20.00     0.020 A 
HETATM    9  C5  UNL     1     -32.523   6.790   0.919  1.00 20.00     0.024 A 
HETATM   10  C6  UNL     1     -33.366   8.030   0.878  1.00 20.00     0.024 A 
HETATM   11  C8  UNL     1     -31.087   8.707   1.894  1.00 20.00     0.029 C 
ENDBRANCH   1   8
TORSDOF 4
