REMARK  3 active torsions:
REMARK  status: ('A' for Active; 'I' for Inactive)
REMARK    1  A    between atoms: C8_8  and  C9_9 
REMARK    2  A    between atoms: C9_9  and  C10_10 
REMARK    3  A    between atoms: C10_10  and  O11_11 
ROOT
HETATM    1  C1  UNL     1     -34.703   5.007   6.537  1.00 20.00     0.017 C 
HETATM    2  C2  UNL     1     -34.167   5.619   5.656  1.00 20.00    -0.083 C 
HETATM    3  C3  UNL     1     -32.901   7.499   4.901  1.00 20.00    -0.010 C 
HETATM    4  C4  UNL     1     -33.528   6.347   4.609  1.00 20.00    -0.009 C 
HETATM    5  C5  UNL     1     -32.206   8.351   3.878  1.00 20.00     0.033 C 
HETATM    6  C6  UNL     1     -33.560   5.790   3.208  1.00 20.00     0.048 C 
HETATM    7  C7  UNL     1     -32.549   6.449   2.264  1.00 20.00     0.010 C 
HETATM    8  C8  UNL     1     -32.555   7.972   2.430  1.00 20.00    -0.009 C 
ENDROOT
BRANCH   8   9
HETATM    9  C9  UNL     1     -31.594   8.638   1.448  1.00 20.00     0.031 C 
BRANCH   9  10
HETATM   10  C10 UNL     1     -32.196   8.736   0.058  1.00 20.00     0.164 C 
BRANCH  10  11
HETATM   11  O11 UNL     1     -33.376   9.523   0.131  1.00 20.00    -0.401 OA
HETATM   12  H25 UNL     1     -33.739   9.569  -0.768  1.00 20.00     0.209 HD
ENDBRANCH  10  11
ENDBRANCH   9  10
ENDBRANCH   8   9
TORSDOF 3
