REMARK  2 active torsions:
REMARK  status: ('A' for Active; 'I' for Inactive)
REMARK    1  A    between atoms: C1_1  and  C4_4 
REMARK    2  A    between atoms: C2_2  and  N10_10 
ROOT
HETATM    1  C5  UNL     1     -34.987   5.714   6.130  1.00 20.00     0.003 C 
HETATM    2  C6  UNL     1     -34.449   4.687   5.138  1.00 20.00     0.029 C 
HETATM    3  C7  UNL     1     -34.025   6.887   6.291  1.00 20.00     0.029 C 
HETATM    4  C8  UNL     1     -34.098   5.325   3.801  1.00 20.00     0.251 C 
HETATM    5  C9  UNL     1     -33.676   7.517   4.949  1.00 20.00     0.251 C 
HETATM    6  N10 UNL     1     -33.131   6.456   4.030  1.00 20.00    -0.006 N 
HETATM    7  H24 UNL     1     -32.282   6.065   4.463  1.00 20.00     0.297 HD
ENDROOT
BRANCH   6   8
HETATM    8  C2  UNL     1     -32.690   7.042   2.750  1.00 20.00     0.118 C 
HETATM    9  C1  UNL     1     -32.333   7.519   1.707  1.00 20.00    -0.049 C 
BRANCH   9  10
HETATM   10  C4  UNL     1     -31.904   8.079   0.475  1.00 20.00     0.056 C 
HETATM   11  C3  UNL     1     -32.665   8.935  -0.213  1.00 20.00     0.021 C 
ENDBRANCH   9  10
ENDBRANCH   6   8
TORSDOF 2
