REMARK  1 active torsions:
REMARK  status: ('A' for Active; 'I' for Inactive)
REMARK    1  A    between atoms: C2_2  and  C3_3 
ROOT
HETATM    1  C1  UNL     1     -33.108   5.432   2.881  1.00 20.00    -0.015 C 
HETATM    2  C2  UNL     1     -33.067   6.628   3.496  1.00 20.00    -0.012 C 
HETATM    3  C4  UNL     1     -33.611   4.212   3.626  1.00 20.00     0.033 C 
HETATM    4  C5  UNL     1     -32.855   5.462   5.711  1.00 20.00     0.016 C 
HETATM    5  C6  UNL     1     -33.505   6.664   4.930  1.00 20.00     0.030 C 
HETATM    6  C7  UNL     1     -34.002   4.615   5.065  1.00 20.00    -0.002 C 
HETATM    7  C8  UNL     1     -34.896   5.927   5.194  1.00 20.00    -0.036 C 
HETATM    8  C10 UNL     1     -35.504   6.173   6.589  1.00 20.00     0.016 C 
HETATM    9  C11 UNL     1     -36.020   6.116   4.166  1.00 20.00     0.016 C 
ENDROOT
BRANCH   2  10
HETATM   10  C3  UNL     1     -32.602   7.811   2.781  1.00 20.00     0.151 C 
HETATM   11  C9  UNL     1     -33.172   9.154   3.174  1.00 20.00     0.096 C 
HETATM   12  O12 UNL     1     -31.769   7.717   1.873  1.00 20.00    -0.293 OA
ENDBRANCH   2  10
TORSDOF 1
