REMARK  1 active torsions:
REMARK  status: ('A' for Active; 'I' for Inactive)
REMARK    1  A    between atoms: C2_2  and  C3_3 
ROOT
HETATM    1  C1  UNL     1     -34.295   5.522   4.743  1.00 20.00     0.011 C 
HETATM    2  C2  UNL     1     -33.406   6.491   4.485  1.00 20.00     0.004 C 
HETATM    3  C4  UNL     1     -34.968   5.423   6.081  1.00 20.00     0.195 C 
HETATM    4  C5  UNL     1     -33.012   7.500   5.517  1.00 20.00     0.069 C 
HETATM    5  C6  UNL     1     -33.436   7.037   6.909  1.00 20.00     0.172 C 
HETATM    6  O8  UNL     1     -34.797   6.602   6.877  1.00 20.00    -0.387 OA
ENDROOT
BRANCH   2   7
HETATM    7  C3  UNL     1     -32.786   6.539   3.161  1.00 20.00     0.248 C 
HETATM    8  O7  UNL     1     -32.624   5.485   2.534  1.00 20.00    -0.274 OA
HETATM    9 CL9  UNL     1     -32.316   8.114   2.557  1.00 20.00    -0.039 Cl
ENDBRANCH   2   7
TORSDOF 1
