REMARK  2 active torsions:
REMARK  status: ('A' for Active; 'I' for Inactive)
REMARK    1  A    between atoms: C2_2  and  C8_8 
REMARK    2  A    between atoms: C3_3  and  C7_7 
ROOT
HETATM    1  C1  UNL     1     -33.110   6.002   3.152  1.00 20.00    -0.062 A 
HETATM    2  C2  UNL     1     -32.348   7.069   3.049  1.00 20.00    -0.076 C 
HETATM    3  C4  UNL     1     -33.889   5.053   2.462  1.00 20.00     0.055 A 
HETATM    4  C7  UNL     1     -33.682   5.047   4.023  1.00 20.00     0.120 A 
HETATM    5  C9  UNL     1     -31.708   7.737   4.247  1.00 20.00     0.044 C 
ENDROOT
BRANCH   2   6
HETATM    6  C8  UNL     1     -32.040   7.730   1.722  1.00 20.00     0.014 A 
HETATM    7  C5  UNL     1     -33.191   8.142   0.894  1.00 20.00     0.010 A 
HETATM    8  C6  UNL     1     -32.356   9.167   1.599  1.00 20.00     0.010 A 
ENDBRANCH   2   6
BRANCH   4   9
HETATM    9  C3  UNL     1     -34.772   5.537   4.837  1.00 20.00     0.181 C 
HETATM   10  O10 UNL     1     -35.508   6.403   4.288  1.00 20.00    -0.647 OA
HETATM   11  O11 UNL     1     -34.840   5.030   5.991  1.00 20.00    -0.647 OA
ENDBRANCH   4   9
TORSDOF 2
