REMARK  1 active torsions:
REMARK  status: ('A' for Active; 'I' for Inactive)
REMARK    1  A    between atoms: C1_1  and  C3_3 
ROOT
HETATM    1  C1  UNL     1     -33.757   5.635   4.447  1.00 20.00     0.163 C 
HETATM    2  C2  UNL     1     -33.917   6.218   5.647  1.00 20.00    -0.045 C 
HETATM    3  C4  UNL     1     -34.764   5.692   6.772  1.00 20.00     0.046 C 
HETATM    4  C5  UNL     1     -33.203   7.505   5.973  1.00 20.00     0.046 C 
HETATM    5  F8  UNL     1     -34.398   4.477   4.170  1.00 20.00    -0.202 F 
ENDROOT
BRANCH   1   6
HETATM    6  C3  UNL     1     -32.928   6.128   3.314  1.00 20.00     0.183 C 
HETATM    7  C6  UNL     1     -32.340   5.082   2.403  1.00 20.00     0.099 C 
HETATM    8  O7  UNL     1     -32.688   7.321   3.145  1.00 20.00    -0.290 OA
ENDBRANCH   1   6
TORSDOF 1
