REMARK  2 active torsions:
REMARK  status: ('A' for Active; 'I' for Inactive)
REMARK    1  A    between atoms: C1_1  and  C5_5 
REMARK    2  A    between atoms: C5_5  and  C6_6 
ROOT
HETATM    1  C2  UNL     1     -34.784   4.804   5.772  1.00 20.00     0.003 C 
HETATM    2  C3  UNL     1     -35.104   5.474   4.425  1.00 20.00     0.029 C 
HETATM    3  C4  UNL     1     -33.290   4.970   5.444  1.00 20.00     0.029 C 
HETATM    4  C5  UNL     1     -33.674   6.101   4.437  1.00 20.00     0.149 C 
ENDROOT
BRANCH   4   5
HETATM    5  C1  UNL     1     -32.921   6.061   3.078  1.00 20.00     0.316 C 
HETATM    6  O7  UNL     1     -32.638   5.044   2.463  1.00 20.00    -0.259 OA
HETATM    7  F8  UNL     1     -32.589   7.232   2.517  1.00 20.00    -0.163 F 
ENDBRANCH   4   5
BRANCH   4   8
HETATM    8  C6  UNL     1     -33.628   7.503   5.049  1.00 20.00     0.404 C 
HETATM    9  F9  UNL     1     -34.205   8.381   4.217  1.00 20.00    -0.170 F 
HETATM   10  F10 UNL     1     -34.283   7.512   6.218  1.00 20.00    -0.170 F 
HETATM   11  F11 UNL     1     -32.355   7.868   5.256  1.00 20.00    -0.170 F 
ENDBRANCH   4   8
TORSDOF 2
