REMARK  1 active torsions:
REMARK  status: ('A' for Active; 'I' for Inactive)
REMARK    1  A    between atoms: C1_1  and  C4_4 
ROOT
HETATM    1  C1  UNL     1     -32.955   7.164   3.762  1.00 20.00    -0.068 C 
HETATM    2  C2  UNL     1     -32.316   7.780   2.954  1.00 20.00    -0.108 C 
HETATM    3  C6  UNL     1     -31.538   8.531   1.969  1.00 20.00     0.112 C 
ENDROOT
BRANCH   1   4
HETATM    4  C4  UNL     1     -33.728   6.420   4.739  1.00 20.00     0.129 C 
HETATM    5  C5  UNL     1     -33.932   4.887   4.441  1.00 20.00     0.016 C 
HETATM    6  C3  UNL     1     -35.427   5.230   4.625  1.00 20.00     0.182 C 
HETATM    7  C8  UNL     1     -33.385   3.895   5.464  1.00 20.00     0.021 C 
HETATM    8  C9  UNL     1     -33.628   4.411   3.015  1.00 20.00     0.021 C 
HETATM    9  O10 UNL     1     -35.151   6.650   4.509  1.00 20.00    -0.366 OA
HETATM   10  C7  UNL     1     -33.364   6.854   6.157  1.00 20.00     0.061 C 
ENDBRANCH   1   4
TORSDOF 1
