REMARK  0 active torsions:
REMARK  status: ('A' for Active; 'I' for Inactive)
ROOT
HETATM    1  C1  UNL     1     -33.437   6.101   3.544  1.00 20.00     0.036 C 
HETATM    2  C2  UNL     1     -32.928   7.399   5.892  1.00 20.00     0.297 C 
HETATM    3  C3  UNL     1     -32.862   7.511   3.435  1.00 20.00     0.263 C 
HETATM    4  C4  UNL     1     -34.298   6.794   5.577  1.00 20.00     0.132 C 
HETATM    5  C5  UNL     1     -33.238   5.107   2.431  1.00 20.00     0.067 C 
HETATM    6  C6  UNL     1     -31.875   7.712   2.290  1.00 20.00     0.049 C 
HETATM    7  C7  UNL     1     -34.924   6.176   6.822  1.00 20.00     0.036 C 
HETATM    8  N8  UNL     1     -34.144   5.738   4.567  1.00 20.00    -0.290 NA
HETATM    9  N9  UNL     1     -32.195   7.833   4.701  1.00 20.00     0.095 N 
HETATM   10  H23 UNL     1     -32.035   8.852   4.750  1.00 20.00     0.316 HD
ENDROOT
TORSDOF 0
