REMARK  1 active torsions:
REMARK  status: ('A' for Active; 'I' for Inactive)
REMARK    1  A    between atoms: C4_4  and  C10_10 
ROOT
HETATM    1  C1  UNL     1     -31.716   8.026   4.583  1.00 20.00     0.174 C 
HETATM    2  C2  UNL     1     -31.495   7.205   3.362  1.00 20.00     0.025 A 
HETATM    3  C3  UNL     1     -32.760   6.479   3.100  1.00 20.00     0.030 A 
HETATM    4  C4  UNL     1     -33.722   6.888   4.171  1.00 20.00     0.130 C 
HETATM    5  C5  UNL     1     -32.216   7.429   2.046  1.00 20.00    -0.035 A 
HETATM    6  C6  UNL     1     -32.908   8.738   1.768  1.00 20.00     0.016 C 
HETATM    7  C7  UNL     1     -31.603   6.807   0.816  1.00 20.00     0.016 C 
HETATM    8  O11 UNL     1     -33.126   8.000   4.870  1.00 20.00    -0.385 OA
ENDROOT
BRANCH   4   9
HETATM    9  C10 UNL     1     -33.981   5.773   5.174  1.00 20.00     0.007 C 
HETATM   10  C8  UNL     1     -34.507   6.341   6.492  1.00 20.00     0.012 C 
HETATM   11  C9  UNL     1     -34.963   4.749   4.605  1.00 20.00     0.012 C 
ENDBRANCH   4   9
TORSDOF 1
