REMARK  2 active torsions:
REMARK  status: ('A' for Active; 'I' for Inactive)
REMARK    1  A    between atoms: C1_1  and  C5_5 
REMARK    2  A    between atoms: C1_1  and  O10_10 
ROOT
HETATM    1  C2  UNL     1     -34.830   4.780   4.901  1.00 20.00     0.015 C 
HETATM    2  C3  UNL     1     -34.038   4.516   6.192  1.00 20.00     0.006 C 
HETATM    3  C4  UNL     1     -34.753   6.952   6.875  1.00 20.00     0.011 A 
HETATM    4  C5  UNL     1     -34.336   6.151   4.402  1.00 20.00     0.090 C 
HETATM    5  C6  UNL     1     -33.711   5.874   6.737  1.00 20.00    -0.009 A 
HETATM    6  C7  UNL     1     -33.885   6.874   5.644  1.00 20.00     0.004 A 
ENDROOT
BRANCH   4   7
HETATM    7  C1  UNL     1     -33.221   5.981   3.416  1.00 20.00     0.263 C 
HETATM    8  O9  UNL     1     -32.789   4.896   3.051  1.00 20.00    -0.265 OA
BRANCH   7   9
HETATM    9  O10 UNL     1     -32.782   7.206   3.008  1.00 20.00    -0.326 OA
HETATM   10  C8  UNL     1     -31.711   7.191   2.059  1.00 20.00     0.213 C 
ENDBRANCH   7   9
ENDBRANCH   4   7
TORSDOF 2
