REMARK  1 active torsions:
REMARK  status: ('A' for Active; 'I' for Inactive)
REMARK    1  A    between atoms: C2_2  and  C6_6 
ROOT
HETATM    1  C3  UNL     1     -34.228   5.697   6.964  1.00 20.00     0.031 C 
HETATM    2  C4  UNL     1     -34.362   7.090   6.343  1.00 20.00     0.032 C 
HETATM    3  C5  UNL     1     -32.817   4.936   5.012  1.00 20.00     0.040 C 
HETATM    4  C6  UNL     1     -32.901   6.358   4.420  1.00 20.00     0.042 C 
HETATM    5  C7  UNL     1     -34.089   4.673   5.831  1.00 20.00     0.131 C 
HETATM    6  C8  UNL     1     -34.271   6.952   4.816  1.00 20.00     0.139 C 
HETATM    7  N10 UNL     1     -35.246   4.851   4.920  1.00 20.00    -0.192 NA
HETATM    8  N11 UNL     1     -35.333   5.997   4.401  1.00 20.00    -0.192 NA
ENDROOT
BRANCH   4   9
HETATM    9  C2  UNL     1     -32.690   6.361   2.935  1.00 20.00    -0.087 C 
HETATM   10  C1  UNL     1     -33.049   5.323   2.166  1.00 20.00     0.014 C 
HETATM   11  C9  UNL     1     -32.055   7.592   2.360  1.00 20.00     0.043 C 
ENDBRANCH   4   9
TORSDOF 1
