REMARK  1 active torsions:
REMARK  status: ('A' for Active; 'I' for Inactive)
REMARK    1  A    between atoms: C1_1  and  C4_4 
ROOT
HETATM    1  C2  UNL     1     -35.197   5.594   4.699  1.00 20.00     0.225 A 
HETATM    2  C3  UNL     1     -34.175   5.168   5.694  1.00 20.00     0.225 A 
HETATM    3  C4  UNL     1     -33.735   5.604   4.315  1.00 20.00     0.099 A 
HETATM    4  C5  UNL     1     -33.272   4.519   3.375  1.00 20.00     0.031 C 
HETATM    5  F7  UNL     1     -35.827   6.809   4.909  1.00 20.00    -0.245 F 
HETATM    6  F8  UNL     1     -33.929   6.017   6.759  1.00 20.00    -0.245 F 
ENDROOT
BRANCH   3   7
HETATM    7  C1  UNL     1     -33.070   6.924   4.198  1.00 20.00     0.233 C 
HETATM    8  O6  UNL     1     -32.999   7.696   5.150  1.00 20.00    -0.279 OA
HETATM    9 CL9  UNL     1     -32.441   7.201   2.603  1.00 20.00    -0.043 Cl
ENDBRANCH   3   7
TORSDOF 1
