REMARK  2 active torsions:
REMARK  status: ('A' for Active; 'I' for Inactive)
REMARK    1  A    between atoms: C3_3  and  C5_5 
REMARK    2  A    between atoms: C3_3  and  O11_11 
ROOT
HETATM    1  C1  UNL     1     -36.543   6.466   3.503  1.00 20.00     0.012 C 
HETATM    2  C2  UNL     1     -35.648   6.001   4.155  1.00 20.00    -0.111 C 
HETATM    3  C4  UNL     1     -34.579   5.446   4.934  1.00 20.00     0.087 A 
HETATM    4  C5  UNL     1     -33.138   5.696   4.549  1.00 20.00     0.111 A 
HETATM    5  C6  UNL     1     -33.708   6.339   5.801  1.00 20.00    -0.019 A 
HETATM    6  C7  UNL     1     -33.257   5.780   7.129  1.00 20.00     0.017 C 
HETATM    7  C8  UNL     1     -33.946   7.830   5.835  1.00 20.00     0.017 C 
ENDROOT
BRANCH   4   8
HETATM    8  C3  UNL     1     -32.789   6.504   3.372  1.00 20.00     0.264 C 
HETATM    9  O10 UNL     1     -32.501   7.693   3.418  1.00 20.00    -0.265 OA
BRANCH   8  10
HETATM   10  O11 UNL     1     -32.838   5.726   2.253  1.00 20.00    -0.326 OA
HETATM   11  C9  UNL     1     -32.518   6.391   1.027  1.00 20.00     0.213 C 
ENDBRANCH   8  10
ENDBRANCH   4   8
TORSDOF 2
