REMARK  2 active torsions:
REMARK  status: ('A' for Active; 'I' for Inactive)
REMARK    1  A    between atoms: C4_4  and  C10_10 
REMARK    2  A    between atoms: C5_5  and  C10_10 
ROOT
HETATM    1  C1  UNL     1     -34.603   6.735   6.328  1.00 20.00    -0.026 C 
HETATM    2  C2  UNL     1     -33.265   6.652   6.349  1.00 20.00    -0.024 C 
HETATM    3  C6  UNL     1     -34.038   4.691   5.415  1.00 20.00     0.018 C 
HETATM    4  C7  UNL     1     -34.711   6.385   3.878  1.00 20.00     0.030 C 
HETATM    5  C8  UNL     1     -35.092   5.791   5.257  1.00 20.00     0.010 C 
HETATM    6  C9  UNL     1     -32.859   5.666   5.272  1.00 20.00     0.028 C 
HETATM    7  C10 UNL     1     -33.150   6.290   3.876  1.00 20.00     0.044 C 
ENDROOT
BRANCH   7   8
HETATM    8  C4  UNL     1     -32.624   5.460   2.746  1.00 20.00    -0.019 C 
HETATM    9  C3  UNL     1     -33.303   4.461   2.172  1.00 20.00     0.008 C 
ENDBRANCH   7   8
BRANCH   7  10
HETATM   10  C5  UNL     1     -32.496   7.631   3.692  1.00 20.00     0.136 C 
HETATM   11  C11 UNL     1     -32.777   8.348   2.399  1.00 20.00     0.092 C 
HETATM   12  O12 UNL     1     -31.769   8.119   4.556  1.00 20.00    -0.297 OA
ENDBRANCH   7  10
TORSDOF 2
