REMARK  0 active torsions:
REMARK  status: ('A' for Active; 'I' for Inactive)
ROOT
HETATM    1  C1  UNL     1     -32.226   8.207   1.121  1.00 20.00     0.015 C 
HETATM    2  C2  UNL     1     -33.393   7.536   6.903  1.00 20.00     0.015 C 
HETATM    3  C3  UNL     1     -32.250   7.728   2.221  1.00 20.00    -0.082 C 
HETATM    4  C4  UNL     1     -33.497   7.445   5.711  1.00 20.00    -0.082 C 
HETATM    5  C5  UNL     1     -32.279   7.141   3.569  1.00 20.00     0.243 C 
HETATM    6  C6  UNL     1     -33.624   7.333   4.250  1.00 20.00     0.243 C 
HETATM    7  C7  UNL     1     -33.419   5.152   3.574  1.00 20.00     0.160 C 
HETATM    8  C8  UNL     1     -33.807   4.557   2.225  1.00 20.00     0.078 C 
HETATM    9  C9  UNL     1     -33.406   4.076   4.653  1.00 20.00     0.078 C 
HETATM   10  O10 UNL     1     -32.108   5.724   3.482  1.00 20.00    -0.335 OA
HETATM   11  O11 UNL     1     -34.375   6.161   3.920  1.00 20.00    -0.335 OA
ENDROOT
TORSDOF 0
