REMARK  0 active torsions:
REMARK  status: ('A' for Active; 'I' for Inactive)
ROOT
HETATM    1  C1  UNL     1     -34.396   4.892   4.572  1.00 20.00     0.110 A 
HETATM    2  C2  UNL     1     -33.618   5.595   3.670  1.00 20.00     0.007 A 
HETATM    3  C3  UNL     1     -33.304   6.885   4.159  1.00 20.00     0.002 A 
HETATM    4  C4  UNL     1     -33.900   6.941   5.354  1.00 20.00     0.048 A 
HETATM    5  C5  UNL     1     -33.016   5.455   2.392  1.00 20.00     0.124 A 
HETATM    6  C6  UNL     1     -34.355   7.404   6.625  1.00 20.00     0.048 A 
HETATM    7  C7  UNL     1     -34.972   6.197   6.788  1.00 20.00     0.099 A 
HETATM    8  C8  UNL     1     -32.485   7.571   3.164  1.00 20.00     0.190 A 
HETATM    9  N9  UNL     1     -32.363   6.532   2.047  1.00 20.00    -0.296 NA
HETATM   10  N10 UNL     1     -34.520   5.787   5.570  1.00 20.00    -0.331 N 
ENDROOT
TORSDOF 0
