REMARK  1 active torsions:
REMARK  status: ('A' for Active; 'I' for Inactive)
REMARK    1  A    between atoms: C3_3  and  C7_7 
ROOT
HETATM    1  C1  UNL     1     -32.726   7.625   4.563  1.00 20.00    -0.020 C 
HETATM    2  C2  UNL     1     -33.697   7.510   5.485  1.00 20.00    -0.086 C 
HETATM    3  C4  UNL     1     -34.887   6.600   5.295  1.00 20.00     0.049 C 
HETATM    4  C5  UNL     1     -34.095   6.279   2.908  1.00 20.00     0.023 C 
HETATM    5  C6  UNL     1     -32.725   6.897   3.244  1.00 20.00     0.005 C 
HETATM    6  C7  UNL     1     -34.761   5.625   4.118  1.00 20.00     0.091 C 
HETATM    7  C8  UNL     1     -33.659   8.280   6.773  1.00 20.00     0.043 C 
HETATM    8  C9  UNL     1     -32.280   7.825   2.112  1.00 20.00     0.014 C 
ENDROOT
BRANCH   6   9
HETATM    9  C3  UNL     1     -34.011   4.387   4.519  1.00 20.00     0.177 C 
HETATM   10  O10 UNL     1     -34.094   4.079   5.740  1.00 20.00    -0.648 OA
HETATM   11  O11 UNL     1     -33.392   3.815   3.579  1.00 20.00    -0.648 OA
ENDBRANCH   6   9
TORSDOF 1
