REMARK  2 active torsions:
REMARK  status: ('A' for Active; 'I' for Inactive)
REMARK    1  A    between atoms: C3_3  and  C6_6 
REMARK    2  A    between atoms: C7_7  and  O11_11 
ROOT
HETATM    1  C1  UNL     1     -32.593   7.971   3.856  1.00 20.00    -0.023 C 
HETATM    2  C2  UNL     1     -32.462   7.046   2.891  1.00 20.00    -0.085 C 
HETATM    3  C4  UNL     1     -33.175   7.688   5.208  1.00 20.00     0.042 C 
HETATM    4  C5  UNL     1     -32.923   5.624   3.086  1.00 20.00     0.071 C 
HETATM    5  C6  UNL     1     -33.346   6.191   5.506  1.00 20.00     0.084 C 
HETATM    6  C7  UNL     1     -33.879   5.411   4.284  1.00 20.00     0.068 C 
HETATM    7  C8  UNL     1     -31.842   7.366   1.564  1.00 20.00     0.043 C 
HETATM    8  C9  UNL     1     -35.317   5.791   3.900  1.00 20.00     0.047 C 
ENDROOT
BRANCH   6   9
HETATM    9  O11 UNL     1     -33.850   4.006   4.566  1.00 20.00    -0.389 OA
HETATM   10  H25 UNL     1     -34.156   3.569   3.761  1.00 20.00     0.210 HD
ENDBRANCH   6   9
BRANCH   5  11
HETATM   11  C3  UNL     1     -34.211   6.023   6.727  1.00 20.00     0.238 C 
HETATM   12  O10 UNL     1     -34.874   5.016   6.952  1.00 20.00    -0.306 OA
ENDBRANCH   5  11
TORSDOF 2
