REMARK  0 active torsions:
REMARK  status: ('A' for Active; 'I' for Inactive)
ROOT
HETATM    1  C1  UNL     1     -33.529   8.789   1.454  1.00 20.00     0.015 C 
HETATM    2  C2  UNL     1     -33.102   7.864   2.089  1.00 20.00    -0.075 C 
HETATM    3  C3  UNL     1     -35.100   6.035   5.659  1.00 20.00     0.001 C 
HETATM    4  C4  UNL     1     -34.895   4.884   4.648  1.00 20.00     0.005 C 
HETATM    5  C5  UNL     1     -34.187   7.186   5.178  1.00 20.00     0.009 C 
HETATM    6  C6  UNL     1     -33.107   5.307   2.485  1.00 20.00     0.060 C 
HETATM    7  C7  UNL     1     -34.269   5.602   3.473  1.00 20.00    -0.003 C 
HETATM    8  C8  UNL     1     -33.229   6.468   4.248  1.00 20.00     0.040 C 
HETATM    9  C9  UNL     1     -32.588   6.753   2.853  1.00 20.00     0.162 C 
HETATM   10  O10 UNL     1     -31.186   6.812   2.905  1.00 20.00    -0.214 OA
ENDROOT
TORSDOF 0
