REMARK  4 active torsions:
REMARK  status: ('A' for Active; 'I' for Inactive)
REMARK    1  A    between atoms: C1_1  and  C4_4 
REMARK    2  A    between atoms: C5_5  and  C8_8 
REMARK    3  A    between atoms: C8_8  and  C10_10 
REMARK    4  A    between atoms: C9_9  and  C10_10 
ROOT
HETATM    1  C2  UNL     1     -33.594   4.560   3.748  1.00 20.00     0.016 C 
HETATM    2  C3  UNL     1     -34.794   6.234   3.131  1.00 20.00     0.016 C 
HETATM    3  C4  UNL     1     -34.825   5.277   4.344  1.00 20.00     0.055 C 
HETATM    4  C5  UNL     1     -33.345   5.784   2.839  1.00 20.00    -0.013 C 
ENDROOT
BRANCH   4   5
HETATM    5  C8  UNL     1     -32.246   6.736   3.283  1.00 20.00     0.005 C 
BRANCH   5   6
HETATM    6  C10 UNL     1     -32.374   8.104   2.607  1.00 20.00     0.000 C 
BRANCH   6   7
HETATM    7  C9  UNL     1     -32.320   7.984   1.085  1.00 20.00    -0.005 C 
HETATM    8  C7  UNL     1     -32.481   9.339   0.414  1.00 20.00     0.005 C 
ENDBRANCH   6   7
ENDBRANCH   5   6
ENDBRANCH   4   5
BRANCH   3   9
HETATM    9  C1  UNL     1     -34.608   5.922   5.671  1.00 20.00     0.127 C 
HETATM   10  C6  UNL     1     -34.408   5.002   6.845  1.00 20.00     0.091 C 
HETATM   11  O11 UNL     1     -34.590   7.145   5.799  1.00 20.00    -0.298 OA
ENDBRANCH   3   9
TORSDOF 4
