REMARK  3 active torsions:
REMARK  status: ('A' for Active; 'I' for Inactive)
REMARK    1  A    between atoms: C1_1  and  C7_7 
REMARK    2  A    between atoms: C1_1  and  O10_10 
REMARK    3  A    between atoms: C6_6  and  C7_7 
ROOT
HETATM    1  C4  UNL     1     -34.308   4.466   4.936  1.00 20.00     0.021 A 
HETATM    2  C5  UNL     1     -35.314   5.403   4.342  1.00 20.00     0.021 A 
HETATM    3  C7  UNL     1     -33.869   5.839   4.471  1.00 20.00     0.051 A 
ENDROOT
BRANCH   3   4
HETATM    4  C1  UNL     1     -33.078   5.889   3.215  1.00 20.00     0.267 C 
HETATM    5  O9  UNL     1     -32.773   4.903   2.557  1.00 20.00    -0.264 OA
BRANCH   4   6
HETATM    6  O10 UNL     1     -32.759   7.183   2.928  1.00 20.00    -0.326 OA
HETATM    7  C8  UNL     1     -31.992   7.377   1.735  1.00 20.00     0.213 C 
ENDBRANCH   4   6
ENDBRANCH   3   4
BRANCH   3   8
HETATM    8  C6  UNL     1     -33.475   6.916   5.501  1.00 20.00     0.004 A 
HETATM    9  C2  UNL     1     -34.013   8.319   5.453  1.00 20.00     0.006 A 
HETATM   10  C3  UNL     1     -34.415   7.398   6.571  1.00 20.00     0.006 A 
ENDBRANCH   3   8
TORSDOF 3
