REMARK  1 active torsions:
REMARK  status: ('A' for Active; 'I' for Inactive)
REMARK    1  A    between atoms: C9_9  and  N10_10 
ROOT
HETATM    1  C1  UNL     1     -32.324   6.486   1.325  1.00 20.00     0.072 A 
HETATM    2  C2  UNL     1     -32.375   7.785   1.637  1.00 20.00    -0.002 A 
HETATM    3  C5  UNL     1     -32.587   5.736   2.568  1.00 20.00     0.243 A 
HETATM    4  C8  UNL     1     -32.668   8.030   3.076  1.00 20.00     0.154 A 
HETATM    5  N10 UNL     1     -32.782   6.679   3.566  1.00 20.00    -0.340 N 
HETATM    6  O11 UNL     1     -32.613   4.518   2.636  1.00 20.00    -0.268 OA
ENDROOT
BRANCH   5   7
HETATM    7  C9  UNL     1     -33.067   6.346   4.935  1.00 20.00     0.094 C 
HETATM    8  C6  UNL     1     -33.242   7.587   5.819  1.00 20.00     0.052 C 
HETATM    9  C3  UNL     1     -34.305   7.161   6.775  1.00 20.00    -0.029 C 
HETATM   10  C4  UNL     1     -34.914   6.041   6.377  1.00 20.00    -0.029 C 
HETATM   11  C7  UNL     1     -34.357   5.533   5.089  1.00 20.00     0.052 C 
ENDBRANCH   5   7
TORSDOF 1
