REMARK  0 active torsions:
REMARK  status: ('A' for Active; 'I' for Inactive)
ROOT
HETATM    1  C1  UNL     1     -32.596   6.225   2.284  1.00 20.00     0.020 A 
HETATM    2  C2  UNL     1     -32.574   7.305   3.215  1.00 20.00     0.038 A 
HETATM    3  C3  UNL     1     -33.386   5.215   2.810  1.00 20.00     0.093 A 
HETATM    4  C4  UNL     1     -33.350   6.896   4.260  1.00 20.00     0.073 A 
HETATM    5  C5  UNL     1     -34.614   5.070   5.015  1.00 20.00     0.085 A 
HETATM    6  C6  UNL     1     -34.837   5.994   5.988  1.00 20.00     0.065 A 
HETATM    7  C7  UNL     1     -34.275   4.751   6.387  1.00 20.00     0.061 A 
HETATM    8  N8  UNL     1     -33.801   5.628   4.046  1.00 20.00    -0.337 N 
HETATM    9  S9  UNL     1     -33.982   7.509   5.750  1.00 20.00    -0.097 SA
ENDROOT
TORSDOF 0
