REMARK  1 active torsions:
REMARK  status: ('A' for Active; 'I' for Inactive)
REMARK    1  A    between atoms: C1_1  and  C8_8 
ROOT
HETATM    1  C2  UNL     1     -34.887   6.198   7.162  1.00 20.00     0.001 C 
HETATM    2  C3  UNL     1     -33.957   5.103   6.667  1.00 20.00     0.001 C 
HETATM    3  C4  UNL     1     -34.260   7.464   6.589  1.00 20.00     0.010 C 
HETATM    4  C5  UNL     1     -33.709   5.489   5.213  1.00 20.00     0.010 C 
HETATM    5  C6  UNL     1     -32.387   7.717   4.793  1.00 20.00     0.023 C 
HETATM    6  C7  UNL     1     -34.363   7.693   3.976  1.00 20.00     0.023 C 
HETATM    7  C8  UNL     1     -32.952   7.832   3.357  1.00 20.00     0.073 C 
HETATM    8  C9  UNL     1     -33.714   7.027   5.224  1.00 20.00    -0.039 C 
ENDROOT
BRANCH   7   9
HETATM    9  C1  UNL     1     -32.516   6.779   2.330  1.00 20.00     0.223 C 
HETATM   10  O10 UNL     1     -32.599   5.577   2.564  1.00 20.00    -0.279 OA
HETATM   11 CL11 UNL     1     -31.919   7.501   0.866  1.00 20.00    -0.043 Cl
ENDBRANCH   7   9
TORSDOF 1
