REMARK  0 active torsions:
REMARK  status: ('A' for Active; 'I' for Inactive)
ROOT
HETATM    1  C1  UNL     1     -34.603   5.273   5.378  1.00 20.00     0.031 A 
HETATM    2  C2  UNL     1     -33.587   5.314   3.147  1.00 20.00    -0.014 A 
HETATM    3  C3  UNL     1     -32.464   7.868   3.750  1.00 20.00    -0.013 A 
HETATM    4  C4  UNL     1     -34.756   5.913   6.551  1.00 20.00     0.117 A 
HETATM    5  C5  UNL     1     -33.492   7.729   5.982  1.00 20.00     0.128 A 
HETATM    6  C6  UNL     1     -33.800   5.894   4.340  1.00 20.00    -0.027 A 
HETATM    7  C7  UNL     1     -33.209   7.187   4.627  1.00 20.00    -0.012 A 
HETATM    8  C8  UNL     1     -32.749   5.940   2.066  1.00 20.00     0.032 A 
HETATM    9  C9  UNL     1     -32.178   7.339   2.374  1.00 20.00     0.032 A 
HETATM   10  N10 UNL     1     -34.215   7.138   6.887  1.00 20.00    -0.272 NA
ENDROOT
TORSDOF 0
