REMARK  3 active torsions:
REMARK  status: ('A' for Active; 'I' for Inactive)
REMARK    1  A    between atoms: C1_1  and  C2_2 
REMARK    2  A    between atoms: C4_4  and  C9_9 
REMARK    3  A    between atoms: C5_5  and  C9_9 
ROOT
HETATM    1  C2  UNL     1     -32.551   7.333   4.012  1.00 20.00    -0.004 C 
HETATM    2  C4  UNL     1     -33.833   7.504   4.372  1.00 20.00    -0.015 C 
ENDROOT
BRANCH   2   3
HETATM    3  C9  UNL     1     -34.422   6.942   5.638  1.00 20.00     0.073 C 
HETATM    4  C8  UNL     1     -33.695   7.468   6.869  1.00 20.00     0.022 C 
BRANCH   3   5
HETATM    5  C5  UNL     1     -34.338   5.418   5.598  1.00 20.00     0.130 C 
HETATM    6  C7  UNL     1     -34.378   4.777   4.233  1.00 20.00     0.091 C 
HETATM    7  O10 UNL     1     -34.280   4.726   6.615  1.00 20.00    -0.298 OA
ENDBRANCH   3   5
ENDBRANCH   2   3
BRANCH   1   8
HETATM    8  C1  UNL     1     -31.992   7.877   2.795  1.00 20.00    -0.005 C 
HETATM    9  C3  UNL     1     -32.652   7.891   1.628  1.00 20.00    -0.031 C 
HETATM   10  C6  UNL     1     -32.087   8.449   0.363  1.00 20.00     0.036 C 
ENDBRANCH   1   8
TORSDOF 3
