REMARK  2 active torsions:
REMARK  status: ('A' for Active; 'I' for Inactive)
REMARK    1  A    between atoms: C1_1  and  C4_4 
REMARK    2  A    between atoms: C1_1  and  C5_5 
ROOT
HETATM    1  C1  UNL     1     -33.405   6.000   3.548  1.00 20.00     0.144 C 
HETATM    2  O6  UNL     1     -32.988   4.969   3.020  1.00 20.00    -0.296 OA
ENDROOT
BRANCH   1   3
HETATM    3  C4  UNL     1     -34.548   5.959   4.466  1.00 20.00     0.056 A 
HETATM    4  C2  UNL     1     -34.505   5.045   5.660  1.00 20.00     0.013 A 
HETATM    5  C3  UNL     1     -34.401   6.528   5.852  1.00 20.00     0.013 A 
ENDBRANCH   1   3
BRANCH   1   6
HETATM    6  C5  UNL     1     -32.799   7.364   3.314  1.00 20.00     0.193 C 
HETATM    7 CL7  UNL     1     -32.085   7.463   1.697  1.00 20.00    -0.123 Cl
ENDBRANCH   1   6
TORSDOF 2
