REMARK  1 active torsions:
REMARK  status: ('A' for Active; 'I' for Inactive)
REMARK    1  A    between atoms: C3_3  and  C8_8 
ROOT
HETATM    1  C1  UNL     1     -33.696   4.698   4.350  1.00 20.00    -0.079 C 
HETATM    2  C2  UNL     1     -33.232   4.211   3.196  1.00 20.00    -0.028 C 
HETATM    3  C4  UNL     1     -33.331   4.209   5.729  1.00 20.00     0.039 C 
HETATM    4  C5  UNL     1     -35.478   5.251   5.737  1.00 20.00     0.014 C 
HETATM    5  C6  UNL     1     -33.661   6.582   6.528  1.00 20.00     0.019 C 
HETATM    6  C7  UNL     1     -34.728   5.795   4.517  1.00 20.00     0.027 C 
HETATM    7  C8  UNL     1     -34.061   7.047   5.115  1.00 20.00     0.081 C 
HETATM    8  C9  UNL     1     -34.210   5.138   6.590  1.00 20.00    -0.009 C 
HETATM    9  C10 UNL     1     -32.260   3.084   3.094  1.00 20.00     0.036 C 
ENDROOT
BRANCH   7  10
HETATM   10  C3  UNL     1     -32.904   7.555   4.312  1.00 20.00     0.223 C 
HETATM   11  O11 UNL     1     -32.568   7.025   3.257  1.00 20.00    -0.279 OA
HETATM   12 CL12 UNL     1     -32.147   8.932   5.054  1.00 20.00    -0.043 Cl
ENDBRANCH   7  10
TORSDOF 1
