REMARK  1 active torsions:
REMARK  status: ('A' for Active; 'I' for Inactive)
REMARK    1  A    between atoms: C3_3  and  C8_8 
ROOT
HETATM    1  C1  UNL     1     -34.191   4.608   4.303  1.00 20.00    -0.084 C 
HETATM    2  C2  UNL     1     -33.610   3.753   3.456  1.00 20.00     0.015 C 
HETATM    3  C4  UNL     1     -34.224   4.485   5.806  1.00 20.00     0.038 C 
HETATM    4  C5  UNL     1     -36.069   5.776   5.018  1.00 20.00     0.014 C 
HETATM    5  C6  UNL     1     -34.222   7.008   5.893  1.00 20.00     0.021 C 
HETATM    6  C7  UNL     1     -34.991   5.840   3.933  1.00 20.00     0.028 C 
HETATM    7  C8  UNL     1     -34.221   7.104   4.357  1.00 20.00     0.095 C 
HETATM    8  C9  UNL     1     -35.053   5.734   6.164  1.00 20.00    -0.009 C 
ENDROOT
BRANCH   7   9
HETATM    9  C3  UNL     1     -32.829   7.181   3.759  1.00 20.00     0.177 C 
HETATM   10  O10 UNL     1     -32.702   6.653   2.620  1.00 20.00    -0.648 OA
HETATM   11  O11 UNL     1     -31.974   7.765   4.482  1.00 20.00    -0.648 OA
ENDBRANCH   7   9
TORSDOF 1
