REMARK  2 active torsions:
REMARK  status: ('A' for Active; 'I' for Inactive)
REMARK    1  A    between atoms: C2_2  and  C7_7 
REMARK    2  A    between atoms: C3_3  and  C6_6 
ROOT
HETATM    1  C4  UNL     1     -33.988   7.316   6.187  1.00 20.00     0.014 C 
HETATM    2  C5  UNL     1     -34.000   5.800   6.451  1.00 20.00     0.015 C 
HETATM    3  C6  UNL     1     -33.898   7.010   4.668  1.00 20.00     0.067 C 
HETATM    4  C7  UNL     1     -34.486   5.589   4.986  1.00 20.00    -0.011 C 
HETATM    5  C10 UNL     1     -36.005   5.489   4.842  1.00 20.00     0.021 C 
ENDROOT
BRANCH   4   6
HETATM    6  C2  UNL     1     -33.814   4.461   4.289  1.00 20.00    -0.084 C 
HETATM    7  C1  UNL     1     -32.879   3.711   4.890  1.00 20.00     0.015 C 
HETATM    8  C8  UNL     1     -34.243   4.209   2.874  1.00 20.00     0.043 C 
ENDBRANCH   4   6
BRANCH   3   9
HETATM    9  C3  UNL     1     -32.502   7.119   4.028  1.00 20.00     0.128 C 
HETATM   10  C9  UNL     1     -31.602   8.207   4.548  1.00 20.00     0.091 C 
HETATM   11  O11 UNL     1     -32.139   6.353   3.137  1.00 20.00    -0.298 OA
ENDBRANCH   3   9
TORSDOF 2
