REMARK  2 active torsions:
REMARK  status: ('A' for Active; 'I' for Inactive)
REMARK    1  A    between atoms: C2_2  and  C5_5 
REMARK    2  A    between atoms: C3_3  and  C6_6 
REMARK       I    between atoms: C3_3  and  N9_9 
ROOT
HETATM    1  C4  UNL     1     -32.756   7.841   5.470  1.00 20.00     0.024 A 
HETATM    2  C5  UNL     1     -33.930   7.278   6.223  1.00 20.00     0.021 A 
HETATM    3  C6  UNL     1     -33.965   7.387   4.738  1.00 20.00     0.086 A 
ENDROOT
BRANCH   3   4
HETATM    4  C3  UNL     1     -33.852   6.147   3.886  1.00 20.00     0.224 C 
HETATM    5  N9  UNL     1     -32.823   6.127   2.944  1.00 20.00    -0.360 N 
HETATM    6  C7  UNL     1     -32.177   4.891   2.522  1.00 20.00     0.152 C 
HETATM    7  C8  UNL     1     -32.319   7.344   2.312  1.00 20.00     0.152 C 
HETATM    8  O10 UNL     1     -34.655   5.226   4.055  1.00 20.00    -0.273 OA
ENDBRANCH   3   4
BRANCH   2   9
HETATM    9  C2  UNL     1     -33.782   5.998   6.900  1.00 20.00    -0.031 C 
HETATM   10  C1  UNL     1     -34.600   4.956   6.718  1.00 20.00     0.007 C 
ENDBRANCH   2   9
TORSDOF 2
