REMARK  3 active torsions:
REMARK  status: ('A' for Active; 'I' for Inactive)
REMARK    1  A    between atoms: C2_2  and  C6_6 
REMARK    2  A    between atoms: C3_3  and  C7_7 
REMARK    3  A    between atoms: C6_6  and  C7_7 
ROOT
HETATM    1  C7  UNL     1     -33.100   6.278   3.287  1.00 20.00     0.242 C 
HETATM    2  F9  UNL     1     -33.338   5.295   2.371  1.00 20.00    -0.241 F 
ENDROOT
BRANCH   1   3
HETATM    3  C3  UNL     1     -34.135   6.234   4.394  1.00 20.00     0.157 C 
HETATM    4  C5  UNL     1     -33.965   7.191   5.545  1.00 20.00     0.094 C 
HETATM    5  O8  UNL     1     -35.077   5.443   4.358  1.00 20.00    -0.295 OA
ENDBRANCH   1   3
BRANCH   1   6
HETATM    6  C6  UNL     1     -33.038   7.616   2.554  1.00 20.00     0.072 C 
BRANCH   6   7
HETATM    7  C2  UNL     1     -32.015   7.629   1.452  1.00 20.00    -0.028 C 
HETATM    8  C1  UNL     1     -32.135   8.357   0.332  1.00 20.00    -0.035 C 
HETATM    9  C4  UNL     1     -33.298   9.245   0.038  1.00 20.00     0.036 C 
ENDBRANCH   6   7
ENDBRANCH   1   6
TORSDOF 3
