REMARK  2 active torsions:
REMARK  status: ('A' for Active; 'I' for Inactive)
REMARK    1  A    between atoms: C6_6  and  C7_7 
REMARK    2  A    between atoms: C6_6  and  N8_8 
ROOT
HETATM    1  C1  UNL     1     -33.307   5.623   3.474  1.00 20.00     0.283 C 
HETATM    2  C2  UNL     1     -34.413   5.842   4.500  1.00 20.00     0.105 C 
HETATM    3  C3  UNL     1     -32.405   7.547   4.490  1.00 20.00     0.346 C 
HETATM    4  N8  UNL     1     -32.625   6.898   3.191  1.00 20.00     0.098 N 
HETATM    5  S9  UNL     1     -33.714   7.050   5.647  1.00 20.00    -0.138 SA
ENDROOT
BRANCH   4   6
HETATM    6  C6  UNL     1     -33.407   7.744   2.289  1.00 20.00     0.277 C 
BRANCH   6   7
HETATM    7  C7  UNL     1     -32.526   8.772   1.567  1.00 20.00     0.006 C 
HETATM    8  C4  UNL     1     -31.438   8.111   0.720  1.00 20.00     0.011 C 
HETATM    9  C5  UNL     1     -33.352   9.742   0.721  1.00 20.00     0.011 C 
ENDBRANCH   6   7
ENDBRANCH   4   6
TORSDOF 2
