REMARK  1 active torsions:
REMARK  status: ('A' for Active; 'I' for Inactive)
REMARK    1  A    between atoms: C2_2  and  C6_6 
ROOT
HETATM    1  C1  UNL     1     -32.742   8.400   1.563  1.00 20.00     0.074 C 
HETATM    2  C3  UNL     1     -31.474   7.590   3.538  1.00 20.00     0.031 C 
HETATM    3  C4  UNL     1     -32.591   7.484   4.569  1.00 20.00     0.025 C 
HETATM    4  C5  UNL     1     -32.074   7.246   2.178  1.00 20.00     0.154 C 
HETATM    5  C6  UNL     1     -33.274   6.146   4.332  1.00 20.00     0.117 C 
HETATM    6  N8  UNL     1     -33.269   9.312   1.077  1.00 20.00    -0.196 NA
HETATM    7  S10 UNL     1     -33.263   5.911   2.532  1.00 20.00    -0.137 SA
ENDROOT
BRANCH   5   8
HETATM    8  C2  UNL     1     -34.688   6.137   4.802  1.00 20.00     0.136 C 
HETATM    9  C7  UNL     1     -34.911   6.319   6.279  1.00 20.00     0.092 C 
HETATM   10  O9  UNL     1     -35.627   5.990   4.021  1.00 20.00    -0.297 OA
ENDBRANCH   5   8
TORSDOF 1
