REMARK  0 active torsions:
REMARK  status: ('A' for Active; 'I' for Inactive)
ROOT
HETATM    1  C1  UNL     1     -33.575   5.598   3.342  1.00 20.00     0.223 C 
HETATM    2  C2  UNL     1     -33.266   7.198   5.056  1.00 20.00     0.130 C 
HETATM    3  C3  UNL     1     -34.373   5.117   4.543  1.00 20.00     0.079 C 
HETATM    4  C4  UNL     1     -34.527   6.405   5.378  1.00 20.00     0.012 C 
HETATM    5  C5  UNL     1     -33.623   3.978   5.222  1.00 20.00     0.020 C 
HETATM    6  C6  UNL     1     -34.740   6.214   6.871  1.00 20.00     0.012 C 
HETATM    7  C7  UNL     1     -32.018   7.532   2.891  1.00 20.00     0.152 C 
HETATM    8  N8  UNL     1     -32.961   6.795   3.704  1.00 20.00    -0.356 N 
HETATM    9  O9  UNL     1     -33.474   4.991   2.285  1.00 20.00    -0.273 OA
ENDROOT
TORSDOF 0
