REMARK  2 active torsions:
REMARK  status: ('A' for Active; 'I' for Inactive)
REMARK    1  A    between atoms: C3_3  and  C9_9 
REMARK    2  A    between atoms: C9_9  and  N10_10 
ROOT
HETATM    1  C1  UNL     1     -33.334   6.110   4.152  1.00 20.00     0.040 C 
HETATM    2  C4  UNL     1     -32.991   7.355   4.936  1.00 20.00     0.057 C 
HETATM    3  C5  UNL     1     -34.099   7.647   5.939  1.00 20.00     0.006 C 
HETATM    4  C6  UNL     1     -34.328   6.485   6.911  1.00 20.00     0.004 C 
HETATM    5  C7  UNL     1     -34.012   5.112   6.314  1.00 20.00     0.043 C 
HETATM    6  C8  UNL     1     -34.208   5.068   4.806  1.00 20.00     0.217 C 
HETATM    7  N10 UNL     1     -32.896   5.925   2.950  1.00 20.00    -0.292 NA
HETATM    8  F11 UNL     1     -33.895   3.818   4.368  1.00 20.00    -0.243 F 
ENDROOT
BRANCH   7   9
HETATM    9  C9  UNL     1     -32.064   7.004   2.441  1.00 20.00     0.175 C 
BRANCH   9  10
HETATM   10  C3  UNL     1     -32.928   8.050   1.813  1.00 20.00    -0.015 C 
HETATM   11  C2  UNL     1     -32.822   8.440   0.538  1.00 20.00     0.008 C 
ENDBRANCH   9  10
ENDBRANCH   7   9
TORSDOF 2
