REMARK  2 active torsions:
REMARK  status: ('A' for Active; 'I' for Inactive)
REMARK    1  A    between atoms: C4_4  and  O10_10 
REMARK    2  A    between atoms: C5_5  and  C6_6 
ROOT
HETATM    1  C1  UNL     1     -34.962   4.955   4.492  1.00 20.00     0.040 A 
HETATM    2  C2  UNL     1     -34.091   5.115   3.421  1.00 20.00     0.034 A 
HETATM    3  C3  UNL     1     -33.867   6.760   5.587  1.00 20.00     0.153 A 
HETATM    4  C4  UNL     1     -34.855   5.789   5.599  1.00 20.00     0.083 A 
HETATM    5  C5  UNL     1     -33.137   6.117   3.505  1.00 20.00     0.056 A 
HETATM    6  N9  UNL     1     -33.002   6.946   4.564  1.00 20.00    -0.258 NA
ENDROOT
BRANCH   5   7
HETATM    7  C6  UNL     1     -32.202   6.324   2.411  1.00 20.00     0.027 C 
HETATM    8  C7  UNL     1     -32.081   7.452   1.674  1.00 20.00    -0.029 C 
HETATM    9  C8  UNL     1     -32.908   8.679   1.881  1.00 20.00     0.036 C 
ENDBRANCH   5   7
BRANCH   4  10
HETATM   10  O10 UNL     1     -35.691   5.656   6.658  1.00 20.00    -0.359 OA
HETATM   11  H19 UNL     1     -36.322   4.932   6.506  1.00 20.00     0.217 HD
ENDBRANCH   4  10
TORSDOF 2
