REMARK  0 active torsions:
REMARK  status: ('A' for Active; 'I' for Inactive)
ROOT
HETATM    1  C1  UNL     1     -32.173   7.812   3.483  1.00 20.00     0.095 C 
HETATM    2  C2  UNL     1     -33.662   6.164   6.573  1.00 20.00     0.005 C 
HETATM    3  C3  UNL     1     -33.129   3.889   2.962  1.00 20.00     0.032 C 
HETATM    4  C4  UNL     1     -33.071   7.247   5.682  1.00 20.00     0.051 C 
HETATM    5  C5  UNL     1     -34.871   5.540   5.894  1.00 20.00     0.036 C 
HETATM    6  C6  UNL     1     -33.754   3.813   4.350  1.00 20.00     0.037 C 
HETATM    7  C7  UNL     1     -33.466   5.284   2.445  1.00 20.00     0.275 C 
HETATM    8  C8  UNL     1     -32.702   6.696   4.294  1.00 20.00     0.329 C 
HETATM    9  C9  UNL     1     -34.581   5.092   4.462  1.00 20.00     0.224 C 
HETATM   10  N10 UNL     1     -31.757   8.688   2.846  1.00 20.00    -0.195 NA
HETATM   11  N11 UNL     1     -33.867   6.078   3.623  1.00 20.00     0.111 N 
ENDROOT
TORSDOF 0
