REMARK  1 active torsions:
REMARK  status: ('A' for Active; 'I' for Inactive)
REMARK    1  A    between atoms: C7_7  and  N11_11 
ROOT
HETATM    1  C1  UNL     1     -33.542   6.872   5.725  1.00 20.00     0.164 C 
HETATM    2  C2  UNL     1     -34.565   4.662   6.036  1.00 20.00     0.013 C 
HETATM    3  C3  UNL     1     -35.785   6.502   4.817  1.00 20.00     0.013 C 
HETATM    4  C4  UNL     1     -33.957   4.197   4.701  1.00 20.00     0.008 C 
HETATM    5  C5  UNL     1     -35.178   5.996   3.498  1.00 20.00     0.008 C 
HETATM    6  C6  UNL     1     -34.863   6.167   5.996  1.00 20.00     0.058 C 
HETATM    7  C7  UNL     1     -32.847   6.424   4.446  1.00 20.00     0.295 C 
HETATM    8  C8  UNL     1     -33.777   5.399   3.750  1.00 20.00     0.026 C 
HETATM    9  O12 UNL     1     -33.085   7.728   6.477  1.00 20.00    -0.295 OA
ENDROOT
BRANCH   7  10
HETATM   10  N11 UNL     1     -32.571   7.609   3.646  1.00 20.00     0.092 N 
HETATM   11  C9  UNL     1     -32.351   7.248   2.244  1.00 20.00     0.310 C 
HETATM   12  C10 UNL     1     -31.409   8.329   4.172  1.00 20.00     0.310 C 
ENDBRANCH   7  10
TORSDOF 1
