REMARK  1 active torsions:
REMARK  status: ('A' for Active; 'I' for Inactive)
REMARK    1  A    between atoms: C1_1  and  C8_8 
ROOT
HETATM    1  C2  UNL     1     -32.737   6.533   4.848  1.00 20.00     0.019 A 
HETATM    2  C3  UNL     1     -33.996   4.851   4.312  1.00 20.00     0.019 A 
HETATM    3  C4  UNL     1     -34.595   6.865   3.781  1.00 20.00     0.019 A 
HETATM    4  C5  UNL     1     -33.388   5.376   5.621  1.00 20.00     0.038 A 
HETATM    5  C6  UNL     1     -33.988   7.392   5.090  1.00 20.00     0.038 A 
HETATM    6  C7  UNL     1     -35.246   5.709   4.554  1.00 20.00     0.038 A 
HETATM    7  C8  UNL     1     -33.346   6.007   3.543  1.00 20.00     0.050 A 
HETATM    8  C9  UNL     1     -34.629   6.233   5.845  1.00 20.00     0.117 A 
HETATM    9  F11 UNL     1     -35.274   6.346   7.002  1.00 20.00    -0.242 F 
ENDROOT
BRANCH   7  10
HETATM   10  C1  UNL     1     -32.621   5.876   2.239  1.00 20.00     0.228 C 
HETATM   11  O10 UNL     1     -32.494   4.792   1.678  1.00 20.00    -0.279 OA
HETATM   12 CL12 UNL     1     -32.018   7.403   1.670  1.00 20.00    -0.043 Cl
ENDBRANCH   7  10
TORSDOF 1
