REMARK  1 active torsions:
REMARK  status: ('A' for Active; 'I' for Inactive)
REMARK    1  A    between atoms: C3_3  and  C6_6 
ROOT
HETATM    1  C1  UNL     1     -34.135   5.594   6.808  1.00 20.00    -0.003 C 
HETATM    2  C2  UNL     1     -33.533   6.780   6.663  1.00 20.00     0.131 C 
HETATM    3  C4  UNL     1     -35.053   5.049   5.766  1.00 20.00     0.032 C 
HETATM    4  C5  UNL     1     -35.475   6.145   4.789  1.00 20.00     0.045 C 
HETATM    5  C6  UNL     1     -34.314   7.078   4.442  1.00 20.00     0.214 C 
HETATM    6  O8  UNL     1     -33.626   7.605   5.575  1.00 20.00    -0.349 OA
ENDROOT
BRANCH   5   7
HETATM    7  C3  UNL     1     -33.319   6.405   3.543  1.00 20.00     0.248 C 
HETATM    8  O7  UNL     1     -33.452   5.236   3.193  1.00 20.00    -0.277 OA
HETATM    9 CL9  UNL     1     -32.020   7.469   3.093  1.00 20.00    -0.041 Cl
ENDBRANCH   5   7
TORSDOF 1
