REMARK  2 active torsions:
REMARK  status: ('A' for Active; 'I' for Inactive)
REMARK    1  A    between atoms: C1_1  and  C8_8 
REMARK    2  A    between atoms: C2_2  and  C9_9 
ROOT
HETATM    1  C3  UNL     1     -34.058   5.210   5.460  1.00 20.00     0.082 C 
HETATM    2  C6  UNL     1     -33.775   7.596   6.243  1.00 20.00     0.040 A 
HETATM    3  C7  UNL     1     -35.048   7.535   5.453  1.00 20.00     0.040 A 
HETATM    4  C9  UNL     1     -33.914   6.596   5.120  1.00 20.00     0.112 A 
HETATM    5  N10 UNL     1     -34.175   4.089   5.735  1.00 20.00    -0.195 NA
ENDROOT
BRANCH   4   6
HETATM    6  C2  UNL     1     -33.175   6.826   3.912  1.00 20.00    -0.081 C 
HETATM    7  C1  UNL     1     -32.558   7.019   2.900  1.00 20.00    -0.100 C 
BRANCH   7   8
HETATM    8  C8  UNL     1     -31.806   7.254   1.668  1.00 20.00     0.065 A 
HETATM    9  C4  UNL     1     -31.110   8.564   1.516  1.00 20.00     0.018 A 
HETATM   10  C5  UNL     1     -32.338   8.264   0.709  1.00 20.00     0.018 A 
ENDBRANCH   7   8
ENDBRANCH   4   6
TORSDOF 2
