REMARK  2 active torsions:
REMARK  status: ('A' for Active; 'I' for Inactive)
REMARK    1  A    between atoms: C5_5  and  C7_7 
REMARK    2  A    between atoms: C7_7  and  O8_8 
ROOT
HETATM    1  C1  UNL     1     -33.273   6.908   5.071  1.00 20.00     0.013 C 
HETATM    2  C2  UNL     1     -33.437   5.160   3.249  1.00 20.00     0.013 C 
HETATM    3  C3  UNL     1     -32.255   7.682   4.237  1.00 20.00     0.079 C 
HETATM    4  C4  UNL     1     -32.419   5.934   2.415  1.00 20.00     0.079 C 
HETATM    5  C5  UNL     1     -33.241   5.406   4.752  1.00 20.00     0.009 C 
HETATM    6  C6  UNL     1     -32.434   7.415   2.752  1.00 20.00     0.243 C 
HETATM    7  F9  UNL     1     -33.610   7.956   2.338  1.00 20.00    -0.206 F 
HETATM    8  F10 UNL     1     -31.455   8.047   2.058  1.00 20.00    -0.206 F 
ENDROOT
BRANCH   5   9
HETATM    9  C7  UNL     1     -34.300   4.661   5.562  1.00 20.00     0.168 C 
BRANCH   9  10
HETATM   10  O8  UNL     1     -35.571   5.193   5.237  1.00 20.00    -0.400 OA
HETATM   11  H22 UNL     1     -36.228   4.706   5.762  1.00 20.00     0.209 HD
ENDBRANCH   9  10
ENDBRANCH   5   9
TORSDOF 2
