REMARK  2 active torsions:
REMARK  status: ('A' for Active; 'I' for Inactive)
REMARK    1  A    between atoms: C1_1  and  C4_4 
REMARK    2  A    between atoms: C3_3  and  C5_5 
ROOT
HETATM    1  C4  UNL     1     -33.399   7.712   2.846  1.00 20.00     0.029 A 
HETATM    2  C5  UNL     1     -33.202   7.286   4.283  1.00 20.00     0.089 A 
HETATM    3  C6  UNL     1     -32.259   6.777   3.208  1.00 20.00    -0.028 A 
HETATM    4  C8  UNL     1     -30.836   7.283   3.248  1.00 20.00     0.016 C 
HETATM    5  C9  UNL     1     -32.369   5.349   2.730  1.00 20.00     0.016 C 
ENDROOT
BRANCH   1   6
HETATM    6  C1  UNL     1     -33.144   9.098   2.481  1.00 20.00    -0.025 C 
HETATM    7  C2  UNL     1     -32.849   9.501   1.237  1.00 20.00    -0.034 C 
HETATM    8  C7  UNL     1     -32.746   8.579   0.068  1.00 20.00     0.036 C 
ENDBRANCH   1   6
BRANCH   2   9
HETATM    9  C3  UNL     1     -34.187   6.392   4.907  1.00 20.00     0.224 C 
HETATM   10  O10 UNL     1     -34.736   5.495   4.275  1.00 20.00    -0.279 OA
HETATM   11 CL11 UNL     1     -34.446   6.772   6.583  1.00 20.00    -0.043 Cl
ENDBRANCH   2   9
TORSDOF 2
