REMARK  0 active torsions:
REMARK  status: ('A' for Active; 'I' for Inactive)
ROOT
HETATM    1  C1  UNL     1     -32.986   7.548   4.661  1.00 20.00     0.185 C 
HETATM    2  C2  UNL     1     -33.609   6.746   5.800  1.00 20.00     0.087 C 
HETATM    3  C3  UNL     1     -34.410   5.737   5.016  1.00 20.00     0.340 C 
HETATM    4  C4  UNL     1     -33.456   5.407   3.905  1.00 20.00     0.420 C 
HETATM    5  C5  UNL     1     -34.421   7.581   6.770  1.00 20.00     0.019 C 
HETATM    6  O6  UNL     1     -32.792   6.627   3.565  1.00 20.00    -0.321 OA
HETATM    7  F7  UNL     1     -34.776   4.665   5.731  1.00 20.00    -0.196 F 
HETATM    8  F8  UNL     1     -35.526   6.307   4.505  1.00 20.00    -0.196 F 
HETATM    9  F9  UNL     1     -32.511   4.532   4.320  1.00 20.00    -0.169 F 
HETATM   10  F10 UNL     1     -34.069   4.884   2.828  1.00 20.00    -0.169 F 
ENDROOT
TORSDOF 0
