REMARK  0 active torsions:
REMARK  status: ('A' for Active; 'I' for Inactive)
ROOT
HETATM    1  C1  UNL     1     -34.030   4.977   6.780  1.00 20.00     0.017 C 
HETATM    2  C2  UNL     1     -34.261   5.455   5.703  1.00 20.00    -0.050 C 
HETATM    3  C3  UNL     1     -32.157   6.741   3.006  1.00 20.00     0.053 C 
HETATM    4  C4  UNL     1     -32.693   7.566   4.163  1.00 20.00     0.174 C 
HETATM    5  C5  UNL     1     -32.616   5.299   3.143  1.00 20.00     0.174 C 
HETATM    6  C6  UNL     1     -34.554   6.065   4.326  1.00 20.00     0.227 C 
HETATM    7  C7  UNL     1     -36.019   6.096   4.147  1.00 20.00     0.095 C 
HETATM    8  O8  UNL     1     -34.107   7.425   4.256  1.00 20.00    -0.345 OA
HETATM    9  O9  UNL     1     -34.033   5.243   3.274  1.00 20.00    -0.345 OA
ENDROOT
TORSDOF 0
