REMARK  1 active torsions:
REMARK  status: ('A' for Active; 'I' for Inactive)
REMARK    1  A    between atoms: C3_3  and  C4_4 
ROOT
HETATM    1  C1  UNL     1     -33.346   4.891   3.466  1.00 20.00     0.061 C 
HETATM    2  C2  UNL     1     -32.342   5.489   2.816  1.00 20.00     0.087 C 
HETATM    3  C4  UNL     1     -34.207   5.912   4.137  1.00 20.00     0.376 C 
HETATM    4  C5  UNL     1     -32.437   6.966   2.984  1.00 20.00     0.463 C 
HETATM    5  C6  UNL     1     -33.930   8.393   4.339  1.00 20.00     0.324 C 
HETATM    6  N7  UNL     1     -33.772   7.189   3.551  1.00 20.00     0.211 N 
HETATM    7  F9  UNL     1     -35.523   5.711   3.868  1.00 20.00    -0.195 F 
HETATM    8  F10 UNL     1     -31.458   7.426   3.806  1.00 20.00    -0.169 F 
HETATM    9  F11 UNL     1     -32.316   7.623   1.804  1.00 20.00    -0.169 F 
ENDROOT
BRANCH   3  10
HETATM   10  C3  UNL     1     -33.925   5.824   5.602  1.00 20.00     0.312 C 
HETATM   11  O8  UNL     1     -34.473   6.533   6.440  1.00 20.00    -0.301 OA
ENDBRANCH   3  10
TORSDOF 1
