REMARK  2 active torsions:
REMARK  status: ('A' for Active; 'I' for Inactive)
REMARK    1  A    between atoms: C5_5  and  C8_8 
REMARK    2  A    between atoms: C8_8  and  N10_10 
ROOT
HETATM    1  C1  UNL     1     -32.454   6.284   1.946  1.00 20.00     0.135 A 
HETATM    2  C2  UNL     1     -33.277   5.467   2.686  1.00 20.00     0.112 A 
HETATM    3  C3  UNL     1     -32.595   7.202   3.861  1.00 20.00     0.210 A 
HETATM    4  N9  UNL     1     -32.033   7.362   2.683  1.00 20.00    -0.255 NA
HETATM    5  N10 UNL     1     -33.357   6.068   3.911  1.00 20.00    -0.338 N 
ENDROOT
BRANCH   5   6
HETATM    6  C8  UNL     1     -34.134   5.578   5.087  1.00 20.00     0.047 C 
HETATM    7  C6  UNL     1     -35.664   5.523   4.848  1.00 20.00     0.043 C 
HETATM    8  C7  UNL     1     -33.683   4.129   5.392  1.00 20.00     0.043 C 
BRANCH   6   9
HETATM    9  C5  UNL     1     -33.944   6.553   6.248  1.00 20.00    -0.007 C 
HETATM   10  C4  UNL     1     -34.299   7.844   6.296  1.00 20.00     0.009 C 
ENDBRANCH   6   9
ENDBRANCH   5   6
TORSDOF 2
