REMARK  0 active torsions:
REMARK  status: ('A' for Active; 'I' for Inactive)
ROOT
HETATM    1  C1  UNL     1     -34.343   5.613   5.625  1.00 20.00     0.223 A 
HETATM    2  C2  UNL     1     -35.707   6.366   3.832  1.00 20.00     0.128 A 
HETATM    3  C3  UNL     1     -33.555   6.650   4.913  1.00 20.00     0.092 A 
HETATM    4  C4  UNL     1     -34.413   7.119   3.759  1.00 20.00     0.026 A 
HETATM    5  C5  UNL     1     -33.061   6.479   3.491  1.00 20.00    -0.029 A 
HETATM    6  C6  UNL     1     -31.952   7.395   3.037  1.00 20.00     0.016 C 
HETATM    7  C7  UNL     1     -32.981   5.102   2.882  1.00 20.00     0.016 C 
HETATM    8  N8  UNL     1     -35.567   5.505   4.988  1.00 20.00    -0.360 N 
HETATM    9  O9  UNL     1     -33.931   5.005   6.599  1.00 20.00    -0.273 OA
HETATM   10  H20 UNL     1     -36.292   4.862   5.290  1.00 20.00     0.162 HD
ENDROOT
TORSDOF 0
