REMARK  2 active torsions:
REMARK  status: ('A' for Active; 'I' for Inactive)
REMARK    1  A    between atoms: C4_4  and  C6_6 
REMARK    2  A    between atoms: C7_7  and  O10_10 
ROOT
HETATM    1  C1  UNL     1     -32.317   7.962   1.221  1.00 20.00     0.218 C 
HETATM    2  C4  UNL     1     -33.187   7.431   2.029  1.00 20.00     0.043 C 
HETATM    3  O9  UNL     1     -31.531   8.443   0.490  1.00 20.00    -0.284 OA
ENDROOT
BRANCH   2   4
HETATM    4  C6  UNL     1     -32.847   6.596   3.222  1.00 20.00     0.064 C 
HETATM    5  C3  UNL     1     -32.788   5.136   2.885  1.00 20.00    -0.020 C 
HETATM    6  C2  UNL     1     -33.810   4.452   3.406  1.00 20.00    -0.027 C 
HETATM    7  C5  UNL     1     -34.739   5.334   4.173  1.00 20.00     0.059 C 
HETATM    8  C7  UNL     1     -33.939   6.634   4.310  1.00 20.00     0.135 C 
BRANCH   8   9
HETATM    9  O10 UNL     1     -33.324   6.657   5.599  1.00 20.00    -0.389 OA
HETATM   10  C8  UNL     1     -34.246   7.056   6.601  1.00 20.00     0.202 C 
ENDBRANCH   8   9
ENDBRANCH   2   4
TORSDOF 2
