REMARK  2 active torsions:
REMARK  status: ('A' for Active; 'I' for Inactive)
REMARK    1  A    between atoms: C1_1  and  N9_9 
REMARK    2  A    between atoms: C4_4  and  C8_8 
ROOT
HETATM    1  C2  UNL     1     -34.411   4.976   3.973  1.00 20.00     0.031 C 
HETATM    2  C3  UNL     1     -33.515   7.032   4.789  1.00 20.00     0.130 C 
HETATM    3  C4  UNL     1     -34.774   6.174   4.857  1.00 20.00     0.005 C 
HETATM    4  C5  UNL     1     -33.577   5.599   2.845  1.00 20.00     0.083 C 
HETATM    5  C6  UNL     1     -32.521   4.631   2.328  1.00 20.00     0.032 C 
HETATM    6  N9  UNL     1     -33.016   6.811   3.443  1.00 20.00    -0.355 N 
ENDROOT
BRANCH   3   7
HETATM    7  C8  UNL     1     -35.157   5.780   6.273  1.00 20.00     0.002 C 
HETATM    8  C7  UNL     1     -34.061   5.031   6.963  1.00 20.00     0.005 C 
ENDBRANCH   3   7
BRANCH   6   9
HETATM    9  C1  UNL     1     -32.225   7.719   2.777  1.00 20.00     0.351 C 
HETATM   10  O10 UNL     1     -31.765   7.609   1.646  1.00 20.00    -0.284 OA
ENDBRANCH   6   9
TORSDOF 2
