REMARK  0 active torsions:
REMARK  status: ('A' for Active; 'I' for Inactive)
ROOT
HETATM    1  C1  UNL     1     -32.342   7.749   2.697  1.00 20.00     0.089 C 
HETATM    2  C2  UNL     1     -33.416   6.456   4.422  1.00 20.00     0.017 C 
HETATM    3  C3  UNL     1     -32.842   7.595   4.015  1.00 20.00     0.118 C 
HETATM    4  C4  UNL     1     -33.576   5.258   3.517  1.00 20.00     0.059 C 
HETATM    5  C5  UNL     1     -33.813   4.118   4.511  1.00 20.00     0.026 C 
HETATM    6  C6  UNL     1     -34.475   4.786   5.718  1.00 20.00     0.122 C 
HETATM    7  C7  UNL     1     -34.133   7.035   6.779  1.00 20.00     0.149 C 
HETATM    8  N8  UNL     1     -31.931   7.880   1.620  1.00 20.00    -0.192 NA
HETATM    9  N9  UNL     1     -33.938   6.137   5.663  1.00 20.00    -0.388 N 
ENDROOT
TORSDOF 0
