REMARK  1 active torsions:
REMARK  status: ('A' for Active; 'I' for Inactive)
REMARK    1  A    between atoms: C8_8  and  C10_10 
ROOT
HETATM    1  C1  UNL     1     -33.476   4.953   3.116  1.00 20.00     0.028 A 
HETATM    2  C2  UNL     1     -34.175   4.257   4.093  1.00 20.00     0.120 A 
HETATM    3  C3  UNL     1     -33.668   6.870   4.571  1.00 20.00     0.029 A 
HETATM    4  C4  UNL     1     -33.232   6.285   3.380  1.00 20.00    -0.034 A 
HETATM    5  C5  UNL     1     -34.354   6.102   5.482  1.00 20.00     0.220 A 
HETATM    6  C6  UNL     1     -33.280   8.266   4.599  1.00 20.00     0.013 A 
HETATM    7  C7  UNL     1     -32.622   8.526   3.458  1.00 20.00    -0.016 A 
HETATM    8  C8  UNL     1     -32.507   7.312   2.555  1.00 20.00     0.042 A 
HETATM    9  N11 UNL     1     -34.620   4.793   5.263  1.00 20.00    -0.232 NA
HETATM   10  F12 UNL     1     -34.781   6.649   6.630  1.00 20.00    -0.183 F 
ENDROOT
BRANCH   8  11
HETATM   11  C10 UNL     1     -33.147   7.546   1.194  1.00 20.00     0.009 C 
HETATM   12  C9  UNL     1     -32.465   8.642   0.439  1.00 20.00     0.006 C 
ENDBRANCH   8  11
TORSDOF 1
