REMARK  1 active torsions:
REMARK  status: ('A' for Active; 'I' for Inactive)
REMARK    1  A    between atoms: C1_1  and  C3_3 
ROOT
HETATM    1  C1  UNL     1     -33.141   7.196   3.671  1.00 20.00    -0.054 C 
HETATM    2  C2  UNL     1     -32.499   7.604   2.743  1.00 20.00     0.007 C 
HETATM    3 CL8  UNL     1     -31.561   8.201   1.387  1.00 20.00    -0.023 Cl
ENDROOT
BRANCH   1   4
HETATM    4  C3  UNL     1     -33.906   6.709   4.777  1.00 20.00     0.236 A 
HETATM    5  C4  UNL     1     -34.148   5.226   4.984  1.00 20.00     0.092 A 
HETATM    6  C5  UNL     1     -34.527   4.745   6.351  1.00 20.00     0.049 C 
HETATM    7  C6  UNL     1     -33.581   4.199   4.052  1.00 20.00     0.049 C 
HETATM    8  O7  UNL     1     -35.132   6.074   4.378  1.00 20.00    -0.357 OA
ENDBRANCH   1   4
TORSDOF 1
