REMARK  1 active torsions:
REMARK  status: ('A' for Active; 'I' for Inactive)
REMARK    1  A    between atoms: C2_2  and  C3_3 
ROOT
HETATM    1  C1  UNL     1     -33.346   7.889   4.445  1.00 20.00    -0.009 C 
HETATM    2  C2  UNL     1     -32.993   6.668   3.942  1.00 20.00    -0.007 C 
HETATM    3  C4  UNL     1     -34.635   5.629   7.120  1.00 20.00     0.002 C 
HETATM    4  C5  UNL     1     -34.699   7.141   6.766  1.00 20.00     0.009 C 
HETATM    5  C6  UNL     1     -33.855   4.963   5.944  1.00 20.00     0.015 C 
HETATM    6  C7  UNL     1     -33.581   7.210   5.767  1.00 20.00     0.021 C 
HETATM    7  C8  UNL     1     -34.014   5.996   4.841  1.00 20.00    -0.007 C 
HETATM    8  C10 UNL     1     -35.378   5.842   4.135  1.00 20.00     0.021 C 
ENDROOT
BRANCH   2   9
HETATM    9  C3  UNL     1     -32.352   6.377   2.668  1.00 20.00     0.152 C 
HETATM   10  C9  UNL     1     -32.056   4.933   2.326  1.00 20.00     0.096 C 
HETATM   11  O11 UNL     1     -32.048   7.285   1.884  1.00 20.00    -0.293 OA
ENDBRANCH   2   9
TORSDOF 1
