REMARK  3 active torsions:
REMARK  status: ('A' for Active; 'I' for Inactive)
REMARK    1  A    between atoms: C3_3  and  C8_8 
REMARK    2  A    between atoms: C7_7  and  C8_8 
REMARK    3  A    between atoms: C8_8  and  C9_9 
ROOT
HETATM    1  C1  UNL     1     -31.925   7.418   1.512  1.00 20.00     0.012 C 
HETATM    2  C2  UNL     1     -32.226   7.347   2.672  1.00 20.00    -0.117 C 
HETATM    3  C7  UNL     1     -32.594   7.261   4.097  1.00 20.00     0.105 C 
ENDROOT
BRANCH   3   4
HETATM    4  C8  UNL     1     -34.013   6.693   4.282  1.00 20.00     0.069 C 
BRANCH   4   5
HETATM    5  C3  UNL     1     -34.154   5.329   3.593  1.00 20.00     0.128 C 
HETATM    6  C4  UNL     1     -35.519   4.688   3.629  1.00 20.00     0.091 C 
HETATM    7  O10 UNL     1     -33.207   4.764   3.046  1.00 20.00    -0.298 OA
ENDBRANCH   4   5
BRANCH   4   8
HETATM    8  C9  UNL     1     -34.464   6.571   5.761  1.00 20.00    -0.011 C 
HETATM    9  C5  UNL     1     -34.042   5.256   6.425  1.00 20.00     0.010 C 
HETATM   10  C6  UNL     1     -33.964   7.755   6.595  1.00 20.00     0.010 C 
ENDBRANCH   4   8
ENDBRANCH   3   4
TORSDOF 3
