REMARK  0 active torsions:
REMARK  status: ('A' for Active; 'I' for Inactive)
ROOT
HETATM    1  C1  UNL     1     -32.576   7.936   3.348  1.00 20.00     0.027 C 
HETATM    2  C2  UNL     1     -32.478   6.930   2.319  1.00 20.00     0.027 C 
HETATM    3  C3  UNL     1     -33.303   7.403   4.402  1.00 20.00     0.012 C 
HETATM    4  C4  UNL     1     -33.154   5.835   2.792  1.00 20.00     0.012 C 
HETATM    5  C5  UNL     1     -33.574   7.806   5.809  1.00 20.00     0.057 C 
HETATM    6  C6  UNL     1     -33.424   4.404   2.536  1.00 20.00     0.059 C 
HETATM    7  C7  UNL     1     -34.473   6.787   6.553  1.00 20.00     0.008 C 
HETATM    8  C8  UNL     1     -33.834   3.908   3.964  1.00 20.00     0.032 C 
HETATM    9  C9  UNL     1     -34.198   5.318   6.156  1.00 20.00     0.026 C 
HETATM   10  C10 UNL     1     -34.437   5.146   4.659  1.00 20.00     0.090 C 
HETATM   11  N11 UNL     1     -33.744   6.212   3.951  1.00 20.00    -0.349 N 
ENDROOT
TORSDOF 0
