REMARK  0 active torsions:
REMARK  status: ('A' for Active; 'I' for Inactive)
ROOT
HETATM    1  C1  UNL     1     -32.256   6.743   3.017  1.00 20.00     0.011 C 
HETATM    2  C2  UNL     1     -33.323   4.478   3.741  1.00 20.00     0.011 C 
HETATM    3  C3  UNL     1     -32.155   7.588   4.064  1.00 20.00     0.007 C 
HETATM    4  C4  UNL     1     -34.119   4.339   4.820  1.00 20.00     0.007 C 
HETATM    5  C5  UNL     1     -33.967   7.628   6.181  1.00 20.00     0.042 C 
HETATM    6  C6  UNL     1     -34.828   6.350   6.439  1.00 20.00     0.042 C 
HETATM    7  C7  UNL     1     -33.472   5.853   3.151  1.00 20.00     0.270 C 
HETATM    8  C8  UNL     1     -33.103   7.090   5.080  1.00 20.00     0.247 C 
HETATM    9  C9  UNL     1     -34.899   5.604   5.081  1.00 20.00     0.247 C 
HETATM   10  N10 UNL     1     -34.211   6.569   4.214  1.00 20.00     0.116 N 
ENDROOT
TORSDOF 0
