REMARK  1 active torsions:
REMARK  status: ('A' for Active; 'I' for Inactive)
REMARK    1  A    between atoms: C3_3  and  C6_6 
ROOT
HETATM    1  C1  UNL     1     -33.938   4.719   5.674  1.00 20.00    -0.023 C 
HETATM    2  C2  UNL     1     -33.882   6.050   5.530  1.00 20.00    -0.071 C 
HETATM    3  C4  UNL     1     -34.005   4.013   4.362  1.00 20.00     0.033 C 
HETATM    4  C5  UNL     1     -33.583   5.100   3.354  1.00 20.00     0.005 C 
HETATM    5  C6  UNL     1     -33.892   6.448   4.072  1.00 20.00     0.043 C 
HETATM    6  C7  UNL     1     -33.890   7.038   6.645  1.00 20.00     0.044 C 
HETATM    7  C9  UNL     1     -32.115   4.894   2.956  1.00 20.00     0.011 C 
HETATM    8  C10 UNL     1     -35.264   6.994   3.662  1.00 20.00     0.029 C 
ENDROOT
BRANCH   5   9
HETATM    9  C3  UNL     1     -32.842   7.502   3.827  1.00 20.00     0.136 C 
HETATM   10  C8  UNL     1     -32.717   8.017   2.418  1.00 20.00     0.092 C 
HETATM   11  O11 UNL     1     -32.125   7.922   4.733  1.00 20.00    -0.297 OA
ENDBRANCH   5   9
TORSDOF 1
