REMARK  1 active torsions:
REMARK  status: ('A' for Active; 'I' for Inactive)
REMARK    1  A    between atoms: C9_9  and  O10_10 
ROOT
HETATM    1  C1  UNL     1     -32.675   4.893   2.257  1.00 20.00     0.012 C 
HETATM    2  C2  UNL     1     -33.272   4.928   3.298  1.00 20.00    -0.112 C 
HETATM    3  C3  UNL     1     -35.007   6.183   7.043  1.00 20.00     0.007 C 
HETATM    4  C4  UNL     1     -33.829   5.197   7.059  1.00 20.00     0.009 C 
HETATM    5  C5  UNL     1     -35.153   6.003   4.545  1.00 20.00     0.024 C 
HETATM    6  C6  UNL     1     -34.002   4.971   4.573  1.00 20.00     0.071 C 
HETATM    7  C7  UNL     1     -34.805   6.943   5.717  1.00 20.00     0.016 C 
HETATM    8  C8  UNL     1     -33.112   5.497   5.725  1.00 20.00     0.030 C 
HETATM    9  C9  UNL     1     -33.282   7.017   5.599  1.00 20.00     0.127 C 
ENDROOT
BRANCH   9  10
HETATM   10  O10 UNL     1     -32.682   7.743   6.652  1.00 20.00    -0.395 OA
HETATM   11  H22 UNL     1     -31.721   7.738   6.496  1.00 20.00     0.210 HD
ENDBRANCH   9  10
TORSDOF 1
