REMARK  1 active torsions:
REMARK  status: ('A' for Active; 'I' for Inactive)
REMARK    1  A    between atoms: C4_4  and  C5_5 
ROOT
HETATM    1  C1  UNL     1     -33.562   6.516   6.615  1.00 20.00     0.014 C 
HETATM    2  C2  UNL     1     -34.292   7.093   5.411  1.00 20.00     0.062 C 
HETATM    3  C3  UNL     1     -34.018   5.073   6.744  1.00 20.00     0.077 C 
HETATM    4  C4  UNL     1     -34.109   6.109   4.261  1.00 20.00     0.209 C 
HETATM    5  F6  UNL     1     -35.134   6.260   3.381  1.00 20.00    -0.225 F 
HETATM    6  S9  UNL     1     -34.183   4.468   5.040  1.00 20.00    -0.121 SA
ENDROOT
BRANCH   4   7
HETATM    7  C5  UNL     1     -32.800   6.288   3.507  1.00 20.00     0.403 C 
HETATM    8  F7  UNL     1     -32.447   7.594   3.533  1.00 20.00    -0.210 F 
HETATM    9  F8  UNL     1     -32.984   5.949   2.211  1.00 20.00    -0.210 F 
ENDBRANCH   4   7
TORSDOF 1
