REMARK  0 active torsions:
REMARK  status: ('A' for Active; 'I' for Inactive)
ROOT
HETATM    1  C1  UNL     1     -34.145   4.285   4.463  1.00 20.00     0.041 A 
HETATM    2  C2  UNL     1     -34.187   5.382   5.375  1.00 20.00    -0.008 A 
HETATM    3  C3  UNL     1     -33.539   4.842   3.385  1.00 20.00     0.041 A 
HETATM    4  C4  UNL     1     -33.617   6.497   4.799  1.00 20.00     0.064 A 
HETATM    5  C5  UNL     1     -32.973   4.946   2.074  1.00 20.00     0.047 A 
HETATM    6  C6  UNL     1     -33.660   7.576   5.700  1.00 20.00     0.141 A 
HETATM    7  C7  UNL     1     -32.694   6.252   2.354  1.00 20.00     0.100 A 
HETATM    8  C8  UNL     1     -34.625   5.760   6.728  1.00 20.00     0.189 A 
HETATM    9  N9  UNL     1     -34.223   7.239   6.832  1.00 20.00    -0.295 NA
HETATM   10  N10 UNL     1     -33.239   6.117   3.591  1.00 20.00    -0.320 N 
ENDROOT
TORSDOF 0
