REMARK  2 active torsions:
REMARK  status: ('A' for Active; 'I' for Inactive)
REMARK    1  A    between atoms: C3_3  and  C6_6 
REMARK    2  A    between atoms: C3_3  and  O10_10 
ROOT
HETATM    1  C1  UNL     1     -34.760   5.113   6.249  1.00 20.00    -0.002 C 
HETATM    2  C2  UNL     1     -34.765   6.198   7.032  1.00 20.00     0.130 C 
HETATM    3  C4  UNL     1     -34.112   5.119   4.901  1.00 20.00     0.046 C 
HETATM    4  C5  UNL     1     -33.249   7.351   5.645  1.00 20.00     0.189 C 
HETATM    5  C6  UNL     1     -33.795   6.550   4.464  1.00 20.00     0.113 C 
HETATM    6  O9  UNL     1     -34.163   7.396   6.749  1.00 20.00    -0.362 OA
ENDROOT
BRANCH   5   7
HETATM    7  C3  UNL     1     -32.804   6.552   3.343  1.00 20.00     0.265 C 
HETATM    8  O8  UNL     1     -32.310   5.540   2.865  1.00 20.00    -0.265 OA
BRANCH   7   9
HETATM    9  O10 UNL     1     -32.551   7.835   2.959  1.00 20.00    -0.326 OA
HETATM   10  C7  UNL     1     -31.613   7.984   1.889  1.00 20.00     0.213 C 
ENDBRANCH   7   9
ENDBRANCH   5   7
TORSDOF 2
