REMARK  0 active torsions:
REMARK  status: ('A' for Active; 'I' for Inactive)
ROOT
HETATM    1  C1  UNL     1     -32.417   6.567   1.808  1.00 20.00     0.014 C 
HETATM    2  C2  UNL     1     -32.663   6.328   2.958  1.00 20.00    -0.081 C 
HETATM    3  C3  UNL     1     -35.495   7.298   5.178  1.00 20.00     0.035 C 
HETATM    4  C4  UNL     1     -34.275   5.989   6.900  1.00 20.00     0.035 C 
HETATM    5  C5  UNL     1     -33.017   7.326   5.217  1.00 20.00     0.053 C 
HETATM    6  C6  UNL     1     -35.400   6.099   4.222  1.00 20.00     0.274 C 
HETATM    7  C7  UNL     1     -34.322   4.801   5.924  1.00 20.00     0.274 C 
HETATM    8  C8  UNL     1     -32.965   6.035   4.372  1.00 20.00     0.300 C 
HETATM    9  C9  UNL     1     -34.272   7.305   6.106  1.00 20.00    -0.008 C 
HETATM   10  N10 UNL     1     -34.220   5.249   4.515  1.00 20.00     0.104 N 
ENDROOT
TORSDOF 0
