REMARK  1 active torsions:
REMARK  status: ('A' for Active; 'I' for Inactive)
REMARK    1  A    between atoms: C6_6  and  N10_10 
ROOT
HETATM    1  C1  UNL     1     -32.264   7.965   1.361  1.00 20.00     0.064 C 
HETATM    2  C2  UNL     1     -31.822   7.634   3.791  1.00 20.00     0.021 C 
HETATM    3  C3  UNL     1     -33.031   7.388   4.690  1.00 20.00     0.037 C 
HETATM    4  C4  UNL     1     -33.495   6.244   2.660  1.00 20.00     0.055 C 
HETATM    5  C5  UNL     1     -32.163   6.976   2.442  1.00 20.00     0.095 C 
HETATM    6  C6  UNL     1     -33.582   6.066   4.173  1.00 20.00     0.223 C 
HETATM    7  N9  UNL     1     -32.344   8.746   0.506  1.00 20.00    -0.197 NA
ENDROOT
BRANCH   6   8
HETATM    8  N10 UNL     1     -34.934   5.803   4.631  1.00 20.00     0.084 N 
HETATM    9  C7  UNL     1     -35.739   7.028   4.612  1.00 20.00     0.309 C 
HETATM   10  C8  UNL     1     -34.925   5.229   5.980  1.00 20.00     0.309 C 
ENDBRANCH   6   8
TORSDOF 1
