REMARK  1 active torsions:
REMARK  status: ('A' for Active; 'I' for Inactive)
REMARK    1  A    between atoms: C1_1  and  C8_8 
ROOT
HETATM    1  C2  UNL     1     -32.634   7.401   4.577  1.00 20.00     0.013 A 
HETATM    2  C3  UNL     1     -34.464   7.296   3.421  1.00 20.00     0.013 A 
HETATM    3  C4  UNL     1     -32.774   6.047   2.892  1.00 20.00     0.013 A 
HETATM    4  C5  UNL     1     -33.507   8.421   3.835  1.00 20.00     0.006 A 
HETATM    5  C6  UNL     1     -31.812   7.169   3.304  1.00 20.00     0.006 A 
HETATM    6  C7  UNL     1     -33.646   7.063   2.144  1.00 20.00     0.006 A 
HETATM    7  C8  UNL     1     -33.593   6.278   4.167  1.00 20.00     0.033 A 
HETATM    8  C9  UNL     1     -32.681   8.197   2.550  1.00 20.00    -0.031 A 
HETATM    9  C11 UNL     1     -32.174   9.266   1.650  1.00 20.00     0.016 C 
ENDROOT
BRANCH   7  10
HETATM   10  C1  UNL     1     -34.108   5.203   5.073  1.00 20.00     0.133 C 
HETATM   11  C10 UNL     1     -34.899   5.651   6.273  1.00 20.00     0.091 C 
HETATM   12  O12 UNL     1     -33.897   4.013   4.848  1.00 20.00    -0.297 OA
ENDBRANCH   7  10
TORSDOF 1
