REMARK  0 active torsions:
REMARK  status: ('A' for Active; 'I' for Inactive)
ROOT
HETATM    1  C1  UNL     1     -34.053   6.869   4.537  1.00 20.00     0.251 C 
HETATM    2  C2  UNL     1     -34.704   6.558   5.872  1.00 20.00     0.251 C 
HETATM    3  C3  UNL     1     -34.165   5.588   3.734  1.00 20.00     0.271 C 
HETATM    4  C4  UNL     1     -34.028   5.304   6.394  1.00 20.00     0.271 C 
HETATM    5  F5  UNL     1     -32.736   7.152   4.743  1.00 20.00    -0.242 F 
HETATM    6  F6  UNL     1     -34.519   7.584   6.736  1.00 20.00    -0.242 F 
HETATM    7  F7  UNL     1     -33.268   5.590   2.719  1.00 20.00    -0.235 F 
HETATM    8  F8  UNL     1     -32.792   5.622   6.864  1.00 20.00    -0.235 F 
HETATM    9  S9  UNL     1     -33.838   4.256   4.920  1.00 20.00    -0.089 SA
ENDROOT
TORSDOF 0
