REMARK  1 active torsions:
REMARK  status: ('A' for Active; 'I' for Inactive)
REMARK    1  A    between atoms: C10_10  and  O13_13 
ROOT
HETATM    1  C1  UNL     1     -31.820   8.015   0.787  1.00 20.00     0.099 C 
HETATM    2  C2  UNL     1     -32.046   8.245   3.215  1.00 20.00     0.023 A 
HETATM    3  C3  UNL     1     -32.407   7.734   4.464  1.00 20.00     0.012 A 
HETATM    4  C4  UNL     1     -32.721   6.177   2.123  1.00 20.00     0.030 A 
HETATM    5  C5  UNL     1     -32.202   7.472   2.053  1.00 20.00     0.045 A 
HETATM    6  C6  UNL     1     -32.913   6.446   4.525  1.00 20.00    -0.023 A 
HETATM    7  C7  UNL     1     -33.065   5.675   3.366  1.00 20.00    -0.048 A 
HETATM    8  C8  UNL     1     -33.668   4.344   3.687  1.00 20.00     0.042 C 
HETATM    9  C9  UNL     1     -33.407   4.253   5.202  1.00 20.00     0.041 C 
HETATM   10  C10 UNL     1     -33.391   5.697   5.730  1.00 20.00     0.154 C 
HETATM   11  N12 UNL     1     -31.509   8.455  -0.241  1.00 20.00    -0.191 NA
ENDROOT
BRANCH  10  12
HETATM   12  O13 UNL     1     -34.706   6.097   6.079  1.00 20.00    -0.386 OA
HETATM   13  C11 UNL     1     -34.711   7.323   6.804  1.00 20.00     0.202 C 
ENDBRANCH  10  12
TORSDOF 1
