REMARK  1 active torsions:
REMARK  status: ('A' for Active; 'I' for Inactive)
REMARK    1  A    between atoms: C3_3  and  C6_6 
ROOT
HETATM    1  C1  UNL     1     -32.257   6.761   2.440  1.00 20.00     0.005 C 
HETATM    2  C2  UNL     1     -32.821   5.542   2.493  1.00 20.00     0.040 C 
HETATM    3  C4  UNL     1     -32.411   7.770   3.531  1.00 20.00     0.033 C 
HETATM    4  C5  UNL     1     -32.975   7.124   4.791  1.00 20.00     0.049 C 
HETATM    5  C6  UNL     1     -34.075   6.113   4.453  1.00 20.00     0.116 C 
HETATM    6  C7  UNL     1     -32.629   4.521   1.417  1.00 20.00     0.076 C 
HETATM    7  C8  UNL     1     -35.363   6.761   3.944  1.00 20.00     0.054 C 
HETATM    8  O10 UNL     1     -33.631   5.110   3.526  1.00 20.00    -0.338 OA
ENDROOT
BRANCH   5   9
HETATM    9  C3  UNL     1     -34.392   5.294   5.672  1.00 20.00     0.269 C 
HETATM   10  O9  UNL     1     -34.283   5.717   6.818  1.00 20.00    -0.304 OA
ENDBRANCH   5   9
TORSDOF 1
