REMARK  0 active torsions:
REMARK  status: ('A' for Active; 'I' for Inactive)
ROOT
HETATM    1  C1  UNL     1     -34.105   4.865   6.163  1.00 20.00    -0.014 C 
HETATM    2  C2  UNL     1     -33.809   6.173   6.251  1.00 20.00    -0.004 C 
HETATM    3  C3  UNL     1     -32.977   5.868   3.312  1.00 20.00     0.203 A 
HETATM    4  C4  UNL     1     -34.415   4.429   4.756  1.00 20.00     0.126 C 
HETATM    5  C5  UNL     1     -32.660   7.148   4.111  1.00 20.00     0.126 A 
HETATM    6  C6  UNL     1     -33.936   6.832   4.922  1.00 20.00     0.042 A 
HETATM    7  C7  UNL     1     -35.090   7.810   4.806  1.00 20.00     0.038 C 
HETATM    8  N8  UNL     1     -34.123   5.657   4.031  1.00 20.00    -0.237 NA
HETATM    9  O9  UNL     1     -32.406   5.208   2.473  1.00 20.00    -0.280 OA
ENDROOT
TORSDOF 0
