REMARK  3 active torsions:
REMARK  status: ('A' for Active; 'I' for Inactive)
REMARK    1  A    between atoms: C7_7  and  C8_8 
REMARK    2  A    between atoms: C8_8  and  C9_9 
REMARK    3  A    between atoms: C9_9  and  N10_10 
ROOT
HETATM    1  C1  UNL     1     -32.901   9.430   0.791  1.00 20.00     0.012 C 
HETATM    2  C3  UNL     1     -32.209   8.849   1.582  1.00 20.00    -0.117 C 
HETATM    3  C7  UNL     1     -31.358   8.137   2.545  1.00 20.00     0.096 C 
ENDROOT
BRANCH   3   4
HETATM    4  C8  UNL     1     -32.055   7.928   3.897  1.00 20.00     0.061 C 
BRANCH   4   5
HETATM    5  C9  UNL     1     -33.324   7.057   3.835  1.00 20.00     0.300 C 
HETATM    6  C4  UNL     1     -33.172   5.945   2.881  1.00 20.00    -0.081 C 
HETATM    7  C2  UNL     1     -33.054   5.040   2.100  1.00 20.00     0.014 C 
BRANCH   5   8
HETATM    8  N10 UNL     1     -33.594   6.517   5.170  1.00 20.00     0.095 N 
HETATM    9  C5  UNL     1     -34.822   5.725   5.160  1.00 20.00     0.310 C 
HETATM   10  C6  UNL     1     -33.690   7.600   6.147  1.00 20.00     0.310 C 
ENDBRANCH   5   8
ENDBRANCH   4   5
ENDBRANCH   3   4
TORSDOF 3
