REMARK  1 active torsions:
REMARK  status: ('A' for Active; 'I' for Inactive)
REMARK    1  A    between atoms: C5_5  and  C7_7 
ROOT
HETATM    1  C1  UNL     1     -35.048   6.383   5.683  1.00 20.00    -0.026 A 
HETATM    2  C2  UNL     1     -34.793   7.152   4.615  1.00 20.00    -0.013 A 
HETATM    3  C3  UNL     1     -33.860   4.460   4.577  1.00 20.00    -0.019 A 
HETATM    4  C4  UNL     1     -33.596   5.218   3.497  1.00 20.00    -0.071 A 
HETATM    5  C6  UNL     1     -34.592   4.959   5.789  1.00 20.00     0.054 A 
HETATM    6  C7  UNL     1     -34.031   6.663   3.417  1.00 20.00     0.123 A 
HETATM    7  C8  UNL     1     -32.907   4.644   2.290  1.00 20.00     0.044 C 
ENDROOT
BRANCH   6   8
HETATM    8  C5  UNL     1     -32.801   7.517   3.349  1.00 20.00     0.230 C 
HETATM    9  O9  UNL     1     -31.962   7.514   4.246  1.00 20.00    -0.279 OA
HETATM   10 CL10 UNL     1     -32.740   8.462   1.892  1.00 20.00    -0.043 Cl
ENDBRANCH   6   8
TORSDOF 1
