REMARK  1 active torsions:
REMARK  status: ('A' for Active; 'I' for Inactive)
REMARK    1  A    between atoms: C3_3  and  C9_9 
ROOT
HETATM    1  C1  UNL     1     -33.337   7.029   6.770  1.00 20.00    -0.030 C 
HETATM    2  C2  UNL     1     -32.657   5.878   6.662  1.00 20.00    -0.026 C 
HETATM    3  C4  UNL     1     -34.770   7.170   6.336  1.00 20.00     0.031 C 
HETATM    4  C5  UNL     1     -32.975   4.457   4.621  1.00 20.00     0.022 C 
HETATM    5  C6  UNL     1     -34.809   4.655   6.317  1.00 20.00     0.013 C 
HETATM    6  C7  UNL     1     -35.085   5.857   4.130  1.00 20.00     0.018 C 
HETATM    7  C8  UNL     1     -33.289   4.621   6.118  1.00 20.00     0.009 C 
HETATM    8  C9  UNL     1     -33.652   5.500   3.722  1.00 20.00     0.073 C 
HETATM    9  C10 UNL     1     -35.360   5.917   5.649  1.00 20.00    -0.010 C 
ENDROOT
BRANCH   8  10
HETATM   10  C3  UNL     1     -32.804   6.735   3.583  1.00 20.00     0.223 C 
HETATM   11  O11 UNL     1     -32.551   7.456   4.544  1.00 20.00    -0.279 OA
HETATM   12 CL12 UNL     1     -32.265   6.977   1.949  1.00 20.00    -0.043 Cl
ENDBRANCH   8  10
TORSDOF 1
