REMARK  1 active torsions:
REMARK  status: ('A' for Active; 'I' for Inactive)
REMARK    1  A    between atoms: C5_5  and  N8_8 
ROOT
HETATM    1  C1  UNL     1     -33.395   5.453   2.558  1.00 20.00     0.069 A 
HETATM    2  C2  UNL     1     -33.893   5.234   3.778  1.00 20.00     0.095 A 
HETATM    3  C3  UNL     1     -32.782   6.794   2.681  1.00 20.00     0.168 A 
HETATM    4  C6  UNL     1     -32.963   7.347   4.082  1.00 20.00     0.211 A 
HETATM    5  N8  UNL     1     -33.696   6.244   4.696  1.00 20.00    -0.354 N 
HETATM    6  O9  UNL     1     -32.211   7.364   1.765  1.00 20.00    -0.291 OA
ENDROOT
BRANCH   5   7
HETATM    7  C5  UNL     1     -34.111   6.245   5.991  1.00 20.00    -0.002 C 
HETATM    8  C4  UNL     1     -34.417   7.392   6.611  1.00 20.00     0.038 C 
HETATM    9  C7  UNL     1     -34.198   4.908   6.658  1.00 20.00     0.067 C 
ENDBRANCH   5   7
TORSDOF 1
