REMARK  3 active torsions:
REMARK  status: ('A' for Active; 'I' for Inactive)
REMARK    1  A    between atoms: C7_7  and  C8_8 
REMARK    2  A    between atoms: C8_8  and  C9_9 
REMARK    3  A    between atoms: C9_9  and  N10_10 
ROOT
HETATM    1  C1  UNL     1     -32.046   7.970   0.885  1.00 20.00     0.012 C 
HETATM    2  C3  UNL     1     -32.311   7.604   1.997  1.00 20.00    -0.117 C 
HETATM    3  C7  UNL     1     -32.629   7.156   3.361  1.00 20.00     0.096 C 
ENDROOT
BRANCH   3   4
HETATM    4  C8  UNL     1     -34.118   6.831   3.536  1.00 20.00     0.061 C 
BRANCH   4   5
HETATM    5  C9  UNL     1     -34.520   6.416   4.964  1.00 20.00     0.300 C 
HETATM    6  C4  UNL     1     -34.181   7.460   5.947  1.00 20.00    -0.081 C 
HETATM    7  C2  UNL     1     -33.911   8.311   6.749  1.00 20.00     0.014 C 
BRANCH   5   8
HETATM    8  N10 UNL     1     -33.820   5.177   5.311  1.00 20.00     0.095 N 
HETATM    9  C5  UNL     1     -34.141   4.125   4.348  1.00 20.00     0.310 C 
HETATM   10  C6  UNL     1     -34.171   4.756   6.666  1.00 20.00     0.310 C 
ENDBRANCH   5   8
ENDBRANCH   4   5
ENDBRANCH   3   4
TORSDOF 3
