REMARK  0 active torsions:
REMARK  status: ('A' for Active; 'I' for Inactive)
ROOT
HETATM    1  C1  UNL     1     -32.193   7.721   3.618  1.00 20.00    -0.039 C 
HETATM    2  C2  UNL     1     -32.799   6.403   3.437  1.00 20.00     0.034 C 
HETATM    3  C3  UNL     1     -34.279   5.085   5.014  1.00 20.00     0.224 C 
HETATM    4  C4  UNL     1     -31.525   8.450   2.717  1.00 20.00     0.021 C 
HETATM    5  C5  UNL     1     -32.528   5.512   2.477  1.00 20.00     0.044 C 
HETATM    6  C6  UNL     1     -32.524   8.184   5.029  1.00 20.00     0.065 C 
HETATM    7  C7  UNL     1     -34.797   5.508   6.380  1.00 20.00     0.105 C 
HETATM    8  C8  UNL     1     -33.980   6.771   6.704  1.00 20.00     0.035 C 
HETATM    9  C9  UNL     1     -33.772   7.374   5.333  1.00 20.00     0.098 C 
HETATM   10  N10 UNL     1     -33.644   6.205   4.496  1.00 20.00    -0.313 N 
HETATM   11  O11 UNL     1     -34.409   3.971   4.533  1.00 20.00    -0.273 OA
ENDROOT
TORSDOF 0
