REMARK  1 active torsions:
REMARK  status: ('A' for Active; 'I' for Inactive)
REMARK    1  A    between atoms: C6_6  and  N10_10 
ROOT
HETATM    1  C1  UNL     1     -32.327   7.024   1.951  1.00 20.00     0.066 C 
HETATM    2  C2  UNL     1     -33.951   5.303   4.283  1.00 20.00    -0.054 C 
HETATM    3  C3  UNL     1     -34.636   4.603   5.189  1.00 20.00     0.016 C 
HETATM    4  C4  UNL     1     -33.225   4.906   3.014  1.00 20.00     0.057 C 
HETATM    5  C5  UNL     1     -32.496   6.270   3.178  1.00 20.00     0.134 C 
HETATM    6  C6  UNL     1     -33.641   6.775   4.110  1.00 20.00     0.268 C 
HETATM    7  N9  UNL     1     -32.191   7.627   0.969  1.00 20.00    -0.197 NA
ENDROOT
BRANCH   6   8
HETATM    8  N10 UNL     1     -33.026   7.383   5.286  1.00 20.00     0.089 N 
HETATM    9  C7  UNL     1     -34.041   7.702   6.290  1.00 20.00     0.310 C 
HETATM   10  C8  UNL     1     -32.283   8.587   4.912  1.00 20.00     0.310 C 
ENDBRANCH   6   8
TORSDOF 1
