REMARK  0 active torsions:
REMARK  status: ('A' for Active; 'I' for Inactive)
ROOT
HETATM    1  C1  UNL     1     -31.219   8.274   2.835  1.00 20.00     0.017 C 
HETATM    2  C2  UNL     1     -32.047   7.570   3.345  1.00 20.00    -0.082 C 
HETATM    3  C3  UNL     1     -33.030   6.732   3.951  1.00 20.00     0.000 C 
HETATM    4  C4  UNL     1     -33.152   5.431   3.612  1.00 20.00    -0.041 C 
HETATM    5  C5  UNL     1     -33.941   7.357   4.983  1.00 20.00     0.083 C 
HETATM    6  C6  UNL     1     -34.195   4.544   4.267  1.00 20.00     0.307 C 
HETATM    7  C7  UNL     1     -35.184   6.511   5.325  1.00 20.00     0.223 C 
HETATM    8  C8  UNL     1     -32.317   4.728   2.572  1.00 20.00     0.046 C 
HETATM    9  C9  UNL     1     -36.304   6.717   4.293  1.00 20.00     0.043 C 
HETATM   10  C10 UNL     1     -34.087   4.808   6.676  1.00 20.00     0.310 C 
HETATM   11  N11 UNL     1     -34.863   5.080   5.465  1.00 20.00     0.092 N 
ENDROOT
TORSDOF 0
