REMARK  1 active torsions:
REMARK  status: ('A' for Active; 'I' for Inactive)
REMARK    1  A    between atoms: C10_10  and  O11_11 
ROOT
HETATM    1  C1  UNL     1     -32.557   6.610   2.137  1.00 20.00     0.012 C 
HETATM    2  C2  UNL     1     -36.480   5.872   3.826  1.00 20.00     0.015 C 
HETATM    3  C3  UNL     1     -32.783   6.419   3.300  1.00 20.00    -0.108 C 
HETATM    4  C4  UNL     1     -35.444   5.538   4.331  1.00 20.00    -0.078 C 
HETATM    5  C5  UNL     1     -34.185   7.370   6.721  1.00 20.00     0.002 C 
HETATM    6  C6  UNL     1     -33.974   6.015   7.376  1.00 20.00     0.004 C 
HETATM    7  C7  UNL     1     -33.371   7.520   5.434  1.00 20.00     0.021 C 
HETATM    8  C8  UNL     1     -34.376   4.853   6.461  1.00 20.00     0.053 C 
HETATM    9  C9  UNL     1     -33.061   6.183   4.733  1.00 20.00     0.111 C 
HETATM   10  C10 UNL     1     -34.167   5.126   4.953  1.00 20.00     0.134 C 
ENDROOT
BRANCH  10  11
HETATM   11  O11 UNL     1     -33.773   3.891   4.345  1.00 20.00    -0.376 OA
HETATM   12  H23 UNL     1     -34.486   3.261   4.527  1.00 20.00     0.211 HD
ENDBRANCH  10  11
TORSDOF 1
