REMARK  0 active torsions:
REMARK  status: ('A' for Active; 'I' for Inactive)
ROOT
HETATM    1  C1  UNL     1     -32.776   8.029   4.939  1.00 20.00     0.044 A 
HETATM    2  C2  UNL     1     -33.364   7.595   6.069  1.00 20.00     0.014 A 
HETATM    3  C3  UNL     1     -32.817   7.222   3.740  1.00 20.00     0.156 A 
HETATM    4  C4  UNL     1     -33.438   6.032   3.718  1.00 20.00     0.202 A 
HETATM    5  C5  UNL     1     -34.063   6.297   6.172  1.00 20.00     0.224 A 
HETATM    6  C6  UNL     1     -34.105   5.455   4.896  1.00 20.00     0.293 A 
HETATM    7  O7  UNL     1     -35.288   6.017   5.479  1.00 20.00    -0.328 OA
HETATM    8  F8  UNL     1     -32.218   7.702   2.631  1.00 20.00    -0.203 F 
HETATM    9  F9  UNL     1     -33.448   5.328   2.565  1.00 20.00    -0.201 F 
HETATM   10  F10 UNL     1     -33.935   4.086   5.073  1.00 20.00    -0.200 F 
ENDROOT
TORSDOF 0
