REMARK  2 active torsions:
REMARK  status: ('A' for Active; 'I' for Inactive)
REMARK    1  A    between atoms: C3_3  and  C4_4 
REMARK    2  A    between atoms: C3_3  and  O10_10 
ROOT
HETATM    1  C1  UNL     1     -34.043   6.993   6.064  1.00 20.00    -0.066 A 
HETATM    2  C2  UNL     1     -34.357   7.846   7.015  1.00 20.00     0.016 C 
HETATM    3  C4  UNL     1     -33.068   6.595   5.123  1.00 20.00     0.126 A 
HETATM    4  C5  UNL     1     -34.465   5.864   5.319  1.00 20.00    -0.008 A 
HETATM    5  C6  UNL     1     -35.551   6.044   4.292  1.00 20.00     0.021 C 
HETATM    6  C7  UNL     1     -34.452   4.515   5.984  1.00 20.00     0.021 C 
ENDROOT
BRANCH   3   7
HETATM    7  C3  UNL     1     -32.857   7.506   3.997  1.00 20.00     0.267 C 
HETATM    8  O9  UNL     1     -33.143   8.695   4.014  1.00 20.00    -0.264 OA
BRANCH   7   9
HETATM    9  O10 UNL     1     -32.304   6.821   2.955  1.00 20.00    -0.326 OA
HETATM   10  C8  UNL     1     -32.043   7.596   1.780  1.00 20.00     0.213 C 
ENDBRANCH   7   9
ENDBRANCH   3   7
TORSDOF 2
