REMARK  1 active torsions:
REMARK  status: ('A' for Active; 'I' for Inactive)
REMARK    1  A    between atoms: C1_1  and  C2_2 
ROOT
HETATM    1  C2  UNL     1     -33.058   5.936   4.593  1.00 20.00     0.084 A 
HETATM    2  C3  UNL     1     -33.618   7.145   5.302  1.00 20.00     0.018 A 
HETATM    3  C4  UNL     1     -34.456   5.885   5.182  1.00 20.00     0.048 A 
HETATM    4  C6  UNL     1     -33.029   7.594   6.597  1.00 20.00     0.012 C 
HETATM    5  C7  UNL     1     -34.705   5.004   6.372  1.00 20.00     0.034 C 
HETATM    6 CL9  UNL     1     -35.855   5.998   4.081  1.00 20.00    -0.118 Cl
ENDROOT
BRANCH   1   7
HETATM    7  C1  UNL     1     -32.847   5.993   3.140  1.00 20.00     0.129 C 
HETATM    8  C5  UNL     1     -32.030   7.144   2.620  1.00 20.00     0.091 C 
HETATM    9  O8  UNL     1     -33.314   5.140   2.386  1.00 20.00    -0.298 OA
ENDBRANCH   1   7
TORSDOF 1
