REMARK  1 active torsions:
REMARK  status: ('A' for Active; 'I' for Inactive)
REMARK    1  A    between atoms: C1_1  and  C2_2 
ROOT
HETATM    1  C2  UNL     1     -33.336   6.444   4.645  1.00 20.00     0.100 A 
HETATM    2  C3  UNL     1     -34.159   7.478   5.367  1.00 20.00     0.104 A 
HETATM    3  C4  UNL     1     -34.737   6.102   5.128  1.00 20.00    -0.017 A 
HETATM    4  C5  UNL     1     -34.851   5.114   6.263  1.00 20.00     0.017 C 
HETATM    5  C6  UNL     1     -35.868   6.003   4.134  1.00 20.00     0.017 C 
HETATM    6 CL9  UNL     1     -33.666   8.015   6.952  1.00 20.00    -0.123 Cl
ENDROOT
BRANCH   1   7
HETATM    7  C1  UNL     1     -33.055   6.619   3.214  1.00 20.00     0.225 C 
HETATM    8  O7  UNL     1     -33.077   7.726   2.684  1.00 20.00    -0.279 OA
HETATM    9 CL8  UNL     1     -32.707   5.110   2.426  1.00 20.00    -0.043 Cl
ENDBRANCH   1   7
TORSDOF 1
