REMARK  1 active torsions:
REMARK  status: ('A' for Active; 'I' for Inactive)
REMARK    1  A    between atoms: C5_5  and  C8_8 
ROOT
HETATM    1  C1  UNL     1     -34.516   5.590   6.564  1.00 20.00    -0.004 C 
HETATM    2  C2  UNL     1     -33.892   6.883   6.843  1.00 20.00    -0.004 C 
HETATM    3  C3  UNL     1     -34.773   4.987   5.382  1.00 20.00    -0.026 C 
HETATM    4  C4  UNL     1     -33.077   7.562   6.010  1.00 20.00    -0.021 C 
HETATM    5  C6  UNL     1     -34.487   5.477   3.969  1.00 20.00     0.033 C 
HETATM    6  C7  UNL     1     -32.744   7.069   4.676  1.00 20.00     0.028 A 
HETATM    7  C8  UNL     1     -32.908   7.655   3.314  1.00 20.00     0.100 A 
HETATM    8  C9  UNL     1     -34.063   6.905   3.920  1.00 20.00     0.012 A 
ENDROOT
BRANCH   7   9
HETATM    9  C5  UNL     1     -32.218   7.026   2.205  1.00 20.00     0.178 C 
HETATM   10  O10 UNL     1     -32.116   5.770   2.276  1.00 20.00    -0.648 OA
HETATM   11  O11 UNL     1     -31.811   7.823   1.314  1.00 20.00    -0.648 OA
ENDBRANCH   7   9
TORSDOF 1
