REMARK  1 active torsions:
REMARK  status: ('A' for Active; 'I' for Inactive)
REMARK    1  A    between atoms: C1_1  and  C2_2 
ROOT
HETATM    1  C2  UNL     1     -34.183   7.153   4.413  1.00 20.00     0.154 A 
HETATM    2  C3  UNL     1     -34.308   7.016   5.921  1.00 20.00     0.073 A 
HETATM    3  C4  UNL     1     -34.846   5.964   5.020  1.00 20.00     0.259 A 
HETATM    4  C5  UNL     1     -33.134   6.727   6.792  1.00 20.00     0.017 C 
HETATM    5  F7  UNL     1     -36.205   5.785   4.892  1.00 20.00    -0.205 F 
HETATM    6  F8  UNL     1     -34.263   4.718   4.955  1.00 20.00    -0.205 F 
ENDROOT
BRANCH   1   7
HETATM    7  C1  UNL     1     -32.882   7.004   3.753  1.00 20.00     0.229 C 
HETATM    8  O6  UNL     1     -31.914   7.687   4.074  1.00 20.00    -0.279 OA
HETATM    9 CL9  UNL     1     -32.911   5.784   2.516  1.00 20.00    -0.043 Cl
ENDBRANCH   1   7
TORSDOF 1
