REMARK  2 active torsions:
REMARK  status: ('A' for Active; 'I' for Inactive)
REMARK    1  A    between atoms: C3_3  and  C7_7 
REMARK    2  A    between atoms: C8_8  and  C10_10 
ROOT
HETATM    1  C1  UNL     1     -32.291   8.758   0.040  1.00 20.00     0.012 C 
HETATM    2  C2  UNL     1     -32.688   8.600   1.162  1.00 20.00    -0.117 C 
HETATM    3  C10 UNL     1     -33.172   8.413   2.535  1.00 20.00     0.098 C 
ENDROOT
BRANCH   3   4
HETATM    4  C8  UNL     1     -33.680   6.997   2.752  1.00 20.00     0.008 C 
HETATM    5  C6  UNL     1     -32.613   5.932   2.518  1.00 20.00     0.006 C 
HETATM    6  C4  UNL     1     -33.222   4.680   3.134  1.00 20.00     0.001 C 
HETATM    7  C5  UNL     1     -34.131   5.165   4.269  1.00 20.00     0.013 C 
HETATM    8  C7  UNL     1     -34.186   6.691   4.160  1.00 20.00     0.060 C 
BRANCH   8   9
HETATM    9  C3  UNL     1     -33.307   7.246   5.270  1.00 20.00     0.127 C 
HETATM   10  C9  UNL     1     -33.682   6.876   6.680  1.00 20.00     0.091 C 
HETATM   11  O11 UNL     1     -32.335   7.960   5.028  1.00 20.00    -0.298 OA
ENDBRANCH   8   9
ENDBRANCH   3   4
TORSDOF 2
