REMARK  0 active torsions:
REMARK  status: ('A' for Active; 'I' for Inactive)
ROOT
HETATM    1  C1  UNL     1     -33.177   7.716   4.112  1.00 20.00     0.047 A 
HETATM    2  C2  UNL     1     -33.794   7.342   5.247  1.00 20.00     0.052 A 
HETATM    3  C3  UNL     1     -32.878   6.739   3.089  1.00 20.00     0.153 A 
HETATM    4  C4  UNL     1     -33.203   5.445   3.240  1.00 20.00     0.167 A 
HETATM    5  C5  UNL     1     -33.868   4.920   4.446  1.00 20.00     0.262 A 
HETATM    6  C6  UNL     1     -34.189   5.950   5.531  1.00 20.00     0.258 A 
HETATM    7  O7  UNL     1     -35.216   5.263   4.803  1.00 20.00    -0.327 OA
HETATM    8  F8  UNL     1     -32.266   7.164   1.965  1.00 20.00    -0.203 F 
HETATM    9  F9  UNL     1     -32.903   4.582   2.244  1.00 20.00    -0.204 F 
HETATM   10  F10 UNL     1     -33.989   5.525   6.841  1.00 20.00    -0.203 F 
ENDROOT
TORSDOF 0
