REMARK  0 active torsions:
REMARK  status: ('A' for Active; 'I' for Inactive)
ROOT
HETATM    1  C1  UNL     1     -33.246   6.344   3.611  1.00 20.00    -0.054 C 
HETATM    2  C2  UNL     1     -33.676   7.234   5.731  1.00 20.00     0.226 C 
HETATM    3  C3  UNL     1     -33.197   5.426   2.636  1.00 20.00     0.017 C 
HETATM    4  C4  UNL     1     -34.389   6.559   4.574  1.00 20.00     0.104 C 
HETATM    5  C5  UNL     1     -32.095   7.246   3.957  1.00 20.00     0.109 C 
HETATM    6  C6  UNL     1     -35.129   5.312   5.033  1.00 20.00     0.025 C 
HETATM    7  C7  UNL     1     -32.015   8.474   3.062  1.00 20.00     0.037 C 
HETATM    8  N8  UNL     1     -32.408   7.610   5.313  1.00 20.00    -0.352 N 
HETATM    9  O9  UNL     1     -34.159   7.434   6.837  1.00 20.00    -0.273 OA
HETATM   10  H20 UNL     1     -31.755   8.102   5.914  1.00 20.00     0.163 HD
ENDROOT
TORSDOF 0
