REMARK  1 active torsions:
REMARK  status: ('A' for Active; 'I' for Inactive)
REMARK    1  A    between atoms: C1_1  and  C5_5 
ROOT
HETATM    1  C2  UNL     1     -34.509   5.672   4.424  1.00 20.00     0.015 C 
HETATM    2  C3  UNL     1     -34.037   5.234   5.808  1.00 20.00     0.021 C 
HETATM    3  C4  UNL     1     -32.695   7.117   5.232  1.00 20.00     0.033 C 
HETATM    4  C5  UNL     1     -33.541   6.782   3.997  1.00 20.00     0.073 C 
HETATM    5  C6  UNL     1     -33.429   6.491   6.414  1.00 20.00     0.083 C 
HETATM    6 CL9  UNL     1     -34.705   7.587   7.018  1.00 20.00    -0.125 Cl
ENDROOT
BRANCH   4   7
HETATM    7  C1  UNL     1     -32.664   6.325   2.874  1.00 20.00     0.223 C 
HETATM    8  O7  UNL     1     -32.357   5.145   2.734  1.00 20.00    -0.279 OA
HETATM    9 CL8  UNL     1     -32.172   7.641   1.852  1.00 20.00    -0.043 Cl
ENDBRANCH   4   7
TORSDOF 1
