REMARK  3 active torsions:
REMARK  status: ('A' for Active; 'I' for Inactive)
REMARK    1  A    between atoms: C1_1  and  C4_4 
REMARK    2  A    between atoms: C2_2  and  C8_8 
REMARK    3  A    between atoms: C8_8  and  O10_10 
ROOT
HETATM    1  C1  UNL     1     -32.376   8.065   1.935  1.00 20.00    -0.069 C 
HETATM    2  C2  UNL     1     -32.780   7.477   2.901  1.00 20.00    -0.066 C 
ENDROOT
BRANCH   2   3
HETATM    3  C8  UNL     1     -33.276   6.754   4.085  1.00 20.00     0.116 C 
HETATM    4  C5  UNL     1     -34.777   6.490   3.966  1.00 20.00     0.060 C 
HETATM    5  C6  UNL     1     -32.972   7.546   5.355  1.00 20.00     0.060 C 
BRANCH   3   6
HETATM    6  O10 UNL     1     -32.602   5.500   4.193  1.00 20.00    -0.373 OA
HETATM    7  C7  UNL     1     -32.824   4.695   3.046  1.00 20.00     0.204 C 
ENDBRANCH   3   6
ENDBRANCH   2   3
BRANCH   1   8
HETATM    8  C4  UNL     1     -31.883   8.782   0.760  1.00 20.00     0.224 A 
HETATM    9  C3  UNL     1     -32.540  10.061   0.377  1.00 20.00     0.214 A 
HETATM   10  O9  UNL     1     -32.853   8.826  -0.278  1.00 20.00    -0.368 OA
ENDBRANCH   1   8
TORSDOF 3
