REMARK  0 active torsions:
REMARK  status: ('A' for Active; 'I' for Inactive)
ROOT
HETATM    1  C1  UNL     1     -32.295   8.561   0.214  1.00 20.00     0.017 C 
HETATM    2  C2  UNL     1     -32.287   7.904   1.219  1.00 20.00    -0.057 C 
HETATM    3  C3  UNL     1     -32.848   7.155   4.732  1.00 20.00     0.182 C 
HETATM    4  C4  UNL     1     -33.029   5.069   3.371  1.00 20.00     0.182 C 
HETATM    5  C5  UNL     1     -32.277   7.102   2.446  1.00 20.00     0.341 C 
HETATM    6  C6  UNL     1     -33.612   5.827   4.577  1.00 20.00    -0.004 C 
HETATM    7  C7  UNL     1     -35.105   6.117   4.330  1.00 20.00     0.019 C 
HETATM    8  C8  UNL     1     -33.467   4.984   5.850  1.00 20.00     0.019 C 
HETATM    9  O9  UNL     1     -32.842   7.882   3.502  1.00 20.00    -0.350 OA
HETATM   10  O10 UNL     1     -33.014   5.900   2.209  1.00 20.00    -0.350 OA
ENDROOT
TORSDOF 0
