REMARK  1 active torsions:
REMARK  status: ('A' for Active; 'I' for Inactive)
REMARK    1  A    between atoms: C1_1  and  C3_3 
ROOT
HETATM    1  C2  UNL     1     -35.369   5.851   4.963  1.00 20.00     0.103 A 
HETATM    2  C3  UNL     1     -33.948   6.304   5.191  1.00 20.00     0.073 A 
HETATM    3  C5  UNL     1     -33.661   7.094   6.440  1.00 20.00     0.036 C 
HETATM    4  S7  UNL     1     -34.279   4.607   5.432  1.00 20.00    -0.149 SA
ENDROOT
BRANCH   2   5
HETATM    5  C1  UNL     1     -33.124   6.586   3.997  1.00 20.00     0.142 C 
HETATM    6  C4  UNL     1     -33.440   5.798   2.755  1.00 20.00     0.092 C 
HETATM    7  O6  UNL     1     -32.226   7.427   4.017  1.00 20.00    -0.297 OA
ENDBRANCH   2   5
TORSDOF 1
