REMARK  1 active torsions:
REMARK  status: ('A' for Active; 'I' for Inactive)
REMARK    1  A    between atoms: C1_1  and  C7_7 
ROOT
HETATM    1  C1  UNL     1     -33.015   7.461   3.479  1.00 20.00    -0.057 C 
HETATM    2  C2  UNL     1     -32.481   8.036   2.570  1.00 20.00     0.276 C 
HETATM    3  O10 UNL     1     -31.958   8.599   1.680  1.00 20.00    -0.274 OA
ENDROOT
BRANCH   1   4
HETATM    4  C7  UNL     1     -33.595   6.836   4.465  1.00 20.00     0.023 A 
HETATM    5  C5  UNL     1     -33.981   7.602   5.649  1.00 20.00     0.021 A 
HETATM    6  C3  UNL     1     -34.580   6.984   6.682  1.00 20.00     0.002 A 
HETATM    7  C4  UNL     1     -34.859   5.558   6.658  1.00 20.00     0.001 A 
HETATM    8  C6  UNL     1     -34.532   4.791   5.603  1.00 20.00     0.012 A 
HETATM    9  C8  UNL     1     -33.874   5.383   4.431  1.00 20.00    -0.027 A 
HETATM   10  C9  UNL     1     -33.557   4.591   3.391  1.00 20.00     0.025 C 
ENDBRANCH   1   4
TORSDOF 1
