REMARK  0 active torsions:
REMARK  status: ('A' for Active; 'I' for Inactive)
ROOT
HETATM    1  C1  UNL     1     -33.633   4.875   3.958  1.00 20.00     0.007 C 
HETATM    2  C2  UNL     1     -32.776   6.713   2.872  1.00 20.00     0.226 C 
HETATM    3  C3  UNL     1     -33.803   3.578   4.231  1.00 20.00     0.038 C 
HETATM    4  C4  UNL     1     -34.203   6.042   4.717  1.00 20.00     0.043 C 
HETATM    5  C5  UNL     1     -33.449   7.257   4.121  1.00 20.00     0.083 C 
HETATM    6  C6  UNL     1     -35.711   6.168   4.499  1.00 20.00     0.017 C 
HETATM    7  C7  UNL     1     -32.385   7.795   5.072  1.00 20.00     0.020 C 
HETATM    8  N8  UNL     1     -32.891   5.335   2.910  1.00 20.00    -0.331 N 
HETATM    9  O9  UNL     1     -32.199   7.384   2.029  1.00 20.00    -0.273 OA
HETATM   10  H20 UNL     1     -32.467   4.718   2.226  1.00 20.00     0.168 HD
ENDROOT
TORSDOF 0
