REMARK  1 active torsions:
REMARK  status: ('A' for Active; 'I' for Inactive)
REMARK    1  A    between atoms: C1_1  and  C7_7 
ROOT
HETATM    1  C2  UNL     1     -32.578   9.104   2.098  1.00 20.00     0.001 C 
HETATM    2  C3  UNL     1     -33.554   5.102   3.719  1.00 20.00     0.014 C 
HETATM    3  C4  UNL     1     -32.343   7.768   1.402  1.00 20.00     0.005 C 
HETATM    4  C5  UNL     1     -33.506   8.739   3.249  1.00 20.00     0.006 C 
HETATM    5  C6  UNL     1     -33.098   5.480   2.317  1.00 20.00     0.006 C 
HETATM    6  C7  UNL     1     -33.935   6.443   4.344  1.00 20.00     0.076 C 
HETATM    7  C8  UNL     1     -32.285   6.751   2.541  1.00 20.00    -0.010 C 
HETATM    8  C9  UNL     1     -32.914   7.432   3.773  1.00 20.00     0.002 C 
ENDROOT
BRANCH   6   9
HETATM    9  C1  UNL     1     -33.854   6.389   5.836  1.00 20.00     0.223 C 
HETATM   10  O10 UNL     1     -33.088   7.110   6.467  1.00 20.00    -0.279 OA
HETATM   11 CL11 UNL     1     -34.948   5.218   6.508  1.00 20.00    -0.043 Cl
ENDBRANCH   6   9
TORSDOF 1
