REMARK  1 active torsions:
REMARK  status: ('A' for Active; 'I' for Inactive)
REMARK    1  A    between atoms: C3_3  and  N6_6 
ROOT
HETATM    1  C1  UNL     1     -33.048   6.344   3.582  1.00 20.00     0.216 C 
HETATM    2  C4  UNL     1     -34.387   5.296   5.136  1.00 20.00     0.158 C 
HETATM    3  C5  UNL     1     -33.970   4.320   4.060  1.00 20.00     0.198 C 
HETATM    4  N6  UNL     1     -33.638   6.477   4.822  1.00 20.00    -0.327 N 
HETATM    5  O7  UNL     1     -33.301   5.106   3.061  1.00 20.00    -0.325 OA
HETATM    6  S8  UNL     1     -32.141   7.396   2.675  1.00 20.00    -0.033 SA
ENDROOT
BRANCH   4   7
HETATM    7  C3  UNL     1     -33.607   7.557   5.655  1.00 20.00     0.083 C 
HETATM    8  C2  UNL     1     -34.219   7.577   6.841  1.00 20.00     0.030 C 
ENDBRANCH   4   7
TORSDOF 1
