REMARK  2 active torsions:
REMARK  status: ('A' for Active; 'I' for Inactive)
REMARK    1  A    between atoms: C1_1  and  C8_8 
REMARK    2  A    between atoms: C3_3  and  C8_8 
ROOT
HETATM    1  C2  UNL     1     -33.750   5.632   6.182  1.00 20.00     0.153 A 
HETATM    2  C3  UNL     1     -34.166   5.939   4.756  1.00 20.00     0.093 A 
HETATM    3  C5  UNL     1     -34.651   4.994   7.179  1.00 20.00     0.042 C 
HETATM    4  C6  UNL     1     -35.538   5.612   4.255  1.00 20.00     0.049 C 
HETATM    5  O10 UNL     1     -33.374   4.787   5.087  1.00 20.00    -0.369 OA
ENDROOT
BRANCH   2   6
HETATM    6  C8  UNL     1     -33.414   6.991   4.002  1.00 20.00     0.087 C 
HETATM    7  C7  UNL     1     -32.371   7.691   4.887  1.00 20.00     0.021 C 
BRANCH   6   8
HETATM    8  C1  UNL     1     -32.733   6.394   2.762  1.00 20.00     0.129 C 
HETATM    9  C4  UNL     1     -31.923   7.341   1.913  1.00 20.00     0.091 C 
HETATM   10  O9  UNL     1     -32.868   5.215   2.434  1.00 20.00    -0.298 OA
ENDBRANCH   6   8
ENDBRANCH   2   6
TORSDOF 2
