REMARK  1 active torsions:
REMARK  status: ('A' for Active; 'I' for Inactive)
REMARK    1  A    between atoms: C1_1  and  C6_6 
ROOT
HETATM    1  C2  UNL     1     -32.817   4.833   5.540  1.00 20.00     0.010 C 
HETATM    2  C3  UNL     1     -34.995   5.414   6.684  1.00 20.00     0.010 C 
HETATM    3  C4  UNL     1     -35.043   5.095   4.380  1.00 20.00     0.010 C 
HETATM    4  C5  UNL     1     -33.260   7.148   6.424  1.00 20.00     0.010 C 
HETATM    5  C6  UNL     1     -33.305   6.896   4.117  1.00 20.00     0.081 C 
HETATM    6  C7  UNL     1     -34.343   4.532   5.617  1.00 20.00    -0.013 C 
HETATM    7  C8  UNL     1     -32.538   6.355   5.330  1.00 20.00    -0.001 C 
HETATM    8  C9  UNL     1     -34.727   6.810   6.103  1.00 20.00    -0.009 C 
HETATM    9  C10 UNL     1     -34.754   6.598   4.539  1.00 20.00     0.003 C 
ENDROOT
BRANCH   5  10
HETATM   10  C1  UNL     1     -32.867   6.320   2.807  1.00 20.00     0.223 C 
HETATM   11  O11 UNL     1     -32.905   5.113   2.588  1.00 20.00    -0.279 OA
HETATM   12 CL12 UNL     1     -32.325   7.546   1.702  1.00 20.00    -0.043 Cl
ENDBRANCH   5  10
TORSDOF 1
