REMARK  2 active torsions:
REMARK  status: ('A' for Active; 'I' for Inactive)
REMARK    1  A    between atoms: C4_4  and  C5_5 
REMARK    2  A    between atoms: C5_5  and  C8_8 
ROOT
HETATM    1  C1  UNL     1     -32.272   6.470   0.968  1.00 20.00    -0.027 A 
HETATM    2  C2  UNL     1     -32.724   5.348   1.546  1.00 20.00    -0.026 A 
HETATM    3  C3  UNL     1     -32.855   7.781   3.039  1.00 20.00    -0.012 A 
HETATM    4  C4  UNL     1     -33.305   6.654   3.611  1.00 20.00    -0.003 A 
HETATM    5  C6  UNL     1     -32.285   7.808   1.649  1.00 20.00     0.054 A 
HETATM    6  C7  UNL     1     -33.291   5.313   2.937  1.00 20.00     0.069 A 
ENDROOT
BRANCH   4   7
HETATM    7  C5  UNL     1     -33.840   6.743   4.972  1.00 20.00     0.261 C 
HETATM    8  O9  UNL     1     -33.872   7.821   5.568  1.00 20.00    -0.283 OA
BRANCH   7   9
HETATM    9  C8  UNL     1     -34.340   5.473   5.599  1.00 20.00     0.455 C 
HETATM   10  F10 UNL     1     -34.213   4.403   4.774  1.00 20.00    -0.163 F 
HETATM   11  F11 UNL     1     -35.654   5.558   5.931  1.00 20.00    -0.163 F 
HETATM   12  F12 UNL     1     -33.665   5.173   6.738  1.00 20.00    -0.163 F 
ENDBRANCH   7   9
ENDBRANCH   4   7
TORSDOF 2
