REMARK  1 active torsions:
REMARK  status: ('A' for Active; 'I' for Inactive)
REMARK    1  A    between atoms: C2_2  and  C3_3 
ROOT
HETATM    1  C1  UNL     1     -33.956   6.378   4.886  1.00 20.00    -0.043 C 
HETATM    2  C2  UNL     1     -33.128   6.988   4.037  1.00 20.00     0.055 C 
HETATM    3  C4  UNL     1     -34.584   6.794   6.196  1.00 20.00     0.040 C 
HETATM    4  C5  UNL     1     -34.796   5.280   6.398  1.00 20.00     0.046 C 
HETATM    5  C6  UNL     1     -34.621   5.013   4.883  1.00 20.00     0.199 C 
HETATM    6  F9  UNL     1     -33.884   3.921   4.573  1.00 20.00    -0.245 F 
ENDROOT
BRANCH   2   7
HETATM    7  C3  UNL     1     -32.670   6.307   2.795  1.00 20.00     0.145 C 
HETATM    8  C7  UNL     1     -31.736   7.080   1.903  1.00 20.00     0.096 C 
HETATM    9  O8  UNL     1     -33.013   5.160   2.516  1.00 20.00    -0.294 OA
ENDBRANCH   2   7
TORSDOF 1
