REMARK  0 active torsions:
REMARK  status: ('A' for Active; 'I' for Inactive)
ROOT
HETATM    1  C1  UNL     1     -32.699   7.556   2.954  1.00 20.00     0.100 C 
HETATM    2  C2  UNL     1     -33.297   5.185   3.006  1.00 20.00     0.042 A 
HETATM    3  C3  UNL     1     -33.800   4.095   3.715  1.00 20.00     0.118 A 
HETATM    4  C4  UNL     1     -33.223   6.421   3.643  1.00 20.00     0.054 A 
HETATM    5  C5  UNL     1     -33.666   6.503   4.948  1.00 20.00    -0.013 A 
HETATM    6  C6  UNL     1     -34.149   5.357   5.571  1.00 20.00     0.042 A 
HETATM    7  C7  UNL     1     -33.674   7.671   5.875  1.00 20.00     0.042 C 
HETATM    8  C8  UNL     1     -34.526   5.647   6.996  1.00 20.00     0.060 C 
HETATM    9  C9  UNL     1     -34.644   7.178   6.961  1.00 20.00     0.011 C 
HETATM   10  N10 UNL     1     -32.273   8.479   2.394  1.00 20.00    -0.191 NA
HETATM   11  N11 UNL     1     -34.230   4.144   4.999  1.00 20.00    -0.265 NA
ENDROOT
TORSDOF 0
