REMARK  2 active torsions:
REMARK  status: ('A' for Active; 'I' for Inactive)
REMARK    1  A    between atoms: C2_2  and  C7_7 
REMARK    2  A    between atoms: C3_3  and  C6_6 
ROOT
HETATM    1  C4  UNL     1     -32.969   5.023   2.808  1.00 20.00     0.014 C 
HETATM    2  C5  UNL     1     -33.957   4.495   3.865  1.00 20.00     0.015 C 
HETATM    3  C6  UNL     1     -32.800   6.296   3.676  1.00 20.00     0.067 C 
HETATM    4  C7  UNL     1     -34.207   5.970   4.301  1.00 20.00    -0.011 C 
HETATM    5  C10 UNL     1     -35.420   6.613   3.629  1.00 20.00     0.021 C 
ENDROOT
BRANCH   4   6
HETATM    6  C2  UNL     1     -34.254   6.156   5.775  1.00 20.00    -0.084 C 
HETATM    7  C1  UNL     1     -34.678   5.186   6.599  1.00 20.00     0.015 C 
HETATM    8  C8  UNL     1     -33.798   7.490   6.289  1.00 20.00     0.043 C 
ENDBRANCH   4   6
BRANCH   3   9
HETATM    9  C3  UNL     1     -32.614   7.638   2.960  1.00 20.00     0.128 C 
HETATM   10  C9  UNL     1     -31.799   7.622   1.695  1.00 20.00     0.091 C 
HETATM   11  O11 UNL     1     -33.109   8.676   3.396  1.00 20.00    -0.298 OA
ENDBRANCH   3   9
TORSDOF 2
