REMARK  2 active torsions:
REMARK  status: ('A' for Active; 'I' for Inactive)
REMARK    1  A    between atoms: C4_4  and  C6_6 
REMARK    2  A    between atoms: C7_7  and  C9_9 
ROOT
HETATM    1  C1  UNL     1     -33.264   4.526   3.399  1.00 20.00    -0.003 C 
HETATM    2  C2  UNL     1     -32.703   5.758   2.895  1.00 20.00     0.011 C 
HETATM    3  C3  UNL     1     -34.308   4.537   4.240  1.00 20.00    -0.021 C 
HETATM    4  C4  UNL     1     -33.006   6.929   3.476  1.00 20.00    -0.012 C 
HETATM    5  C8  UNL     1     -34.930   5.828   4.732  1.00 20.00     0.016 C 
HETATM    6  C9  UNL     1     -33.938   7.035   4.664  1.00 20.00     0.051 C 
HETATM    7  C10 UNL     1     -36.195   6.111   3.911  1.00 20.00     0.015 C 
ENDROOT
BRANCH   4   8
HETATM    8  C6  UNL     1     -32.421   8.145   2.904  1.00 20.00     0.266 C 
HETATM    9  O11 UNL     1     -31.676   8.124   1.932  1.00 20.00    -0.302 OA
ENDBRANCH   4   8
BRANCH   6  10
HETATM   10  C7  UNL     1     -33.144   7.143   5.940  1.00 20.00    -0.027 C 
HETATM   11  C5  UNL     1     -33.191   8.196   6.764  1.00 20.00     0.007 C 
ENDBRANCH   6  10
TORSDOF 2
