REMARK  1 active torsions:
REMARK  status: ('A' for Active; 'I' for Inactive)
REMARK    1  A    between atoms: C6_6  and  C9_9 
ROOT
HETATM    1  C1  UNL     1     -34.078   5.776   5.824  1.00 20.00     0.119 C 
HETATM    2  C2  UNL     1     -33.721   5.723   3.401  1.00 20.00     0.043 A 
HETATM    3  C3  UNL     1     -33.104   6.287   2.290  1.00 20.00     0.012 A 
HETATM    4  C4  UNL     1     -32.103   7.895   3.729  1.00 20.00     0.125 A 
HETATM    5  C5  UNL     1     -33.482   6.298   4.638  1.00 20.00     0.136 A 
HETATM    6  C6  UNL     1     -32.277   7.394   2.449  1.00 20.00    -0.036 A 
HETATM    7  N10 UNL     1     -34.563   5.351   6.788  1.00 20.00    -0.190 NA
HETATM    8  N11 UNL     1     -32.686   7.373   4.832  1.00 20.00    -0.249 NA
ENDROOT
BRANCH   6   9
HETATM    9  C9  UNL     1     -31.604   8.021   1.281  1.00 20.00     0.020 A 
HETATM   10  C7  UNL     1     -31.807   9.493   1.018  1.00 20.00     0.010 A 
HETATM   11  C8  UNL     1     -32.436   8.483   0.111  1.00 20.00     0.010 A 
ENDBRANCH   6   9
TORSDOF 1
