REMARK  3 active torsions:
REMARK  status: ('A' for Active; 'I' for Inactive)
REMARK    1  A    between atoms: C1_1  and  C6_6 
REMARK    2  A    between atoms: C7_7  and  C8_8 
REMARK    3  A    between atoms: C8_8  and  O10_10 
ROOT
HETATM    1  C2  UNL     1     -33.620   4.796   3.468  1.00 20.00     0.001 C 
HETATM    2  C3  UNL     1     -33.195   5.624   2.258  1.00 20.00     0.011 C 
HETATM    3  C4  UNL     1     -34.252   5.666   4.552  1.00 20.00     0.007 C 
HETATM    4  C5  UNL     1     -32.907   7.648   3.743  1.00 20.00     0.018 C 
HETATM    5  C6  UNL     1     -32.274   6.767   2.670  1.00 20.00     0.047 C 
HETATM    6  C7  UNL     1     -33.327   6.820   4.966  1.00 20.00     0.010 C 
ENDROOT
BRANCH   6   7
HETATM    7  C8  UNL     1     -34.004   7.705   6.011  1.00 20.00     0.168 C 
BRANCH   7   8
HETATM    8  O10 UNL     1     -34.715   6.874   6.910  1.00 20.00    -0.400 OA
HETATM    9  H24 UNL     1     -35.137   7.457   7.564  1.00 20.00     0.209 HD
ENDBRANCH   7   8
ENDBRANCH   6   7
BRANCH   5  10
HETATM   10  C1  UNL     1     -32.039   7.630   1.445  1.00 20.00     0.235 C 
HETATM   11  O9  UNL     1     -32.745   8.588   1.147  1.00 20.00    -0.306 OA
ENDBRANCH   5  10
TORSDOF 3
