REMARK  2 active torsions:
REMARK  status: ('A' for Active; 'I' for Inactive)
REMARK    1  A    between atoms: C1_1  and  C8_8 
REMARK    2  A    between atoms: C3_3  and  C9_9 
ROOT
HETATM    1  C4  UNL     1     -32.697   7.689   4.790  1.00 20.00     0.009 C 
HETATM    2  C5  UNL     1     -32.572   5.914   2.972  1.00 20.00     0.009 C 
HETATM    3  C6  UNL     1     -34.221   7.561   4.811  1.00 20.00     0.012 C 
HETATM    4  C7  UNL     1     -34.096   5.774   3.006  1.00 20.00     0.012 C 
HETATM    5  C8  UNL     1     -32.066   7.262   3.470  1.00 20.00     0.008 C 
HETATM    6  C9  UNL     1     -34.727   6.208   4.323  1.00 20.00     0.047 C 
ENDROOT
BRANCH   5   7
HETATM    7  C1  UNL     1     -32.334   8.331   2.422  1.00 20.00    -0.026 C 
HETATM    8  C2  UNL     1     -32.408   8.084   1.106  1.00 20.00    -0.035 C 
HETATM    9  C10 UNL     1     -32.671   9.133   0.077  1.00 20.00     0.036 C 
ENDBRANCH   5   7
BRANCH   6  10
HETATM   10  C3  UNL     1     -34.460   5.168   5.399  1.00 20.00     0.235 C 
HETATM   11  O11 UNL     1     -33.879   5.416   6.450  1.00 20.00    -0.306 OA
ENDBRANCH   6  10
TORSDOF 2
