REMARK  0 active torsions:
REMARK  status: ('A' for Active; 'I' for Inactive)
ROOT
HETATM    1  C1  UNL     1     -32.273   7.413   2.032  1.00 20.00     0.015 C 
HETATM    2  C2  UNL     1     -32.853   7.138   3.046  1.00 20.00    -0.076 C 
HETATM    3  C3  UNL     1     -33.229   6.766   6.763  1.00 20.00     0.004 C 
HETATM    4  C4  UNL     1     -34.534   5.988   6.866  1.00 20.00     0.003 C 
HETATM    5  C5  UNL     1     -33.184   7.603   5.486  1.00 20.00     0.055 C 
HETATM    6  C6  UNL     1     -34.640   4.953   5.749  1.00 20.00     0.042 C 
HETATM    7  C7  UNL     1     -33.547   6.810   4.258  1.00 20.00     0.154 A 
HETATM    8  C8  UNL     1     -34.321   5.498   4.381  1.00 20.00     0.102 A 
HETATM    9  C9  UNL     1     -34.346   4.499   3.262  1.00 20.00     0.050 C 
HETATM   10  O10 UNL     1     -34.975   6.727   4.061  1.00 20.00    -0.350 OA
ENDROOT
TORSDOF 0
