REMARK  1 active torsions:
REMARK  status: ('A' for Active; 'I' for Inactive)
REMARK    1  A    between atoms: C1_1  and  C7_7 
ROOT
HETATM    1  C2  UNL     1     -34.100   4.412   5.706  1.00 20.00     0.004 C 
HETATM    2  C3  UNL     1     -35.016   5.539   6.184  1.00 20.00     0.037 C 
HETATM    3  C4  UNL     1     -33.023   4.865   4.720  1.00 20.00     0.016 C 
HETATM    4  C5  UNL     1     -34.125   7.157   4.453  1.00 20.00     0.053 C 
HETATM    5  C6  UNL     1     -34.429   6.917   5.931  1.00 20.00     0.171 C 
HETATM    6  C7  UNL     1     -33.509   5.934   3.728  1.00 20.00     0.012 C 
HETATM    7  C8  UNL     1     -34.513   5.333   2.731  1.00 20.00     0.023 C 
HETATM    8  F10 UNL     1     -33.271   7.030   6.641  1.00 20.00    -0.249 F 
ENDROOT
BRANCH   6   9
HETATM    9  C1  UNL     1     -32.326   6.395   2.913  1.00 20.00     0.240 C 
HETATM   10  O9  UNL     1     -32.401   7.247   2.034  1.00 20.00    -0.306 OA
ENDBRANCH   6   9
TORSDOF 1
