REMARK  1 active torsions:
REMARK  status: ('A' for Active; 'I' for Inactive)
REMARK    1  A    between atoms: C1_1  and  C6_6 
ROOT
HETATM    1  C2  UNL     1     -33.478   5.257   2.783  1.00 20.00     0.019 C 
HETATM    2  C3  UNL     1     -33.229   7.245   4.332  1.00 20.00     0.019 C 
HETATM    3  C4  UNL     1     -33.948   4.403   3.956  1.00 20.00     0.080 C 
HETATM    4  C5  UNL     1     -33.700   6.389   5.504  1.00 20.00     0.080 C 
HETATM    5  C6  UNL     1     -32.565   6.396   3.244  1.00 20.00     0.072 C 
HETATM    6  C7  UNL     1     -34.592   5.251   5.040  1.00 20.00     0.243 C 
HETATM    7  F9  UNL     1     -34.911   4.466   6.098  1.00 20.00    -0.206 F 
HETATM    8  F10 UNL     1     -35.761   5.761   4.572  1.00 20.00    -0.206 F 
ENDROOT
BRANCH   5   9
HETATM    9  C1  UNL     1     -32.199   7.262   2.075  1.00 20.00     0.223 C 
HETATM   10  O8  UNL     1     -32.142   6.814   0.933  1.00 20.00    -0.279 OA
HETATM   11 CL11 UNL     1     -31.884   8.903   2.549  1.00 20.00    -0.043 Cl
ENDBRANCH   5   9
TORSDOF 1
