REMARK  1 active torsions:
REMARK  status: ('A' for Active; 'I' for Inactive)
REMARK    1  A    between atoms: C3_3  and  C7_7 
ROOT
HETATM    1  C1  UNL     1     -34.009   5.916   6.465  1.00 20.00    -0.023 C 
HETATM    2  C2  UNL     1     -33.697   7.064   5.836  1.00 20.00    -0.075 C 
HETATM    3  C4  UNL     1     -34.445   4.669   5.758  1.00 20.00     0.027 C 
HETATM    4  C5  UNL     1     -34.895   4.932   4.323  1.00 20.00     0.005 C 
HETATM    5  C6  UNL     1     -33.897   5.828   3.600  1.00 20.00     0.018 C 
HETATM    6  C7  UNL     1     -33.709   7.170   4.325  1.00 20.00     0.100 C 
HETATM    7  C8  UNL     1     -33.382   8.309   6.621  1.00 20.00     0.044 C 
ENDROOT
BRANCH   6   8
HETATM    8  C3  UNL     1     -32.407   7.766   3.874  1.00 20.00     0.227 C 
HETATM    9  O9  UNL     1     -31.527   8.072   4.673  1.00 20.00    -0.279 OA
HETATM   10 CL10 UNL     1     -32.335   7.949   2.148  1.00 20.00    -0.043 Cl
ENDBRANCH   6   8
TORSDOF 1
