REMARK  1 active torsions:
REMARK  status: ('A' for Active; 'I' for Inactive)
REMARK    1  A    between atoms: C2_2  and  C4_4 
ROOT
HETATM    1  C1  UNL     1     -33.997   6.914   6.465  1.00 20.00     0.065 C 
HETATM    2  C3  UNL     1     -33.294   6.659   5.240  1.00 20.00     0.113 A 
HETATM    3  C4  UNL     1     -33.721   7.400   3.992  1.00 20.00     0.082 A 
HETATM    4  C5  UNL     1     -33.963   5.905   4.103  1.00 20.00    -0.019 A 
HETATM    5  C7  UNL     1     -33.101   4.947   3.317  1.00 20.00     0.017 C 
HETATM    6  C8  UNL     1     -35.397   5.450   4.230  1.00 20.00     0.017 C 
HETATM    7  N9  UNL     1     -34.565   7.121   7.455  1.00 20.00    -0.197 NA
ENDROOT
BRANCH   3   8
HETATM    8  C2  UNL     1     -32.692   7.932   3.087  1.00 20.00     0.129 C 
HETATM    9  C6  UNL     1     -33.100   8.153   1.656  1.00 20.00     0.091 C 
HETATM   10  O10 UNL     1     -31.555   8.186   3.481  1.00 20.00    -0.298 OA
ENDBRANCH   3   8
TORSDOF 1
