REMARK  0 active torsions:
REMARK  status: ('A' for Active; 'I' for Inactive)
ROOT
HETATM    1  C1  UNL     1     -33.003   7.266   3.372  1.00 20.00     0.029 C 
HETATM    2  C2  UNL     1     -33.455   7.027   4.812  1.00 20.00     0.046 C 
HETATM    3  C3  UNL     1     -32.283   6.040   2.827  1.00 20.00     0.167 C 
HETATM    4  C4  UNL     1     -33.430   4.561   4.290  1.00 20.00     0.209 C 
HETATM    5  C5  UNL     1     -34.205   5.699   4.959  1.00 20.00     0.134 C 
HETATM    6  O6  UNL     1     -33.106   4.879   2.932  1.00 20.00    -0.388 OA
HETATM    7 CL7  UNL     1     -34.437   5.328   6.696  1.00 20.00    -0.099 Cl
HETATM    8 CL8  UNL     1     -35.834   5.828   4.205  1.00 20.00    -0.099 Cl
ENDROOT
TORSDOF 0
