REMARK  1 active torsions:
REMARK  status: ('A' for Active; 'I' for Inactive)
REMARK    1  A    between atoms: C4_4  and  C7_7 
ROOT
HETATM    1  C1  UNL     1     -32.433   6.546   2.507  1.00 20.00     0.047 C 
HETATM    2  C2  UNL     1     -33.357   5.686   2.951  1.00 20.00    -0.006 C 
HETATM    3  C3  UNL     1     -31.918   7.614   3.394  1.00 20.00     0.149 C 
HETATM    4  C5  UNL     1     -32.380   7.644   4.833  1.00 20.00     0.088 C 
HETATM    5  C6  UNL     1     -33.815   7.123   4.980  1.00 20.00     0.007 C 
HETATM    6  C7  UNL     1     -34.002   5.731   4.317  1.00 20.00     0.031 C 
HETATM    7  C8  UNL     1     -34.237   7.174   6.453  1.00 20.00     0.012 C 
HETATM    8  C9  UNL     1     -35.492   5.377   4.191  1.00 20.00     0.027 C 
HETATM    9  O10 UNL     1     -31.085   8.411   2.967  1.00 20.00    -0.293 OA
ENDROOT
BRANCH   6  10
HETATM   10  C4  UNL     1     -33.315   4.631   5.088  1.00 20.00     0.244 C 
HETATM   11  O11 UNL     1     -33.908   3.673   5.572  1.00 20.00    -0.306 OA
ENDBRANCH   6  10
TORSDOF 1
