REMARK  2 active torsions:
REMARK  status: ('A' for Active; 'I' for Inactive)
REMARK    1  A    between atoms: C1_1  and  C10_10 
REMARK    2  A    between atoms: C1_1  and  C11_11 
ROOT
HETATM    1  C2  UNL     1     -34.711   5.138   6.584  1.00 20.00     0.009 C 
HETATM    2  C3  UNL     1     -34.177   7.492   5.848  1.00 20.00     0.010 C 
HETATM    3  C4  UNL     1     -35.826   6.169   4.568  1.00 20.00     0.010 C 
HETATM    4  C5  UNL     1     -32.563   5.853   5.466  1.00 20.00     0.022 C 
HETATM    5  C6  UNL     1     -34.215   4.530   4.184  1.00 20.00     0.022 C 
HETATM    6  C7  UNL     1     -33.609   6.237   6.515  1.00 20.00    -0.013 C 
HETATM    7  C8  UNL     1     -35.329   4.859   5.181  1.00 20.00    -0.013 C 
HETATM    8  C9  UNL     1     -34.509   6.950   4.448  1.00 20.00     0.002 C 
HETATM    9  C10 UNL     1     -33.423   5.844   4.198  1.00 20.00     0.026 C 
ENDROOT
BRANCH   9  10
HETATM   10  C1  UNL     1     -32.637   6.051   2.945  1.00 20.00     0.149 C 
HETATM   11  O12 UNL     1     -32.633   5.197   2.060  1.00 20.00    -0.296 OA
BRANCH  10  12
HETATM   12  C11 UNL     1     -31.871   7.352   2.858  1.00 20.00     0.193 C 
HETATM   13 CL13 UNL     1     -31.708   7.870   1.174  1.00 20.00    -0.123 Cl
ENDBRANCH  10  12
ENDBRANCH   9  10
TORSDOF 2
