REMARK  1 active torsions:
REMARK  status: ('A' for Active; 'I' for Inactive)
REMARK    1  A    between atoms: C3_3  and  C6_6 
ROOT
HETATM    1  C1  UNL     1     -34.004   6.989   6.590  1.00 20.00    -0.030 C 
HETATM    2  C2  UNL     1     -34.366   5.725   6.334  1.00 20.00    -0.026 C 
HETATM    3  C4  UNL     1     -33.357   7.885   5.578  1.00 20.00     0.032 C 
HETATM    4  C5  UNL     1     -34.172   5.057   4.996  1.00 20.00     0.018 C 
HETATM    5  C6  UNL     1     -33.917   6.100   3.882  1.00 20.00     0.098 C 
HETATM    6  C7  UNL     1     -32.882   7.156   4.303  1.00 20.00    -0.000 C 
HETATM    7  C8  UNL     1     -33.070   3.999   5.142  1.00 20.00     0.015 C 
HETATM    8  C9  UNL     1     -32.609   8.185   3.201  1.00 20.00     0.011 C 
ENDROOT
BRANCH   5   9
HETATM    9  C3  UNL     1     -33.512   5.376   2.607  1.00 20.00     0.178 C 
HETATM   10  O10 UNL     1     -32.410   4.763   2.662  1.00 20.00    -0.648 OA
HETATM   11  O11 UNL     1     -34.334   5.482   1.654  1.00 20.00    -0.648 OA
ENDBRANCH   5   9
TORSDOF 1
