REMARK  1 active torsions:
REMARK  status: ('A' for Active; 'I' for Inactive)
REMARK    1  A    between atoms: C3_3  and  C8_8 
ROOT
HETATM    1  C1  UNL     1     -33.536   7.499   1.554  1.00 20.00    -0.079 C 
HETATM    2  C2  UNL     1     -33.920   8.583   0.875  1.00 20.00    -0.028 C 
HETATM    3  C4  UNL     1     -32.226   7.321   2.280  1.00 20.00     0.039 C 
HETATM    4  C5  UNL     1     -34.825   6.144   3.154  1.00 20.00     0.023 C 
HETATM    5  C6  UNL     1     -33.157   5.204   1.730  1.00 20.00     0.014 C 
HETATM    6  C7  UNL     1     -34.310   6.209   1.705  1.00 20.00     0.015 C 
HETATM    7  C8  UNL     1     -33.536   5.897   3.965  1.00 20.00     0.077 C 
HETATM    8  C9  UNL     1     -32.431   5.912   2.882  1.00 20.00     0.003 C 
HETATM    9  C10 UNL     1     -33.104   9.827   0.753  1.00 20.00     0.036 C 
ENDROOT
BRANCH   7  10
HETATM   10  C3  UNL     1     -33.322   6.898   5.056  1.00 20.00     0.223 C 
HETATM   11  O11 UNL     1     -32.333   7.625   5.079  1.00 20.00    -0.279 OA
HETATM   12 CL12 UNL     1     -34.610   6.881   6.222  1.00 20.00    -0.043 Cl
ENDBRANCH   7  10
TORSDOF 1
