REMARK  1 active torsions:
REMARK  status: ('A' for Active; 'I' for Inactive)
REMARK    1  A    between atoms: C8_8  and  N10_10 
ROOT
HETATM    1  C1  UNL     1     -32.718   5.699   3.130  1.00 20.00     0.089 C 
HETATM    2  C8  UNL     1     -32.564   7.045   3.680  1.00 20.00     0.396 C 
HETATM    3  N9  UNL     1     -32.839   4.632   2.691  1.00 20.00    -0.195 NA
ENDROOT
BRANCH   2   4
HETATM    4  N10 UNL     1     -33.489   7.264   4.780  1.00 20.00     0.110 N 
HETATM    5  C5  UNL     1     -34.841   6.681   4.542  1.00 20.00     0.283 C 
HETATM    6  C6  UNL     1     -35.127   5.962   5.877  1.00 20.00     0.038 C 
HETATM    7  C2  UNL     1     -34.243   4.735   5.926  1.00 20.00    -0.022 C 
HETATM    8  C4  UNL     1     -34.354   6.848   6.851  1.00 20.00     0.050 C 
HETATM    9  C3  UNL     1     -32.981   5.177   6.039  1.00 20.00     0.005 C 
HETATM   10  C7  UNL     1     -33.046   6.690   6.075  1.00 20.00     0.247 C 
ENDBRANCH   2   4
TORSDOF 1
