REMARK  0 active torsions:
REMARK  status: ('A' for Active; 'I' for Inactive)
ROOT
HETATM    1  C1  UNL     1     -32.583   6.685   2.649  1.00 20.00     0.057 C 
HETATM    2  C2  UNL     1     -34.604   5.377   5.453  1.00 20.00    -0.019 C 
HETATM    3  C3  UNL     1     -33.742   6.052   4.682  1.00 20.00    -0.051 C 
HETATM    4  C4  UNL     1     -33.262   5.759   3.350  1.00 20.00    -0.052 C 
HETATM    5  C5  UNL     1     -32.378   8.064   3.179  1.00 20.00     0.150 C 
HETATM    6  C6  UNL     1     -34.816   6.061   6.766  1.00 20.00     0.028 C 
HETATM    7  C7  UNL     1     -33.099   8.460   4.453  1.00 20.00     0.092 C 
HETATM    8  C8  UNL     1     -34.236   7.455   6.517  1.00 20.00     0.013 C 
HETATM    9  C9  UNL     1     -33.217   7.268   5.390  1.00 20.00     0.026 C 
HETATM   10  C10 UNL     1     -33.518   4.393   2.782  1.00 20.00     0.049 C 
HETATM   11  O11 UNL     1     -31.697   8.867   2.544  1.00 20.00    -0.293 OA
ENDROOT
TORSDOF 0
