REMARK  0 active torsions:
REMARK  status: ('A' for Active; 'I' for Inactive)
ROOT
HETATM    1  C1  UNL     1     -32.145   8.417   0.497  1.00 20.00     0.013 C 
HETATM    2  C2  UNL     1     -32.317   7.757   1.485  1.00 20.00    -0.104 C 
HETATM    3  C3  UNL     1     -32.507   7.792   5.082  1.00 20.00     0.048 C 
HETATM    4  C4  UNL     1     -31.932   7.683   3.878  1.00 20.00    -0.001 C 
HETATM    5  C5  UNL     1     -33.794   7.114   5.364  1.00 20.00     0.149 C 
HETATM    6  C6  UNL     1     -34.395   6.232   4.293  1.00 20.00     0.085 C 
HETATM    7  C7  UNL     1     -34.046   6.741   2.900  1.00 20.00     0.034 C 
HETATM    8  C8  UNL     1     -32.529   6.944   2.703  1.00 20.00     0.037 C 
HETATM    9  C9  UNL     1     -31.806   5.599   2.532  1.00 20.00     0.034 C 
HETATM   10  O10 UNL     1     -34.314   7.229   6.472  1.00 20.00    -0.293 OA
ENDROOT
TORSDOF 0
