REMARK  3 active torsions:
REMARK  status: ('A' for Active; 'I' for Inactive)
REMARK    1  A    between atoms: C1_1  and  C7_7 
REMARK    2  A    between atoms: C7_7  and  O10_10 
REMARK    3  A    between atoms: C8_8  and  N9_9 
ROOT
HETATM    1  C1  UNL     1     -32.934   6.348   3.517  1.00 20.00     0.032 C 
HETATM    2  C2  UNL     1     -33.074   4.973   2.903  1.00 20.00     0.068 C 
HETATM    3  N9  UNL     1     -33.419   6.685   4.665  1.00 20.00    -0.287 NA
ENDROOT
BRANCH   1   4
HETATM    4  C7  UNL     1     -32.134   7.401   2.761  1.00 20.00     0.161 C 
HETATM    5  C3  UNL     1     -33.028   8.211   1.839  1.00 20.00     0.045 C 
BRANCH   4   6
HETATM    6  O10 UNL     1     -31.507   8.268   3.688  1.00 20.00    -0.390 OA
HETATM    7  H27 UNL     1     -31.008   8.925   3.174  1.00 20.00     0.210 HD
ENDBRANCH   4   6
ENDBRANCH   1   4
BRANCH   3   8
HETATM    8  C8  UNL     1     -34.158   5.693   5.429  1.00 20.00     0.043 C 
HETATM    9  C4  UNL     1     -33.230   4.512   5.713  1.00 20.00     0.039 C 
HETATM   10  C5  UNL     1     -34.611   6.347   6.734  1.00 20.00     0.039 C 
HETATM   11  C6  UNL     1     -35.365   5.248   4.603  1.00 20.00     0.039 C 
ENDBRANCH   3   8
TORSDOF 3
