REMARK  1 active torsions:
REMARK  status: ('A' for Active; 'I' for Inactive)
REMARK    1  A    between atoms: C2_2  and  C3_3 
ROOT
HETATM    1  C1  UNL     1     -32.929   5.463   2.974  1.00 20.00    -0.015 C 
HETATM    2  C2  UNL     1     -32.971   6.699   3.479  1.00 20.00    -0.012 C 
HETATM    3  C4  UNL     1     -33.846   4.550   3.720  1.00 20.00     0.032 C 
HETATM    4  C5  UNL     1     -33.907   6.827   4.643  1.00 20.00     0.022 C 
HETATM    5  C6  UNL     1     -34.753   5.541   4.471  1.00 20.00    -0.007 C 
HETATM    6  C8  UNL     1     -33.144   6.935   5.961  1.00 20.00     0.015 C 
HETATM    7  C9  UNL     1     -35.350   4.948   5.738  1.00 20.00     0.011 C 
ENDROOT
BRANCH   2   8
HETATM    8  C3  UNL     1     -32.189   7.797   2.938  1.00 20.00     0.151 C 
HETATM    9  C7  UNL     1     -32.409   8.197   1.495  1.00 20.00     0.096 C 
HETATM   10  O10 UNL     1     -31.354   8.392   3.635  1.00 20.00    -0.293 OA
ENDBRANCH   2   8
TORSDOF 1
