REMARK  3 active torsions:
REMARK  status: ('A' for Active; 'I' for Inactive)
REMARK    1  A    between atoms: C3_3  and  C7_7 
REMARK    2  A    between atoms: C5_5  and  C8_8 
REMARK    3  A    between atoms: C6_6  and  C9_9 
ROOT
HETATM    1  C7  UNL     1     -33.641   7.271   2.946  1.00 20.00     0.097 A 
HETATM    2  C8  UNL     1     -33.279   5.964   3.624  1.00 20.00     0.013 A 
HETATM    3  C9  UNL     1     -33.669   7.163   4.458  1.00 20.00     0.013 A 
ENDROOT
BRANCH   1   4
HETATM    4  C3  UNL     1     -32.549   8.031   2.365  1.00 20.00     0.177 C 
HETATM    5  O10 UNL     1     -31.451   7.957   2.984  1.00 20.00    -0.648 OA
HETATM    6  O11 UNL     1     -32.845   8.666   1.314  1.00 20.00    -0.648 OA
ENDBRANCH   1   4
BRANCH   2   7
HETATM    7  C5  UNL     1     -34.282   4.884   4.058  1.00 20.00     0.014 C 
HETATM    8  C1  UNL     1     -34.005   4.521   5.510  1.00 20.00    -0.025 C 
HETATM    9  C2  UNL     1     -34.352   5.588   6.253  1.00 20.00    -0.025 C 
HETATM   10  C6  UNL     1     -34.857   6.653   5.289  1.00 20.00     0.014 C 
HETATM   11  C4  UNL     1     -35.569   5.690   4.319  1.00 20.00     0.017 C 
ENDBRANCH   2   7
TORSDOF 3
