REMARK  1 active torsions:
REMARK  status: ('A' for Active; 'I' for Inactive)
REMARK    1  A    between atoms: C1_1  and  C4_4 
ROOT
HETATM    1  C1  UNL     1     -32.609   7.385   2.619  1.00 20.00    -0.047 C 
HETATM    2  C2  UNL     1     -32.508   8.034   1.614  1.00 20.00    -0.106 C 
HETATM    3  C6  UNL     1     -32.385   8.824   0.390  1.00 20.00     0.112 C 
ENDROOT
BRANCH   1   4
HETATM    4  C4  UNL     1     -32.733   6.593   3.844  1.00 20.00     0.343 C 
HETATM    5  O8  UNL     1     -33.638   5.499   3.640  1.00 20.00    -0.348 OA
HETATM    6  C3  UNL     1     -34.801   5.841   4.394  1.00 20.00     0.203 C 
HETATM    7  C5  UNL     1     -34.265   6.682   5.529  1.00 20.00     0.145 C 
HETATM    8  C7  UNL     1     -33.705   5.850   6.676  1.00 20.00     0.042 C 
HETATM    9  O9  UNL     1     -33.203   7.420   4.918  1.00 20.00    -0.343 OA
ENDBRANCH   1   4
TORSDOF 1
