REMARK  1 active torsions:
REMARK  status: ('A' for Active; 'I' for Inactive)
REMARK    1  A    between atoms: C4_4  and  C7_7 
ROOT
HETATM    1  C1  UNL     1     -32.345   7.839   1.951  1.00 20.00     0.075 C 
HETATM    2  C2  UNL     1     -33.393   5.720   2.726  1.00 20.00     0.105 C 
HETATM    3  C3  UNL     1     -32.350   6.797   2.990  1.00 20.00     0.164 C 
HETATM    4  C4  UNL     1     -34.480   7.218   4.689  1.00 20.00     0.113 C 
HETATM    5  N8  UNL     1     -32.341   8.660   1.131  1.00 20.00    -0.196 NA
HETATM    6  S9  UNL     1     -35.020   6.385   3.167  1.00 20.00    -0.151 SA
HETATM    7  S10 UNL     1     -32.679   7.509   4.636  1.00 20.00    -0.133 SA
ENDROOT
BRANCH   4   8
HETATM    8  C7  UNL     1     -34.822   6.361   5.901  1.00 20.00     0.001 C 
HETATM    9  C5  UNL     1     -34.120   5.006   5.822  1.00 20.00     0.011 C 
HETATM   10  C6  UNL     1     -34.447   7.082   7.196  1.00 20.00     0.011 C 
ENDBRANCH   4   8
TORSDOF 1
