REMARK  1 active torsions:
REMARK  status: ('A' for Active; 'I' for Inactive)
REMARK    1  A    between atoms: C3_3  and  N9_9 
ROOT
HETATM    1  C1  UNL     1     -33.329   5.876   3.697  1.00 20.00     0.079 C 
HETATM    2  C4  UNL     1     -34.503   5.112   4.315  1.00 20.00     0.070 C 
HETATM    3  C5  UNL     1     -34.179   4.623   5.726  1.00 20.00     0.007 C 
HETATM    4  C6  UNL     1     -34.469   5.658   6.808  1.00 20.00     0.002 C 
HETATM    5  C7  UNL     1     -33.634   6.931   6.706  1.00 20.00     0.020 C 
HETATM    6  C8  UNL     1     -33.812   7.675   5.385  1.00 20.00     0.129 C 
HETATM    7  N9  UNL     1     -32.992   7.099   4.302  1.00 20.00    -0.352 N 
HETATM    8  S10 UNL     1     -32.549   5.157   2.377  1.00 20.00    -0.065 SA
ENDROOT
BRANCH   7   9
HETATM    9  C3  UNL     1     -31.878   7.835   3.940  1.00 20.00     0.081 C 
HETATM   10  C2  UNL     1     -31.688   8.306   2.705  1.00 20.00     0.030 C 
ENDBRANCH   7   9
TORSDOF 1
