REMARK  1 active torsions:
REMARK  status: ('A' for Active; 'I' for Inactive)
REMARK    1  A    between atoms: C1_1  and  C10_10 
ROOT
HETATM    1  C1  UNL     1     -33.039   6.798   3.737  1.00 20.00     0.025 C 
HETATM    2  C2  UNL     1     -33.433   6.684   5.000  1.00 20.00    -0.038 C 
HETATM    3  C3  UNL     1     -33.223   5.450   3.165  1.00 20.00     0.290 C 
HETATM    4  C4  UNL     1     -33.881   7.664   6.021  1.00 20.00     0.038 C 
HETATM    5  C5  UNL     1     -34.925   6.843   6.800  1.00 20.00     0.007 C 
HETATM    6  C6  UNL     1     -35.177   5.573   5.971  1.00 20.00     0.037 C 
HETATM    7  C7  UNL     1     -33.823   5.308   5.343  1.00 20.00     0.162 C 
HETATM    8  O11 UNL     1     -32.946   5.126   2.023  1.00 20.00    -0.260 OA
HETATM    9  O12 UNL     1     -33.818   4.634   4.098  1.00 20.00    -0.308 OA
ENDROOT
BRANCH   1  10
HETATM   10  C10 UNL     1     -32.690   7.987   2.931  1.00 20.00     0.017 C 
HETATM   11  C8  UNL     1     -31.538   8.768   3.574  1.00 20.00     0.015 C 
HETATM   12  C9  UNL     1     -32.330   7.605   1.491  1.00 20.00     0.015 C 
ENDBRANCH   1  10
TORSDOF 1
