REMARK  1 active torsions:
REMARK  status: ('A' for Active; 'I' for Inactive)
REMARK    1  A    between atoms: C5_5  and  C7_7 
ROOT
HETATM    1  C1  UNL     1     -33.874   5.766   6.745  1.00 20.00     0.003 C 
HETATM    2  C2  UNL     1     -34.920   5.098   5.857  1.00 20.00     0.003 C 
HETATM    3  C3  UNL     1     -33.432   6.986   5.933  1.00 20.00     0.041 C 
HETATM    4  C4  UNL     1     -34.339   5.237   4.448  1.00 20.00     0.041 C 
HETATM    5  C5  UNL     1     -32.719   7.066   3.392  1.00 20.00     0.167 A 
HETATM    6  C6  UNL     1     -33.582   6.529   4.512  1.00 20.00     0.088 A 
HETATM    7  O8  UNL     1     -34.049   7.546   3.609  1.00 20.00    -0.368 OA
ENDROOT
BRANCH   5   8
HETATM    8  C7  UNL     1     -32.526   6.333   2.114  1.00 20.00     0.120 C 
HETATM    9 BR9  UNL     1     -31.961   7.556   0.700  1.00 20.00    -0.094 Br
ENDBRANCH   5   8
TORSDOF 1
