REMARK  0 active torsions:
REMARK  status: ('A' for Active; 'I' for Inactive)
ROOT
HETATM    1  C1  UNL     1     -32.624   7.443   4.104  1.00 20.00     0.086 C 
HETATM    2  C2  UNL     1     -33.522   6.951   4.963  1.00 20.00    -0.064 C 
HETATM    3  C3  UNL     1     -32.552   6.897   2.734  1.00 20.00     0.283 C 
HETATM    4  C4  UNL     1     -33.654   7.324   6.410  1.00 20.00     0.035 C 
HETATM    5  C5  UNL     1     -34.669   6.317   6.953  1.00 20.00     0.005 C 
HETATM    6  C6  UNL     1     -34.624   5.140   5.978  1.00 20.00     0.016 C 
HETATM    7  C7  UNL     1     -33.662   4.918   3.622  1.00 20.00     0.192 C 
HETATM    8  C8  UNL     1     -34.417   5.798   4.610  1.00 20.00     0.002 C 
HETATM    9  C9  UNL     1     -35.743   6.293   4.011  1.00 20.00     0.022 C 
HETATM   10  O10 UNL     1     -31.953   7.499   1.850  1.00 20.00    -0.260 OA
HETATM   11  O11 UNL     1     -33.181   5.709   2.508  1.00 20.00    -0.317 OA
ENDROOT
TORSDOF 0
