REMARK  1 active torsions:
REMARK  status: ('A' for Active; 'I' for Inactive)
REMARK    1  A    between atoms: C8_8  and  C11_11 
ROOT
HETATM    1  C1  UNL     1     -34.374   5.871   6.673  1.00 20.00     0.131 C 
HETATM    2  C2  UNL     1     -34.308   7.351   6.936  1.00 20.00     0.079 C 
HETATM    3  C3  UNL     1     -33.335   7.813   5.861  1.00 20.00     0.018 C 
HETATM    4  C4  UNL     1     -35.818   6.143   4.025  1.00 20.00     0.002 C 
HETATM    5  C5  UNL     1     -34.992   4.929   4.422  1.00 20.00     0.013 C 
HETATM    6  C6  UNL     1     -34.792   7.252   3.807  1.00 20.00     0.011 C 
HETATM    7  C7  UNL     1     -33.882   5.508   5.284  1.00 20.00     0.064 C 
HETATM    8  C8  UNL     1     -33.554   6.880   4.659  1.00 20.00    -0.027 C 
HETATM    9  O12 UNL     1     -34.821   5.060   7.475  1.00 20.00    -0.298 OA
ENDROOT
BRANCH   8  10
HETATM   10  C11 UNL     1     -32.300   6.831   3.783  1.00 20.00    -0.013 C 
HETATM   11  C9  UNL     1     -32.507   5.878   2.611  1.00 20.00     0.010 C 
HETATM   12  C10 UNL     1     -31.941   8.228   3.288  1.00 20.00     0.010 C 
ENDBRANCH   8  10
TORSDOF 1
