REMARK  1 active torsions:
REMARK  status: ('A' for Active; 'I' for Inactive)
REMARK    1  A    between atoms: C4_4  and  C7_7 
ROOT
HETATM    1  C1  UNL     1     -32.601   6.516   2.561  1.00 20.00     0.268 C 
HETATM    2  C2  UNL     1     -32.482   5.023   2.460  1.00 20.00     0.184 C 
HETATM    3  C3  UNL     1     -34.687   5.190   4.133  1.00 20.00     0.107 C 
HETATM    4  C4  UNL     1     -33.593   6.070   4.722  1.00 20.00     0.144 C 
HETATM    5  O8  UNL     1     -32.204   7.265   1.673  1.00 20.00    -0.264 OA
HETATM    6  O9  UNL     1     -33.126   6.997   3.718  1.00 20.00    -0.314 OA
HETATM    7  S10 UNL     1     -34.075   4.214   2.727  1.00 20.00    -0.157 SA
ENDROOT
BRANCH   4   8
HETATM    8  C7  UNL     1     -34.136   6.902   5.879  1.00 20.00     0.008 C 
HETATM    9  C5  UNL     1     -34.703   5.999   6.973  1.00 20.00     0.012 C 
HETATM   10  C6  UNL     1     -33.047   7.811   6.446  1.00 20.00     0.012 C 
ENDBRANCH   4   8
TORSDOF 1
