REMARK  1 active torsions:
REMARK  status: ('A' for Active; 'I' for Inactive)
REMARK    1  A    between atoms: C5_5  and  C9_9 
ROOT
HETATM    1  C1  UNL     1     -33.163   5.148   2.769  1.00 20.00     0.049 C 
HETATM    2  C2  UNL     1     -34.030   5.110   3.787  1.00 20.00    -0.018 C 
HETATM    3  C3  UNL     1     -32.573   6.438   2.336  1.00 20.00     0.182 C 
HETATM    4  C4  UNL     1     -34.330   7.600   3.711  1.00 20.00     0.054 C 
HETATM    5  C5  UNL     1     -34.529   6.318   4.533  1.00 20.00     0.014 C 
HETATM    6  C6  UNL     1     -32.945   7.696   3.087  1.00 20.00     0.244 C 
HETATM    7  O10 UNL     1     -31.743   6.452   1.429  1.00 20.00    -0.290 OA
HETATM    8  F11 UNL     1     -32.028   7.957   4.057  1.00 20.00    -0.241 F 
ENDROOT
BRANCH   5   9
HETATM    9  C9  UNL     1     -33.873   6.399   5.911  1.00 20.00    -0.015 C 
HETATM   10  C7  UNL     1     -34.349   7.641   6.658  1.00 20.00     0.010 C 
HETATM   11  C8  UNL     1     -34.169   5.138   6.719  1.00 20.00     0.010 C 
ENDBRANCH   5   9
TORSDOF 1
