REMARK  1 active torsions:
REMARK  status: ('A' for Active; 'I' for Inactive)
REMARK    1  A    between atoms: C3_3  and  C6_6 
ROOT
HETATM    1  C1  UNL     1     -32.614   7.227   2.507  1.00 20.00     0.134 C 
HETATM    2  C2  UNL     1     -33.678   5.465   3.739  1.00 20.00     0.137 C 
HETATM    3  C3  UNL     1     -33.490   6.494   4.845  1.00 20.00     0.075 C 
HETATM    4  N7  UNL     1     -32.890   5.883   2.605  1.00 20.00    -0.374 N 
HETATM    5  S8  UNL     1     -31.828   7.941   1.232  1.00 20.00    -0.053 SA
HETATM    6  S9  UNL     1     -33.219   8.052   3.933  1.00 20.00    -0.094 SA
HETATM    7  H20 UNL     1     -32.637   5.236   1.866  1.00 20.00     0.161 HD
ENDROOT
BRANCH   3   8
HETATM    8  C6  UNL     1     -34.680   6.590   5.782  1.00 20.00    -0.007 C 
HETATM    9  C4  UNL     1     -34.966   5.239   6.442  1.00 20.00     0.011 C 
HETATM   10  C5  UNL     1     -34.449   7.662   6.849  1.00 20.00     0.011 C 
ENDBRANCH   3   8
TORSDOF 1
