REMARK  1 active torsions:
REMARK  status: ('A' for Active; 'I' for Inactive)
REMARK    1  A    between atoms: C6_6  and  C11_11 
ROOT
HETATM    1  C1  UNL     1     -33.646   6.216   4.250  1.00 20.00    -0.014 C 
HETATM    2  C2  UNL     1     -33.661   7.482   4.719  1.00 20.00    -0.074 C 
HETATM    3  C3  UNL     1     -33.084   5.953   2.881  1.00 20.00     0.155 C 
HETATM    4  C4  UNL     1     -33.223   8.673   3.894  1.00 20.00     0.039 C 
HETATM    5  C5  UNL     1     -32.488   7.102   2.100  1.00 20.00     0.088 C 
HETATM    6  C6  UNL     1     -33.234   8.396   2.389  1.00 20.00     0.000 C 
HETATM    7  C7  UNL     1     -34.139   4.998   4.980  1.00 20.00     0.052 C 
HETATM    8  C8  UNL     1     -34.100   7.860   6.110  1.00 20.00     0.044 C 
HETATM    9  O12 UNL     1     -33.050   4.809   2.427  1.00 20.00    -0.293 OA
ENDROOT
BRANCH   6  10
HETATM   10  C11 UNL     1     -32.630   9.563   1.614  1.00 20.00    -0.018 C 
HETATM   11  C9  UNL     1     -31.105   9.522   1.683  1.00 20.00     0.010 C 
HETATM   12  C10 UNL     1     -33.102   9.545   0.162  1.00 20.00     0.010 C 
ENDBRANCH   6  10
TORSDOF 1
