REMARK  2 active torsions:
REMARK  status: ('A' for Active; 'I' for Inactive)
REMARK    1  A    between atoms: C5_5  and  O12_12 
REMARK    2  A    between atoms: C6_6  and  C11_11 
ROOT
HETATM    1  C1  UNL     1     -32.637   6.155   1.556  1.00 20.00    -0.021 C 
HETATM    2  C2  UNL     1     -32.282   7.370   2.011  1.00 20.00    -0.059 C 
HETATM    3  C3  UNL     1     -33.382   5.141   2.373  1.00 20.00     0.032 C 
HETATM    4  C4  UNL     1     -33.703   6.959   4.086  1.00 20.00     0.042 C 
HETATM    5  C5  UNL     1     -32.651   7.840   3.399  1.00 20.00     0.149 C 
HETATM    6  C6  UNL     1     -33.405   5.468   3.875  1.00 20.00    -0.005 C 
HETATM    7  C7  UNL     1     -31.520   8.337   1.151  1.00 20.00     0.046 C 
ENDROOT
BRANCH   6   8
HETATM    8  C11 UNL     1     -34.423   4.594   4.603  1.00 20.00    -0.018 C 
HETATM    9  C8  UNL     1     -34.097   4.519   6.093  1.00 20.00     0.010 C 
HETATM   10  C9  UNL     1     -35.838   5.127   4.390  1.00 20.00     0.010 C 
ENDBRANCH   6   8
BRANCH   5  11
HETATM   11  O12 UNL     1     -31.480   7.858   4.216  1.00 20.00    -0.386 OA
HETATM   12  C10 UNL     1     -31.654   8.696   5.348  1.00 20.00     0.202 C 
ENDBRANCH   5  11
TORSDOF 2
