REMARK  1 active torsions:
REMARK  status: ('A' for Active; 'I' for Inactive)
REMARK    1  A    between atoms: C4_4  and  C8_8 
ROOT
HETATM    1  C1  UNL     1     -35.038   5.259   5.176  1.00 20.00     0.302 C 
HETATM    2  C2  UNL     1     -33.924   4.546   4.406  1.00 20.00     0.302 C 
HETATM    3  C3  UNL     1     -33.963   7.372   4.771  1.00 20.00     0.307 C 
HETATM    4  C4  UNL     1     -32.829   6.672   3.986  1.00 20.00     0.250 C 
HETATM    5  C6  UNL     1     -33.787   6.332   6.962  1.00 20.00     0.310 C 
HETATM    6  C7  UNL     1     -32.287   4.684   2.660  1.00 20.00     0.310 C 
HETATM    7  N9  UNL     1     -34.618   6.528   5.777  1.00 20.00     0.088 N 
HETATM    8  N10 UNL     1     -33.329   5.419   3.381  1.00 20.00     0.092 N 
ENDROOT
BRANCH   4   9
HETATM    9  C8  UNL     1     -32.296   7.656   2.934  1.00 20.00     0.033 C 
HETATM   10  C5  UNL     1     -33.349   8.015   1.942  1.00 20.00     0.007 C 
ENDBRANCH   4   9
TORSDOF 1
