REMARK  1 active torsions:
REMARK  status: ('A' for Active; 'I' for Inactive)
REMARK    1  A    between atoms: C4_4  and  C9_9 
ROOT
HETATM    1  C1  UNL     1     -33.345   7.833   4.730  1.00 20.00     0.014 A 
HETATM    2  C2  UNL     1     -33.935   7.243   5.776  1.00 20.00     0.075 A 
HETATM    3  C3  UNL     1     -33.319   5.785   3.481  1.00 20.00     0.101 A 
HETATM    4  C4  UNL     1     -33.019   7.091   3.534  1.00 20.00    -0.039 A 
HETATM    5  C5  UNL     1     -34.271   5.789   5.724  1.00 20.00     0.246 A 
HETATM    6  C8  UNL     1     -34.224   3.707   4.411  1.00 20.00     0.159 C 
HETATM    7  N10 UNL     1     -33.929   5.129   4.538  1.00 20.00    -0.329 N 
HETATM    8  O11 UNL     1     -34.813   5.272   6.699  1.00 20.00    -0.268 OA
ENDROOT
BRANCH   4   9
HETATM    9  C9  UNL     1     -32.361   7.831   2.413  1.00 20.00     0.012 C 
HETATM   10  C6  UNL     1     -33.271   8.946   1.904  1.00 20.00     0.015 C 
HETATM   11  C7  UNL     1     -31.009   8.391   2.850  1.00 20.00     0.015 C 
ENDBRANCH   4   9
TORSDOF 1
