REMARK  0 active torsions:
REMARK  status: ('A' for Active; 'I' for Inactive)
ROOT
HETATM    1  C1  UNL     1     -33.688   7.010   5.334  1.00 20.00     0.161 C 
HETATM    2  C2  UNL     1     -32.447   7.678   4.792  1.00 20.00     0.091 C 
HETATM    3  C3  UNL     1     -32.447   7.451   3.293  1.00 20.00     0.084 C 
HETATM    4  C4  UNL     1     -34.197   5.847   4.502  1.00 20.00     0.141 C 
HETATM    5  C5  UNL     1     -35.629   6.082   4.049  1.00 20.00     0.053 C 
HETATM    6  O6  UNL     1     -34.205   7.359   6.392  1.00 20.00    -0.295 OA
HETATM    7  S7  UNL     1     -33.066   5.768   3.081  1.00 20.00    -0.135 SA
HETATM    8 CL8  UNL     1     -34.071   4.375   5.486  1.00 20.00    -0.099 Cl
ENDROOT
TORSDOF 0
