REMARK  0 active torsions:
REMARK  status: ('A' for Active; 'I' for Inactive)
ROOT
HETATM    1  C1  UNL     1     -33.582   5.815   6.774  1.00 20.00     0.001 C 
HETATM    2  C2  UNL     1     -34.742   6.691   6.310  1.00 20.00     0.001 C 
HETATM    3  C3  UNL     1     -32.594   7.993   2.949  1.00 20.00     0.004 C 
HETATM    4  C4  UNL     1     -32.306   7.135   1.720  1.00 20.00     0.034 C 
HETATM    5  C5  UNL     1     -33.074   5.098   5.529  1.00 20.00     0.012 C 
HETATM    6  C6  UNL     1     -34.824   6.524   4.793  1.00 20.00     0.012 C 
HETATM    7  C7  UNL     1     -32.419   7.195   4.243  1.00 20.00     0.012 C 
HETATM    8  C8  UNL     1     -33.004   5.815   1.772  1.00 20.00     0.152 A 
HETATM    9  C9  UNL     1     -33.528   5.247   3.066  1.00 20.00     0.159 A 
HETATM   10  C10 UNL     1     -33.432   6.026   4.354  1.00 20.00    -0.012 C 
HETATM   11  O11 UNL     1     -32.278   4.818   2.515  1.00 20.00    -0.375 OA
ENDROOT
TORSDOF 0
