REMARK  3 active torsions:
REMARK  status: ('A' for Active; 'I' for Inactive)
REMARK    1  A    between atoms: C1_1  and  C7_7 
REMARK    2  A    between atoms: C1_1  and  N9_9 
REMARK    3  A    between atoms: C7_7  and  C8_8 
ROOT
HETATM    1  C2  UNL     1     -34.356   5.623   6.956  1.00 20.00     0.021 C 
HETATM    2  C3  UNL     1     -34.606   7.120   6.869  1.00 20.00     0.021 C 
HETATM    3  C4  UNL     1     -34.249   5.210   5.491  1.00 20.00     0.123 C 
HETATM    4  C5  UNL     1     -33.710   7.548   5.710  1.00 20.00     0.123 C 
HETATM    5  N9  UNL     1     -33.687   6.384   4.833  1.00 20.00    -0.375 N 
ENDROOT
BRANCH   5   6
HETATM    6  C1  UNL     1     -33.202   6.391   3.564  1.00 20.00     0.075 C 
HETATM    7  S10 UNL     1     -33.219   5.029   2.595  1.00 20.00    -0.066 SA
BRANCH   6   8
HETATM    8  C7  UNL     1     -32.666   7.723   3.086  1.00 20.00     0.069 C 
BRANCH   8   9
HETATM    9  C8  UNL     1     -32.144   7.620   1.653  1.00 20.00     0.002 C 
HETATM   10  C6  UNL     1     -31.633   8.960   1.148  1.00 20.00     0.005 C 
ENDBRANCH   8   9
ENDBRANCH   6   8
ENDBRANCH   5   6
TORSDOF 3
