REMARK  1 active torsions:
REMARK  status: ('A' for Active; 'I' for Inactive)
REMARK    1  A    between atoms: C7_7  and  C10_10 
ROOT
HETATM    1  C1  UNL     1     -34.027   6.720   6.553  1.00 20.00     0.003 C 
HETATM    2  C2  UNL     1     -33.403   7.522   5.688  1.00 20.00     0.004 C 
HETATM    3  C3  UNL     1     -34.343   4.577   5.309  1.00 20.00     0.036 C 
HETATM    4  C4  UNL     1     -33.696   4.724   3.918  1.00 20.00     0.010 C 
HETATM    5  C5  UNL     1     -34.997   5.880   5.788  1.00 20.00     0.145 C 
HETATM    6  C6  UNL     1     -33.939   7.242   4.319  1.00 20.00     0.149 C 
HETATM    7  C7  UNL     1     -33.124   6.134   3.616  1.00 20.00     0.022 C 
HETATM    8  O11 UNL     1     -35.247   6.696   4.620  1.00 20.00    -0.373 OA
ENDROOT
BRANCH   7   9
HETATM    9  C10 UNL     1     -33.101   6.364   2.102  1.00 20.00    -0.016 C 
HETATM   10  C8  UNL     1     -32.150   7.504   1.753  1.00 20.00     0.010 C 
HETATM   11  C9  UNL     1     -32.702   5.084   1.376  1.00 20.00     0.010 C 
ENDBRANCH   7   9
TORSDOF 1
