REMARK  1 active torsions:
REMARK  status: ('A' for Active; 'I' for Inactive)
REMARK    1  A    between atoms: C4_4  and  C5_5 
ROOT
HETATM    1  C1  UNL     1     -32.580   4.843   2.720  1.00 20.00     0.015 C 
HETATM    2  C2  UNL     1     -33.522   4.774   3.460  1.00 20.00    -0.083 C 
HETATM    3  C3  UNL     1     -34.645   4.693   4.340  1.00 20.00     0.229 A 
HETATM    4  C4  UNL     1     -35.102   5.884   5.147  1.00 20.00     0.177 A 
HETATM    5  O6  UNL     1     -34.290   4.857   5.724  1.00 20.00    -0.361 OA
ENDROOT
BRANCH   4   6
HETATM    6  C5  UNL     1     -34.452   7.220   5.076  1.00 20.00     0.150 C 
HETATM    7 CL7  UNL     1     -32.969   7.273   6.071  1.00 20.00    -0.128 Cl
ENDBRANCH   4   6
TORSDOF 1
