REMARK  3 active torsions:
REMARK  status: ('A' for Active; 'I' for Inactive)
REMARK    1  A    between atoms: C1_1  and  C9_9 
REMARK    2  A    between atoms: C1_1  and  O11_11 
REMARK    3  A    between atoms: C8_8  and  C9_9 
ROOT
HETATM    1  C2  UNL     1     -34.342   6.793   6.740  1.00 20.00     0.005 C 
HETATM    2  C3  UNL     1     -34.242   5.258   6.776  1.00 20.00     0.005 C 
HETATM    3  C4  UNL     1     -35.467   6.667   4.520  1.00 20.00     0.005 C 
HETATM    4  C5  UNL     1     -35.368   5.134   4.556  1.00 20.00     0.005 C 
HETATM    5  C6  UNL     1     -34.180   7.112   5.240  1.00 20.00    -0.010 C 
HETATM    6  C7  UNL     1     -34.036   4.892   5.292  1.00 20.00    -0.010 C 
HETATM    7  C8  UNL     1     -33.148   6.055   4.822  1.00 20.00     0.003 C 
ENDROOT
BRANCH   7   8
HETATM    8  C9  UNL     1     -32.746   6.047   3.355  1.00 20.00     0.115 C 
BRANCH   8   9
HETATM    9  C1  UNL     1     -32.004   7.299   2.969  1.00 20.00     0.139 C 
HETATM   10  O10 UNL     1     -31.286   7.968   3.697  1.00 20.00    -0.650 OA
BRANCH   9  11
HETATM   11  O11 UNL     1     -32.243   7.596   1.666  1.00 20.00    -0.776 OA
HETATM   12  H25 UNL     1     -31.772   8.409   1.383  1.00 20.00     0.167 HD
ENDBRANCH   9  11
ENDBRANCH   8   9
ENDBRANCH   7   8
TORSDOF 3
