REMARK  0 active torsions:
REMARK  status: ('A' for Active; 'I' for Inactive)
ROOT
HETATM    1  C1  UNL     1     -32.563   7.650   3.657  1.00 20.00     0.024 A 
HETATM    2  C2  UNL     1     -33.228   6.861   4.643  1.00 20.00    -0.016 A 
HETATM    3  C3  UNL     1     -33.665   5.664   4.112  1.00 20.00    -0.007 A 
HETATM    4  C4  UNL     1     -32.519   7.020   2.431  1.00 20.00    -0.020 A 
HETATM    5  C5  UNL     1     -33.479   7.239   6.073  1.00 20.00     0.311 C 
HETATM    6  C6  UNL     1     -34.366   4.610   4.904  1.00 20.00     0.077 C 
HETATM    7  C7  UNL     1     -34.806   5.188   6.264  1.00 20.00     0.277 C 
HETATM    8  C8  UNL     1     -31.920   7.505   1.168  1.00 20.00     0.056 C 
HETATM    9  C9  UNL     1     -32.616   5.334   7.335  1.00 20.00     0.310 C 
HETATM   10  N10 UNL     1     -33.808   6.065   6.909  1.00 20.00     0.088 N 
HETATM   11  S11 UNL     1     -33.278   5.484   2.468  1.00 20.00    -0.099 SA
ENDROOT
TORSDOF 0
