REMARK  0 active torsions:
REMARK  status: ('A' for Active; 'I' for Inactive)
ROOT
HETATM    1  C1  UNL     1     -34.118   5.012   5.164  1.00 20.00     0.098 A 
HETATM    2  C2  UNL     1     -33.963   6.373   5.326  1.00 20.00     0.136 A 
HETATM    3  C3  UNL     1     -33.049   6.171   3.343  1.00 20.00     0.253 A 
HETATM    4  N4  UNL     1     -33.350   7.039   4.283  1.00 20.00    -0.201 NA
HETATM    5  F5  UNL     1     -32.443   6.542   2.207  1.00 20.00    -0.176 F 
HETATM    6  S6  UNL     1     -33.476   4.536   3.647  1.00 20.00    -0.048 SA
HETATM    7 CL7  UNL     1     -34.479   7.235   6.716  1.00 20.00    -0.062 Cl
ENDROOT
TORSDOF 0
