REMARK  1 active torsions:
REMARK  status: ('A' for Active; 'I' for Inactive)
REMARK    1  A    between atoms: C4_4  and  C9_9 
ROOT
HETATM    1  C1  UNL     1     -33.125   4.389   3.012  1.00 20.00     0.007 A 
HETATM    2  C2  UNL     1     -33.745   4.134   4.167  1.00 20.00     0.074 A 
HETATM    3  C3  UNL     1     -32.708   5.721   2.675  1.00 20.00     0.026 A 
HETATM    4  C4  UNL     1     -32.930   6.746   3.516  1.00 20.00     0.018 A 
HETATM    5  C5  UNL     1     -34.011   5.242   5.127  1.00 20.00     0.247 A 
HETATM    6  C8  UNL     1     -33.805   7.652   5.638  1.00 20.00     0.159 C 
HETATM    7  N10 UNL     1     -33.576   6.522   4.739  1.00 20.00    -0.322 N 
HETATM    8  O11 UNL     1     -34.584   4.973   6.183  1.00 20.00    -0.268 OA
ENDROOT
BRANCH   4   9
HETATM    9  C9  UNL     1     -32.488   8.136   3.153  1.00 20.00     0.028 C 
HETATM   10  C6  UNL     1     -30.974   8.178   2.984  1.00 20.00     0.016 C 
HETATM   11  C7  UNL     1     -33.194   8.611   1.888  1.00 20.00     0.016 C 
ENDBRANCH   4   9
TORSDOF 1
