REMARK  2 active torsions:
REMARK  status: ('A' for Active; 'I' for Inactive)
REMARK    1  A    between atoms: C2_2  and  C4_4 
REMARK    2  A    between atoms: C4_4  and  C5_5 
ROOT
HETATM    1  C1  UNL     1     -35.121   6.134   5.606  1.00 20.00     0.147 A 
HETATM    2  C2  UNL     1     -34.850   5.774   4.165  1.00 20.00     0.151 A 
HETATM    3  C3  UNL     1     -34.285   5.652   6.736  1.00 20.00     0.042 C 
HETATM    4  O6  UNL     1     -34.460   7.041   4.713  1.00 20.00    -0.376 OA
ENDROOT
BRANCH   2   5
HETATM    5  C4  UNL     1     -33.722   4.904   3.741  1.00 20.00     0.049 C 
BRANCH   5   6
HETATM    6  C5  UNL     1     -32.965   5.396   2.495  1.00 20.00     0.117 C 
HETATM    7 CL7  UNL     1     -32.256   7.006   2.756  1.00 20.00    -0.130 Cl
ENDBRANCH   5   6
ENDBRANCH   2   5
TORSDOF 2
