REMARK  2 active torsions:
REMARK  status: ('A' for Active; 'I' for Inactive)
REMARK    1  A    between atoms: C1_1  and  C2_2 
REMARK    2  A    between atoms: C1_1  and  C3_3 
ROOT
HETATM    1  C1  UNL     1     -33.428   6.489   4.413  1.00 20.00     0.280 C 
HETATM    2  O4  UNL     1     -33.178   6.205   3.241  1.00 20.00    -0.284 OA
ENDROOT
BRANCH   1   3
HETATM    3  C2  UNL     1     -32.660   7.563   5.135  1.00 20.00     0.344 C 
HETATM    4  F5  UNL     1     -33.484   8.570   5.533  1.00 20.00    -0.224 F 
HETATM    5 CL9  UNL     1     -31.442   8.220   4.034  1.00 20.00    -0.081 Cl
ENDBRANCH   1   3
BRANCH   1   6
HETATM    6  C3  UNL     1     -34.532   5.795   5.160  1.00 20.00     0.455 C 
HETATM    7  F6  UNL     1     -34.666   6.269   6.424  1.00 20.00    -0.163 F 
HETATM    8  F7  UNL     1     -34.322   4.458   5.258  1.00 20.00    -0.163 F 
HETATM    9  F8  UNL     1     -35.735   5.958   4.552  1.00 20.00    -0.163 F 
ENDBRANCH   1   6
TORSDOF 2
