REMARK  0 active torsions:
REMARK  status: ('A' for Active; 'I' for Inactive)
ROOT
HETATM    1  C1  UNL     1     -32.699   7.566   4.466  1.00 20.00     0.050 C 
HETATM    2  C2  UNL     1     -32.448   6.924   3.320  1.00 20.00    -0.014 C 
HETATM    3  C3  UNL     1     -33.670   7.021   5.445  1.00 20.00     0.188 C 
HETATM    4  C4  UNL     1     -33.650   4.873   4.148  1.00 20.00     0.064 C 
HETATM    5  C5  UNL     1     -33.049   5.595   2.918  1.00 20.00    -0.026 C 
HETATM    6  C6  UNL     1     -34.479   5.792   5.051  1.00 20.00     0.164 C 
HETATM    7  C7  UNL     1     -31.946   4.700   2.322  1.00 20.00     0.019 C 
HETATM    8  C8  UNL     1     -34.114   5.840   1.834  1.00 20.00     0.019 C 
HETATM    9  C9  UNL     1     -34.948   5.034   6.290  1.00 20.00     0.060 C 
HETATM   10  O10 UNL     1     -33.844   7.617   6.506  1.00 20.00    -0.290 OA
HETATM   11  F11 UNL     1     -35.599   6.179   4.375  1.00 20.00    -0.235 F 
ENDROOT
TORSDOF 0
