REMARK  2 active torsions:
REMARK  status: ('A' for Active; 'I' for Inactive)
REMARK    1  A    between atoms: C3_3  and  C9_9 
REMARK    2  A    between atoms: C3_3  and  S10_10 
ROOT
HETATM    1  C1  UNL     1     -34.981   7.047   3.974  1.00 20.00     0.010 A 
HETATM    2  C2  UNL     1     -34.095   6.696   5.160  1.00 20.00    -0.025 A 
HETATM    3  C3  UNL     1     -33.543   6.608   3.717  1.00 20.00     0.019 A 
HETATM    4  C4  UNL     1     -36.169   6.239   3.576  1.00 20.00     0.012 C 
HETATM    5  C5  UNL     1     -33.695   7.845   6.066  1.00 20.00     0.017 C 
HETATM    6  C6  UNL     1     -34.330   5.427   5.949  1.00 20.00     0.017 C 
ENDROOT
BRANCH   3   7
HETATM    7  C9  UNL     1     -33.256   5.266   3.082  1.00 20.00    -0.003 C 
HETATM    8  C7  UNL     1     -33.233   5.372   1.553  1.00 20.00     0.011 C 
HETATM    9  C8  UNL     1     -31.929   4.688   3.587  1.00 20.00     0.011 C 
ENDBRANCH   3   7
BRANCH   3  10
HETATM   10  S10 UNL     1     -32.409   7.845   3.132  1.00 20.00    -0.171 SA
HETATM   11  H28 UNL     1     -31.319   7.063   3.045  1.00 20.00     0.102 HD
ENDBRANCH   3  10
TORSDOF 2
