REMARK  0 active torsions:
REMARK  status: ('A' for Active; 'I' for Inactive)
ROOT
HETATM    1  C1  UNL     1     -32.362   7.820   1.651  1.00 20.00    -0.004 C 
HETATM    2  C2  UNL     1     -33.735   8.012   2.039  1.00 20.00    -0.003 C 
HETATM    3  C3  UNL     1     -31.596   6.898   2.246  1.00 20.00    -0.025 C 
HETATM    4  C4  UNL     1     -34.241   7.433   3.138  1.00 20.00    -0.009 C 
HETATM    5  C5  UNL     1     -33.028   7.452   5.223  1.00 20.00     0.140 C 
HETATM    6  C6  UNL     1     -32.113   6.018   3.354  1.00 20.00     0.048 C 
HETATM    7  C7  UNL     1     -34.062   7.729   6.294  1.00 20.00     0.079 C 
HETATM    8  C8  UNL     1     -34.700   6.444   6.781  1.00 20.00     0.008 C 
HETATM    9  C9  UNL     1     -35.303   5.665   5.623  1.00 20.00     0.006 C 
HETATM   10  C10 UNL     1     -34.232   5.296   4.580  1.00 20.00     0.001 C 
HETATM   11  C11 UNL     1     -33.426   6.527   4.048  1.00 20.00     0.044 C 
HETATM   12  C12 UNL     1     -34.904   4.474   3.467  1.00 20.00     0.011 C 
HETATM   13  O13 UNL     1     -31.953   8.057   5.249  1.00 20.00    -0.297 OA
ENDROOT
TORSDOF 0
