REMARK  1 active torsions:
REMARK  status: ('A' for Active; 'I' for Inactive)
REMARK    1  A    between atoms: C2_2  and  C4_4 
ROOT
HETATM    1  C1  UNL     1     -33.800   6.572   5.664  1.00 20.00     0.171 A 
HETATM    2  C2  UNL     1     -33.291   6.457   4.243  1.00 20.00     0.175 A 
HETATM    3  C3  UNL     1     -34.496   5.472   6.384  1.00 20.00     0.044 C 
HETATM    4  O5  UNL     1     -34.535   7.106   4.557  1.00 20.00    -0.352 OA
HETATM    5 CL6  UNL     1     -33.361   4.907   3.410  1.00 20.00    -0.084 Cl
ENDROOT
BRANCH   2   6
HETATM    6  C4  UNL     1     -32.234   7.399   3.765  1.00 20.00     0.172 C 
HETATM    7 CL7  UNL     1     -32.194   7.470   1.983  1.00 20.00    -0.126 Cl
ENDBRANCH   2   6
TORSDOF 1
