REMARK  1 active torsions:
REMARK  status: ('A' for Active; 'I' for Inactive)
REMARK    1  A    between atoms: C6_6  and  C10_10 
ROOT
HETATM    1  C1  UNL     1     -33.168   8.138   4.929  1.00 20.00     0.054 A 
HETATM    2  C2  UNL     1     -32.625   6.413   3.157  1.00 20.00     0.060 A 
HETATM    3  C3  UNL     1     -34.071   7.297   5.441  1.00 20.00     0.025 A 
HETATM    4  C4  UNL     1     -33.535   5.575   3.679  1.00 20.00    -0.037 A 
HETATM    5  C5  UNL     1     -32.352   7.733   3.767  1.00 20.00     0.172 A 
HETATM    6  C6  UNL     1     -34.336   5.906   4.926  1.00 20.00     0.147 A 
HETATM    7  C7  UNL     1     -33.828   4.262   3.005  1.00 20.00     0.047 C 
HETATM    8  O11 UNL     1     -31.487   8.474   3.312  1.00 20.00    -0.289 OA
HETATM    9  F12 UNL     1     -35.669   5.809   4.633  1.00 20.00    -0.233 F 
ENDROOT
BRANCH   6  10
HETATM   10  C10 UNL     1     -34.056   4.906   6.052  1.00 20.00     0.026 C 
HETATM   11  C8  UNL     1     -32.595   4.986   6.483  1.00 20.00     0.014 C 
HETATM   12  C9  UNL     1     -34.984   5.162   7.234  1.00 20.00     0.014 C 
ENDBRANCH   6  10
TORSDOF 1
