REMARK  0 active torsions:
REMARK  status: ('A' for Active; 'I' for Inactive)
ROOT
HETATM    1  C1  UNL     1     -33.081   7.012   4.498  1.00 20.00     0.154 C 
HETATM    2  C2  UNL     1     -33.725   7.593   5.740  1.00 20.00     0.081 C 
HETATM    3  C3  UNL     1     -33.931   6.520   6.800  1.00 20.00     0.018 C 
HETATM    4  C4  UNL     1     -34.806   5.368   6.319  1.00 20.00     0.076 C 
HETATM    5  C5  UNL     1     -33.862   5.923   3.790  1.00 20.00     0.212 C 
HETATM    6  O6  UNL     1     -32.011   7.459   4.086  1.00 20.00    -0.295 OA
HETATM    7  S7  UNL     1     -34.057   4.509   4.902  1.00 20.00    -0.141 SA
HETATM    8 CL8  UNL     1     -33.017   5.431   2.307  1.00 20.00    -0.105 Cl
ENDROOT
TORSDOF 0
