REMARK  1 active torsions:
REMARK  status: ('A' for Active; 'I' for Inactive)
REMARK    1  A    between atoms: C9_9  and  C12_12 
ROOT
HETATM    1  C1  UNL     1     -33.094   7.780   5.743  1.00 20.00     0.012 C 
HETATM    2  C2  UNL     1     -33.635   6.982   6.667  1.00 20.00     0.052 C 
HETATM    3  C3  UNL     1     -32.910   5.160   2.518  1.00 20.00    -0.025 C 
HETATM    4  C4  UNL     1     -33.749   4.948   3.547  1.00 20.00    -0.008 C 
HETATM    5  C5  UNL     1     -32.354   7.457   3.399  1.00 20.00    -0.014 C 
HETATM    6  C6  UNL     1     -33.184   7.214   4.423  1.00 20.00    -0.041 C 
HETATM    7  C7  UNL     1     -34.173   5.821   5.918  1.00 20.00     0.166 C 
HETATM    8  C8  UNL     1     -32.292   6.509   2.228  1.00 20.00     0.054 C 
HETATM    9  C9  UNL     1     -34.187   6.084   4.423  1.00 20.00     0.071 C 
HETATM   10  O13 UNL     1     -34.597   4.817   6.471  1.00 20.00    -0.292 OA
ENDROOT
BRANCH   9  11
HETATM   11  C12 UNL     1     -35.591   6.557   4.019  1.00 20.00     0.002 C 
HETATM   12  C10 UNL     1     -36.587   5.408   4.128  1.00 20.00     0.011 C 
HETATM   13  C11 UNL     1     -36.022   7.734   4.886  1.00 20.00     0.011 C 
ENDBRANCH   9  11
TORSDOF 1
