REMARK  0 active torsions:
REMARK  status: ('A' for Active; 'I' for Inactive)
ROOT
HETATM    1  C1  UNL     1     -33.906   5.600   6.727  1.00 20.00     0.001 C 
HETATM    2  C2  UNL     1     -35.294   6.073   6.302  1.00 20.00     0.001 C 
HETATM    3  C3  UNL     1     -33.165   5.236   5.441  1.00 20.00     0.011 C 
HETATM    4  C4  UNL     1     -35.353   5.883   4.791  1.00 20.00     0.011 C 
HETATM    5  C5  UNL     1     -33.464   7.485   4.235  1.00 20.00     0.096 C 
HETATM    6  C6  UNL     1     -33.713   5.374   2.931  1.00 20.00     0.096 C 
HETATM    7  C7  UNL     1     -33.894   6.005   4.320  1.00 20.00    -0.022 C 
HETATM    8  S8  UNL     1     -31.888   7.579   3.339  1.00 20.00    -0.097 SA
HETATM    9  S9  UNL     1     -32.062   5.808   2.326  1.00 20.00    -0.097 SA
ENDROOT
TORSDOF 0
