REMARK  2 active torsions:
REMARK  status: ('A' for Active; 'I' for Inactive)
REMARK    1  A    between atoms: C3_3  and  C5_5 
REMARK    2  A    between atoms: C3_3  and  O9_9 
ROOT
HETATM    1  C1  UNL     1     -33.863   5.684   6.758  1.00 20.00    -0.002 A 
HETATM    2  C2  UNL     1     -33.853   6.898   6.212  1.00 20.00     0.013 A 
HETATM    3  C4  UNL     1     -34.160   4.670   5.718  1.00 20.00     0.196 A 
HETATM    4  C5  UNL     1     -34.144   6.795   4.764  1.00 20.00     0.244 A 
HETATM    5  O8  UNL     1     -34.348   5.403   4.492  1.00 20.00    -0.368 OA
ENDROOT
BRANCH   4   6
HETATM    6  C3  UNL     1     -32.950   7.244   3.986  1.00 20.00     0.291 C 
HETATM    7  O7  UNL     1     -31.937   7.707   4.492  1.00 20.00    -0.262 OA
BRANCH   6   8
HETATM    8  O9  UNL     1     -33.176   7.055   2.655  1.00 20.00    -0.324 OA
HETATM    9  C6  UNL     1     -32.107   7.445   1.788  1.00 20.00     0.213 C 
ENDBRANCH   6   8
ENDBRANCH   4   6
TORSDOF 2
