REMARK  1 active torsions:
REMARK  status: ('A' for Active; 'I' for Inactive)
REMARK    1  A    between atoms: C3_3  and  C9_9 
ROOT
HETATM    1  C1  UNL     1     -33.802   7.413   3.799  1.00 20.00     0.069 C 
HETATM    2  C2  UNL     1     -32.533   6.956   3.094  1.00 20.00     0.069 C 
HETATM    3  C3  UNL     1     -34.241   6.157   4.540  1.00 20.00     0.076 C 
HETATM    4  C4  UNL     1     -32.500   7.422   1.638  1.00 20.00     0.042 C 
HETATM    5  C5  UNL     1     -31.255   7.395   3.808  1.00 20.00     0.042 C 
HETATM    6  C6  UNL     1     -35.742   5.906   4.381  1.00 20.00     0.043 C 
HETATM    7  N10 UNL     1     -32.610   5.484   3.111  1.00 20.00    -0.187 NA
HETATM    8  N11 UNL     1     -33.512   5.062   3.875  1.00 20.00    -0.186 NA
ENDROOT
BRANCH   3   9
HETATM    9  C9  UNL     1     -33.872   6.172   6.023  1.00 20.00     0.009 C 
HETATM   10  C7  UNL     1     -34.500   7.376   6.720  1.00 20.00     0.012 C 
HETATM   11  C8  UNL     1     -34.308   4.873   6.696  1.00 20.00     0.012 C 
ENDBRANCH   3   9
TORSDOF 1
