REMARK  0 active torsions:
REMARK  status: ('A' for Active; 'I' for Inactive)
ROOT
HETATM    1  C1  UNL     1     -34.488   6.617   6.508  1.00 20.00     0.013 C 
HETATM    2  C2  UNL     1     -33.568   7.779   6.068  1.00 20.00     0.035 C 
HETATM    3  C3  UNL     1     -35.217   5.852   5.378  1.00 20.00     0.074 C 
HETATM    4  C4  UNL     1     -33.237   5.728   3.237  1.00 20.00     0.108 C 
HETATM    5  C5  UNL     1     -32.605   7.261   5.076  1.00 20.00     0.152 A 
HETATM    6  C6  UNL     1     -33.268   7.111   3.733  1.00 20.00     0.160 A 
HETATM    7  O7  UNL     1     -32.134   7.950   3.925  1.00 20.00    -0.375 OA
HETATM    8  S8  UNL     1     -34.199   4.649   4.395  1.00 20.00    -0.166 SA
ENDROOT
TORSDOF 0
