REMARK  1 active torsions:
REMARK  status: ('A' for Active; 'I' for Inactive)
REMARK    1  A    between atoms: C3_3  and  C8_8 
ROOT
HETATM    1  C1  UNL     1     -34.574   5.814   6.320  1.00 20.00     0.145 C 
HETATM    2  C4  UNL     1     -33.749   7.077   6.449  1.00 20.00     0.080 C 
HETATM    3  C5  UNL     1     -32.766   7.171   5.290  1.00 20.00     0.016 C 
HETATM    4  C6  UNL     1     -34.839   6.517   3.918  1.00 20.00     0.036 C 
HETATM    5  C7  UNL     1     -34.965   5.374   4.924  1.00 20.00     0.152 C 
HETATM    6  C8  UNL     1     -33.485   7.254   3.933  1.00 20.00     0.009 C 
HETATM    7  O9  UNL     1     -34.921   5.178   7.315  1.00 20.00    -0.296 OA
HETATM    8 CL10 UNL     1     -33.949   3.980   4.497  1.00 20.00    -0.117 Cl
ENDROOT
BRANCH   6   9
HETATM    9  C3  UNL     1     -32.589   6.800   2.819  1.00 20.00    -0.032 C 
HETATM   10  C2  UNL     1     -32.169   7.592   1.826  1.00 20.00     0.007 C 
ENDBRANCH   6   9
TORSDOF 1
