REMARK  0 active torsions:
REMARK  status: ('A' for Active; 'I' for Inactive)
ROOT
HETATM    1  C1  UNL     1     -33.345   6.450   3.810  1.00 20.00     0.146 C 
HETATM    2  C2  UNL     1     -33.704   5.073   3.261  1.00 20.00     0.084 C 
HETATM    3  C3  UNL     1     -34.118   5.024   5.740  1.00 20.00     0.034 C 
HETATM    4  C4  UNL     1     -35.661   5.873   4.620  1.00 20.00     0.034 C 
HETATM    5  C5  UNL     1     -34.731   4.629   4.340  1.00 20.00    -0.004 C 
HETATM    6  C6  UNL     1     -34.276   6.452   5.094  1.00 20.00     0.079 C 
HETATM    7  O7  UNL     1     -32.559   7.239   3.325  1.00 20.00    -0.296 OA
HETATM    8 BR8  UNL     1     -34.215   7.991   6.178  1.00 20.00    -0.077 Br
ENDROOT
TORSDOF 0
