REMARK  1 active torsions:
REMARK  status: ('A' for Active; 'I' for Inactive)
REMARK    1  A    between atoms: C2_2  and  C10_10 
ROOT
HETATM    1  C1  UNL     1     -33.116   7.573   5.513  1.00 20.00    -0.017 C 
HETATM    2  C2  UNL     1     -33.168   7.173   4.225  1.00 20.00    -0.068 C 
HETATM    3  C3  UNL     1     -34.179   4.855   4.571  1.00 20.00     0.135 C 
HETATM    4  C4  UNL     1     -33.930   4.544   6.031  1.00 20.00     0.080 C 
HETATM    5  C5  UNL     1     -34.517   5.752   6.779  1.00 20.00     0.017 C 
HETATM    6  C6  UNL     1     -34.466   6.978   5.859  1.00 20.00     0.024 C 
HETATM    7  C7  UNL     1     -34.450   6.385   4.434  1.00 20.00     0.092 C 
HETATM    8  O11 UNL     1     -34.115   4.012   3.683  1.00 20.00    -0.297 OA
ENDROOT
BRANCH   2   9
HETATM    9  C10 UNL     1     -32.232   7.357   3.016  1.00 20.00     0.007 C 
HETATM   10  C8  UNL     1     -33.058   7.333   1.751  1.00 20.00     0.014 C 
HETATM   11  C9  UNL     1     -31.456   8.645   3.175  1.00 20.00     0.014 C 
ENDBRANCH   2   9
TORSDOF 1
