REMARK  1 active torsions:
REMARK  status: ('A' for Active; 'I' for Inactive)
REMARK    1  A    between atoms: C7_7  and  N8_8 
ROOT
HETATM    1  C1  UNL     1     -33.173   7.109   4.714  1.00 20.00     0.137 C 
HETATM    2  C2  UNL     1     -32.626   5.778   2.788  1.00 20.00     0.140 C 
HETATM    3  C3  UNL     1     -31.844   7.040   2.459  1.00 20.00     0.068 C 
HETATM    4  C4  UNL     1     -32.562   7.931   1.453  1.00 20.00     0.023 C 
HETATM    5  N8  UNL     1     -33.544   6.062   3.881  1.00 20.00    -0.361 N 
HETATM    6  S9  UNL     1     -33.903   7.632   6.121  1.00 20.00    -0.053 SA
HETATM    7  S10 UNL     1     -31.724   7.883   4.063  1.00 20.00    -0.095 SA
ENDROOT
BRANCH   5   8
HETATM    8  C7  UNL     1     -34.645   5.133   4.101  1.00 20.00     0.077 C 
HETATM    9  C5  UNL     1     -35.951   5.911   4.152  1.00 20.00     0.032 C 
HETATM   10  C6  UNL     1     -34.393   4.369   5.393  1.00 20.00     0.032 C 
ENDBRANCH   5   8
TORSDOF 1
