REMARK  4 active torsions:
REMARK  status: ('A' for Active; 'I' for Inactive)
REMARK    1  A    between atoms: C1_1  and  C6_6 
REMARK    2  A    between atoms: C1_1  and  C7_7 
REMARK    3  A    between atoms: C6_6  and  C8_8 
REMARK    4  A    between atoms: C7_7  and  C9_9 
ROOT
HETATM    1  C1  UNL     1     -32.397   7.930   3.280  1.00 20.00     0.161 C 
HETATM    2  O10 UNL     1     -31.454   8.376   3.933  1.00 20.00    -0.295 OA
ENDROOT
BRANCH   1   3
HETATM    3  C6  UNL     1     -32.940   8.637   2.047  1.00 20.00     0.085 C 
BRANCH   3   4
HETATM    4  C8  UNL     1     -32.284   8.174   0.738  1.00 20.00    -0.016 C 
HETATM    5  C2  UNL     1     -30.774   8.425   0.750  1.00 20.00     0.010 C 
HETATM    6  C3  UNL     1     -32.920   8.897  -0.451  1.00 20.00     0.010 C 
ENDBRANCH   3   4
ENDBRANCH   1   3
BRANCH   1   7
HETATM    7  C7  UNL     1     -33.059   6.620   3.673  1.00 20.00     0.242 C 
HETATM    8  F11 UNL     1     -33.452   5.938   2.558  1.00 20.00    -0.241 F 
BRANCH   7   9
HETATM    9  C9  UNL     1     -34.276   6.811   4.589  1.00 20.00     0.019 C 
HETATM   10  C4  UNL     1     -34.922   5.473   4.957  1.00 20.00     0.012 C 
HETATM   11  C5  UNL     1     -33.863   7.550   5.863  1.00 20.00     0.012 C 
ENDBRANCH   7   9
ENDBRANCH   1   7
TORSDOF 4
