REMARK  1 active torsions:
REMARK  status: ('A' for Active; 'I' for Inactive)
REMARK    1  A    between atoms: C4_4  and  C10_10 
ROOT
HETATM    1  C1  UNL     1     -33.559   5.084   3.706  1.00 20.00     0.132 C 
HETATM    2  C2  UNL     1     -32.669   5.460   2.551  1.00 20.00     0.087 C 
HETATM    3  C3  UNL     1     -33.617   7.454   3.560  1.00 20.00     0.021 C 
HETATM    4  C4  UNL     1     -34.190   6.284   4.369  1.00 20.00     0.059 C 
HETATM    5  C5  UNL     1     -32.354   6.935   2.839  1.00 20.00    -0.041 C 
HETATM    6  C6  UNL     1     -31.103   7.062   3.724  1.00 20.00     0.015 C 
HETATM    7  C7  UNL     1     -32.114   7.711   1.539  1.00 20.00     0.015 C 
HETATM    8  O11 UNL     1     -33.766   3.926   4.051  1.00 20.00    -0.298 OA
ENDROOT
BRANCH   4   9
HETATM    9  C10 UNL     1     -33.891   6.404   5.855  1.00 20.00    -0.011 C 
HETATM   10  C8  UNL     1     -34.536   7.662   6.442  1.00 20.00     0.010 C 
HETATM   11  C9  UNL     1     -34.370   5.163   6.612  1.00 20.00     0.010 C 
ENDBRANCH   4   9
TORSDOF 1
