REMARK  0 active torsions:
REMARK  status: ('A' for Active; 'I' for Inactive)
ROOT
HETATM    1  C1  UNL     1     -34.371   5.896   6.468  1.00 20.00    -0.029 A 
HETATM    2  C2  UNL     1     -34.265   7.139   5.988  1.00 20.00    -0.023 A 
HETATM    3  C3  UNL     1     -33.281   5.752   3.378  1.00 20.00     0.155 C 
HETATM    4  C4  UNL     1     -34.648   4.862   5.420  1.00 20.00     0.040 A 
HETATM    5  C5  UNL     1     -34.454   7.149   4.518  1.00 20.00     0.050 A 
HETATM    6  C6  UNL     1     -34.632   5.652   4.113  1.00 20.00     0.071 A 
HETATM    7  C7  UNL     1     -33.179   7.289   3.612  1.00 20.00     0.101 C 
HETATM    8  C8  UNL     1     -33.428   8.102   2.342  1.00 20.00     0.042 C 
HETATM    9  O9  UNL     1     -32.575   4.935   2.825  1.00 20.00    -0.295 OA
HETATM   10 CL10 UNL     1     -31.619   7.746   4.375  1.00 20.00    -0.111 Cl
ENDROOT
TORSDOF 0
