REMARK  1 active torsions:
REMARK  status: ('A' for Active; 'I' for Inactive)
REMARK    1  A    between atoms: C8_8  and  C11_11 
ROOT
HETATM    1  C1  UNL     1     -34.239   7.928   4.502  1.00 20.00    -0.081 C 
HETATM    2  C2  UNL     1     -34.067   9.155   3.990  1.00 20.00     0.015 C 
HETATM    3  C3  UNL     1     -35.598   7.264   4.558  1.00 20.00     0.061 C 
HETATM    4  C4  UNL     1     -33.346   6.641   6.477  1.00 20.00     0.039 C 
HETATM    5  C5  UNL     1     -35.552   5.755   4.278  1.00 20.00     0.239 C 
HETATM    6  C6  UNL     1     -34.170   5.352   6.347  1.00 20.00     0.236 C 
HETATM    7  C7  UNL     1     -33.077   7.104   5.032  1.00 20.00     0.046 C 
HETATM    8  C8  UNL     1     -33.016   5.765   4.303  1.00 20.00     0.199 C 
HETATM    9  N12 UNL     1     -34.287   5.131   4.841  1.00 20.00    -0.066 N 
HETATM   10  H32 UNL     1     -34.295   4.122   4.637  1.00 20.00     0.280 HD
ENDROOT
BRANCH   8  11
HETATM   11  C11 UNL     1     -32.938   5.773   2.785  1.00 20.00     0.009 C 
HETATM   12  C9  UNL     1     -31.706   6.543   2.307  1.00 20.00     0.011 C 
HETATM   13  C10 UNL     1     -32.920   4.347   2.234  1.00 20.00     0.011 C 
ENDBRANCH   8  11
TORSDOF 1
