REMARK  2 active torsions:
REMARK  status: ('A' for Active; 'I' for Inactive)
REMARK    1  A    between atoms: C7_7  and  C10_10 
REMARK    2  A    between atoms: C9_9  and  C10_10 
ROOT
HETATM    1  C1  UNL     1     -32.335   8.461   0.391  1.00 20.00     0.012 C 
HETATM    2  C2  UNL     1     -32.293   7.896   1.449  1.00 20.00    -0.117 C 
HETATM    3  C9  UNL     1     -32.237   7.202   2.743  1.00 20.00     0.093 C 
ENDROOT
BRANCH   3   4
HETATM    4  C10 UNL     1     -33.473   7.521   3.563  1.00 20.00     0.020 C 
BRANCH   4   5
HETATM    5  C7  UNL     1     -33.425   6.817   4.909  1.00 20.00     0.023 C 
HETATM    6  C4  UNL     1     -34.405   7.457   5.911  1.00 20.00     0.008 C 
HETATM    7  C3  UNL     1     -34.733   6.322   6.877  1.00 20.00     0.004 C 
HETATM    8  C5  UNL     1     -34.871   5.107   5.961  1.00 20.00     0.041 C 
HETATM    9  C8  UNL     1     -33.871   5.374   4.874  1.00 20.00     0.086 A 
HETATM   10  C6  UNL     1     -33.658   4.419   3.721  1.00 20.00     0.207 A 
HETATM   11  O11 UNL     1     -32.778   4.438   4.848  1.00 20.00    -0.375 OA
ENDBRANCH   4   5
ENDBRANCH   3   4
TORSDOF 2
