REMARK  2 active torsions:
REMARK  status: ('A' for Active; 'I' for Inactive)
REMARK    1  A    between atoms: C1_1  and  C3_3 
REMARK    2  A    between atoms: C3_3  and  C5_5 
ROOT
HETATM    1  C1  UNL     1     -33.424   7.128   4.905  1.00 20.00     0.212 C 
HETATM    2  C2  UNL     1     -34.432   6.529   5.543  1.00 20.00     0.228 C 
HETATM    3  F7  UNL     1     -32.621   8.010   5.537  1.00 20.00    -0.198 F 
HETATM    4  F8  UNL     1     -34.674   6.793   6.846  1.00 20.00    -0.189 F 
HETATM    5 CL9  UNL     1     -35.456   5.402   4.732  1.00 20.00    -0.048 Cl
ENDROOT
BRANCH   1   6
HETATM    6  C3  UNL     1     -33.093   6.892   3.473  1.00 20.00     0.191 C 
HETATM    7  O6  UNL     1     -33.319   5.813   2.933  1.00 20.00    -0.290 OA
BRANCH   6   8
HETATM    8  C5  UNL     1     -32.463   8.060   2.735  1.00 20.00     0.082 C 
HETATM    9  C4  UNL     1     -32.136   7.727   1.289  1.00 20.00     0.013 C 
ENDBRANCH   6   8
ENDBRANCH   1   6
TORSDOF 2
