REMARK  1 active torsions:
REMARK  status: ('A' for Active; 'I' for Inactive)
REMARK    1  A    between atoms: C8_8  and  C11_11 
ROOT
HETATM    1  C1  UNL     1     -32.532   7.976   2.739  1.00 20.00    -0.079 C 
HETATM    2  C2  UNL     1     -34.031   6.573   5.434  1.00 20.00     0.132 C 
HETATM    3  C3  UNL     1     -32.361   8.736   1.659  1.00 20.00     0.015 C 
HETATM    4  C4  UNL     1     -31.895   7.939   4.161  1.00 20.00     0.047 C 
HETATM    5  C5  UNL     1     -35.176   6.001   4.593  1.00 20.00     0.080 C 
HETATM    6  C6  UNL     1     -34.925   6.631   3.175  1.00 20.00     0.022 C 
HETATM    7  C7  UNL     1     -33.324   7.546   4.503  1.00 20.00     0.072 C 
HETATM    8  C8  UNL     1     -33.404   6.786   3.095  1.00 20.00    -0.004 C 
HETATM    9  O12 UNL     1     -33.796   6.277   6.594  1.00 20.00    -0.298 OA
ENDROOT
BRANCH   8  10
HETATM   10  C11 UNL     1     -32.717   5.443   2.808  1.00 20.00    -0.009 C 
HETATM   11  C9  UNL     1     -32.555   4.646   4.097  1.00 20.00     0.011 C 
HETATM   12  C10 UNL     1     -33.512   4.652   1.776  1.00 20.00     0.011 C 
ENDBRANCH   8  10
TORSDOF 1
