REMARK  1 active torsions:
REMARK  status: ('A' for Active; 'I' for Inactive)
REMARK    1  A    between atoms: C4_4  and  C9_9 
ROOT
HETATM    1  C1  UNL     1     -32.398   7.218   4.161  1.00 20.00     0.174 C 
HETATM    2  C2  UNL     1     -32.909   5.199   2.643  1.00 20.00     0.083 C 
HETATM    3  C3  UNL     1     -32.037   6.440   2.886  1.00 20.00     0.015 C 
HETATM    4  C4  UNL     1     -34.264   5.900   4.930  1.00 20.00     0.108 C 
HETATM    5  C5  UNL     1     -32.116   7.356   1.660  1.00 20.00     0.012 C 
HETATM    6  C6  UNL     1     -35.760   5.834   4.606  1.00 20.00     0.058 C 
HETATM    7  O10 UNL     1     -33.799   7.160   4.415  1.00 20.00    -0.369 OA
HETATM    8  S11 UNL     1     -33.453   4.428   4.190  1.00 20.00    -0.131 SA
ENDROOT
BRANCH   4   9
HETATM    9  C9  UNL     1     -34.067   5.866   6.449  1.00 20.00     0.022 C 
HETATM   10  C7  UNL     1     -34.034   7.283   7.010  1.00 20.00     0.013 C 
HETATM   11  C8  UNL     1     -35.170   5.046   7.108  1.00 20.00     0.013 C 
ENDBRANCH   4   9
TORSDOF 1
