REMARK  1 active torsions:
REMARK  status: ('A' for Active; 'I' for Inactive)
REMARK    1  A    between atoms: C5_5  and  C8_8 
ROOT
HETATM    1  C1  UNL     1     -33.867   7.070   4.065  1.00 20.00     0.006 A 
HETATM    2  C2  UNL     1     -33.043   6.574   3.145  1.00 20.00     0.076 A 
HETATM    3  C3  UNL     1     -33.097   5.113   3.265  1.00 20.00     0.171 A 
HETATM    4  C4  UNL     1     -34.060   4.695   4.341  1.00 20.00     0.093 A 
HETATM    5  C5  UNL     1     -34.553   6.034   4.909  1.00 20.00     0.020 A 
HETATM    6  O9  UNL     1     -32.450   4.342   2.573  1.00 20.00    -0.291 OA
HETATM    7 CL10 UNL     1     -32.097   7.396   2.020  1.00 20.00    -0.081 Cl
ENDROOT
BRANCH   5   8
HETATM    8  C8  UNL     1     -34.209   6.196   6.385  1.00 20.00    -0.015 C 
HETATM    9  C6  UNL     1     -34.609   7.584   6.883  1.00 20.00     0.010 C 
HETATM   10  C7  UNL     1     -34.889   5.112   7.220  1.00 20.00     0.010 C 
ENDBRANCH   5   8
TORSDOF 1
