REMARK  0 active torsions:
REMARK  status: ('A' for Active; 'I' for Inactive)
ROOT
HETATM    1  C1  UNL     1     -33.415   5.753   3.367  1.00 20.00     0.082 C 
HETATM    2  C2  UNL     1     -34.100   5.617   4.498  1.00 20.00    -0.050 C 
HETATM    3  C3  UNL     1     -32.979   7.161   3.342  1.00 20.00     0.171 C 
HETATM    4  C4  UNL     1     -34.510   4.417   5.279  1.00 20.00     0.036 C 
HETATM    5  C5  UNL     1     -33.334   7.867   4.630  1.00 20.00     0.094 C 
HETATM    6  C6  UNL     1     -34.628   4.981   6.704  1.00 20.00     0.005 C 
HETATM    7  C7  UNL     1     -33.937   6.353   6.677  1.00 20.00     0.010 C 
HETATM    8  C8  UNL     1     -34.275   6.872   5.291  1.00 20.00     0.023 C 
HETATM    9  O9  UNL     1     -32.365   7.671   2.416  1.00 20.00    -0.291 OA
HETATM   10 CL10 UNL     1     -32.894   4.585   2.274  1.00 20.00    -0.080 Cl
ENDROOT
TORSDOF 0
