REMARK  2 active torsions:
REMARK  status: ('A' for Active; 'I' for Inactive)
REMARK    1  A    between atoms: C1_1  and  C5_5 
REMARK    2  A    between atoms: C2_2  and  C3_3 
ROOT
HETATM    1  C1  UNL     1     -33.478   7.403   4.787  1.00 20.00     0.134 C 
HETATM    2  C2  UNL     1     -33.043   6.892   3.630  1.00 20.00     0.166 C 
HETATM    3  F7  UNL     1     -32.415   7.668   2.722  1.00 20.00    -0.202 F 
ENDROOT
BRANCH   1   4
HETATM    4  C5  UNL     1     -34.181   6.628   5.847  1.00 20.00     0.410 C 
HETATM    5  F8  UNL     1     -34.522   7.370   6.930  1.00 20.00    -0.167 F 
HETATM    6  F9  UNL     1     -33.411   5.605   6.301  1.00 20.00    -0.167 F 
HETATM    7  F10 UNL     1     -35.327   6.075   5.375  1.00 20.00    -0.167 F 
ENDBRANCH   1   4
BRANCH   2   8
HETATM    8  C3  UNL     1     -33.186   5.475   3.208  1.00 20.00     0.183 C 
HETATM    9  C4  UNL     1     -32.645   5.042   1.871  1.00 20.00     0.099 C 
HETATM   10  O6  UNL     1     -33.744   4.674   3.959  1.00 20.00    -0.290 OA
ENDBRANCH   2   8
TORSDOF 2
