REMARK  1 active torsions:
REMARK  status: ('A' for Active; 'I' for Inactive)
REMARK    1  A    between atoms: C7_7  and  C10_10 
ROOT
HETATM    1  C1  UNL     1     -32.189   7.905   4.933  1.00 20.00    -0.023 C 
HETATM    2  C2  UNL     1     -33.195   7.873   3.994  1.00 20.00    -0.012 C 
HETATM    3  C3  UNL     1     -35.077   6.185   5.151  1.00 20.00     0.140 C 
HETATM    4  C4  UNL     1     -34.849   5.814   6.630  1.00 20.00     0.080 C 
HETATM    5  C5  UNL     1     -33.340   6.188   6.872  1.00 20.00     0.017 C 
HETATM    6  C6  UNL     1     -33.166   7.355   5.931  1.00 20.00     0.028 C 
HETATM    7  C7  UNL     1     -33.670   6.567   4.620  1.00 20.00     0.048 C 
HETATM    8  O11 UNL     1     -36.157   6.142   4.582  1.00 20.00    -0.297 OA
ENDROOT
BRANCH   7   9
HETATM    9  C10 UNL     1     -32.997   5.340   3.973  1.00 20.00    -0.002 C 
HETATM   10  C8  UNL     1     -33.917   4.131   4.064  1.00 20.00     0.011 C 
HETATM   11  C9  UNL     1     -32.632   5.646   2.527  1.00 20.00     0.011 C 
ENDBRANCH   7   9
TORSDOF 1
