REMARK  3 active torsions:
REMARK  status: ('A' for Active; 'I' for Inactive)
REMARK    1  A    between atoms: C4_4  and  C8_8 
REMARK    2  A    between atoms: C7_7  and  C11_11 
REMARK    3  A    between atoms: C8_8  and  O12_12 
ROOT
HETATM    1  C1  UNL     1     -32.594   7.729   3.921  1.00 20.00    -0.022 C 
HETATM    2  C2  UNL     1     -33.492   7.226   4.780  1.00 20.00     0.011 C 
HETATM    3  C5  UNL     1     -33.296   6.027   2.190  1.00 20.00     0.012 C 
HETATM    4  C6  UNL     1     -33.650   5.126   3.375  1.00 20.00     0.047 C 
HETATM    5  C7  UNL     1     -32.264   7.093   2.595  1.00 20.00     0.011 C 
HETATM    6  C8  UNL     1     -34.243   5.942   4.543  1.00 20.00     0.092 C 
ENDROOT
BRANCH   6   7
HETATM    7  C4  UNL     1     -34.281   5.105   5.788  1.00 20.00     0.004 C 
HETATM    8  C3  UNL     1     -35.243   5.184   6.714  1.00 20.00     0.010 C 
ENDBRANCH   6   7
BRANCH   6   9
HETATM    9  O12 UNL     1     -35.587   6.309   4.214  1.00 20.00    -0.382 OA
HETATM   10  H30 UNL     1     -36.064   5.480   4.062  1.00 20.00     0.211 HD
ENDBRANCH   6   9
BRANCH   5  11
HETATM   11  C11 UNL     1     -32.147   8.151   1.497  1.00 20.00    -0.015 C 
HETATM   12  C9  UNL     1     -31.779   7.502   0.166  1.00 20.00     0.010 C 
HETATM   13  C10 UNL     1     -33.449   8.937   1.371  1.00 20.00     0.010 C 
ENDBRANCH   5  11
TORSDOF 3
