REMARK  1 active torsions:
REMARK  status: ('A' for Active; 'I' for Inactive)
REMARK    1  A    between atoms: C4_4  and  C7_7 
ROOT
HETATM    1  C1  UNL     1     -32.478   7.225   2.411  1.00 20.00     0.075 C 
HETATM    2  C2  UNL     1     -32.338   7.583   4.847  1.00 20.00     0.105 C 
HETATM    3  C3  UNL     1     -32.928   6.746   3.722  1.00 20.00     0.164 C 
HETATM    4  C4  UNL     1     -34.773   6.671   5.699  1.00 20.00     0.113 C 
HETATM    5  N8  UNL     1     -32.121   7.604   1.375  1.00 20.00    -0.196 NA
HETATM    6  S9  UNL     1     -33.155   7.129   6.404  1.00 20.00    -0.151 SA
HETATM    7  S10 UNL     1     -34.731   6.874   3.892  1.00 20.00    -0.133 SA
ENDROOT
BRANCH   4   8
HETATM    8  C7  UNL     1     -35.098   5.227   6.055  1.00 20.00     0.001 C 
HETATM    9  C5  UNL     1     -34.046   4.278   5.481  1.00 20.00     0.011 C 
HETATM   10  C6  UNL     1     -35.203   5.054   7.570  1.00 20.00     0.011 C 
ENDBRANCH   4   8
TORSDOF 1
