REMARK  1 active torsions:
REMARK  status: ('A' for Active; 'I' for Inactive)
REMARK    1  A    between atoms: C8_8  and  C11_11 
ROOT
HETATM    1  C1  UNL     1     -33.102   5.687   3.141  1.00 20.00     0.071 C 
HETATM    2  C2  UNL     1     -35.272   5.684   5.804  1.00 20.00    -0.004 A 
HETATM    3  C3  UNL     1     -33.991   5.495   6.454  1.00 20.00    -0.004 A 
HETATM    4  C4  UNL     1     -35.420   6.614   4.844  1.00 20.00    -0.020 A 
HETATM    5  C5  UNL     1     -32.931   6.248   6.106  1.00 20.00    -0.020 A 
HETATM    6  C6  UNL     1     -34.338   7.528   4.415  1.00 20.00     0.041 A 
HETATM    7  C7  UNL     1     -32.991   7.330   5.098  1.00 20.00     0.041 A 
HETATM    8  C8  UNL     1     -33.140   7.051   3.613  1.00 20.00     0.067 A 
HETATM    9  N12 UNL     1     -33.071   4.591   2.762  1.00 20.00    -0.196 NA
ENDROOT
BRANCH   8  10
HETATM   10  C11 UNL     1     -32.513   8.038   2.661  1.00 20.00     0.001 C 
HETATM   11  C9  UNL     1     -33.203   8.006   1.292  1.00 20.00     0.011 C 
HETATM   12  C10 UNL     1     -32.552   9.462   3.231  1.00 20.00     0.011 C 
ENDBRANCH   8  10
TORSDOF 1
