REMARK  1 active torsions:
REMARK  status: ('A' for Active; 'I' for Inactive)
REMARK    1  A    between atoms: C7_7  and  C11_11 
ROOT
HETATM    1  C1  UNL     1     -32.245   7.031   2.724  1.00 20.00     0.131 C 
HETATM    2  C2  UNL     1     -32.032   7.886   3.952  1.00 20.00     0.079 C 
HETATM    3  C3  UNL     1     -33.364   8.106   4.650  1.00 20.00     0.017 C 
HETATM    4  C4  UNL     1     -35.116   6.336   3.984  1.00 20.00     0.016 A 
HETATM    5  C5  UNL     1     -32.789   5.631   2.976  1.00 20.00     0.056 C 
HETATM    6  C6  UNL     1     -33.813   5.590   4.079  1.00 20.00     0.006 A 
HETATM    7  C7  UNL     1     -34.062   6.799   4.969  1.00 20.00    -0.032 A 
HETATM    8  C8  UNL     1     -33.333   4.997   1.699  1.00 20.00     0.018 C 
HETATM    9  O12 UNL     1     -31.915   7.428   1.608  1.00 20.00    -0.298 OA
ENDROOT
BRANCH   7  10
HETATM   10  C11 UNL     1     -34.304   6.549   6.432  1.00 20.00    -0.014 C 
HETATM   11  C9  UNL     1     -35.044   5.223   6.658  1.00 20.00     0.010 C 
HETATM   12  C10 UNL     1     -32.989   6.549   7.225  1.00 20.00     0.010 C 
ENDBRANCH   7  10
TORSDOF 1
