REMARK  0 active torsions:
REMARK  status: ('A' for Active; 'I' for Inactive)
ROOT
HETATM    1  C1  UNL     1     -33.024   5.327   2.949  1.00 20.00     0.145 C 
HETATM    2  C2  UNL     1     -33.102   5.054   4.436  1.00 20.00     0.089 C 
HETATM    3  C3  UNL     1     -34.930   5.761   6.766  1.00 20.00     0.002 C 
HETATM    4  C4  UNL     1     -33.661   6.594   6.499  1.00 20.00     0.010 C 
HETATM    5  C5  UNL     1     -35.350   6.046   5.310  1.00 20.00     0.010 C 
HETATM    6  C6  UNL     1     -33.553   7.399   3.986  1.00 20.00     0.037 C 
HETATM    7  C7  UNL     1     -33.572   6.697   2.625  1.00 20.00     0.152 C 
HETATM    8  C8  UNL     1     -33.841   6.279   4.988  1.00 20.00    -0.032 C 
HETATM    9  O9  UNL     1     -32.588   4.527   2.132  1.00 20.00    -0.296 OA
HETATM   10 CL10 UNL     1     -32.550   7.506   1.441  1.00 20.00    -0.117 Cl
ENDROOT
TORSDOF 0
