REMARK  1 active torsions:
REMARK  status: ('A' for Active; 'I' for Inactive)
REMARK    1  A    between atoms: C3_3  and  C8_8 
ROOT
HETATM    1  C1  UNL     1     -34.577   6.177   5.674  1.00 20.00     0.145 C 
HETATM    2  C4  UNL     1     -34.920   5.491   4.368  1.00 20.00     0.080 C 
HETATM    3  C5  UNL     1     -33.751   5.571   3.394  1.00 20.00     0.016 C 
HETATM    4  C6  UNL     1     -32.865   7.623   4.557  1.00 20.00     0.036 C 
HETATM    5  C7  UNL     1     -34.025   7.586   5.549  1.00 20.00     0.152 C 
HETATM    6  C8  UNL     1     -33.267   7.016   3.205  1.00 20.00     0.009 C 
HETATM    7  O9  UNL     1     -34.834   5.640   6.751  1.00 20.00    -0.296 OA
HETATM    8 CL10 UNL     1     -33.483   8.169   7.140  1.00 20.00    -0.117 Cl
ENDROOT
BRANCH   6   9
HETATM    9  C3  UNL     1     -32.120   7.074   2.243  1.00 20.00    -0.032 C 
HETATM   10  C2  UNL     1     -32.145   7.747   1.089  1.00 20.00     0.007 C 
ENDBRANCH   6   9
TORSDOF 1
