REMARK  0 active torsions:
REMARK  status: ('A' for Active; 'I' for Inactive)
ROOT
HETATM    1  C1  UNL     1     -33.491   5.250   4.838  1.00 20.00     0.051 C 
HETATM    2  C2  UNL     1     -34.289   5.015   6.060  1.00 20.00     0.058 C 
HETATM    3  C3  UNL     1     -35.240   6.225   5.894  1.00 20.00     0.007 C 
HETATM    4  C4  UNL     1     -32.231   8.675   3.867  1.00 20.00     0.004 C 
HETATM    5  C5  UNL     1     -32.514   7.784   2.626  1.00 20.00     0.036 C 
HETATM    6  C6  UNL     1     -34.821   6.957   4.583  1.00 20.00     0.018 C 
HETATM    7  C7  UNL     1     -32.510   7.788   5.120  1.00 20.00     0.018 C 
HETATM    8  C8  UNL     1     -32.508   6.422   3.265  1.00 20.00     0.169 C 
HETATM    9  C9  UNL     1     -33.317   6.674   4.509  1.00 20.00     0.031 C 
HETATM   10  N10 UNL     1     -33.331   4.418   3.853  1.00 20.00    -0.142 NA
HETATM   11  O11 UNL     1     -33.045   5.250   2.707  1.00 20.00    -0.250 OA
ENDROOT
TORSDOF 0
