REMARK  2 active torsions:
REMARK  status: ('A' for Active; 'I' for Inactive)
REMARK    1  A    between atoms: C2_2  and  C5_5 
REMARK    2  A    between atoms: C7_7  and  C10_10 
ROOT
HETATM    1  C1  UNL     1     -32.795   7.543   3.906  1.00 20.00    -0.006 A 
HETATM    2  C2  UNL     1     -32.593   7.557   2.586  1.00 20.00     0.005 A 
HETATM    3  C3  UNL     1     -32.729   6.156   2.147  1.00 20.00     0.159 A 
HETATM    4  C6  UNL     1     -33.001   5.237   3.306  1.00 20.00     0.092 A 
HETATM    5  C7  UNL     1     -33.090   6.196   4.497  1.00 20.00     0.019 A 
HETATM    6  O11 UNL     1     -32.623   5.788   0.986  1.00 20.00    -0.292 OA
ENDROOT
BRANCH   5   7
HETATM    7  C10 UNL     1     -34.460   6.164   5.163  1.00 20.00    -0.015 C 
HETATM    8  C8  UNL     1     -34.754   4.774   5.727  1.00 20.00     0.010 C 
HETATM    9  C9  UNL     1     -34.549   7.217   6.266  1.00 20.00     0.010 C 
ENDBRANCH   5   7
BRANCH   2  10
HETATM   10  C5  UNL     1     -32.298   8.664   1.739  1.00 20.00     0.004 C 
HETATM   11  C4  UNL     1     -32.125   8.477   0.411  1.00 20.00     0.012 C 
ENDBRANCH   2  10
TORSDOF 2
