REMARK  1 active torsions:
REMARK  status: ('A' for Active; 'I' for Inactive)
REMARK    1  A    between atoms: C6_6  and  C8_8 
ROOT
HETATM    1  C1  UNL     1     -34.853   5.168   4.206  1.00 20.00     0.061 C 
HETATM    2  C2  UNL     1     -32.710   7.603   5.075  1.00 20.00     0.066 C 
HETATM    3  C3  UNL     1     -34.144   5.710   2.940  1.00 20.00     0.170 C 
HETATM    4  C4  UNL     1     -34.173   5.704   5.399  1.00 20.00     0.153 A 
HETATM    5  C5  UNL     1     -34.117   7.215   5.302  1.00 20.00     0.153 A 
HETATM    6  C6  UNL     1     -32.328   7.272   3.599  1.00 20.00     0.123 C 
HETATM    7  O9  UNL     1     -32.738   5.962   3.135  1.00 20.00    -0.386 OA
HETATM    8  O10 UNL     1     -34.682   6.546   6.417  1.00 20.00    -0.375 OA
ENDROOT
BRANCH   6   9
HETATM    9  C8  UNL     1     -32.734   8.377   2.622  1.00 20.00     0.027 C 
HETATM   10  C7  UNL     1     -32.241   8.103   1.239  1.00 20.00     0.007 C 
ENDBRANCH   6   9
TORSDOF 1
