REMARK  1 active torsions:
REMARK  status: ('A' for Active; 'I' for Inactive)
REMARK    1  A    between atoms: C3_3  and  C6_6 
ROOT
HETATM    1  C1  UNL     1     -33.703   7.412   4.191  1.00 20.00    -0.009 C 
HETATM    2  C2  UNL     1     -32.907   6.977   3.199  1.00 20.00    -0.086 C 
HETATM    3  C4  UNL     1     -32.998   5.570   2.664  1.00 20.00     0.037 C 
HETATM    4  C5  UNL     1     -34.980   5.206   4.193  1.00 20.00     0.023 C 
HETATM    5  C6  UNL     1     -34.772   6.580   4.832  1.00 20.00     0.110 C 
HETATM    6  C7  UNL     1     -33.699   4.583   3.613  1.00 20.00    -0.014 C 
HETATM    7  C8  UNL     1     -31.890   7.868   2.549  1.00 20.00     0.043 C 
HETATM    8  C9  UNL     1     -32.744   4.087   4.703  1.00 20.00     0.010 C 
ENDROOT
BRANCH   5   9
HETATM    9  C3  UNL     1     -34.427   6.470   6.305  1.00 20.00     0.180 C 
HETATM   10  O10 UNL     1     -33.700   7.397   6.759  1.00 20.00    -0.647 OA
HETATM   11  O11 UNL     1     -34.913   5.462   6.890  1.00 20.00    -0.647 OA
ENDBRANCH   5   9
TORSDOF 1
