REMARK  1 active torsions:
REMARK  status: ('A' for Active; 'I' for Inactive)
REMARK    1  A    between atoms: C2_2  and  C6_6 
ROOT
HETATM    1  C3  UNL     1     -34.745   4.917   5.191  1.00 20.00     0.003 C 
HETATM    2  C4  UNL     1     -33.669   5.130   4.127  1.00 20.00     0.011 C 
HETATM    3  C5  UNL     1     -34.208   5.236   6.585  1.00 20.00     0.034 C 
HETATM    4  C6  UNL     1     -33.257   6.611   4.026  1.00 20.00     0.039 C 
HETATM    5  C7  UNL     1     -33.470   6.532   6.648  1.00 20.00     0.151 A 
HETATM    6  C8  UNL     1     -32.961   7.189   5.390  1.00 20.00     0.158 A 
HETATM    7  O9  UNL     1     -34.143   7.654   6.076  1.00 20.00    -0.375 OA
ENDROOT
BRANCH   4   8
HETATM    8  C2  UNL     1     -32.123   6.756   3.052  1.00 20.00    -0.030 C 
HETATM    9  C1  UNL     1     -32.201   7.448   1.910  1.00 20.00     0.007 C 
ENDBRANCH   4   8
TORSDOF 1
