REMARK  0 active torsions:
REMARK  status: ('A' for Active; 'I' for Inactive)
ROOT
HETATM    1  C1  UNL     1     -31.823   8.137   3.017  1.00 20.00    -0.021 C 
HETATM    2  C2  UNL     1     -32.445   7.677   1.917  1.00 20.00    -0.087 C 
HETATM    3  C3  UNL     1     -32.085   7.601   4.395  1.00 20.00     0.068 C 
HETATM    4  C4  UNL     1     -33.447   6.548   1.981  1.00 20.00     0.036 C 
HETATM    5  C5  UNL     1     -33.355   5.711   3.263  1.00 20.00     0.045 C 
HETATM    6  C6  UNL     1     -33.732   6.195   5.833  1.00 20.00     0.153 A 
HETATM    7  C7  UNL     1     -33.200   6.591   4.468  1.00 20.00     0.090 A 
HETATM    8  C8  UNL     1     -32.198   8.267   0.560  1.00 20.00     0.043 C 
HETATM    9  C9  UNL     1     -34.445   4.918   6.097  1.00 20.00     0.042 C 
HETATM   10  O10 UNL     1     -34.437   7.111   4.984  1.00 20.00    -0.369 OA
ENDROOT
TORSDOF 0
