REMARK  0 active torsions:
REMARK  status: ('A' for Active; 'I' for Inactive)
ROOT
HETATM    1  C1  UNL     1     -33.182   5.220   3.231  1.00 20.00     0.050 C 
HETATM    2  C2  UNL     1     -32.648   6.322   2.693  1.00 20.00    -0.014 C 
HETATM    3  C3  UNL     1     -33.873   5.274   4.542  1.00 20.00     0.188 C 
HETATM    4  C4  UNL     1     -32.919   7.573   4.860  1.00 20.00     0.064 C 
HETATM    5  C5  UNL     1     -32.630   7.687   3.343  1.00 20.00    -0.026 C 
HETATM    6  C6  UNL     1     -34.084   6.635   5.191  1.00 20.00     0.164 C 
HETATM    7  C7  UNL     1     -33.663   8.585   2.640  1.00 20.00     0.019 C 
HETATM    8  C8  UNL     1     -31.236   8.317   3.162  1.00 20.00     0.019 C 
HETATM    9  C9  UNL     1     -34.239   6.496   6.703  1.00 20.00     0.060 C 
HETATM   10  O10 UNL     1     -34.316   4.233   5.025  1.00 20.00    -0.290 OA
HETATM   11  F11 UNL     1     -35.240   7.189   4.724  1.00 20.00    -0.235 F 
ENDROOT
TORSDOF 0
