REMARK  1 active torsions:
REMARK  status: ('A' for Active; 'I' for Inactive)
REMARK    1  A    between atoms: C2_2  and  C9_9 
ROOT
HETATM    1  C1  UNL     1     -32.756   7.425   4.188  1.00 20.00     0.057 A 
HETATM    2  C2  UNL     1     -32.932   6.766   3.040  1.00 20.00    -0.069 A 
HETATM    3  C3  UNL     1     -33.547   6.704   5.192  1.00 20.00     0.189 A 
HETATM    4  C4  UNL     1     -33.812   5.553   3.132  1.00 20.00     0.086 A 
HETATM    5  C5  UNL     1     -34.285   5.538   4.586  1.00 20.00     0.167 A 
HETATM    6  C6  UNL     1     -33.986   4.238   5.308  1.00 20.00     0.061 C 
HETATM    7  O10 UNL     1     -33.612   7.050   6.362  1.00 20.00    -0.290 OA
HETATM    8  F11 UNL     1     -35.627   5.757   4.621  1.00 20.00    -0.234 F 
ENDROOT
BRANCH   2   9
HETATM    9  C9  UNL     1     -32.320   7.136   1.733  1.00 20.00     0.006 C 
HETATM   10  C7  UNL     1     -33.403   7.386   0.684  1.00 20.00     0.014 C 
HETATM   11  C8  UNL     1     -31.418   8.363   1.876  1.00 20.00     0.014 C 
ENDBRANCH   2   9
TORSDOF 1
