REMARK  3 active torsions:
REMARK  status: ('A' for Active; 'I' for Inactive)
REMARK    1  A    between atoms: C1_1  and  C5_5 
REMARK    2  A    between atoms: C1_1  and  C6_6 
REMARK    3  A    between atoms: C4_4  and  C5_5 
ROOT
HETATM    1  C1  UNL     1     -33.264   5.776   3.201  1.00 20.00     0.137 C 
HETATM    2  O7  UNL     1     -32.980   4.904   2.380  1.00 20.00    -0.297 OA
ENDROOT
BRANCH   1   3
HETATM    3  C5  UNL     1     -34.375   5.605   4.220  1.00 20.00     0.083 C 
BRANCH   3   4
HETATM    4  C4  UNL     1     -33.900   5.631   5.638  1.00 20.00    -0.008 A 
HETATM    5  C2  UNL     1     -33.819   6.932   6.387  1.00 20.00     0.005 A 
HETATM    6  C3  UNL     1     -34.865   5.917   6.754  1.00 20.00     0.005 A 
ENDBRANCH   3   4
ENDBRANCH   1   3
BRANCH   1   7
HETATM    7  C6  UNL     1     -32.492   7.067   3.254  1.00 20.00     0.163 C 
HETATM    8 BR8  UNL     1     -31.958   7.471   1.440  1.00 20.00    -0.089 Br
ENDBRANCH   1   7
TORSDOF 3
