REMARK  1 active torsions:
REMARK  status: ('A' for Active; 'I' for Inactive)
REMARK    1  A    between atoms: C7_7  and  N8_8 
ROOT
HETATM    1  C1  UNL     1     -33.662   5.723   6.916  1.00 20.00     0.005 C 
HETATM    2  C2  UNL     1     -33.273   6.974   6.115  1.00 20.00     0.007 C 
HETATM    3  C3  UNL     1     -35.534   6.445   5.634  1.00 20.00     0.011 C 
HETATM    4  C4  UNL     1     -34.330   4.555   4.807  1.00 20.00     0.027 C 
HETATM    5  C5  UNL     1     -34.854   5.165   6.122  1.00 20.00    -0.013 C 
HETATM    6  C6  UNL     1     -34.270   6.960   4.939  1.00 20.00     0.006 C 
HETATM    7  C7  UNL     1     -33.979   5.796   3.968  1.00 20.00     0.097 C 
ENDROOT
BRANCH   7   8
HETATM    8  N8  UNL     1     -32.636   5.759   3.413  1.00 20.00    -0.131 NA
HETATM    9 CL9  UNL     1     -32.394   4.371   2.348  1.00 20.00    -0.005 Cl
HETATM   10 CL10 UNL     1     -32.226   7.250   2.561  1.00 20.00    -0.005 Cl
ENDBRANCH   7   8
TORSDOF 1
