REMARK  1 active torsions:
REMARK  status: ('A' for Active; 'I' for Inactive)
REMARK    1  A    between atoms: C3_3  and  C7_7 
ROOT
HETATM    1  C1  UNL     1     -34.211   7.382   6.428  1.00 20.00     0.255 C 
HETATM    2  C2  UNL     1     -34.610   5.419   5.478  1.00 20.00     0.157 C 
HETATM    3  C3  UNL     1     -34.375   6.463   4.403  1.00 20.00     0.164 C 
HETATM    4  C4  UNL     1     -33.948   4.071   5.271  1.00 20.00     0.043 C 
HETATM    5  O8  UNL     1     -34.105   6.048   6.655  1.00 20.00    -0.314 OA
HETATM    6  O9  UNL     1     -34.512   7.682   5.138  1.00 20.00    -0.313 OA
HETATM    7  S10 UNL     1     -33.993   8.519   7.594  1.00 20.00    -0.025 SA
ENDROOT
BRANCH   3   8
HETATM    8  C7  UNL     1     -33.004   6.452   3.738  1.00 20.00     0.010 C 
HETATM    9  C5  UNL     1     -32.913   5.339   2.691  1.00 20.00     0.012 C 
HETATM   10  C6  UNL     1     -32.696   7.807   3.096  1.00 20.00     0.012 C 
ENDBRANCH   3   8
TORSDOF 1
