REMARK  2 active torsions:
REMARK  status: ('A' for Active; 'I' for Inactive)
REMARK    1  A    between atoms: C3_3  and  C4_4 
REMARK    2  A    between atoms: C4_4  and  C5_5 
ROOT
HETATM    1  C1  UNL     1     -32.364   7.905   1.239  1.00 20.00    -0.151 C 
HETATM    2  C2  UNL     1     -32.712   8.342   0.068  1.00 20.00     0.096 C 
HETATM    3  C3  UNL     1     -32.012   7.469   2.412  1.00 20.00     0.103 C 
ENDROOT
BRANCH   3   4
HETATM    4  C4  UNL     1     -32.827   6.453   3.114  1.00 20.00     0.188 C 
HETATM    5  O9  UNL     1     -33.055   5.338   2.667  1.00 20.00    -0.290 OA
BRANCH   4   6
HETATM    6  C5  UNL     1     -33.363   6.863   4.412  1.00 20.00     0.230 A 
HETATM    7  C6  UNL     1     -34.309   5.980   5.201  1.00 20.00     0.088 A 
HETATM    8  C7  UNL     1     -34.443   6.202   6.674  1.00 20.00     0.049 C 
HETATM    9  C8  UNL     1     -34.722   4.636   4.687  1.00 20.00     0.049 C 
HETATM   10  O10 UNL     1     -34.785   7.073   4.406  1.00 20.00    -0.362 OA
ENDBRANCH   4   6
ENDBRANCH   3   4
TORSDOF 2
