REMARK  0 active torsions:
REMARK  status: ('A' for Active; 'I' for Inactive)
ROOT
HETATM    1  C1  UNL     1     -33.534   4.015   5.710  1.00 20.00    -0.028 C 
HETATM    2  C2  UNL     1     -33.019   4.409   4.532  1.00 20.00     0.003 C 
HETATM    3  C3  UNL     1     -33.242   6.797   4.531  1.00 20.00     0.154 C 
HETATM    4  C4  UNL     1     -34.737   4.699   6.315  1.00 20.00     0.032 C 
HETATM    5  C5  UNL     1     -34.257   7.125   5.611  1.00 20.00     0.085 C 
HETATM    6  C6  UNL     1     -35.171   5.594   4.008  1.00 20.00     0.043 C 
HETATM    7  C7  UNL     1     -35.227   5.927   5.505  1.00 20.00    -0.002 C 
HETATM    8  C8  UNL     1     -33.654   5.546   3.782  1.00 20.00     0.115 C 
HETATM    9  O9  UNL     1     -32.222   7.445   4.338  1.00 20.00    -0.295 OA
HETATM   10 CL10 UNL     1     -33.213   5.616   2.091  1.00 20.00    -0.106 Cl
ENDROOT
TORSDOF 0
