REMARK  1 active torsions:
REMARK  status: ('A' for Active; 'I' for Inactive)
REMARK    1  A    between atoms: C3_3  and  C8_8 
ROOT
HETATM    1  C1  UNL     1     -33.704   5.447   4.111  1.00 20.00     0.145 C 
HETATM    2  C4  UNL     1     -32.664   5.922   3.113  1.00 20.00     0.088 C 
HETATM    3  C5  UNL     1     -33.019   7.437   5.453  1.00 20.00     0.028 C 
HETATM    4  C6  UNL     1     -32.592   8.214   4.202  1.00 20.00     0.011 C 
HETATM    5  C7  UNL     1     -34.145   6.451   5.164  1.00 20.00     0.151 C 
HETATM    6  C8  UNL     1     -32.800   7.430   2.895  1.00 20.00     0.014 C 
HETATM    7  O9  UNL     1     -34.157   4.304   4.046  1.00 20.00    -0.296 OA
HETATM    8 CL10 UNL     1     -34.582   5.578   6.651  1.00 20.00    -0.117 Cl
ENDROOT
BRANCH   6   9
HETATM    9  C3  UNL     1     -31.868   7.916   1.830  1.00 20.00    -0.032 C 
HETATM   10  C2  UNL     1     -32.268   8.483   0.687  1.00 20.00     0.007 C 
ENDBRANCH   6   9
TORSDOF 1
