REMARK  1 active torsions:
REMARK  status: ('A' for Active; 'I' for Inactive)
REMARK    1  A    between atoms: C9_9  and  N10_10 
ROOT
HETATM    1  C1  UNL     1     -31.687   7.816   2.805  1.00 20.00     0.004 A 
HETATM    2  C2  UNL     1     -32.379   6.794   2.291  1.00 20.00     0.042 A 
HETATM    3  C3  UNL     1     -31.822   8.179   4.185  1.00 20.00     0.017 A 
HETATM    4  C4  UNL     1     -32.643   7.483   4.977  1.00 20.00     0.093 A 
HETATM    5  C5  UNL     1     -33.319   6.000   3.157  1.00 20.00     0.103 A 
HETATM    6  N10 UNL     1     -33.394   6.396   4.522  1.00 20.00    -0.339 N 
HETATM    7  S11 UNL     1     -34.210   4.729   2.482  1.00 20.00    -0.060 SA
ENDROOT
BRANCH   6   8
HETATM    8  C9  UNL     1     -34.251   5.728   5.484  1.00 20.00     0.027 C 
HETATM    9  C6  UNL     1     -34.116   6.418   6.847  1.00 20.00     0.038 C 
HETATM   10  C7  UNL     1     -35.703   5.810   5.003  1.00 20.00     0.038 C 
HETATM   11  C8  UNL     1     -33.826   4.260   5.608  1.00 20.00     0.038 C 
ENDBRANCH   6   8
TORSDOF 1
