REMARK  1 active torsions:
REMARK  status: ('A' for Active; 'I' for Inactive)
REMARK    1  A    between atoms: C5_5  and  C10_10 
ROOT
HETATM    1  C1  UNL     1     -33.438   6.864   5.259  1.00 20.00     0.166 C 
HETATM    2  C2  UNL     1     -33.098   7.536   3.945  1.00 20.00     0.086 C 
HETATM    3  C3  UNL     1     -33.094   5.252   2.861  1.00 20.00     0.009 C 
HETATM    4  C4  UNL     1     -33.356   4.600   4.218  1.00 20.00     0.052 C 
HETATM    5  C5  UNL     1     -32.339   6.578   3.026  1.00 20.00    -0.004 C 
HETATM    6  C6  UNL     1     -34.115   5.506   5.187  1.00 20.00     0.159 C 
HETATM    7  C7  UNL     1     -35.584   5.676   4.818  1.00 20.00     0.060 C 
HETATM    8  O11 UNL     1     -33.237   7.425   6.336  1.00 20.00    -0.294 OA
HETATM    9  F12 UNL     1     -34.081   4.903   6.414  1.00 20.00    -0.235 F 
ENDROOT
BRANCH   5  10
HETATM   10  C10 UNL     1     -32.086   7.227   1.667  1.00 20.00    -0.018 C 
HETATM   11  C8  UNL     1     -33.407   7.562   0.978  1.00 20.00     0.010 C 
HETATM   12  C9  UNL     1     -31.227   8.480   1.822  1.00 20.00     0.010 C 
ENDBRANCH   5  10
TORSDOF 1
