REMARK  0 active torsions:
REMARK  status: ('A' for Active; 'I' for Inactive)
ROOT
HETATM    1  C1  UNL     1     -32.706   8.334   1.597  1.00 20.00    -0.004 C 
HETATM    2  C2  UNL     1     -34.067   8.310   2.062  1.00 20.00    -0.003 C 
HETATM    3  C3  UNL     1     -31.694   7.972   2.397  1.00 20.00    -0.025 C 
HETATM    4  C4  UNL     1     -34.402   7.734   3.226  1.00 20.00    -0.009 C 
HETATM    5  C5  UNL     1     -33.532   5.570   3.838  1.00 20.00     0.140 C 
HETATM    6  C6  UNL     1     -31.915   7.513   3.813  1.00 20.00     0.048 C 
HETATM    7  C7  UNL     1     -34.694   4.823   4.458  1.00 20.00     0.079 C 
HETATM    8  C8  UNL     1     -34.792   5.103   5.943  1.00 20.00     0.008 C 
HETATM    9  C9  UNL     1     -34.895   6.597   6.208  1.00 20.00     0.006 C 
HETATM   10  C10 UNL     1     -33.663   7.345   5.666  1.00 20.00     0.001 C 
HETATM   11  C11 UNL     1     -33.387   7.079   4.149  1.00 20.00     0.044 C 
HETATM   12  C12 UNL     1     -33.815   8.837   6.010  1.00 20.00     0.011 C 
HETATM   13  O13 UNL     1     -32.812   4.996   3.017  1.00 20.00    -0.297 OA
ENDROOT
TORSDOF 0
