REMARK  1 active torsions:
REMARK  status: ('A' for Active; 'I' for Inactive)
REMARK    1  A    between atoms: C7_7  and  C10_10 
ROOT
HETATM    1  C1  UNL     1     -33.093   7.108   6.217  1.00 20.00     0.011 C 
HETATM    2  C2  UNL     1     -32.435   7.821   5.293  1.00 20.00    -0.020 C 
HETATM    3  C3  UNL     1     -34.272   6.336   5.895  1.00 20.00     0.000 C 
HETATM    4  C4  UNL     1     -34.854   6.449   4.519  1.00 20.00     0.159 C 
HETATM    5  C5  UNL     1     -34.882   5.542   6.786  1.00 20.00     0.027 C 
HETATM    6  C6  UNL     1     -34.363   7.607   3.671  1.00 20.00     0.092 C 
HETATM    7  C7  UNL     1     -32.868   7.907   3.853  1.00 20.00     0.019 C 
HETATM    8  O11 UNL     1     -35.732   5.690   4.114  1.00 20.00    -0.292 OA
ENDROOT
BRANCH   7   9
HETATM    9  C10 UNL     1     -32.004   6.981   2.994  1.00 20.00    -0.015 C 
HETATM   10  C8  UNL     1     -32.469   5.535   3.136  1.00 20.00     0.010 C 
HETATM   11  C9  UNL     1     -32.043   7.420   1.533  1.00 20.00     0.010 C 
ENDBRANCH   7   9
TORSDOF 1
