REMARK  1 active torsions:
REMARK  status: ('A' for Active; 'I' for Inactive)
REMARK    1  A    between atoms: C6_6  and  C7_7 
ROOT
HETATM    1  C1  UNL     1     -33.120   5.279   2.606  1.00 20.00     0.146 C 
HETATM    2  C2  UNL     1     -33.860   4.665   3.800  1.00 20.00     0.091 C 
HETATM    3  C5  UNL     1     -33.228   6.706   3.177  1.00 20.00     0.160 C 
HETATM    4  C7  UNL     1     -34.233   6.123   4.250  1.00 20.00    -0.010 C 
HETATM    5  C8  UNL     1     -35.686   6.461   3.859  1.00 20.00     0.018 C 
HETATM    6  O9  UNL     1     -32.634   4.813   1.597  1.00 20.00    -0.296 OA
HETATM    7 CL10 UNL     1     -31.643   7.385   3.666  1.00 20.00    -0.116 Cl
ENDROOT
BRANCH   4   8
HETATM    8  C6  UNL     1     -33.980   6.453   5.722  1.00 20.00    -0.004 A 
HETATM    9  C3  UNL     1     -35.050   6.384   6.776  1.00 20.00     0.006 A 
HETATM   10  C4  UNL     1     -33.909   5.405   6.799  1.00 20.00     0.006 A 
ENDBRANCH   4   8
TORSDOF 1
