REMARK  0 active torsions:
REMARK  status: ('A' for Active; 'I' for Inactive)
ROOT
HETATM    1  C1  UNL     1     -32.255   7.922   1.923  1.00 20.00     0.100 C 
HETATM    2  C2  UNL     1     -32.725   8.375   4.265  1.00 20.00     0.067 A 
HETATM    3  C3  UNL     1     -32.699   7.473   3.207  1.00 20.00     0.056 A 
HETATM    4  C4  UNL     1     -33.100   6.157   3.413  1.00 20.00    -0.001 A 
HETATM    5  C5  UNL     1     -33.157   7.916   5.498  1.00 20.00     0.129 A 
HETATM    6  C6  UNL     1     -33.516   5.798   4.685  1.00 20.00     0.135 A 
HETATM    7  C7  UNL     1     -33.084   5.165   2.295  1.00 20.00     0.053 C 
HETATM    8  N8  UNL     1     -31.895   8.286   0.882  1.00 20.00    -0.191 NA
HETATM    9  N9  UNL     1     -33.555   6.646   5.736  1.00 20.00    -0.224 NA
HETATM   10 CL10 UNL     1     -33.222   8.957   6.860  1.00 20.00    -0.062 Cl
HETATM   11 CL11 UNL     1     -34.036   4.203   5.069  1.00 20.00    -0.062 Cl
ENDROOT
TORSDOF 0
