REMARK  1 active torsions:
REMARK  status: ('A' for Active; 'I' for Inactive)
REMARK    1  A    between atoms: C6_6  and  C8_8 
ROOT
HETATM    1  C1  UNL     1     -34.602   6.623   6.752  1.00 20.00     0.061 C 
HETATM    2  C2  UNL     1     -34.021   6.192   3.623  1.00 20.00     0.066 C 
HETATM    3  C3  UNL     1     -34.012   7.781   5.960  1.00 20.00     0.170 C 
HETATM    4  C4  UNL     1     -34.887   5.375   5.977  1.00 20.00     0.153 A 
HETATM    5  C5  UNL     1     -34.552   5.129   4.524  1.00 20.00     0.153 A 
HETATM    6  C6  UNL     1     -32.742   6.898   4.094  1.00 20.00     0.123 C 
HETATM    7  O9  UNL     1     -32.750   7.408   5.429  1.00 20.00    -0.386 OA
HETATM    8  O10 UNL     1     -33.696   4.670   5.569  1.00 20.00    -0.375 OA
ENDROOT
BRANCH   6   9
HETATM    9  C8  UNL     1     -32.390   8.050   3.155  1.00 20.00     0.027 C 
HETATM   10  C7  UNL     1     -32.213   7.582   1.748  1.00 20.00     0.007 C 
ENDBRANCH   6   9
TORSDOF 1
