REMARK  1 active torsions:
REMARK  status: ('A' for Active; 'I' for Inactive)
REMARK    1  A    between atoms: C2_2  and  C3_3 
ROOT
HETATM    1  C1  UNL     1     -33.158   5.375   3.354  1.00 20.00    -0.016 C 
HETATM    2  C2  UNL     1     -33.190   6.629   3.812  1.00 20.00    -0.020 C 
HETATM    3  C4  UNL     1     -33.962   4.464   4.221  1.00 20.00     0.032 C 
HETATM    4  C5  UNL     1     -34.012   6.774   5.056  1.00 20.00     0.021 C 
HETATM    5  C6  UNL     1     -34.145   5.298   5.500  1.00 20.00    -0.007 C 
HETATM    6  C7  UNL     1     -33.373   7.632   6.142  1.00 20.00     0.015 C 
HETATM    7  C8  UNL     1     -35.460   5.000   6.208  1.00 20.00     0.011 C 
ENDROOT
BRANCH   2   8
HETATM    8  C3  UNL     1     -32.533   7.719   3.109  1.00 20.00     0.265 C 
HETATM    9  O9  UNL     1     -31.910   7.561   2.060  1.00 20.00    -0.302 OA
ENDBRANCH   2   8
TORSDOF 1
