REMARK  0 active torsions:
REMARK  status: ('A' for Active; 'I' for Inactive)
ROOT
HETATM    1  C1  UNL     1     -34.555   5.192   5.201  1.00 20.00     0.147 A 
HETATM    2  C2  UNL     1     -32.364   6.568   2.404  1.00 20.00     0.168 A 
HETATM    3  C3  UNL     1     -33.752   5.601   4.098  1.00 20.00     0.061 A 
HETATM    4  C4  UNL     1     -33.305   6.871   4.334  1.00 20.00     0.134 A 
HETATM    5  N5  UNL     1     -34.747   6.029   6.224  1.00 20.00    -0.220 NA
HETATM    6  N6  UNL     1     -32.514   7.438   3.382  1.00 20.00    -0.244 NA
HETATM    7  S7  UNL     1     -33.155   5.038   2.572  1.00 20.00    -0.078 SA
HETATM    8  S8  UNL     1     -33.904   7.443   5.869  1.00 20.00     0.032 SA
ENDROOT
TORSDOF 0
