REMARK  0 active torsions:
REMARK  status: ('A' for Active; 'I' for Inactive)
ROOT
HETATM    1  C1  UNL     1     -32.842   6.851   3.434  1.00 20.00     0.136 C 
HETATM    2  C2  UNL     1     -33.014   5.394   3.092  1.00 20.00     0.080 C 
HETATM    3  C3  UNL     1     -33.673   4.845   4.352  1.00 20.00     0.017 C 
HETATM    4  C4  UNL     1     -33.693   6.913   7.033  1.00 20.00     0.002 C 
HETATM    5  C5  UNL     1     -32.777   7.341   5.896  1.00 20.00     0.018 C 
HETATM    6  C6  UNL     1     -34.684   5.914   6.435  1.00 20.00     0.010 C 
HETATM    7  C7  UNL     1     -33.662   7.261   4.647  1.00 20.00     0.024 C 
HETATM    8  C8  UNL     1     -34.536   6.004   4.903  1.00 20.00    -0.029 C 
HETATM    9  C9  UNL     1     -34.422   8.560   4.397  1.00 20.00     0.024 C 
HETATM   10  C10 UNL     1     -35.908   6.004   4.216  1.00 20.00     0.016 C 
HETATM   11  O11 UNL     1     -32.126   7.613   2.795  1.00 20.00    -0.297 OA
ENDROOT
TORSDOF 0
