REMARK  0 active torsions:
REMARK  status: ('A' for Active; 'I' for Inactive)
ROOT
HETATM    1  C1  UNL     1     -33.976   4.022   3.515  1.00 20.00     0.154 A 
HETATM    2  C2  UNL     1     -33.515   5.292   3.266  1.00 20.00     0.005 A 
HETATM    3  C3  UNL     1     -33.901   6.066   4.351  1.00 20.00     0.013 A 
HETATM    4  C4  UNL     1     -34.456   5.236   5.275  1.00 20.00     0.062 A 
HETATM    5  C5  UNL     1     -32.187   7.134   2.575  1.00 20.00     0.143 C 
HETATM    6  C6  UNL     1     -32.694   5.911   2.290  1.00 20.00    -0.027 C 
HETATM    7  C7  UNL     1     -34.737   5.577   6.683  1.00 20.00     0.066 C 
HETATM    8  C8  UNL     1     -34.490   7.103   6.898  1.00 20.00     0.009 C 
HETATM    9  C9  UNL     1     -33.328   7.707   6.049  1.00 20.00     0.038 C 
HETATM   10  C10 UNL     1     -33.556   7.481   4.536  1.00 20.00     0.164 C 
HETATM   11  C11 UNL     1     -32.395   5.137   1.050  1.00 20.00     0.051 C 
HETATM   12  O12 UNL     1     -34.549   3.973   4.774  1.00 20.00    -0.326 OA
HETATM   13  O13 UNL     1     -32.417   7.881   3.732  1.00 20.00    -0.352 OA
ENDROOT
TORSDOF 0
