REMARK  0 active torsions:
REMARK  status: ('A' for Active; 'I' for Inactive)
ROOT
HETATM    1  C1  UNL     1     -32.960   6.163   3.089  1.00 20.00     0.218 C 
HETATM    2  C2  UNL     1     -33.148   4.662   3.158  1.00 20.00     0.105 C 
HETATM    3  C3  UNL     1     -34.094   4.432   4.345  1.00 20.00     0.040 C 
HETATM    4  C4  UNL     1     -35.067   6.036   6.151  1.00 20.00     0.033 A 
HETATM    5  C5  UNL     1     -33.687   5.662   6.608  1.00 20.00     0.033 A 
HETATM    6  C6  UNL     1     -34.005   5.707   5.136  1.00 20.00     0.033 A 
HETATM    7  N7  UNL     1     -33.439   6.693   4.277  1.00 20.00    -0.352 N 
HETATM    8  O8  UNL     1     -32.442   6.767   2.163  1.00 20.00    -0.274 OA
HETATM    9  H17 UNL     1     -33.391   7.678   4.511  1.00 20.00     0.163 HD
ENDROOT
TORSDOF 0
