REMARK  1 active torsions:
REMARK  status: ('A' for Active; 'I' for Inactive)
REMARK    1  A    between atoms: C6_6  and  C10_10 
ROOT
HETATM    1  C1  UNL     1     -35.189   6.418   4.702  1.00 20.00     0.014 C 
HETATM    2  C2  UNL     1     -34.631   7.111   3.448  1.00 20.00     0.039 C 
HETATM    3  C3  UNL     1     -33.038   5.502   4.242  1.00 20.00     0.049 C 
HETATM    4  C4  UNL     1     -33.129   7.156   5.891  1.00 20.00     0.177 C 
HETATM    5  C5  UNL     1     -33.912   5.928   5.416  1.00 20.00    -0.020 C 
HETATM    6  C6  UNL     1     -33.119   6.884   3.605  1.00 20.00     0.064 C 
HETATM    7  C7  UNL     1     -34.157   4.885   6.481  1.00 20.00     0.017 C 
HETATM    8  O11 UNL     1     -32.672   7.768   4.662  1.00 20.00    -0.379 OA
ENDROOT
BRANCH   6   9
HETATM    9  C10 UNL     1     -32.310   7.090   2.348  1.00 20.00     0.012 C 
HETATM   10  C8  UNL     1     -32.736   6.110   1.248  1.00 20.00     0.012 C 
HETATM   11  C9  UNL     1     -32.433   8.531   1.839  1.00 20.00     0.012 C 
ENDBRANCH   6   9
TORSDOF 1
