REMARK  1 active torsions:
REMARK  status: ('A' for Active; 'I' for Inactive)
REMARK    1  A    between atoms: C4_4  and  C7_7 
ROOT
HETATM    1  C1  UNL     1     -32.382   8.002   1.354  1.00 20.00     0.075 C 
HETATM    2  C2  UNL     1     -32.915   5.778   2.273  1.00 20.00     0.105 C 
HETATM    3  C3  UNL     1     -32.089   7.047   2.429  1.00 20.00     0.164 C 
HETATM    4  C4  UNL     1     -32.854   6.208   4.931  1.00 20.00     0.113 C 
HETATM    5  N8  UNL     1     -32.614   8.757   0.504  1.00 20.00    -0.196 NA
HETATM    6  S9  UNL     1     -32.685   4.809   3.783  1.00 20.00    -0.151 SA
HETATM    7  S10 UNL     1     -32.463   7.764   4.063  1.00 20.00    -0.133 SA
ENDROOT
BRANCH   4   8
HETATM    8  C7  UNL     1     -34.275   6.269   5.476  1.00 20.00     0.001 C 
HETATM    9  C5  UNL     1     -34.435   7.445   6.440  1.00 20.00     0.011 C 
HETATM   10  C6  UNL     1     -35.288   6.373   4.336  1.00 20.00     0.011 C 
ENDBRANCH   4   8
TORSDOF 1
