REMARK  1 active torsions:
REMARK  status: ('A' for Active; 'I' for Inactive)
REMARK    1  A    between atoms: C7_7  and  C11_11 
ROOT
HETATM    1  C1  UNL     1     -33.492   7.078   6.335  1.00 20.00    -0.021 C 
HETATM    2  C2  UNL     1     -33.069   7.175   5.059  1.00 20.00    -0.053 C 
HETATM    3  C3  UNL     1     -34.537   6.074   6.752  1.00 20.00     0.034 C 
HETATM    4  C4  UNL     1     -33.967   4.857   4.656  1.00 20.00     0.050 C 
HETATM    5  C5  UNL     1     -35.914   6.145   4.603  1.00 20.00     0.174 C 
HETATM    6  C6  UNL     1     -35.109   5.268   5.566  1.00 20.00     0.016 C 
HETATM    7  C7  UNL     1     -33.656   6.219   4.022  1.00 20.00     0.087 C 
HETATM    8  C8  UNL     1     -32.098   8.234   4.634  1.00 20.00     0.046 C 
HETATM    9  O12 UNL     1     -34.966   6.743   3.690  1.00 20.00    -0.375 OA
ENDROOT
BRANCH   7  10
HETATM   10  C11 UNL     1     -32.840   6.059   2.745  1.00 20.00     0.016 C 
HETATM   11  C9  UNL     1     -33.006   4.652   2.171  1.00 20.00     0.013 C 
HETATM   12  C10 UNL     1     -33.243   7.109   1.712  1.00 20.00     0.013 C 
ENDBRANCH   7  10
TORSDOF 1
