REMARK  1 active torsions:
REMARK  status: ('A' for Active; 'I' for Inactive)
REMARK    1  A    between atoms: C2_2  and  C4_4 
ROOT
HETATM    1  C1  UNL     1     -34.185   4.993   5.073  1.00 20.00     0.171 A 
HETATM    2  C2  UNL     1     -34.225   6.497   5.266  1.00 20.00     0.175 A 
HETATM    3  C3  UNL     1     -33.736   4.346   3.812  1.00 20.00     0.044 C 
HETATM    4  O5  UNL     1     -35.406   5.735   4.965  1.00 20.00    -0.352 OA
HETATM    5 CL6  UNL     1     -34.038   7.098   6.917  1.00 20.00    -0.084 Cl
ENDROOT
BRANCH   2   6
HETATM    6  C4  UNL     1     -33.823   7.445   4.185  1.00 20.00     0.172 C 
HETATM    7 CL7  UNL     1     -32.048   7.609   4.100  1.00 20.00    -0.126 Cl
ENDBRANCH   2   6
TORSDOF 1
