REMARK  1 active torsions:
REMARK  status: ('A' for Active; 'I' for Inactive)
REMARK    1  A    between atoms: C5_5  and  N7_7 
ROOT
HETATM    1  C1  UNL     1     -32.426   7.847   2.698  1.00 20.00     0.332 C 
HETATM    2  N7  UNL     1     -32.500   7.203   3.674  1.00 20.00    -0.241 NA
HETATM    3  O8  UNL     1     -32.345   8.491   1.716  1.00 20.00    -0.260 OA
ENDROOT
BRANCH   2   4
HETATM    4  C5  UNL     1     -33.733   7.418   4.444  1.00 20.00     0.126 C 
HETATM    5  C3  UNL     1     -34.794   6.417   3.985  1.00 20.00     0.029 C 
HETATM    6  C2  UNL     1     -34.640   5.240   4.939  1.00 20.00     0.003 C 
HETATM    7  C4  UNL     1     -34.373   5.918   6.274  1.00 20.00     0.018 C 
HETATM    8  C6  UNL     1     -33.467   7.094   5.918  1.00 20.00     0.083 C 
HETATM    9 BR9  UNL     1     -33.870   8.623   7.053  1.00 20.00    -0.089 Br
ENDBRANCH   2   4
TORSDOF 1
