REMARK  5 active torsions:
REMARK  status: ('A' for Active; 'I' for Inactive)
REMARK    1  A    between atoms: C2_2  and  C6_6 
REMARK    2  A    between atoms: C2_2  and  C8_8 
REMARK    3  A    between atoms: C6_6  and  O11_11 
REMARK    4  A    between atoms: C7_7  and  O10_10 
REMARK    5  A    between atoms: C7_7  and  O11_11 
ROOT
HETATM    1  C1  UNL     1     -33.097   6.890   6.494  1.00 20.00     0.209 A 
HETATM    2  C2  UNL     1     -33.900   6.938   5.216  1.00 20.00     0.106 A 
HETATM    3  O9  UNL     1     -34.323   7.631   6.398  1.00 20.00    -0.372 OA
ENDROOT
BRANCH   2   4
HETATM    4  C6  UNL     1     -33.467   7.844   4.109  1.00 20.00     0.211 C 
BRANCH   4   5
HETATM    5  O11 UNL     1     -32.397   7.242   3.384  1.00 20.00    -0.364 OA
BRANCH   5   6
HETATM    6  C7  UNL     1     -31.945   8.068   2.313  1.00 20.00     0.337 C 
BRANCH   6   7
HETATM    7  O10 UNL     1     -32.779   8.031   1.155  1.00 20.00    -0.372 OA
HETATM    8  C5  UNL     1     -32.322   8.908   0.134  1.00 20.00     0.204 C 
ENDBRANCH   6   7
ENDBRANCH   5   6
ENDBRANCH   4   5
ENDBRANCH   2   4
BRANCH   2   9
HETATM    9  C8  UNL     1     -34.792   5.756   4.843  1.00 20.00     0.016 C 
HETATM   10  C3  UNL     1     -33.982   4.677   4.128  1.00 20.00     0.012 C 
HETATM   11  C4  UNL     1     -35.472   5.185   6.084  1.00 20.00     0.012 C 
ENDBRANCH   2   9
TORSDOF 5
