REMARK  3 active torsions:
REMARK  status: ('A' for Active; 'I' for Inactive)
REMARK    1  A    between atoms: C2_2  and  C6_6 
REMARK    2  A    between atoms: C3_3  and  C7_7 
REMARK    3  A    between atoms: C7_7  and  C8_8 
ROOT
HETATM    1  C1  UNL     1     -32.877   5.770   2.957  1.00 20.00     0.100 C 
HETATM    2  C2  UNL     1     -32.646   8.318   2.895  1.00 20.00     0.172 A 
HETATM    3  C3  UNL     1     -33.060   7.040   3.595  1.00 20.00     0.175 A 
HETATM    4  N9  UNL     1     -32.729   4.742   2.441  1.00 20.00    -0.194 NA
HETATM    5  O10 UNL     1     -31.820   7.705   3.890  1.00 20.00    -0.353 OA
ENDROOT
BRANCH   3   6
HETATM    6  C7  UNL     1     -34.052   7.109   4.712  1.00 20.00     0.056 C 
BRANCH   6   7
HETATM    7  C8  UNL     1     -33.633   6.255   5.919  1.00 20.00    -0.000 C 
HETATM    8  C5  UNL     1     -34.624   6.352   7.068  1.00 20.00     0.005 C 
ENDBRANCH   6   7
ENDBRANCH   3   6
BRANCH   2   9
HETATM    9  C6  UNL     1     -32.049   8.349   1.532  1.00 20.00     0.032 C 
HETATM   10  C4  UNL     1     -33.082   8.300   0.433  1.00 20.00     0.007 C 
ENDBRANCH   2   9
TORSDOF 3
