REMARK  1 active torsions:
REMARK  status: ('A' for Active; 'I' for Inactive)
REMARK    1  A    between atoms: C3_3  and  C9_9 
ROOT
HETATM    1  C1  UNL     1     -33.974   6.627   5.456  1.00 20.00     0.178 C 
HETATM    2  C2  UNL     1     -34.209   4.502   4.077  1.00 20.00     0.087 C 
HETATM    3  C3  UNL     1     -32.629   6.663   3.495  1.00 20.00     0.185 C 
HETATM    4  C4  UNL     1     -34.922   5.483   5.034  1.00 20.00    -0.018 C 
HETATM    5  C5  UNL     1     -35.351   4.709   6.295  1.00 20.00     0.018 C 
HETATM    6  C6  UNL     1     -36.187   6.066   4.372  1.00 20.00     0.018 C 
HETATM    7  O10 UNL     1     -33.517   7.393   4.343  1.00 20.00    -0.374 OA
HETATM    8  S11 UNL     1     -33.459   5.299   2.625  1.00 20.00    -0.136 SA
ENDROOT
BRANCH   3   9
HETATM    9  C9  UNL     1     -32.073   7.638   2.466  1.00 20.00     0.017 C 
HETATM   10  C7  UNL     1     -33.198   8.224   1.612  1.00 20.00     0.013 C 
HETATM   11  C8  UNL     1     -31.285   8.755   3.149  1.00 20.00     0.013 C 
ENDBRANCH   3   9
TORSDOF 1
