REMARK  2 active torsions:
REMARK  status: ('A' for Active; 'I' for Inactive)
REMARK    1  A    between atoms: C1_1  and  C4_4 
REMARK    2  A    between atoms: C1_1  and  C5_5 
ROOT
HETATM    1  C1  UNL     1     -33.178   6.069   3.550  1.00 20.00     0.163 C 
HETATM    2  O6  UNL     1     -32.804   5.174   2.788  1.00 20.00    -0.295 OA
ENDROOT
BRANCH   1   3
HETATM    3  C4  UNL     1     -32.687   7.498   3.402  1.00 20.00     0.194 C 
HETATM    4 CL7  UNL     1     -32.363   7.871   1.699  1.00 20.00    -0.122 Cl
ENDBRANCH   1   3
BRANCH   1   5
HETATM    5  C5  UNL     1     -34.151   5.766   4.701  1.00 20.00     0.091 C 
HETATM    6  C2  UNL     1     -33.984   4.324   5.190  1.00 20.00     0.041 C 
HETATM    7  C3  UNL     1     -35.609   6.011   4.313  1.00 20.00     0.041 C 
HETATM    8 CL8  UNL     1     -33.694   6.873   6.036  1.00 20.00    -0.112 Cl
ENDBRANCH   1   5
TORSDOF 2
