REMARK  1 active torsions:
REMARK  status: ('A' for Active; 'I' for Inactive)
REMARK    1  A    between atoms: C6_6  and  C11_11 
ROOT
HETATM    1  C1  UNL     1     -34.306   5.046   5.602  1.00 20.00     0.136 A 
HETATM    2  C2  UNL     1     -33.411   4.253   4.642  1.00 20.00     0.085 A 
HETATM    3  C3  UNL     1     -32.739   7.333   4.250  1.00 20.00     0.006 C 
HETATM    4  C4  UNL     1     -34.214   7.450   4.623  1.00 20.00     0.018 C 
HETATM    5  C5  UNL     1     -33.785   5.272   3.528  1.00 20.00     0.012 A 
HETATM    6  C6  UNL     1     -32.707   6.290   3.129  1.00 20.00    -0.006 C 
HETATM    7  C7  UNL     1     -34.759   6.025   4.490  1.00 20.00     0.021 A 
HETATM    8  C8  UNL     1     -36.241   5.963   4.168  1.00 20.00     0.024 C 
HETATM    9  O12 UNL     1     -34.555   4.944   6.785  1.00 20.00    -0.297 OA
ENDROOT
BRANCH   6  10
HETATM   10  C11 UNL     1     -33.034   6.899   1.767  1.00 20.00    -0.018 C 
HETATM   11  C9  UNL     1     -32.046   8.012   1.426  1.00 20.00     0.010 C 
HETATM   12  C10 UNL     1     -33.026   5.823   0.683  1.00 20.00     0.010 C 
ENDBRANCH   6  10
TORSDOF 1
