REMARK  1 active torsions:
REMARK  status: ('A' for Active; 'I' for Inactive)
REMARK    1  A    between atoms: C4_4  and  C10_10 
ROOT
HETATM    1  C1  UNL     1     -33.970   6.885   6.221  1.00 20.00    -0.003 C 
HETATM    2  C2  UNL     1     -33.464   7.427   4.981  1.00 20.00     0.011 C 
HETATM    3  C3  UNL     1     -34.251   5.618   6.552  1.00 20.00    -0.026 C 
HETATM    4  C4  UNL     1     -33.168   6.839   3.810  1.00 20.00    -0.009 C 
HETATM    5  C5  UNL     1     -33.404   5.393   3.516  1.00 20.00     0.156 C 
HETATM    6  C6  UNL     1     -34.207   4.404   5.680  1.00 20.00     0.035 C 
HETATM    7  C7  UNL     1     -34.528   4.677   4.222  1.00 20.00     0.087 C 
HETATM    8  O11 UNL     1     -32.722   4.813   2.670  1.00 20.00    -0.293 OA
ENDROOT
BRANCH   4   9
HETATM    9  C10 UNL     1     -32.545   7.620   2.685  1.00 20.00     0.014 C 
HETATM   10  C8  UNL     1     -33.477   8.742   2.246  1.00 20.00     0.015 C 
HETATM   11  C9  UNL     1     -31.184   8.167   3.101  1.00 20.00     0.015 C 
ENDBRANCH   4   9
TORSDOF 1
