REMARK  1 active torsions:
REMARK  status: ('A' for Active; 'I' for Inactive)
REMARK    1  A    between atoms: C7_7  and  C10_10 
ROOT
HETATM    1  C1  UNL     1     -35.369   4.925   3.862  1.00 20.00    -0.017 C 
HETATM    2  C2  UNL     1     -35.391   6.174   4.368  1.00 20.00    -0.019 C 
HETATM    3  C3  UNL     1     -33.039   4.938   2.838  1.00 20.00     0.135 C 
HETATM    4  C4  UNL     1     -32.707   6.408   2.709  1.00 20.00     0.080 C 
HETATM    5  C5  UNL     1     -32.905   6.967   4.127  1.00 20.00     0.022 C 
HETATM    6  C6  UNL     1     -33.889   4.736   4.131  1.00 20.00     0.090 C 
HETATM    7  C7  UNL     1     -33.951   6.104   4.863  1.00 20.00    -0.006 C 
HETATM    8  O11 UNL     1     -32.711   4.100   2.006  1.00 20.00    -0.297 OA
ENDROOT
BRANCH   7   9
HETATM    9  C10 UNL     1     -33.788   6.110   6.374  1.00 20.00    -0.009 C 
HETATM   10  C8  UNL     1     -33.620   7.537   6.898  1.00 20.00     0.011 C 
HETATM   11  C9  UNL     1     -34.979   5.431   7.052  1.00 20.00     0.011 C 
ENDBRANCH   7   9
TORSDOF 1
