REMARK  0 active torsions:
REMARK  status: ('A' for Active; 'I' for Inactive)
ROOT
HETATM    1  C1  UNL     1     -33.912   5.257   6.476  1.00 20.00    -0.029 C 
HETATM    2  C2  UNL     1     -32.980   5.428   5.533  1.00 20.00    -0.013 C 
HETATM    3  C3  UNL     1     -33.095   5.708   3.063  1.00 20.00     0.139 C 
HETATM    4  C4  UNL     1     -35.176   5.976   6.141  1.00 20.00     0.032 C 
HETATM    5  C5  UNL     1     -32.402   6.718   2.183  1.00 20.00     0.079 C 
HETATM    6  C6  UNL     1     -32.678   8.029   2.907  1.00 20.00     0.009 C 
HETATM    7  C7  UNL     1     -32.758   7.653   4.382  1.00 20.00     0.022 C 
HETATM    8  C8  UNL     1     -35.004   6.270   4.641  1.00 20.00     0.004 C 
HETATM    9  C9  UNL     1     -33.473   6.297   4.415  1.00 20.00     0.041 C 
HETATM   10  C10 UNL     1     -35.805   7.488   4.201  1.00 20.00     0.011 C 
HETATM   11  O11 UNL     1     -33.296   4.549   2.722  1.00 20.00    -0.297 OA
ENDROOT
TORSDOF 0
