REMARK  0 active torsions:
REMARK  status: ('A' for Active; 'I' for Inactive)
ROOT
HETATM    1  C1  UNL     1     -33.564   6.628   4.828  1.00 20.00     0.076 A 
HETATM    2  C2  UNL     1     -33.855   5.356   4.423  1.00 20.00     0.123 A 
HETATM    3  C3  UNL     1     -32.449   6.635   2.995  1.00 20.00     0.073 A 
HETATM    4  C4  UNL     1     -34.894   5.479   6.220  1.00 20.00     0.097 A 
HETATM    5  C5  UNL     1     -34.235   6.877   6.105  1.00 20.00     0.109 A 
HETATM    6  C6  UNL     1     -31.585   7.074   1.877  1.00 20.00     0.079 C 
HETATM    7  N7  UNL     1     -32.765   7.387   4.038  1.00 20.00    -0.248 NA
HETATM    8  N8  UNL     1     -34.658   4.636   5.245  1.00 20.00    -0.255 NA
HETATM    9  S9  UNL     1     -33.106   5.023   2.956  1.00 20.00    -0.053 SA
ENDROOT
TORSDOF 0
