REMARK  1 active torsions:
REMARK  status: ('A' for Active; 'I' for Inactive)
REMARK    1  A    between atoms: C8_8  and  C11_11 
ROOT
HETATM    1  C1  UNL     1     -33.371   7.595   3.194  1.00 20.00    -0.079 C 
HETATM    2  C2  UNL     1     -34.134   4.388   3.976  1.00 20.00     0.132 C 
HETATM    3  C3  UNL     1     -33.493   8.821   2.688  1.00 20.00     0.015 C 
HETATM    4  C4  UNL     1     -32.422   6.389   2.920  1.00 20.00     0.047 C 
HETATM    5  C5  UNL     1     -35.411   4.794   4.718  1.00 20.00     0.080 C 
HETATM    6  C6  UNL     1     -35.526   6.332   4.413  1.00 20.00     0.022 C 
HETATM    7  C7  UNL     1     -33.712   5.644   3.229  1.00 20.00     0.072 C 
HETATM    8  C8  UNL     1     -34.074   6.799   4.279  1.00 20.00    -0.004 C 
HETATM    9  O12 UNL     1     -33.624   3.280   4.011  1.00 20.00    -0.298 OA
ENDROOT
BRANCH   8  10
HETATM   10  C11 UNL     1     -33.402   6.949   5.651  1.00 20.00    -0.009 C 
HETATM   11  C9  UNL     1     -32.172   7.842   5.543  1.00 20.00     0.011 C 
HETATM   12  C10 UNL     1     -34.393   7.507   6.666  1.00 20.00     0.011 C 
ENDBRANCH   8  10
TORSDOF 1
