REMARK  1 active torsions:
REMARK  status: ('A' for Active; 'I' for Inactive)
REMARK    1  A    between atoms: C6_6  and  C9_9 
ROOT
HETATM    1  C1  UNL     1     -35.475   6.375   3.376  1.00 20.00     0.302 C 
HETATM    2  C2  UNL     1     -34.709   7.627   3.829  1.00 20.00     0.303 C 
HETATM    3  C3  UNL     1     -33.412   5.327   2.781  1.00 20.00     0.307 C 
HETATM    4  C4  UNL     1     -34.308   5.068   5.000  1.00 20.00     0.308 C 
HETATM    5  C5  UNL     1     -32.612   6.562   3.260  1.00 20.00     0.247 C 
HETATM    6  C6  UNL     1     -33.502   6.306   5.459  1.00 20.00     0.251 C 
HETATM    7  C7  UNL     1     -32.219   7.479   2.099  1.00 20.00     0.045 C 
HETATM    8  N10 UNL     1     -34.657   5.157   3.563  1.00 20.00     0.094 N 
HETATM    9  N11 UNL     1     -33.361   7.277   4.334  1.00 20.00     0.102 N 
ENDROOT
BRANCH   6  10
HETATM   10  C9  UNL     1     -34.092   6.941   6.721  1.00 20.00     0.033 C 
HETATM   11  C8  UNL     1     -33.273   8.099   7.186  1.00 20.00     0.007 C 
ENDBRANCH   6  10
TORSDOF 1
