REMARK  1 active torsions:
REMARK  status: ('A' for Active; 'I' for Inactive)
REMARK    1  A    between atoms: C7_7  and  C11_11 
ROOT
HETATM    1  C1  UNL     1     -33.674   6.978   6.076  1.00 20.00    -0.023 C 
HETATM    2  C2  UNL     1     -33.086   7.177   4.885  1.00 20.00     0.007 C 
HETATM    3  C3  UNL     1     -33.897   4.940   4.111  1.00 20.00     0.050 C 
HETATM    4  C4  UNL     1     -35.827   6.237   3.932  1.00 20.00     0.174 C 
HETATM    5  C5  UNL     1     -34.776   5.952   6.250  1.00 20.00     0.010 C 
HETATM    6  C6  UNL     1     -35.154   5.259   4.905  1.00 20.00     0.020 C 
HETATM    7  C7  UNL     1     -33.516   6.360   3.687  1.00 20.00     0.082 C 
HETATM    8  C8  UNL     1     -34.359   4.920   7.301  1.00 20.00     0.015 C 
HETATM    9  O12 UNL     1     -34.765   6.927   3.233  1.00 20.00    -0.375 OA
ENDROOT
BRANCH   7  10
HETATM   10  C11 UNL     1     -32.493   6.387   2.563  1.00 20.00     0.016 C 
HETATM   11  C9  UNL     1     -32.952   5.521   1.389  1.00 20.00     0.013 C 
HETATM   12  C10 UNL     1     -32.236   7.821   2.096  1.00 20.00     0.013 C 
ENDBRANCH   7  10
TORSDOF 1
