REMARK  5 active torsions:
REMARK  status: ('A' for Active; 'I' for Inactive)
REMARK    1  A    between atoms: C1_1  and  C3_3 
REMARK    2  A    between atoms: C2_2  and  C5_5 
REMARK    3  A    between atoms: C3_3  and  C8_8 
REMARK    4  A    between atoms: C5_5  and  C7_7 
REMARK    5  A    between atoms: C6_6  and  C7_7 
ROOT
HETATM    1  C1  UNL     1     -32.748   7.337   4.396  1.00 20.00    -0.023 C 
HETATM    2  C2  UNL     1     -32.065   7.840   3.546  1.00 20.00    -0.098 C 
ENDROOT
BRANCH   1   3
HETATM    3  C3  UNL     1     -33.570   6.726   5.412  1.00 20.00     0.266 C 
HETATM    4  O9  UNL     1     -33.560   7.172   6.552  1.00 20.00    -0.277 OA
BRANCH   3   5
HETATM    5  C8  UNL     1     -34.441   5.589   4.971  1.00 20.00     0.435 C 
HETATM    6  F10 UNL     1     -33.883   4.912   3.933  1.00 20.00    -0.205 F 
HETATM    7  F11 UNL     1     -35.658   6.016   4.542  1.00 20.00    -0.205 F 
ENDBRANCH   3   5
ENDBRANCH   1   3
BRANCH   2   8
HETATM    8  C5  UNL     1     -31.229   8.449   2.503  1.00 20.00     0.094 C 
BRANCH   8   9
HETATM    9  C7  UNL     1     -31.580   7.936   1.105  1.00 20.00     0.012 C 
BRANCH   9  10
HETATM   10  C6  UNL     1     -33.027   8.238   0.706  1.00 20.00    -0.004 C 
HETATM   11  C4  UNL     1     -33.303   9.734   0.711  1.00 20.00     0.005 C 
ENDBRANCH   9  10
ENDBRANCH   8   9
ENDBRANCH   2   8
TORSDOF 5
