REMARK  0 active torsions:
REMARK  status: ('A' for Active; 'I' for Inactive)
ROOT
HETATM    1  C1  UNL     1     -34.699   6.589   7.046  1.00 20.00    -0.025 A 
HETATM    2  C2  UNL     1     -34.077   7.619   6.445  1.00 20.00    -0.020 A 
HETATM    3  C3  UNL     1     -34.717   4.806   5.147  1.00 20.00     0.014 C 
HETATM    4  C4  UNL     1     -34.876   5.834   4.030  1.00 20.00     0.070 C 
HETATM    5  C5  UNL     1     -32.529   8.085   2.714  1.00 20.00     0.197 C 
HETATM    6  C6  UNL     1     -32.204   6.686   2.270  1.00 20.00     0.197 C 
HETATM    7  C7  UNL     1     -33.948   5.538   6.250  1.00 20.00     0.021 A 
HETATM    8  C8  UNL     1     -33.219   6.724   5.566  1.00 20.00     0.078 A 
HETATM    9  C9  UNL     1     -33.568   6.619   4.078  1.00 20.00     0.171 C 
HETATM   10  O10 UNL     1     -33.714   7.915   3.490  1.00 20.00    -0.352 OA
HETATM   11  O11 UNL     1     -32.528   5.888   3.409  1.00 20.00    -0.352 OA
ENDROOT
TORSDOF 0
