REMARK  1 active torsions:
REMARK  status: ('A' for Active; 'I' for Inactive)
REMARK    1  A    between atoms: C7_7  and  C10_10 
ROOT
HETATM    1  C1  UNL     1     -33.916   5.384   6.819  1.00 20.00    -0.004 C 
HETATM    2  C2  UNL     1     -33.825   6.824   6.756  1.00 20.00    -0.004 C 
HETATM    3  C3  UNL     1     -34.459   4.558   5.913  1.00 20.00    -0.019 C 
HETATM    4  C4  UNL     1     -33.893   7.643   5.695  1.00 20.00    -0.014 C 
HETATM    5  C5  UNL     1     -34.016   5.853   3.905  1.00 20.00     0.138 C 
HETATM    6  C6  UNL     1     -35.022   4.958   4.592  1.00 20.00     0.106 C 
HETATM    7  C7  UNL     1     -34.087   7.344   4.232  1.00 20.00     0.081 C 
HETATM    8  O11 UNL     1     -33.169   5.379   3.146  1.00 20.00    -0.297 OA
ENDROOT
BRANCH   7   9
HETATM    9  C10 UNL     1     -33.069   8.124   3.397  1.00 20.00    -0.008 C 
HETATM   10  C8  UNL     1     -31.647   7.761   3.816  1.00 20.00     0.010 C 
HETATM   11  C9  UNL     1     -33.279   7.856   1.910  1.00 20.00     0.010 C 
ENDBRANCH   7   9
TORSDOF 1
