REMARK  1 active torsions:
REMARK  status: ('A' for Active; 'I' for Inactive)
REMARK    1  A    between atoms: C3_3  and  C7_7 
ROOT
HETATM    1  C1  UNL     1     -31.912   6.324   2.823  1.00 20.00     0.089 C 
HETATM    2  C2  UNL     1     -32.650   5.068   2.380  1.00 20.00     0.053 C 
HETATM    3  C3  UNL     1     -34.123   6.247   4.381  1.00 20.00     0.112 C 
HETATM    4  C4  UNL     1     -33.444   5.246   1.087  1.00 20.00     0.022 C 
HETATM    5  S8  UNL     1     -33.110   7.489   3.522  1.00 20.00    -0.152 SA
HETATM    6  S9  UNL     1     -33.760   4.578   3.740  1.00 20.00    -0.148 SA
ENDROOT
BRANCH   3   7
HETATM    7  C7  UNL     1     -33.840   6.290   5.877  1.00 20.00     0.001 C 
HETATM    8  C5  UNL     1     -34.153   7.674   6.446  1.00 20.00     0.011 C 
HETATM    9  C6  UNL     1     -34.643   5.217   6.611  1.00 20.00     0.011 C 
ENDBRANCH   3   7
TORSDOF 1
