REMARK  0 active torsions:
REMARK  status: ('A' for Active; 'I' for Inactive)
ROOT
HETATM    1  C1  UNL     1     -34.153   4.323   4.911  1.00 20.00     0.088 C 
HETATM    2  C2  UNL     1     -33.139   5.982   3.488  1.00 20.00    -0.041 C 
HETATM    3  C3  UNL     1     -33.028   6.986   4.549  1.00 20.00    -0.050 C 
HETATM    4  C4  UNL     1     -33.658   4.754   3.656  1.00 20.00     0.101 C 
HETATM    5  C5  UNL     1     -33.802   7.028   5.646  1.00 20.00    -0.081 C 
HETATM    6  C6  UNL     1     -32.599   6.405   2.135  1.00 20.00     0.044 C 
HETATM    7  C7  UNL     1     -31.990   8.050   4.292  1.00 20.00     0.040 C 
HETATM    8  C8  UNL     1     -32.222   8.782   2.965  1.00 20.00     0.009 C 
HETATM    9  C9  UNL     1     -32.854   7.898   1.871  1.00 20.00    -0.014 C 
HETATM   10  C10 UNL     1     -33.633   8.087   6.694  1.00 20.00     0.043 C 
HETATM   11  C11 UNL     1     -34.882   6.017   5.892  1.00 20.00     0.043 C 
HETATM   12  C12 UNL     1     -32.360   8.307   0.485  1.00 20.00     0.010 C 
HETATM   13  N13 UNL     1     -34.561   3.962   5.936  1.00 20.00    -0.192 NA
ENDROOT
TORSDOF 0
