REMARK  1 active torsions:
REMARK  status: ('A' for Active; 'I' for Inactive)
REMARK    1  A    between atoms: C2_2  and  C7_7 
ROOT
HETATM    1  C3  UNL     1     -35.052   5.989   4.271  1.00 20.00     0.034 C 
HETATM    2  C4  UNL     1     -33.982   7.426   6.059  1.00 20.00     0.034 C 
HETATM    3  C5  UNL     1     -34.601   4.783   5.089  1.00 20.00     0.168 C 
HETATM    4  C6  UNL     1     -33.600   6.125   6.757  1.00 20.00     0.168 C 
HETATM    5  C7  UNL     1     -34.228   7.237   4.567  1.00 20.00     0.011 C 
HETATM    6  O8  UNL     1     -34.553   5.101   6.478  1.00 20.00    -0.391 OA
ENDROOT
BRANCH   5   7
HETATM    7  C2  UNL     1     -32.890   7.138   3.852  1.00 20.00    -0.032 C 
HETATM    8  C1  UNL     1     -32.475   8.000   2.918  1.00 20.00     0.007 C 
ENDBRANCH   5   7
TORSDOF 1
