REMARK  3 active torsions:
REMARK  status: ('A' for Active; 'I' for Inactive)
REMARK    1  A    between atoms: C1_1  and  C4_4 
REMARK    2  A    between atoms: C4_4  and  C5_5 
REMARK    3  A    between atoms: C5_5  and  C6_6 
ROOT
HETATM    1  C5  UNL     1     -34.680   5.370   3.760  1.00 20.00     0.035 C 
ENDROOT
BRANCH   1   2
HETATM    2  C4  UNL     1     -35.147   6.421   4.770  1.00 20.00     0.115 C 
BRANCH   2   3
HETATM    3  C1  UNL     1     -34.652   6.204   6.206  1.00 20.00     0.172 C 
HETATM    4  O7  UNL     1     -35.019   5.143   6.780  1.00 20.00    -0.648 OA
HETATM    5  O8  UNL     1     -33.922   7.140   6.645  1.00 20.00    -0.648 OA
ENDBRANCH   2   3
ENDBRANCH   1   2
BRANCH   1   6
HETATM    6  C6  UNL     1     -33.153   5.294   3.525  1.00 20.00     0.030 C 
HETATM    7  C2  UNL     1     -32.514   4.430   4.621  1.00 20.00     0.032 C 
HETATM    8  C3  UNL     1     -32.804   4.714   2.151  1.00 20.00     0.032 C 
HETATM    9 CL9  UNL     1     -32.432   6.940   3.643  1.00 20.00    -0.120 Cl
ENDBRANCH   1   6
TORSDOF 3
