REMARK  1 active torsions:
REMARK  status: ('A' for Active; 'I' for Inactive)
REMARK    1  A    between atoms: C5_5  and  C10_10 
ROOT
HETATM    1  C6  UNL     1     -35.250   5.155   6.469  1.00 20.00     0.005 C 
HETATM    2  C7  UNL     1     -33.887   5.831   6.683  1.00 20.00     0.005 C 
HETATM    3  C8  UNL     1     -34.965   5.260   3.975  1.00 20.00     0.014 C 
HETATM    4  C9  UNL     1     -35.200   7.222   5.289  1.00 20.00     0.010 C 
HETATM    5  C10 UNL     1     -33.544   5.829   4.205  1.00 20.00     0.023 C 
HETATM    6  C11 UNL     1     -35.762   5.808   5.173  1.00 20.00    -0.013 C 
HETATM    7  C12 UNL     1     -33.753   6.740   5.443  1.00 20.00    -0.006 C 
ENDROOT
BRANCH   5   8
HETATM    8  C5  UNL     1     -32.978   6.482   2.955  1.00 20.00    -0.051 A 
HETATM    9  C1  UNL     1     -32.838   5.745   1.784  1.00 20.00     0.026 A 
HETATM   10  C3  UNL     1     -32.318   6.387   0.672  1.00 20.00     0.116 A 
HETATM   11  N13 UNL     1     -31.938   7.685   0.656  1.00 20.00    -0.273 NA
HETATM   12  C4  UNL     1     -32.088   8.369   1.812  1.00 20.00     0.116 A 
HETATM   13  C2  UNL     1     -32.598   7.820   2.978  1.00 20.00     0.026 A 
ENDBRANCH   5   8
TORSDOF 1
