REMARK  2 active torsions:
REMARK  status: ('A' for Active; 'I' for Inactive)
REMARK    1  A    between atoms: C2_2  and  C5_5 
REMARK    2  A    between atoms: C3_3  and  C6_6 
ROOT
HETATM    1  C1  UNL     1     -32.889   7.365   5.464  1.00 20.00     0.204 C 
HETATM    2  C2  UNL     1     -33.050   7.470   3.966  1.00 20.00     0.162 C 
HETATM    3  C3  UNL     1     -34.793   6.318   4.821  1.00 20.00     0.260 C 
HETATM    4  O7  UNL     1     -34.206   7.039   5.912  1.00 20.00    -0.359 OA
HETATM    5  O8  UNL     1     -33.943   6.394   3.669  1.00 20.00    -0.353 OA
ENDROOT
BRANCH   2   6
HETATM    6  C5  UNL     1     -31.756   7.319   3.196  1.00 20.00     0.148 C 
HETATM    7 CL9  UNL     1     -32.052   7.448   1.449  1.00 20.00    -0.128 Cl
ENDBRANCH   2   6
BRANCH   3   8
HETATM    8  C6  UNL     1     -34.987   4.864   5.207  1.00 20.00     0.056 C 
HETATM    9  C4  UNL     1     -33.691   4.194   5.543  1.00 20.00     0.010 C 
ENDBRANCH   3   8
TORSDOF 2
