REMARK  3 active torsions:
REMARK  status: ('A' for Active; 'I' for Inactive)
REMARK    1  A    between atoms: C1_1  and  C3_3 
REMARK    2  A    between atoms: C2_2  and  C3_3 
REMARK    3  A    between atoms: C2_2  and  S6_6 
ROOT
HETATM    1  C3  UNL     1     -33.794   6.229   3.947  1.00 20.00     0.192 C 
HETATM    2 CL7  UNL     1     -33.420   4.559   3.398  1.00 20.00    -0.113 Cl
ENDROOT
BRANCH   1   3
HETATM    3  C1  UNL     1     -34.303   6.070   5.388  1.00 20.00     0.192 C 
HETATM    4  O4  UNL     1     -34.183   7.105   6.105  1.00 20.00    -0.647 OA
HETATM    5  O5  UNL     1     -34.777   4.939   5.689  1.00 20.00    -0.647 OA
ENDBRANCH   1   3
BRANCH   1   6
HETATM    6  C2  UNL     1     -32.552   7.091   3.746  1.00 20.00     0.102 C 
BRANCH   6   7
HETATM    7  S6  UNL     1     -32.100   7.199   1.986  1.00 20.00    -0.180 SA
HETATM    8  H11 UNL     1     -31.031   7.985   2.168  1.00 20.00     0.101 HD
ENDBRANCH   6   7
ENDBRANCH   1   6
TORSDOF 3
