REMARK  2 active torsions:
REMARK  status: ('A' for Active; 'I' for Inactive)
REMARK    1  A    between atoms: C5_5  and  O8_8 
REMARK    2  A    between atoms: C6_6  and  O8_8 
ROOT
HETATM    1  C1  UNL     1     -33.735   6.743   6.107  1.00 20.00     0.097 C 
HETATM    2  C3  UNL     1     -34.232   4.418   5.466  1.00 20.00     0.062 C 
HETATM    3  C4  UNL     1     -35.515   6.333   4.456  1.00 20.00     0.062 C 
HETATM    4  C6  UNL     1     -34.163   5.872   4.999  1.00 20.00     0.141 C 
HETATM    5  N7  UNL     1     -33.398   7.431   6.979  1.00 20.00    -0.194 NA
ENDROOT
BRANCH   4   6
HETATM    6  O8  UNL     1     -33.200   5.965   3.950  1.00 20.00    -0.367 OA
BRANCH   6   7
HETATM    7  C5  UNL     1     -33.083   7.296   3.473  1.00 20.00     0.165 C 
HETATM    8  C2  UNL     1     -32.052   7.334   2.366  1.00 20.00     0.033 C 
ENDBRANCH   6   7
ENDBRANCH   4   6
TORSDOF 2
