REMARK  1 active torsions:
REMARK  status: ('A' for Active; 'I' for Inactive)
REMARK    1  A    between atoms: C1_1  and  C6_6 
ROOT
HETATM    1  C2  UNL     1     -34.015   4.493   5.769  1.00 20.00     0.005 C 
HETATM    2  C3  UNL     1     -34.018   4.603   4.238  1.00 20.00     0.006 C 
HETATM    3  C4  UNL     1     -33.989   6.988   5.972  1.00 20.00     0.016 C 
HETATM    4  C5  UNL     1     -35.868   5.822   5.079  1.00 20.00     0.010 C 
HETATM    5  C6  UNL     1     -34.003   7.138   4.445  1.00 20.00     0.051 C 
HETATM    6  C7  UNL     1     -34.835   5.720   6.202  1.00 20.00    -0.013 C 
HETATM    7  C8  UNL     1     -34.801   5.905   3.983  1.00 20.00    -0.003 C 
ENDROOT
BRANCH   5   8
HETATM    8  C1  UNL     1     -32.635   7.232   3.845  1.00 20.00     0.236 C 
HETATM    9  O9  UNL     1     -32.360   6.821   2.723  1.00 20.00    -0.306 OA
ENDBRANCH   5   8
TORSDOF 1
