REMARK  0 active torsions:
REMARK  status: ('A' for Active; 'I' for Inactive)
ROOT
HETATM    1  C1  UNL     1     -33.432   4.602   3.304  1.00 20.00     0.066 C 
HETATM    2  C2  UNL     1     -33.428   6.676   6.286  1.00 20.00     0.034 C 
HETATM    3  C3  UNL     1     -34.268   6.925   5.032  1.00 20.00     0.036 C 
HETATM    4  C4  UNL     1     -33.359   4.215   5.782  1.00 20.00     0.053 C 
HETATM    5  C5  UNL     1     -34.217   4.414   4.525  1.00 20.00     0.124 C 
HETATM    6  C6  UNL     1     -33.908   5.293   6.719  1.00 20.00     0.123 C 
HETATM    7  C7  UNL     1     -35.070   5.626   4.919  1.00 20.00     0.139 C 
HETATM    8  N8  UNL     1     -32.810   4.752   2.336  1.00 20.00    -0.197 NA
HETATM    9  O9  UNL     1     -35.299   5.339   6.323  1.00 20.00    -0.379 OA
ENDROOT
TORSDOF 0
