REMARK  2 active torsions:
REMARK  status: ('A' for Active; 'I' for Inactive)
REMARK    1  A    between atoms: C5_5  and  C6_6 
REMARK    2  A    between atoms: C6_6  and  C7_7 
ROOT
HETATM    1  C1  UNL     1     -33.418   6.811   3.917  1.00 20.00     0.068 C 
HETATM    2  C3  UNL     1     -33.747   4.384   3.665  1.00 20.00     0.031 C 
HETATM    3  C4  UNL     1     -35.632   5.864   4.378  1.00 20.00     0.031 C 
HETATM    4  C7  UNL     1     -34.112   5.632   4.484  1.00 20.00     0.042 C 
HETATM    5  N8  UNL     1     -32.875   7.736   3.472  1.00 20.00    -0.196 NA
ENDROOT
BRANCH   4   6
HETATM    6  C6  UNL     1     -33.745   5.463   5.981  1.00 20.00     0.023 C 
BRANCH   6   7
HETATM    7  C5  UNL     1     -34.464   6.416   6.946  1.00 20.00    -0.003 C 
HETATM    8  C2  UNL     1     -34.210   7.870   6.574  1.00 20.00     0.005 C 
ENDBRANCH   6   7
ENDBRANCH   4   6
TORSDOF 2
