REMARK  1 active torsions:
REMARK  status: ('A' for Active; 'I' for Inactive)
REMARK    1  A    between atoms: C1_1  and  C5_5 
ROOT
HETATM    1  C2  UNL     1     -33.740   4.017   4.432  1.00 20.00     0.006 C 
HETATM    2  C3  UNL     1     -32.953   4.987   5.330  1.00 20.00     0.011 C 
HETATM    3  C4  UNL     1     -33.359   5.487   2.472  1.00 20.00     0.017 C 
HETATM    4  C5  UNL     1     -32.521   6.428   3.364  1.00 20.00     0.056 C 
HETATM    5  C6  UNL     1     -34.449   4.965   3.440  1.00 20.00    -0.005 C 
HETATM    6  C7  UNL     1     -33.295   6.383   4.722  1.00 20.00    -0.027 C 
HETATM    7  C8  UNL     1     -34.790   6.204   4.305  1.00 20.00    -0.036 C 
HETATM    8  C9  UNL     1     -32.979   7.510   5.689  1.00 20.00     0.016 C 
HETATM    9  C10 UNL     1     -35.760   5.914   5.471  1.00 20.00     0.016 C 
HETATM   10  C11 UNL     1     -35.434   7.356   3.510  1.00 20.00     0.016 C 
ENDROOT
BRANCH   4  11
HETATM   11  C1  UNL     1     -32.332   7.778   2.740  1.00 20.00     0.236 C 
HETATM   12  O12 UNL     1     -32.313   7.966   1.528  1.00 20.00    -0.306 OA
ENDBRANCH   4  11
TORSDOF 1
