REMARK  3 active torsions:
REMARK  status: ('A' for Active; 'I' for Inactive)
REMARK    1  A    between atoms: C1_1  and  C5_5 
REMARK    2  A    between atoms: C2_2  and  C6_6 
REMARK    3  A    between atoms: C6_6  and  O7_7 
ROOT
HETATM    1  C3  UNL     1     -36.215   6.210   4.487  1.00 20.00     0.060 C 
HETATM    2  C4  UNL     1     -34.589   6.628   6.354  1.00 20.00     0.060 C 
HETATM    3  C6  UNL     1     -34.852   5.841   5.072  1.00 20.00     0.114 C 
ENDROOT
BRANCH   3   4
HETATM    4  C2  UNL     1     -33.782   6.091   4.091  1.00 20.00    -0.068 C 
HETATM    5  C1  UNL     1     -32.911   6.295   3.289  1.00 20.00    -0.088 C 
BRANCH   5   6
HETATM    6  C5  UNL     1     -31.851   6.540   2.316  1.00 20.00     0.208 C 
HETATM    7 CL8  UNL     1     -32.327   7.895   1.275  1.00 20.00    -0.117 Cl
ENDBRANCH   5   6
ENDBRANCH   3   4
BRANCH   3   8
HETATM    8  O7  UNL     1     -34.867   4.455   5.417  1.00 20.00    -0.378 OA
HETATM    9  H17 UNL     1     -35.582   4.341   6.060  1.00 20.00     0.211 HD
ENDBRANCH   3   8
TORSDOF 3
