REMARK  0 active torsions:
REMARK  status: ('A' for Active; 'I' for Inactive)
ROOT
HETATM    1  C1  UNL     1     -33.336   5.157   2.729  1.00 20.00     0.017 A 
HETATM    2  C2  UNL     1     -32.694   6.157   1.999  1.00 20.00     0.025 A 
HETATM    3  C3  UNL     1     -32.546   7.567   3.982  1.00 20.00     0.032 A 
HETATM    4  C4  UNL     1     -33.564   5.397   4.072  1.00 20.00     0.016 A 
HETATM    5  C5  UNL     1     -33.189   6.575   4.708  1.00 20.00    -0.038 A 
HETATM    6  C6  UNL     1     -32.300   7.353   2.622  1.00 20.00     0.034 A 
HETATM    7  C7  UNL     1     -34.198   4.529   5.050  1.00 20.00     0.160 A 
HETATM    8  C8  UNL     1     -34.191   5.201   6.401  1.00 20.00     0.093 A 
HETATM    9  C9  UNL     1     -33.551   6.590   6.166  1.00 20.00     0.023 A 
HETATM   10  C10 UNL     1     -34.508   7.723   6.519  1.00 20.00     0.015 C 
HETATM   11  O11 UNL     1     -34.648   3.426   4.797  1.00 20.00    -0.292 OA
HETATM   12 CL12 UNL     1     -31.506   8.571   1.698  1.00 20.00    -0.084 Cl
ENDROOT
TORSDOF 0
