REMARK  4 active torsions:
REMARK  status: ('A' for Active; 'I' for Inactive)
REMARK    1  A    between atoms: C1_1  and  C5_5 
REMARK       I    between atoms: C1_1  and  N9_9 
REMARK    2  A    between atoms: C6_6  and  C8_8 
REMARK    3  A    between atoms: C7_7  and  N9_9 
REMARK    4  A    between atoms: C8_8  and  N9_9 
ROOT
HETATM    1  C1  UNL     1     -33.166   7.387   3.550  1.00 20.00     0.219 C 
HETATM    2  N9  UNL     1     -34.202   7.084   4.440  1.00 20.00    -0.353 N 
HETATM    3  O10 UNL     1     -32.050   7.769   3.913  1.00 20.00    -0.273 OA
ENDROOT
BRANCH   2   4
HETATM    4  C7  UNL     1     -34.339   7.742   5.733  1.00 20.00     0.121 C 
HETATM    5  C4  UNL     1     -33.601   7.001   6.795  1.00 20.00     0.026 C 
ENDBRANCH   2   4
BRANCH   2   6
HETATM    6  C8  UNL     1     -35.225   6.085   4.140  1.00 20.00     0.125 C 
BRANCH   6   7
HETATM    7  C6  UNL     1     -34.832   4.691   4.613  1.00 20.00     0.015 C 
HETATM    8  C3  UNL     1     -33.535   4.200   3.984  1.00 20.00     0.006 C 
ENDBRANCH   6   7
ENDBRANCH   2   6
BRANCH   1   9
HETATM    9  C5  UNL     1     -33.481   7.221   2.071  1.00 20.00     0.098 C 
HETATM   10  C2  UNL     1     -32.307   7.586   1.176  1.00 20.00     0.014 C 
ENDBRANCH   1   9
TORSDOF 4
