REMARK  2 active torsions:
REMARK  status: ('A' for Active; 'I' for Inactive)
REMARK    1  A    between atoms: C6_6  and  C9_9 
REMARK    2  A    between atoms: C6_6  and  C10_10 
ROOT
HETATM    1  C1  UNL     1     -32.839   6.181   2.591  1.00 20.00     0.047 C 
HETATM    2  C2  UNL     1     -33.647   5.493   3.406  1.00 20.00    -0.014 C 
HETATM    3  C3  UNL     1     -32.441   7.569   2.926  1.00 20.00     0.149 C 
HETATM    4  C4  UNL     1     -33.033   8.212   4.159  1.00 20.00     0.084 C 
HETATM    5  C5  UNL     1     -33.312   7.175   5.240  1.00 20.00     0.021 C 
HETATM    6  C6  UNL     1     -34.174   5.998   4.732  1.00 20.00    -0.023 C 
HETATM    7  O11 UNL     1     -31.694   8.188   2.170  1.00 20.00    -0.293 OA
ENDROOT
BRANCH   6   8
HETATM    8  C9  UNL     1     -35.640   6.428   4.554  1.00 20.00     0.009 C 
HETATM    9  C7  UNL     1     -36.487   5.289   4.101  1.00 20.00     0.006 C 
ENDBRANCH   6   8
BRANCH   6  10
HETATM   10  C10 UNL     1     -34.115   4.864   5.772  1.00 20.00     0.009 C 
HETATM   11  C8  UNL     1     -34.625   5.318   7.095  1.00 20.00     0.006 C 
ENDBRANCH   6  10
TORSDOF 2
