REMARK  0 active torsions:
REMARK  status: ('A' for Active; 'I' for Inactive)
ROOT
HETATM    1  C1  UNL     1     -33.408   7.384   4.122  1.00 20.00     0.050 C 
HETATM    2  C2  UNL     1     -34.717   5.461   5.176  1.00 20.00     0.050 C 
HETATM    3  C3  UNL     1     -33.087   6.859   6.657  1.00 20.00     0.207 A 
HETATM    4  C4  UNL     1     -32.576   6.468   3.230  1.00 20.00     0.077 C 
HETATM    5  C5  UNL     1     -33.994   4.387   4.372  1.00 20.00     0.077 C 
HETATM    6  C6  UNL     1     -33.853   6.674   5.368  1.00 20.00     0.084 A 
HETATM    7  O7  UNL     1     -34.316   7.556   6.400  1.00 20.00    -0.375 OA
HETATM    8  S8  UNL     1     -33.518   4.994   2.721  1.00 20.00    -0.169 SA
ENDROOT
TORSDOF 0
