REMARK  4 active torsions:
REMARK  status: ('A' for Active; 'I' for Inactive)
REMARK    1  A    between atoms: C2_2  and  C3_3 
REMARK    2  A    between atoms: C2_2  and  C4_4 
REMARK    3  A    between atoms: C3_3  and  C5_5 
REMARK    4  A    between atoms: C4_4  and  S6_6 
ROOT
HETATM    1  C2  UNL     1     -32.425   7.705   3.221  1.00 20.00     0.011 C 
ENDROOT
BRANCH   1   2
HETATM    2  C3  UNL     1     -33.232   6.793   4.152  1.00 20.00     0.016 C 
BRANCH   2   3
HETATM    3  C5  UNL     1     -33.169   7.216   5.616  1.00 20.00     0.114 C 
HETATM    4 CL7  UNL     1     -34.093   6.121   6.669  1.00 20.00    -0.130 Cl
ENDBRANCH   2   3
ENDBRANCH   1   2
BRANCH   1   5
HETATM    5  C4  UNL     1     -32.462   7.184   1.786  1.00 20.00     0.073 C 
BRANCH   5   6
HETATM    6  S6  UNL     1     -31.499   8.262   0.687  1.00 20.00    -0.173 SA
HETATM    7  C1  UNL     1     -32.746   9.542   0.416  1.00 20.00     0.089 C 
ENDBRANCH   5   6
ENDBRANCH   1   5
TORSDOF 4
