REMARK  3 active torsions:
REMARK  status: ('A' for Active; 'I' for Inactive)
REMARK    1  A    between atoms: C1_1  and  C2_2 
REMARK    2  A    between atoms: C1_1  and  O10_10 
REMARK    3  A    between atoms: C3_3  and  C7_7 
ROOT
HETATM    1  C2  UNL     1     -33.208   7.464   3.687  1.00 20.00     0.256 A 
HETATM    2  C3  UNL     1     -32.472   6.883   2.496  1.00 20.00     0.093 A 
HETATM    3  C4  UNL     1     -32.311   5.404   2.332  1.00 20.00     0.049 C 
HETATM    4  O9  UNL     1     -31.772   7.418   3.627  1.00 20.00    -0.359 OA
ENDROOT
BRANCH   1   5
HETATM    5  C1  UNL     1     -33.776   6.613   4.733  1.00 20.00     0.290 C 
HETATM    6  O8  UNL     1     -34.271   5.513   4.527  1.00 20.00    -0.262 OA
BRANCH   5   7
HETATM    7  O10 UNL     1     -33.664   7.238   5.939  1.00 20.00    -0.324 OA
HETATM    8  C6  UNL     1     -34.184   6.512   7.058  1.00 20.00     0.213 C 
ENDBRANCH   5   7
ENDBRANCH   1   5
BRANCH   2   9
HETATM    9  C7  UNL     1     -32.340   7.711   1.257  1.00 20.00     0.036 C 
HETATM   10  C5  UNL     1     -32.407   9.189   1.534  1.00 20.00     0.008 C 
ENDBRANCH   2   9
TORSDOF 3
