REMARK  2 active torsions:
REMARK  status: ('A' for Active; 'I' for Inactive)
REMARK    1  A    between atoms: C2_2  and  C6_6 
REMARK    2  A    between atoms: C6_6  and  N7_7 
ROOT
HETATM    1  C3  UNL     1     -35.091   5.542   6.703  1.00 20.00     0.060 C 
HETATM    2  C4  UNL     1     -34.170   6.744   6.422  1.00 20.00     0.274 C 
HETATM    3  C5  UNL     1     -35.099   5.372   5.172  1.00 20.00     0.274 C 
HETATM    4  N7  UNL     1     -33.787   6.068   5.155  1.00 20.00     0.093 N 
ENDROOT
BRANCH   4   5
HETATM    5  C6  UNL     1     -33.729   7.028   4.058  1.00 20.00     0.317 C 
BRANCH   5   6
HETATM    6  C2  UNL     1     -32.910   6.534   2.898  1.00 20.00     0.007 C 
HETATM    7  C1  UNL     1     -32.272   7.352   2.050  1.00 20.00     0.029 C 
HETATM    8 BR8  UNL     1     -32.766   4.672   2.744  1.00 20.00    -0.055 Br
ENDBRANCH   5   6
ENDBRANCH   4   5
TORSDOF 2
