REMARK  3 active torsions:
REMARK  status: ('A' for Active; 'I' for Inactive)
REMARK    1  A    between atoms: C1_1  and  C4_4 
REMARK    2  A    between atoms: C2_2  and  C5_5 
REMARK    3  A    between atoms: C3_3  and  C4_4 
ROOT
HETATM    1  C1  UNL     1     -33.649   7.506   3.779  1.00 20.00    -0.019 C 
HETATM    2  C2  UNL     1     -32.503   7.105   3.209  1.00 20.00    -0.015 C 
ENDROOT
BRANCH   1   3
HETATM    3  C4  UNL     1     -33.938   7.378   5.242  1.00 20.00     0.140 C 
BRANCH   3   4
HETATM    4  C3  UNL     1     -34.582   6.016   5.474  1.00 20.00     0.176 C 
HETATM    5  O6  UNL     1     -34.843   5.744   6.680  1.00 20.00    -0.648 OA
HETATM    6  O7  UNL     1     -34.763   5.323   4.433  1.00 20.00    -0.648 OA
ENDBRANCH   3   4
ENDBRANCH   1   3
BRANCH   2   7
HETATM    7  C5  UNL     1     -32.222   7.218   1.747  1.00 20.00     0.141 C 
HETATM    8 CL8  UNL     1     -32.294   8.921   1.248  1.00 20.00    -0.126 Cl
ENDBRANCH   2   7
TORSDOF 3
