REMARK  0 active torsions:
REMARK  status: ('A' for Active; 'I' for Inactive)
ROOT
HETATM    1  C1  UNL     1     -33.447   6.088   3.876  1.00 20.00     0.080 C 
HETATM    2  C2  UNL     1     -34.264   4.241   5.295  1.00 20.00     0.043 C 
HETATM    3  C3  UNL     1     -35.881   5.825   4.190  1.00 20.00     0.043 C 
HETATM    4  C4  UNL     1     -34.498   5.673   4.818  1.00 20.00     0.099 C 
HETATM    5  N5  UNL     1     -32.619   6.413   3.131  1.00 20.00    -0.196 NA
HETATM    6 BR6  UNL     1     -34.426   6.850   6.399  1.00 20.00    -0.070 Br
ENDROOT
TORSDOF 0
