REMARK  0 active torsions:
REMARK  status: ('A' for Active; 'I' for Inactive)
ROOT
HETATM    1  C1  UNL     1     -33.111   7.481   4.021  1.00 20.00     0.064 C 
HETATM    2  C2  UNL     1     -34.323   4.729   4.844  1.00 20.00     0.128 C 
HETATM    3  C3  UNL     1     -34.075   4.738   6.334  1.00 20.00     0.078 C 
HETATM    4  C4  UNL     1     -35.031   5.940   4.270  1.00 20.00     0.097 C 
HETATM    5  C5  UNL     1     -33.406   6.037   6.756  1.00 20.00     0.009 C 
HETATM    6  C6  UNL     1     -34.172   7.263   6.254  1.00 20.00     0.020 C 
HETATM    7  C7  UNL     1     -34.382   7.246   4.733  1.00 20.00     0.100 C 
HETATM    8  N8  UNL     1     -32.111   7.666   3.461  1.00 20.00    -0.197 NA
HETATM    9  O9  UNL     1     -34.057   3.749   4.150  1.00 20.00    -0.298 OA
ENDROOT
TORSDOF 0
