REMARK  0 active torsions:
REMARK  status: ('A' for Active; 'I' for Inactive)
ROOT
HETATM    1  C1  UNL     1     -33.542   5.470   2.747  1.00 20.00     0.069 C 
HETATM    2  C2  UNL     1     -34.929   5.807   7.106  1.00 20.00     0.000 C 
HETATM    3  C3  UNL     1     -34.470   7.251   6.871  1.00 20.00     0.000 C 
HETATM    4  C4  UNL     1     -34.004   4.716   6.580  1.00 20.00     0.002 C 
HETATM    5  C5  UNL     1     -33.145   7.423   6.138  1.00 20.00     0.002 C 
HETATM    6  C6  UNL     1     -33.896   4.581   5.057  1.00 20.00     0.024 C 
HETATM    7  C7  UNL     1     -33.123   7.028   4.656  1.00 20.00     0.024 C 
HETATM    8  C8  UNL     1     -33.998   5.848   4.178  1.00 20.00     0.045 C 
HETATM    9  C9  UNL     1     -35.414   6.275   4.057  1.00 20.00     0.031 C 
HETATM   10  N10 UNL     1     -33.200   5.186   1.676  1.00 20.00    -0.196 NA
ENDROOT
TORSDOF 0
