REMARK  1 active torsions:
REMARK  status: ('A' for Active; 'I' for Inactive)
REMARK    1  A    between atoms: C3_3  and  C5_5 
ROOT
HETATM    1  C1  UNL     1     -34.144   5.277   3.778  1.00 20.00    -0.015 C 
HETATM    2  C2  UNL     1     -34.155   4.524   4.882  1.00 20.00    -0.021 C 
HETATM    3  C4  UNL     1     -34.088   6.791   5.608  1.00 20.00     0.032 C 
HETATM    4  C5  UNL     1     -33.979   6.724   4.083  1.00 20.00     0.110 C 
HETATM    5  C6  UNL     1     -33.979   5.337   6.134  1.00 20.00    -0.029 C 
HETATM    6  C7  UNL     1     -35.085   5.034   7.149  1.00 20.00     0.019 C 
HETATM    7  C8  UNL     1     -32.607   5.066   6.760  1.00 20.00     0.019 C 
ENDROOT
BRANCH   4   8
HETATM    8  C3  UNL     1     -32.614   7.155   3.598  1.00 20.00     0.180 C 
HETATM    9  O9  UNL     1     -32.190   6.550   2.575  1.00 20.00    -0.647 OA
HETATM   10  O10 UNL     1     -32.074   8.069   4.283  1.00 20.00    -0.647 OA
ENDBRANCH   4   8
TORSDOF 1
