REMARK  2 active torsions:
REMARK  status: ('A' for Active; 'I' for Inactive)
REMARK    1  A    between atoms: C1_1  and  C6_6 
REMARK    2  A    between atoms: C6_6  and  N7_7 
ROOT
HETATM    1  C3  UNL     1     -34.356   5.458   6.176  1.00 20.00     0.060 C 
HETATM    2  C4  UNL     1     -34.002   5.771   4.709  1.00 20.00     0.274 C 
HETATM    3  C5  UNL     1     -33.348   6.574   6.509  1.00 20.00     0.274 C 
HETATM    4  N7  UNL     1     -33.627   7.136   5.162  1.00 20.00     0.091 N 
ENDROOT
BRANCH   4   5
HETATM    5  C6  UNL     1     -32.391   7.569   4.519  1.00 20.00     0.300 C 
BRANCH   5   6
HETATM    6  C1  UNL     1     -32.638   8.063   3.126  1.00 20.00     0.010 C 
HETATM    7  C2  UNL     1     -32.118   7.486   2.037  1.00 20.00     0.053 C 
HETATM    8 BR8  UNL     1     -32.416   8.070   0.302  1.00 20.00    -0.064 Br
ENDBRANCH   5   6
ENDBRANCH   4   5
TORSDOF 2
