REMARK  4 active torsions:
REMARK  status: ('A' for Active; 'I' for Inactive)
REMARK    1  A    between atoms: C2_2  and  C7_7 
REMARK    2  A    between atoms: C5_5  and  C6_6 
REMARK    3  A    between atoms: C6_6  and  C7_7 
REMARK    4  A    between atoms: C7_7  and  O8_8 
ROOT
HETATM    1  C7  UNL     1     -34.680   5.823   4.780  1.00 20.00     0.146 C 
ENDROOT
BRANCH   1   2
HETATM    2  C2  UNL     1     -34.400   6.006   6.256  1.00 20.00    -0.065 C 
HETATM    3  C1  UNL     1     -34.687   5.038   7.142  1.00 20.00     0.016 C 
HETATM    4  C3  UNL     1     -33.799   7.309   6.705  1.00 20.00     0.045 C 
ENDBRANCH   1   2
BRANCH   1   5
HETATM    5  C6  UNL     1     -33.429   5.829   3.886  1.00 20.00     0.036 C 
BRANCH   5   6
HETATM    6  C5  UNL     1     -32.906   7.213   3.494  1.00 20.00    -0.002 C 
HETATM    7  C4  UNL     1     -31.708   7.163   2.559  1.00 20.00     0.005 C 
ENDBRANCH   5   6
ENDBRANCH   1   5
BRANCH   1   8
HETATM    8  O8  UNL     1     -35.350   4.571   4.605  1.00 20.00    -0.391 OA
HETATM    9  H22 UNL     1     -36.168   4.628   5.120  1.00 20.00     0.210 HD
ENDBRANCH   1   8
TORSDOF 4
