REMARK  2 active torsions:
REMARK  status: ('A' for Active; 'I' for Inactive)
REMARK    1  A    between atoms: C3_3  and  C5_5 
REMARK    2  A    between atoms: C4_4  and  C5_5 
ROOT
HETATM    1  C1  UNL     1     -31.743   7.107   3.378  1.00 20.00     0.012 C 
HETATM    2  C2  UNL     1     -32.653   6.331   3.275  1.00 20.00    -0.117 C 
HETATM    3  C4  UNL     1     -33.766   5.378   3.148  1.00 20.00     0.101 C 
ENDROOT
BRANCH   3   4
HETATM    4  C5  UNL     1     -34.943   5.754   4.048  1.00 20.00     0.108 C 
BRANCH   4   5
HETATM    5  C3  UNL     1     -34.594   5.774   5.529  1.00 20.00     0.219 C 
HETATM    6  O6  UNL     1     -34.703   4.791   6.255  1.00 20.00    -0.280 OA
HETATM    7 CL7  UNL     1     -34.064   7.353   6.039  1.00 20.00    -0.044 Cl
ENDBRANCH   4   5
ENDBRANCH   3   4
TORSDOF 2
