REMARK  0 active torsions:
REMARK  status: ('A' for Active; 'I' for Inactive)
ROOT
HETATM    1  C1  UNL     1     -33.750   5.175   2.923  1.00 20.00    -0.023 C 
HETATM    2  C2  UNL     1     -32.846   6.073   2.504  1.00 20.00    -0.014 C 
HETATM    3  C3  UNL     1     -33.347   7.556   4.499  1.00 20.00     0.144 C 
HETATM    4  C4  UNL     1     -34.732   5.430   3.975  1.00 20.00     0.028 A 
HETATM    5  C5  UNL     1     -34.539   6.702   4.762  1.00 20.00     0.073 A 
HETATM    6  C6  UNL     1     -32.688   7.452   3.110  1.00 20.00     0.031 C 
HETATM    7  C7  UNL     1     -34.395   5.355   5.452  1.00 20.00    -0.029 A 
HETATM    8  C8  UNL     1     -31.188   7.752   3.261  1.00 20.00     0.027 C 
HETATM    9  C9  UNL     1     -33.336   8.496   2.194  1.00 20.00     0.027 C 
HETATM   10  C10 UNL     1     -35.507   4.942   6.387  1.00 20.00     0.016 C 
HETATM   11  C11 UNL     1     -33.037   4.873   5.903  1.00 20.00     0.016 C 
HETATM   12  O12 UNL     1     -32.980   8.346   5.362  1.00 20.00    -0.296 OA
ENDROOT
TORSDOF 0
