REMARK  2 active torsions:
REMARK  status: ('A' for Active; 'I' for Inactive)
REMARK    1  A    between atoms: C5_5  and  C6_6 
REMARK    2  A    between atoms: C6_6  and  N7_7 
ROOT
HETATM    1  C1  UNL     1     -34.290   6.245   6.798  1.00 20.00     0.012 C 
HETATM    2  C2  UNL     1     -34.084   6.769   5.738  1.00 20.00    -0.115 C 
HETATM    3  C5  UNL     1     -33.837   7.417   4.440  1.00 20.00     0.128 C 
ENDROOT
BRANCH   3   4
HETATM    4  C6  UNL     1     -32.882   6.599   3.557  1.00 20.00     0.227 C 
HETATM    5  C3  UNL     1     -32.259   7.438   2.441  1.00 20.00     0.043 C 
BRANCH   4   6
HETATM    6  N7  UNL     1     -33.626   5.493   2.949  1.00 20.00     0.084 N 
HETATM    7  C4  UNL     1     -33.845   4.430   3.915  1.00 20.00     0.307 C 
HETATM    8  H18 UNL     1     -33.092   5.134   2.162  1.00 20.00     0.315 HD
ENDBRANCH   4   6
ENDBRANCH   3   4
TORSDOF 2
