REMARK  0 active torsions:
REMARK  status: ('A' for Active; 'I' for Inactive)
ROOT
HETATM    1  C1  UNL     1     -34.074   5.757   4.304  1.00 20.00    -0.032 A 
HETATM    2  C2  UNL     1     -33.146   5.745   3.343  1.00 20.00     0.056 A 
HETATM    3  C3  UNL     1     -33.869   7.044   5.029  1.00 20.00     0.157 A 
HETATM    4  C4  UNL     1     -35.141   4.789   4.653  1.00 20.00     0.048 C 
HETATM    5  C5  UNL     1     -32.886   4.707   2.310  1.00 20.00     0.072 C 
HETATM    6  C6  UNL     1     -33.491   6.883   6.493  1.00 20.00     0.041 C 
HETATM    7  N7  UNL     1     -32.359   6.871   3.364  1.00 20.00    -0.160 NA
HETATM    8  N8  UNL     1     -32.721   7.643   4.296  1.00 20.00    -0.183 NA
ENDROOT
TORSDOF 0
