REMARK  1 active torsions:
REMARK  status: ('A' for Active; 'I' for Inactive)
REMARK    1  A    between atoms: C3_3  and  C7_7 
ROOT
HETATM    1  C1  UNL     1     -32.372   7.185   2.594  1.00 20.00     0.220 A 
HETATM    2  C2  UNL     1     -32.625   5.721   2.997  1.00 20.00     0.128 A 
HETATM    3  C3  UNL     1     -32.610   6.245   4.453  1.00 20.00     0.100 A 
HETATM    4  N8  UNL     1     -32.391   7.575   3.896  1.00 20.00    -0.355 N 
HETATM    5  O9  UNL     1     -32.216   7.794   1.561  1.00 20.00    -0.274 OA
HETATM    6  H22 UNL     1     -32.268   8.491   4.305  1.00 20.00     0.162 HD
ENDROOT
BRANCH   3   7
HETATM    7  C7  UNL     1     -33.927   6.173   5.238  1.00 20.00    -0.030 C 
HETATM    8  C4  UNL     1     -33.827   7.060   6.488  1.00 20.00     0.016 C 
HETATM    9  C5  UNL     1     -34.193   4.722   5.661  1.00 20.00     0.016 C 
HETATM   10  C6  UNL     1     -35.079   6.667   4.351  1.00 20.00     0.016 C 
ENDBRANCH   3   7
TORSDOF 1
