REMARK  3 active torsions:
REMARK  status: ('A' for Active; 'I' for Inactive)
REMARK    1  A    between atoms: C2_2  and  C3_3 
REMARK    2  A    between atoms: C3_3  and  C4_4 
REMARK    3  A    between atoms: C3_3  and  O5_5 
ROOT
HETATM    1  C3  UNL     1     -34.052   6.037   4.293  1.00 20.00     0.362 C 
HETATM    2  F8  UNL     1     -34.942   6.898   3.727  1.00 20.00    -0.195 F 
ENDROOT
BRANCH   1   3
HETATM    3  C2  UNL     1     -32.754   6.066   3.500  1.00 20.00     0.429 C 
HETATM    4  F6  UNL     1     -32.256   7.327   3.463  1.00 20.00    -0.208 F 
HETATM    5  F7  UNL     1     -32.984   5.715   2.211  1.00 20.00    -0.208 F 
ENDBRANCH   1   3
BRANCH   1   6
HETATM    6  C4  UNL     1     -33.836   6.478   5.728  1.00 20.00     0.455 C 
HETATM    7  F9  UNL     1     -33.352   7.738   5.790  1.00 20.00    -0.165 F 
HETATM    8  F10 UNL     1     -32.949   5.672   6.352  1.00 20.00    -0.165 F 
HETATM    9  F11 UNL     1     -34.988   6.445   6.432  1.00 20.00    -0.165 F 
ENDBRANCH   1   6
BRANCH   1  10
HETATM   10  O5  UNL     1     -34.647   4.740   4.345  1.00 20.00    -0.345 OA
HETATM   11  C1  UNL     1     -33.735   3.666   4.514  1.00 20.00     0.206 C 
ENDBRANCH   1  10
TORSDOF 3
