REMARK  0 active torsions:
REMARK  status: ('A' for Active; 'I' for Inactive)
ROOT
HETATM    1  C1  UNL     1     -33.617   4.637   3.696  1.00 20.00    -0.008 C 
HETATM    2  C2  UNL     1     -34.041   5.434   4.670  1.00 20.00    -0.037 C 
HETATM    3  C3  UNL     1     -33.591   6.833   4.633  1.00 20.00     0.044 C 
HETATM    4  C4  UNL     1     -32.591   6.679   2.570  1.00 20.00     0.246 C 
HETATM    5  C5  UNL     1     -32.776   5.160   2.580  1.00 20.00     0.133 C 
HETATM    6  C6  UNL     1     -34.828   5.214   5.911  1.00 20.00     0.040 C 
HETATM    7  C7  UNL     1     -34.024   7.539   5.882  1.00 20.00     0.060 C 
HETATM    8  C8  UNL     1     -34.348   6.361   6.808  1.00 20.00     0.011 C 
HETATM    9  N9  UNL     1     -32.933   7.413   3.690  1.00 20.00    -0.218 NA
HETATM   10  O10 UNL     1     -32.101   7.207   1.570  1.00 20.00    -0.271 OA
ENDROOT
TORSDOF 0
