REMARK  2 active torsions:
REMARK  status: ('A' for Active; 'I' for Inactive)
REMARK    1  A    between atoms: C1_1  and  C7_7 
REMARK    2  A    between atoms: C7_7  and  C10_10 
ROOT
HETATM    1  C2  UNL     1     -32.565   8.359   2.955  1.00 20.00     0.000 C 
HETATM    2  C3  UNL     1     -34.032   8.019   2.717  1.00 20.00     0.001 C 
HETATM    3  C4  UNL     1     -31.814   7.189   3.580  1.00 20.00     0.001 C 
HETATM    4  C5  UNL     1     -34.721   7.551   3.999  1.00 20.00     0.021 C 
HETATM    5  C6  UNL     1     -32.480   6.712   4.871  1.00 20.00     0.021 C 
HETATM    6  C7  UNL     1     -33.971   6.411   4.694  1.00 20.00     0.051 C 
ENDROOT
BRANCH   6   7
HETATM    7  C1  UNL     1     -34.141   5.123   3.890  1.00 20.00     0.182 C 
HETATM    8  O11 UNL     1     -35.139   4.418   4.207  1.00 20.00    -0.647 OA
HETATM    9  O12 UNL     1     -33.257   4.929   3.009  1.00 20.00    -0.647 OA
ENDBRANCH   6   7
BRANCH   6  10
HETATM   10  C10 UNL     1     -34.623   6.059   6.031  1.00 20.00    -0.004 C 
HETATM   11  C8  UNL     1     -33.933   4.852   6.659  1.00 20.00     0.011 C 
HETATM   12  C9  UNL     1     -34.582   7.256   6.975  1.00 20.00     0.011 C 
ENDBRANCH   6  10
TORSDOF 2
