REMARK  0 active torsions:
REMARK  status: ('A' for Active; 'I' for Inactive)
ROOT
HETATM    1  C1  UNL     1     -34.367   5.678   4.946  1.00 20.00     0.158 C 
HETATM    2  C2  UNL     1     -33.521   6.656   4.629  1.00 20.00     0.277 C 
HETATM    3  F3  UNL     1     -33.084   6.771   3.357  1.00 20.00    -0.172 F 
HETATM    4  F4  UNL     1     -33.098   7.535   5.562  1.00 20.00    -0.172 F 
HETATM    5 CL5  UNL     1     -34.986   5.436   6.523  1.00 20.00    -0.091 Cl
ENDROOT
TORSDOF 0
