REMARK  2 active torsions:
REMARK  status: ('A' for Active; 'I' for Inactive)
REMARK    1  A    between atoms: C4_4  and  C10_10 
REMARK    2  A    between atoms: C7_7  and  C10_10 
ROOT
HETATM    1  C1  UNL     1     -34.697   5.230   5.518  1.00 20.00     0.015 A 
HETATM    2  C2  UNL     1     -34.178   5.039   4.205  1.00 20.00     0.017 A 
HETATM    3  C3  UNL     1     -34.222   6.385   6.100  1.00 20.00    -0.021 A 
HETATM    4  C4  UNL     1     -33.325   6.056   3.834  1.00 20.00     0.002 A 
HETATM    5  C8  UNL     1     -34.522   6.930   7.442  1.00 20.00     0.056 C 
HETATM    6  S11 UNL     1     -33.154   7.233   5.065  1.00 20.00    -0.098 SA
ENDROOT
BRANCH   4   7
HETATM    7  C10 UNL     1     -32.567   6.227   2.520  1.00 20.00     0.126 C 
HETATM    8 CL12 UNL     1     -32.787   4.730   1.542  1.00 20.00    -0.119 Cl
BRANCH   7   9
HETATM    9  C7  UNL     1     -32.937   7.437   1.734  1.00 20.00     0.013 A 
HETATM   10  C5  UNL     1     -32.303   8.767   2.048  1.00 20.00     0.011 A 
HETATM   11  C6  UNL     1     -31.948   8.046   0.774  1.00 20.00    -0.012 A 
HETATM   12  C9  UNL     1     -32.409   8.575  -0.540  1.00 20.00     0.010 C 
ENDBRANCH   7   9
ENDBRANCH   4   7
TORSDOF 2
