REMARK  2 active torsions:
REMARK  status: ('A' for Active; 'I' for Inactive)
REMARK    1  A    between atoms: C4_4  and  C9_9 
REMARK    2  A    between atoms: C7_7  and  C9_9 
ROOT
HETATM    1  C1  UNL     1     -31.769   8.282   3.094  1.00 20.00     0.015 A 
HETATM    2  C2  UNL     1     -32.381   7.587   4.177  1.00 20.00     0.017 A 
HETATM    3  C3  UNL     1     -32.302   7.915   1.877  1.00 20.00    -0.021 A 
HETATM    4  C4  UNL     1     -33.358   6.716   3.747  1.00 20.00    -0.002 A 
HETATM    5  C8  UNL     1     -31.940   8.404   0.529  1.00 20.00     0.056 C 
HETATM    6  S10 UNL     1     -33.534   6.737   2.044  1.00 20.00    -0.099 SA
ENDROOT
BRANCH   4   7
HETATM    7  C9  UNL     1     -34.234   5.801   4.575  1.00 20.00     0.102 C 
HETATM    8 BR11 UNL     1     -34.073   3.970   3.897  1.00 20.00    -0.085 Br
BRANCH   7   9
HETATM    9  C7  UNL     1     -33.925   5.838   6.031  1.00 20.00     0.005 A 
HETATM   10  C5  UNL     1     -34.532   6.897   6.908  1.00 20.00     0.006 A 
HETATM   11  C6  UNL     1     -34.978   5.467   7.038  1.00 20.00     0.006 A 
ENDBRANCH   7   9
ENDBRANCH   4   7
TORSDOF 2
