REMARK  2 active torsions:
REMARK  status: ('A' for Active; 'I' for Inactive)
REMARK    1  A    between atoms: C3_3  and  C8_8 
REMARK    2  A    between atoms: C7_7  and  C8_8 
ROOT
HETATM    1  C1  UNL     1     -32.531   6.476   2.579  1.00 20.00     0.018 A 
HETATM    2  C2  UNL     1     -32.332   7.198   1.367  1.00 20.00     0.032 A 
HETATM    3  C3  UNL     1     -33.016   7.279   3.587  1.00 20.00     0.003 A 
HETATM    4  C4  UNL     1     -32.673   8.527   1.495  1.00 20.00     0.075 A 
HETATM    5  S9  UNL     1     -33.230   8.898   3.072  1.00 20.00    -0.081 SA
HETATM    6 CL10 UNL     1     -32.594   9.752   0.300  1.00 20.00    -0.076 Cl
ENDROOT
BRANCH   3   7
HETATM    7  C8  UNL     1     -33.360   6.897   5.024  1.00 20.00     0.126 C 
HETATM    8 CL11 UNL     1     -33.738   8.406   5.934  1.00 20.00    -0.119 Cl
BRANCH   7   9
HETATM    9  C7  UNL     1     -34.458   5.900   5.165  1.00 20.00     0.009 A 
HETATM   10  C5  UNL     1     -34.162   4.429   5.069  1.00 20.00     0.007 A 
HETATM   11  C6  UNL     1     -34.540   5.035   6.392  1.00 20.00     0.007 A 
ENDBRANCH   7   9
ENDBRANCH   3   7
TORSDOF 2
