REMARK  2 active torsions:
REMARK  status: ('A' for Active; 'I' for Inactive)
REMARK    1  A    between atoms: C4_4  and  C10_10 
REMARK    2  A    between atoms: C7_7  and  C10_10 
ROOT
HETATM    1  C1  UNL     1     -32.287   6.870   0.801  1.00 20.00     0.015 A 
HETATM    2  C2  UNL     1     -32.549   6.654   2.184  1.00 20.00     0.017 A 
HETATM    3  C3  UNL     1     -32.080   8.201   0.515  1.00 20.00    -0.021 A 
HETATM    4  C4  UNL     1     -32.532   7.828   2.904  1.00 20.00    -0.002 A 
HETATM    5  C8  UNL     1     -31.782   8.827  -0.791  1.00 20.00     0.056 C 
HETATM    6  S11 UNL     1     -32.201   9.184   1.912  1.00 20.00    -0.099 SA
ENDROOT
BRANCH   4   7
HETATM    7  C10 UNL     1     -32.760   8.028   4.386  1.00 20.00     0.102 C 
HETATM    8 BR12 UNL     1     -31.247   9.022   5.136  1.00 20.00    -0.085 Br
BRANCH   7   9
HETATM    9  C7  UNL     1     -32.969   6.755   5.131  1.00 20.00     0.009 A 
HETATM   10  C5  UNL     1     -33.717   6.758   6.438  1.00 20.00     0.011 A 
HETATM   11  C6  UNL     1     -34.345   6.146   5.214  1.00 20.00    -0.013 A 
HETATM   12  C9  UNL     1     -34.514   4.669   5.119  1.00 20.00     0.010 C 
ENDBRANCH   7   9
ENDBRANCH   4   7
TORSDOF 2
