REMARK  2 active torsions:
REMARK  status: ('A' for Active; 'I' for Inactive)
REMARK    1  A    between atoms: C3_3  and  C8_8 
REMARK    2  A    between atoms: C7_7  and  C8_8 
ROOT
HETATM    1  C1  UNL     1     -32.473   7.428   4.120  1.00 20.00     0.018 A 
HETATM    2  C2  UNL     1     -31.923   8.052   2.963  1.00 20.00     0.032 A 
HETATM    3  C3  UNL     1     -33.319   6.391   3.795  1.00 20.00    -0.001 A 
HETATM    4  C4  UNL     1     -32.369   7.468   1.798  1.00 20.00     0.075 A 
HETATM    5  S9  UNL     1     -33.447   6.173   2.101  1.00 20.00    -0.081 SA
HETATM    6 CL10 UNL     1     -31.967   7.895   0.188  1.00 20.00    -0.076 Cl
ENDROOT
BRANCH   3   7
HETATM    7  C8  UNL     1     -34.096   5.484   4.722  1.00 20.00     0.102 C 
HETATM    8 BR11 UNL     1     -33.686   3.617   4.289  1.00 20.00    -0.085 Br
BRANCH   7   9
HETATM    9  C7  UNL     1     -33.836   5.744   6.166  1.00 20.00     0.005 A 
HETATM   10  C5  UNL     1     -34.597   6.818   6.891  1.00 20.00     0.006 A 
HETATM   11  C6  UNL     1     -34.862   5.371   7.199  1.00 20.00     0.006 A 
ENDBRANCH   7   9
ENDBRANCH   3   7
TORSDOF 2
