REMARK  0 active torsions:
REMARK  status: ('A' for Active; 'I' for Inactive)
ROOT
HETATM    1  C1  UNL     1     -34.084   4.672   3.915  1.00 20.00     0.149 A 
HETATM    2  C2  UNL     1     -34.124   5.507   5.012  1.00 20.00     0.094 A 
HETATM    3  C3  UNL     1     -33.029   6.393   3.057  1.00 20.00     0.145 A 
HETATM    4  N4  UNL     1     -33.457   5.179   2.793  1.00 20.00    -0.244 NA
HETATM    5  S5  UNL     1     -33.346   6.989   4.635  1.00 20.00    -0.049 SA
HETATM    6 CL6  UNL     1     -34.803   5.231   6.553  1.00 20.00    -0.075 Cl
HETATM    7 BR7  UNL     1     -32.103   7.440   1.755  1.00 20.00    -0.021 Br
ENDROOT
TORSDOF 0
