REMARK  1 active torsions:
REMARK  status: ('A' for Active; 'I' for Inactive)
REMARK    1  A    between atoms: C1_1  and  C2_2 
ROOT
HETATM    1  C1  UNL     1     -33.942   6.162   6.075  1.00 20.00     0.384 C 
HETATM    2  F3  UNL     1     -34.199   7.497   6.041  1.00 20.00    -0.181 F 
HETATM    3  F4  UNL     1     -32.695   6.033   6.601  1.00 20.00    -0.181 F 
HETATM    4 CL6  UNL     1     -35.110   5.379   7.160  1.00 20.00    -0.042 Cl
ENDROOT
BRANCH   1   5
HETATM    5  C2  UNL     1     -33.945   5.615   4.652  1.00 20.00     0.336 C 
HETATM    6  F5  UNL     1     -35.180   5.853   4.123  1.00 20.00    -0.199 F 
HETATM    7 CL7  UNL     1     -33.669   3.854   4.617  1.00 20.00    -0.058 Cl
HETATM    8 CL8  UNL     1     -32.745   6.438   3.622  1.00 20.00    -0.058 Cl
ENDBRANCH   1   5
TORSDOF 1
