REMARK  1 active torsions:
REMARK  status: ('A' for Active; 'I' for Inactive)
REMARK    1  A    between atoms: C2_2  and  C6_6 
ROOT
HETATM    1  C1  UNL     1     -33.626   5.345   3.667  1.00 20.00     0.080 A 
HETATM    2  C2  UNL     1     -33.823   6.494   4.403  1.00 20.00     0.047 A 
HETATM    3  C3  UNL     1     -32.424   7.291   2.914  1.00 20.00     0.144 A 
HETATM    4  N7  UNL     1     -33.134   7.611   3.973  1.00 20.00    -0.238 NA
HETATM    5  S8  UNL     1     -32.538   5.664   2.381  1.00 20.00    -0.073 SA
HETATM    6 BR9  UNL     1     -31.324   8.570   2.018  1.00 20.00    -0.021 Br
ENDROOT
BRANCH   2   7
HETATM    7  C6  UNL     1     -34.750   6.539   5.629  1.00 20.00     0.038 A 
HETATM    8  C4  UNL     1     -34.185   7.016   6.946  1.00 20.00     0.011 A 
HETATM    9  C5  UNL     1     -34.504   5.566   6.759  1.00 20.00     0.011 A 
ENDBRANCH   2   7
TORSDOF 1
