REMARK  3 active torsions:
REMARK  status: ('A' for Active; 'I' for Inactive)
REMARK    1  A    between atoms: C4_4  and  C7_7 
REMARK    2  A    between atoms: C6_6  and  N9_9 
REMARK    3  A    between atoms: C7_7  and  N9_9 
ROOT
HETATM    1  C1  UNL     1     -33.487   7.806   6.090  1.00 20.00     0.095 C 
HETATM    2  C7  UNL     1     -33.222   6.823   5.015  1.00 20.00     0.330 C 
HETATM    3  N8  UNL     1     -33.694   8.595   6.916  1.00 20.00    -0.195 NA
ENDROOT
BRANCH   2   4
HETATM    4  C4  UNL     1     -34.267   5.764   4.950  1.00 20.00     0.033 A 
HETATM    5  C2  UNL     1     -33.874   4.321   4.793  1.00 20.00     0.008 A 
HETATM    6  C3  UNL     1     -34.446   4.806   6.096  1.00 20.00     0.008 A 
ENDBRANCH   2   4
BRANCH   2   7
HETATM    7  N9  UNL     1     -33.098   7.536   3.755  1.00 20.00     0.101 N 
HETATM    8  H21 UNL     1     -34.028   7.754   3.396  1.00 20.00     0.317 HD
BRANCH   7   9
HETATM    9  C6  UNL     1     -32.383   6.736   2.768  1.00 20.00     0.267 C 
HETATM   10  C5  UNL     1     -32.241   7.472   1.479  1.00 20.00     0.037 C 
ENDBRANCH   7   9
ENDBRANCH   2   7
TORSDOF 3
