REMARK  3 active torsions:
REMARK  status: ('A' for Active; 'I' for Inactive)
REMARK    1  A    between atoms: C6_6  and  C8_8 
REMARK    2  A    between atoms: C7_7  and  N10_10 
REMARK    3  A    between atoms: C8_8  and  N10_10 
ROOT
HETATM    1  C1  UNL     1     -33.933   7.238   5.973  1.00 20.00     0.095 C 
HETATM    2  C8  UNL     1     -33.336   6.627   4.762  1.00 20.00     0.330 C 
HETATM    3  N9  UNL     1     -34.400   7.739   6.909  1.00 20.00    -0.195 NA
ENDROOT
BRANCH   2   4
HETATM    4  C6  UNL     1     -34.164   5.510   4.228  1.00 20.00     0.033 A 
HETATM    5  C2  UNL     1     -33.515   4.223   3.800  1.00 20.00     0.008 A 
HETATM    6  C3  UNL     1     -34.364   4.261   5.040  1.00 20.00     0.008 A 
ENDBRANCH   2   4
BRANCH   2   7
HETATM    7  N10 UNL     1     -33.131   7.669   3.770  1.00 20.00     0.106 N 
HETATM    8  H22 UNL     1     -32.795   8.515   4.232  1.00 20.00     0.318 HD
BRANCH   7   9
HETATM    9  C7  UNL     1     -32.157   7.254   2.769  1.00 20.00     0.222 A 
HETATM   10  C4  UNL     1     -32.561   6.336   1.648  1.00 20.00     0.038 A 
HETATM   11  C5  UNL     1     -32.240   7.774   1.360  1.00 20.00     0.038 A 
ENDBRANCH   7   9
ENDBRANCH   2   7
TORSDOF 3
