REMARK  0 active torsions:
REMARK  status: ('A' for Active; 'I' for Inactive)
ROOT
HETATM    1  C1  UNL     1     -34.059   7.305   6.220  1.00 20.00     0.068 C 
HETATM    2  C2  UNL     1     -32.878   4.716   2.711  1.00 20.00     0.009 A 
HETATM    3  C3  UNL     1     -32.447   5.654   1.770  1.00 20.00     0.024 A 
HETATM    4  C4  UNL     1     -33.590   7.441   2.962  1.00 20.00     0.033 A 
HETATM    5  C5  UNL     1     -33.669   5.153   3.760  1.00 20.00    -0.050 A 
HETATM    6  C6  UNL     1     -34.018   6.504   3.890  1.00 20.00    -0.033 A 
HETATM    7  C7  UNL     1     -32.801   7.006   1.895  1.00 20.00     0.034 A 
HETATM    8  C8  UNL     1     -34.216   4.347   4.895  1.00 20.00     0.041 C 
HETATM    9  C9  UNL     1     -35.303   5.293   5.435  1.00 20.00     0.028 C 
HETATM   10  C10 UNL     1     -34.847   6.734   5.121  1.00 20.00     0.126 C 
HETATM   11  N11 UNL     1     -33.437   7.757   7.089  1.00 20.00    -0.197 NA
HETATM   12 CL12 UNL     1     -32.250   8.142   0.722  1.00 20.00    -0.084 Cl
ENDROOT
TORSDOF 0
