REMARK  2 active torsions:
REMARK  status: ('A' for Active; 'I' for Inactive)
REMARK    1  A    between atoms: C5_5  and  N8_8 
REMARK    2  A    between atoms: C7_7  and  N8_8 
ROOT
HETATM    1  C1  UNL     1     -32.119   8.197   0.955  1.00 20.00     0.013 C 
HETATM    2  C2  UNL     1     -32.241   7.422   1.863  1.00 20.00    -0.087 C 
HETATM    3  C7  UNL     1     -32.386   6.472   2.969  1.00 20.00     0.364 C 
ENDROOT
BRANCH   3   4
HETATM    4  N8  UNL     1     -33.105   7.086   4.086  1.00 20.00     0.099 N 
HETATM    5  C6  UNL     1     -32.220   7.975   4.837  1.00 20.00     0.311 C 
BRANCH   4   6
HETATM    6  C5  UNL     1     -33.661   6.056   4.963  1.00 20.00     0.223 A 
HETATM    7  C3  UNL     1     -34.826   6.369   5.860  1.00 20.00     0.038 A 
HETATM    8  C4  UNL     1     -35.012   5.460   4.681  1.00 20.00     0.038 A 
ENDBRANCH   4   6
ENDBRANCH   3   4
TORSDOF 2
