REMARK  3 active torsions:
REMARK  status: ('A' for Active; 'I' for Inactive)
REMARK    1  A    between atoms: C6_6  and  N11_11 
REMARK    2  A    between atoms: C8_8  and  C9_9 
REMARK    3  A    between atoms: C9_9  and  N11_11 
ROOT
HETATM    1  C1  UNL     1     -32.552   8.468   0.835  1.00 20.00     0.060 C 
HETATM    2  C8  UNL     1     -32.347   7.296   1.699  1.00 20.00     0.153 C 
HETATM    3  N10 UNL     1     -32.711   9.393   0.152  1.00 20.00    -0.197 NA
ENDROOT
BRANCH   2   4
HETATM    4  C9  UNL     1     -33.486   7.119   2.698  1.00 20.00     0.284 C 
BRANCH   4   5
HETATM    5  N11 UNL     1     -33.257   5.959   3.543  1.00 20.00     0.093 N 
HETATM    6  H27 UNL     1     -32.276   5.912   3.803  1.00 20.00     0.316 HD
BRANCH   5   7
HETATM    7  C6  UNL     1     -34.050   6.046   4.748  1.00 20.00     0.154 C 
HETATM    8  C4  UNL     1     -33.687   7.295   5.560  1.00 20.00     0.041 C 
HETATM    9  C2  UNL     1     -34.095   6.971   6.994  1.00 20.00     0.003 C 
HETATM   10  C3  UNL     1     -34.098   5.446   7.102  1.00 20.00     0.003 C 
HETATM   11  C5  UNL     1     -33.691   4.922   5.727  1.00 20.00     0.041 C 
HETATM   12  C7  UNL     1     -35.537   6.023   4.377  1.00 20.00     0.049 C 
ENDBRANCH   5   7
ENDBRANCH   4   5
ENDBRANCH   2   4
TORSDOF 3
