REMARK  3 active torsions:
REMARK  status: ('A' for Active; 'I' for Inactive)
REMARK    1  A    between atoms: C5_5  and  C8_8 
REMARK    2  A    between atoms: C8_8  and  C9_9 
REMARK    3  A    between atoms: C9_9  and  C10_10 
ROOT
HETATM    1  C1  UNL     1     -32.905   7.222   4.889  1.00 20.00     0.131 C 
HETATM    2  C2  UNL     1     -33.711   6.829   6.101  1.00 20.00     0.079 C 
HETATM    3  C3  UNL     1     -34.392   5.551   5.627  1.00 20.00     0.008 C 
HETATM    4  C4  UNL     1     -34.582   5.756   4.130  1.00 20.00     0.013 C 
HETATM    5  C5  UNL     1     -33.272   6.399   3.672  1.00 20.00     0.055 C 
HETATM    6  O11 UNL     1     -32.057   8.106   4.898  1.00 20.00    -0.298 OA
ENDROOT
BRANCH   5   7
HETATM    7  C8  UNL     1     -33.430   7.235   2.417  1.00 20.00     0.012 C 
BRANCH   7   8
HETATM    8  C9  UNL     1     -32.071   7.600   1.816  1.00 20.00     0.005 C 
BRANCH   8   9
HETATM    9  C10 UNL     1     -32.175   8.389   0.498  1.00 20.00    -0.023 C 
HETATM   10  C6  UNL     1     -32.932   9.699   0.736  1.00 20.00     0.009 C 
HETATM   11  C7  UNL     1     -32.864   7.590  -0.609  1.00 20.00     0.009 C 
ENDBRANCH   8   9
ENDBRANCH   7   8
ENDBRANCH   5   7
TORSDOF 3
