REMARK  0 active torsions:
REMARK  status: ('A' for Active; 'I' for Inactive)
ROOT
HETATM    1  C1  UNL     1     -33.611   7.084   5.038  1.00 20.00     0.225 C 
HETATM    2  C2  UNL     1     -33.230   5.362   2.691  1.00 20.00     0.021 C 
HETATM    3  C3  UNL     1     -33.620   4.738   4.023  1.00 20.00     0.020 C 
HETATM    4  C4  UNL     1     -32.325   6.550   2.943  1.00 20.00     0.122 C 
HETATM    5  C5  UNL     1     -34.353   5.742   4.933  1.00 20.00     0.034 C 
HETATM    6  C6  UNL     1     -34.490   5.126   6.336  1.00 20.00     0.025 C 
HETATM    7  C7  UNL     1     -35.762   6.045   4.390  1.00 20.00     0.025 C 
HETATM    8  N8  UNL     1     -32.824   7.448   3.966  1.00 20.00    -0.360 N 
HETATM    9  O9  UNL     1     -33.790   7.846   5.991  1.00 20.00    -0.273 OA
HETATM   10  H22 UNL     1     -32.573   8.429   3.885  1.00 20.00     0.162 HD
ENDROOT
TORSDOF 0
