REMARK  3 active torsions:
REMARK  status: ('A' for Active; 'I' for Inactive)
REMARK    1  A    between atoms: C5_5  and  C8_8 
REMARK    2  A    between atoms: C8_8  and  C9_9 
REMARK    3  A    between atoms: C9_9  and  C10_10 
ROOT
HETATM    1  C1  UNL     1     -33.766   5.592   4.016  1.00 20.00     0.131 C 
HETATM    2  C2  UNL     1     -34.675   5.099   5.114  1.00 20.00     0.079 C 
HETATM    3  C3  UNL     1     -34.690   6.285   6.069  1.00 20.00     0.008 C 
HETATM    4  C4  UNL     1     -34.522   7.501   5.168  1.00 20.00     0.013 C 
HETATM    5  C5  UNL     1     -33.461   7.070   4.154  1.00 20.00     0.055 C 
HETATM    6  O11 UNL     1     -33.333   4.876   3.123  1.00 20.00    -0.298 OA
ENDROOT
BRANCH   5   7
HETATM    7  C8  UNL     1     -33.557   7.820   2.840  1.00 20.00     0.012 C 
BRANCH   7   8
HETATM    8  C9  UNL     1     -32.281   7.657   2.011  1.00 20.00     0.005 C 
BRANCH   8   9
HETATM    9  C10 UNL     1     -32.354   8.342   0.633  1.00 20.00    -0.023 C 
HETATM   10  C6  UNL     1     -32.592   9.843   0.812  1.00 20.00     0.009 C 
HETATM   11  C7  UNL     1     -33.448   7.749  -0.257  1.00 20.00     0.009 C 
ENDBRANCH   8   9
ENDBRANCH   7   8
ENDBRANCH   5   7
TORSDOF 3
