REMARK  1 active torsions:
REMARK  status: ('A' for Active; 'I' for Inactive)
REMARK    1  A    between atoms: C7_7  and  N9_9 
ROOT
HETATM    1  C1  UNL     1     -32.281   7.946   1.697  1.00 20.00     0.089 C 
HETATM    2  C7  UNL     1     -31.993   7.442   3.039  1.00 20.00     0.395 C 
HETATM    3  N8  UNL     1     -32.506   8.345   0.631  1.00 20.00    -0.195 NA
ENDROOT
BRANCH   2   4
HETATM    4  N9  UNL     1     -33.145   7.620   3.920  1.00 20.00     0.102 N 
HETATM    5  C3  UNL     1     -34.330   6.913   3.438  1.00 20.00     0.274 C 
HETATM    6  C2  UNL     1     -34.339   5.385   3.548  1.00 20.00     0.040 C 
HETATM    7  C5  UNL     1     -34.073   4.773   4.922  1.00 20.00     0.075 C 
HETATM    8  S10 UNL     1     -34.833   5.650   6.322  1.00 20.00    -0.167 SA
HETATM    9  C6  UNL     1     -33.933   7.246   6.309  1.00 20.00     0.104 C 
HETATM   10  C4  UNL     1     -32.773   7.392   5.320  1.00 20.00     0.283 C 
ENDBRANCH   2   4
TORSDOF 1
