REMARK  3 active torsions:
REMARK  status: ('A' for Active; 'I' for Inactive)
REMARK    1  A    between atoms: C6_6  and  C9_9 
REMARK    2  A    between atoms: C7_7  and  C10_10 
REMARK    3  A    between atoms: C10_10  and  N11_11 
ROOT
HETATM    1  C1  UNL     1     -33.292   5.024   3.455  1.00 20.00     0.032 C 
HETATM    2  C2  UNL     1     -33.975   7.229   4.464  1.00 20.00     0.032 C 
HETATM    3  C3  UNL     1     -32.661   5.763   2.283  1.00 20.00     0.235 C 
HETATM    4  C4  UNL     1     -33.341   7.957   3.286  1.00 20.00     0.235 C 
HETATM    5  C6  UNL     1     -34.444   5.822   4.076  1.00 20.00    -0.012 C 
HETATM    6  N11 UNL     1     -32.205   7.129   2.736  1.00 20.00    -0.069 N 
HETATM    7  H32 UNL     1     -31.531   6.988   3.502  1.00 20.00     0.280 HD
ENDROOT
BRANCH   6   8
HETATM    8  C10 UNL     1     -31.464   7.856   1.648  1.00 20.00     0.268 C 
BRANCH   8   9
HETATM    9  C7  UNL     1     -32.461   8.434   0.668  1.00 20.00     0.171 A 
HETATM   10  C5  UNL     1     -32.095   9.585  -0.227  1.00 20.00     0.201 A 
HETATM   11  O12 UNL     1     -32.878   9.771   0.963  1.00 20.00    -0.380 OA
ENDBRANCH   8   9
ENDBRANCH   6   8
BRANCH   5  12
HETATM   12  C9  UNL     1     -35.020   5.090   5.286  1.00 20.00     0.000 C 
HETATM   13  C8  UNL     1     -33.998   4.914   6.362  1.00 20.00     0.005 C 
ENDBRANCH   5  12
TORSDOF 3
