REMARK  1 active torsions:
REMARK  status: ('A' for Active; 'I' for Inactive)
REMARK    1  A    between atoms: C5_5  and  N7_7 
ROOT
HETATM    1  C1  UNL     1     -32.796   6.170   2.699  1.00 20.00     0.158 C 
HETATM    2  N7  UNL     1     -33.242   5.260   3.295  1.00 20.00    -0.268 NA
HETATM    3  S9  UNL     1     -32.174   7.386   1.880  1.00 20.00    -0.055 SA
ENDROOT
BRANCH   2   4
HETATM    4  C5  UNL     1     -34.357   5.590   4.182  1.00 20.00     0.139 C 
HETATM    5  C2  UNL     1     -34.353   4.664   5.396  1.00 20.00     0.059 C 
HETATM    6  C3  UNL     1     -33.987   5.565   6.567  1.00 20.00     0.274 C 
HETATM    7  N8  UNL     1     -34.548   6.851   6.154  1.00 20.00     0.086 N 
HETATM    8  C4  UNL     1     -34.171   6.997   4.746  1.00 20.00     0.299 C 
HETATM    9  C6  UNL     1     -34.070   7.954   6.974  1.00 20.00     0.310 C 
ENDBRANCH   2   4
TORSDOF 1
