REMARK  2 active torsions:
REMARK  status: ('A' for Active; 'I' for Inactive)
REMARK    1  A    between atoms: C6_6  and  C9_9 
REMARK    2  A    between atoms: C7_7  and  N10_10 
ROOT
HETATM    1  C1  UNL     1     -32.136   7.740   1.545  1.00 20.00     0.158 C 
HETATM    2  N10 UNL     1     -31.973   7.041   2.471  1.00 20.00    -0.270 NA
HETATM    3  S11 UNL     1     -32.323   8.684   0.276  1.00 20.00    -0.055 SA
ENDROOT
BRANCH   2   4
HETATM    4  C7  UNL     1     -33.143   6.902   3.346  1.00 20.00     0.109 C 
HETATM    5  C4  UNL     1     -32.794   7.423   4.739  1.00 20.00     0.028 C 
HETATM    6  C2  UNL     1     -33.939   7.198   5.724  1.00 20.00     0.007 C 
HETATM    7  C6  UNL     1     -34.410   5.736   5.775  1.00 20.00    -0.015 C 
HETATM    8  C3  UNL     1     -34.720   5.213   4.364  1.00 20.00     0.007 C 
HETATM    9  C5  UNL     1     -33.575   5.437   3.378  1.00 20.00     0.028 C 
BRANCH   7  10
HETATM   10  C9  UNL     1     -33.401   4.842   6.500  1.00 20.00     0.000 C 
HETATM   11  C8  UNL     1     -33.142   5.319   7.891  1.00 20.00     0.005 C 
ENDBRANCH   7  10
ENDBRANCH   2   4
TORSDOF 2
