REMARK  2 active torsions:
REMARK  status: ('A' for Active; 'I' for Inactive)
REMARK    1  A    between atoms: C6_6  and  C7_7 
REMARK    2  A    between atoms: C7_7  and  N8_8 
ROOT
HETATM    1  C1  UNL     1     -32.599   8.110   1.276  1.00 20.00     0.157 C 
HETATM    2  N8  UNL     1     -32.387   7.805   2.392  1.00 20.00    -0.273 NA
HETATM    3  S10 UNL     1     -32.881   8.545  -0.230  1.00 20.00    -0.055 SA
ENDROOT
BRANCH   2   4
HETATM    4  C7  UNL     1     -32.638   6.403   2.710  1.00 20.00     0.182 C 
BRANCH   4   5
HETATM    5  C6  UNL     1     -33.693   6.330   3.805  1.00 20.00     0.141 C 
HETATM    6  C4  UNL     1     -33.226   7.056   5.069  1.00 20.00     0.034 C 
HETATM    7  C2  UNL     1     -34.239   6.880   6.196  1.00 20.00     0.005 C 
HETATM    8  C3  UNL     1     -34.577   5.406   6.387  1.00 20.00     0.026 C 
HETATM    9  C5  UNL     1     -34.964   4.765   5.061  1.00 20.00     0.168 C 
HETATM   10  O9  UNL     1     -33.933   4.947   4.090  1.00 20.00    -0.384 OA
ENDBRANCH   4   5
ENDBRANCH   2   4
TORSDOF 2
