REMARK  1 active torsions:
REMARK  status: ('A' for Active; 'I' for Inactive)
REMARK    1  A    between atoms: C3_3  and  O8_8 
ROOT
HETATM    1  C1  UNL     1     -34.855   4.839   4.850  1.00 20.00     0.040 C 
HETATM    2  C2  UNL     1     -35.039   5.227   6.305  1.00 20.00     0.172 C 
HETATM    3  C3  UNL     1     -33.142   6.308   5.485  1.00 20.00     0.264 C 
HETATM    4  C4  UNL     1     -34.053   6.005   4.287  1.00 20.00     0.004 C 
HETATM    5  C5  UNL     1     -34.979   7.185   3.938  1.00 20.00     0.020 C 
HETATM    6  C6  UNL     1     -33.254   5.615   3.043  1.00 20.00     0.020 C 
HETATM    7  O7  UNL     1     -33.937   6.075   6.659  1.00 20.00    -0.361 OA
ENDROOT
BRANCH   3   8
HETATM    8  O8  UNL     1     -32.634   7.631   5.438  1.00 20.00    -0.371 OA
HETATM    9  H20 UNL     1     -32.073   7.740   6.222  1.00 20.00     0.212 HD
ENDBRANCH   3   8
TORSDOF 1
