REMARK  1 active torsions:
REMARK  status: ('A' for Active; 'I' for Inactive)
REMARK    1  A    between atoms: C1_1  and  O10_10 
ROOT
HETATM    1  C1  UNL     1     -33.442   7.104   4.319  1.00 20.00     0.099 C 
HETATM    2  C2  UNL     1     -34.561   6.926   5.057  1.00 20.00     0.026 C 
HETATM    3  C3  UNL     1     -33.417   5.816   3.563  1.00 20.00     0.183 C 
HETATM    4  C4  UNL     1     -34.408   6.552   6.510  1.00 20.00     0.018 C 
HETATM    5  C5  UNL     1     -35.550   6.032   4.353  1.00 20.00     0.030 C 
HETATM    6  C6  UNL     1     -33.777   5.135   6.533  1.00 20.00     0.002 C 
HETATM    7  C7  UNL     1     -34.195   4.199   5.351  1.00 20.00     0.013 C 
HETATM    8  C8  UNL     1     -34.559   4.932   4.032  1.00 20.00     0.063 C 
HETATM    9  O9  UNL     1     -32.540   5.496   2.778  1.00 20.00    -0.290 OA
ENDROOT
BRANCH   1  10
HETATM   10  O10 UNL     1     -32.262   7.671   4.704  1.00 20.00    -0.360 OA
HETATM   11  H20 UNL     1     -31.630   7.669   3.972  1.00 20.00     0.217 HD
ENDBRANCH   1  10
TORSDOF 1
