REMARK  3 active torsions:
REMARK  status: ('A' for Active; 'I' for Inactive)
REMARK    1  A    between atoms: C3_3  and  C4_4 
REMARK    2  A    between atoms: C4_4  and  C5_5 
REMARK    3  A    between atoms: C4_4  and  O6_6 
ROOT
HETATM    1  C4  UNL     1     -32.661   6.550   4.590  1.00 20.00     0.229 C 
ENDROOT
BRANCH   1   2
HETATM    2  C3  UNL     1     -34.006   6.414   5.214  1.00 20.00     0.023 A 
HETATM    3  C1  UNL     1     -34.612   5.053   5.418  1.00 20.00     0.008 A 
HETATM    4  C2  UNL     1     -34.143   5.852   6.602  1.00 20.00     0.008 A 
ENDBRANCH   1   2
BRANCH   1   5
HETATM    5  C5  UNL     1     -32.715   6.475   3.075  1.00 20.00     0.413 C 
HETATM    6  F7  UNL     1     -33.179   5.274   2.663  1.00 20.00    -0.168 F 
HETATM    7  F8  UNL     1     -33.542   7.419   2.573  1.00 20.00    -0.168 F 
HETATM    8  F9  UNL     1     -31.497   6.656   2.524  1.00 20.00    -0.168 F 
ENDBRANCH   1   5
BRANCH   1   9
HETATM    9  O6  UNL     1     -32.085   7.808   4.945  1.00 20.00    -0.386 OA
HETATM   10  H16 UNL     1     -32.019   7.815   5.911  1.00 20.00     0.210 HD
ENDBRANCH   1   9
TORSDOF 3
