REMARK  0 active torsions:
REMARK  status: ('A' for Active; 'I' for Inactive)
ROOT
HETATM    1  C1  UNL     1     -33.625   5.924   3.801  1.00 20.00     0.137 C 
HETATM    2  C2  UNL     1     -34.486   4.668   5.758  1.00 20.00     0.108 C 
HETATM    3  C3  UNL     1     -34.274   6.015   5.105  1.00 20.00     0.326 C 
HETATM    4  N4  UNL     1     -33.109   5.853   2.764  1.00 20.00    -0.191 NA
HETATM    5  F5  UNL     1     -33.521   6.796   5.920  1.00 20.00    -0.190 F 
HETATM    6  F6  UNL     1     -35.470   6.639   4.962  1.00 20.00    -0.190 F 
ENDROOT
TORSDOF 0
