REMARK  0 active torsions:
REMARK  status: ('A' for Active; 'I' for Inactive)
ROOT
HETATM    1  C1  UNL     1     -32.514   6.738   2.178  1.00 20.00     0.088 C 
HETATM    2  C2  UNL     1     -33.622   5.950   4.167  1.00 20.00    -0.060 C 
HETATM    3  C3  UNL     1     -33.026   5.697   2.994  1.00 20.00     0.097 C 
HETATM    4  C4  UNL     1     -34.181   4.889   5.068  1.00 20.00     0.046 C 
HETATM    5  C5  UNL     1     -33.719   7.319   4.768  1.00 20.00     0.108 C 
HETATM    6  C6  UNL     1     -33.739   5.251   6.476  1.00 20.00     0.078 C 
HETATM    7  N7  UNL     1     -32.092   7.585   1.507  1.00 20.00    -0.192 NA
HETATM    8  S8  UNL     1     -33.861   7.058   6.564  1.00 20.00    -0.165 SA
ENDROOT
TORSDOF 0
