REMARK  4 active torsions:
REMARK  status: ('A' for Active; 'I' for Inactive)
REMARK    1  A    between atoms: C4_4  and  N11_11 
REMARK    2  A    between atoms: C7_7  and  C9_9 
REMARK    3  A    between atoms: C8_8  and  N11_11 
REMARK    4  A    between atoms: C9_9  and  N11_11 
ROOT
HETATM    1  C1  UNL     1     -33.074   5.698   2.843  1.00 20.00     0.095 C 
HETATM    2  C9  UNL     1     -32.636   6.868   3.618  1.00 20.00     0.328 C 
HETATM    3  N10 UNL     1     -33.417   4.773   2.232  1.00 20.00    -0.195 NA
ENDROOT
BRANCH   2   4
HETATM    4  C7  UNL     1     -32.585   8.145   2.770  1.00 20.00     0.046 C 
HETATM    5  C5  UNL     1     -31.645   8.075   1.570  1.00 20.00     0.008 C 
ENDBRANCH   2   4
BRANCH   2   6
HETATM    6  N11 UNL     1     -33.467   7.044   4.782  1.00 20.00     0.110 N 
BRANCH   6   7
HETATM    7  C4  UNL     1     -33.790   5.753   5.405  1.00 20.00     0.224 A 
HETATM    8  C2  UNL     1     -35.013   5.609   6.269  1.00 20.00     0.038 A 
HETATM    9  C3  UNL     1     -34.964   4.945   4.924  1.00 20.00     0.038 A 
ENDBRANCH   6   7
BRANCH   6  10
HETATM   10  C8  UNL     1     -32.820   7.920   5.770  1.00 20.00     0.270 C 
HETATM   11  C6  UNL     1     -33.715   8.167   6.937  1.00 20.00     0.037 C 
ENDBRANCH   6  10
ENDBRANCH   2   6
TORSDOF 4
