REMARK  2 active torsions:
REMARK  status: ('A' for Active; 'I' for Inactive)
REMARK    1  A    between atoms: C6_6  and  C9_9 
REMARK    2  A    between atoms: C10_10  and  N12_12 
ROOT
HETATM    1  C1  UNL     1     -34.199   7.462   6.768  1.00 20.00     0.092 C 
HETATM    2  C8  UNL     1     -33.860   5.012   6.779  1.00 20.00     0.056 C 
HETATM    3  C10 UNL     1     -34.328   6.225   5.991  1.00 20.00     0.289 C 
HETATM    4  N11 UNL     1     -34.098   8.442   7.381  1.00 20.00    -0.195 NA
ENDROOT
BRANCH   3   5
HETATM    5  N12 UNL     1     -33.488   6.334   4.749  1.00 20.00    -0.055 N 
HETATM    6  C4  UNL     1     -33.507   7.734   4.185  1.00 20.00     0.237 C 
HETATM    7  C2  UNL     1     -32.546   7.820   3.007  1.00 20.00     0.032 C 
HETATM    8  C6  UNL     1     -32.872   6.778   1.931  1.00 20.00    -0.012 C 
HETATM    9  C3  UNL     1     -32.917   5.372   2.541  1.00 20.00     0.032 C 
HETATM   10  C5  UNL     1     -33.876   5.299   3.721  1.00 20.00     0.237 C 
HETATM   11  H31 UNL     1     -32.520   6.133   5.035  1.00 20.00     0.281 HD
BRANCH   8  12
HETATM   12  C9  UNL     1     -31.859   6.841   0.790  1.00 20.00     0.000 C 
HETATM   13  C7  UNL     1     -31.825   8.194   0.157  1.00 20.00     0.005 C 
ENDBRANCH   8  12
ENDBRANCH   3   5
TORSDOF 2
