REMARK  7 active torsions:
REMARK  status: ('A' for Active; 'I' for Inactive)
REMARK    1  A    between atoms: C1_1  and  C6_6 
REMARK    2  A    between atoms: C2_2  and  C7_7 
REMARK    3  A    between atoms: C3_3  and  C8_8 
REMARK    4  A    between atoms: C6_6  and  C10_10 
REMARK    5  A    between atoms: C7_7  and  C11_11 
REMARK    6  A    between atoms: C8_8  and  C10_10 
REMARK    7  A    between atoms: C9_9  and  C11_11 
ROOT
HETATM    1  C1  UNL     1     -32.810   4.731   3.977  1.00 20.00    -0.107 C 
HETATM    2  C2  UNL     1     -32.718   5.314   2.931  1.00 20.00    -0.107 C 
ENDROOT
BRANCH   1   3
HETATM    3  C6  UNL     1     -32.935   4.041   5.268  1.00 20.00     0.094 C 
BRANCH   3   4
HETATM    4  C10 UNL     1     -34.003   4.678   6.158  1.00 20.00     0.019 C 
BRANCH   4   5
HETATM    5  C8  UNL     1     -33.676   6.123   6.540  1.00 20.00     0.079 C 
BRANCH   5   6
HETATM    6  C3  UNL     1     -33.620   7.044   5.333  1.00 20.00     0.123 C 
HETATM    7  C4  UNL     1     -32.320   7.773   5.116  1.00 20.00     0.091 C 
HETATM    8  O12 UNL     1     -34.569   7.198   4.566  1.00 20.00    -0.298 OA
ENDBRANCH   5   6
ENDBRANCH   4   5
ENDBRANCH   3   4
ENDBRANCH   1   3
BRANCH   2   9
HETATM    9  C7  UNL     1     -32.619   6.047   1.662  1.00 20.00     0.094 C 
BRANCH   9  10
HETATM   10  C11 UNL     1     -32.723   7.560   1.862  1.00 20.00     0.012 C 
BRANCH  10  11
HETATM   11  C9  UNL     1     -32.638   8.342   0.548  1.00 20.00    -0.004 C 
HETATM   12  C5  UNL     1     -32.754   9.840   0.785  1.00 20.00     0.005 C 
ENDBRANCH  10  11
ENDBRANCH   9  10
ENDBRANCH   2   9
TORSDOF 7
