REMARK  4 active torsions:
REMARK  status: ('A' for Active; 'I' for Inactive)
REMARK    1  A    between atoms: C1_1  and  C9_9 
REMARK    2  A    between atoms: C6_6  and  C7_7 
REMARK    3  A    between atoms: C6_6  and  C8_8 
REMARK    4  A    between atoms: C7_7  and  C9_9 
ROOT
HETATM    1  C7  UNL     1     -33.612   6.821   3.979  1.00 20.00     0.016 C 
ENDROOT
BRANCH   1   2
HETATM    2  C6  UNL     1     -33.390   6.522   2.488  1.00 20.00     0.005 C 
BRANCH   2   3
HETATM    3  C8  UNL     1     -32.326   7.428   1.837  1.00 20.00    -0.023 C 
HETATM    4  C2  UNL     1     -32.753   8.894   1.950  1.00 20.00     0.009 C 
HETATM    5  C3  UNL     1     -32.076   7.076   0.370  1.00 20.00     0.009 C 
ENDBRANCH   2   3
ENDBRANCH   1   2
BRANCH   1   6
HETATM    6  C9  UNL     1     -34.630   5.891   4.682  1.00 20.00     0.006 C 
HETATM    7  C4  UNL     1     -34.112   4.445   4.621  1.00 20.00     0.022 C 
HETATM    8  C5  UNL     1     -36.016   5.955   4.028  1.00 20.00     0.022 C 
BRANCH   6   9
HETATM    9  C1  UNL     1     -34.709   6.267   6.158  1.00 20.00     0.239 C 
HETATM   10  O10 UNL     1     -33.753   6.276   6.927  1.00 20.00    -0.306 OA
ENDBRANCH   6   9
ENDBRANCH   1   6
TORSDOF 4
