REMARK  4 active torsions:
REMARK  status: ('A' for Active; 'I' for Inactive)
REMARK    1  A    between atoms: C4_4  and  C5_5 
REMARK    2  A    between atoms: C4_4  and  O8_8 
REMARK    3  A    between atoms: C5_5  and  S9_9 
REMARK    4  A    between atoms: C6_6  and  S9_9 
ROOT
HETATM    1  C1  UNL     1     -34.044   5.934   5.729  1.00 20.00     0.074 C 
HETATM    2  C2  UNL     1     -33.658   4.415   3.824  1.00 20.00     0.037 C 
HETATM    3  C6  UNL     1     -33.912   5.852   4.267  1.00 20.00     0.150 C 
HETATM    4  N7  UNL     1     -34.149   6.004   6.883  1.00 20.00    -0.196 NA
ENDROOT
BRANCH   3   5
HETATM    5  S9  UNL     1     -32.572   6.908   3.674  1.00 20.00    -0.148 SA
BRANCH   5   6
HETATM    6  C5  UNL     1     -33.097   7.045   1.938  1.00 20.00     0.101 C 
BRANCH   6   7
HETATM    7  C4  UNL     1     -32.137   7.907   1.134  1.00 20.00     0.177 C 
BRANCH   7   8
HETATM    8  O8  UNL     1     -32.084   9.218   1.681  1.00 20.00    -0.395 OA
HETATM    9  C3  UNL     1     -33.151  10.026   1.204  1.00 20.00     0.201 C 
ENDBRANCH   7   8
ENDBRANCH   6   7
ENDBRANCH   5   6
ENDBRANCH   3   5
TORSDOF 4
