REMARK  2 active torsions:
REMARK  status: ('A' for Active; 'I' for Inactive)
REMARK    1  A    between atoms: C3_3  and  C8_8 
REMARK    2  A    between atoms: C7_7  and  C8_8 
ROOT
HETATM    1  C1  UNL     1     -32.222   8.106   1.380  1.00 20.00     0.088 C 
HETATM    2  C2  UNL     1     -32.452   7.818   2.753  1.00 20.00     0.096 C 
HETATM    3  C3  UNL     1     -32.797   6.605   3.230  1.00 20.00    -0.070 C 
HETATM    4  C4  UNL     1     -32.956   5.457   2.263  1.00 20.00     0.044 C 
HETATM    5  N9  UNL     1     -32.032   8.350   0.262  1.00 20.00    -0.192 NA
ENDROOT
BRANCH   3   6
HETATM    6  C8  UNL     1     -33.042   6.307   4.710  1.00 20.00     0.010 C 
HETATM    7  C6  UNL     1     -33.496   7.564   5.461  1.00 20.00     0.015 C 
BRANCH   6   8
HETATM    8  C7  UNL     1     -34.054   5.169   4.958  1.00 20.00     0.004 C 
HETATM    9  C5  UNL     1     -34.305   4.896   6.436  1.00 20.00     0.006 C 
ENDBRANCH   6   8
ENDBRANCH   3   6
TORSDOF 2
