REMARK  2 active torsions:
REMARK  status: ('A' for Active; 'I' for Inactive)
REMARK    1  A    between atoms: C3_3  and  C8_8 
REMARK    2  A    between atoms: C7_7  and  C8_8 
ROOT
HETATM    1  C1  UNL     1     -32.161   7.976   3.352  1.00 20.00     0.053 A 
HETATM    2  C2  UNL     1     -32.574   6.440   1.533  1.00 20.00     0.087 A 
HETATM    3  C3  UNL     1     -32.762   7.084   4.241  1.00 20.00    -0.007 A 
HETATM    4  C4  UNL     1     -32.067   7.654   1.998  1.00 20.00     0.120 A 
HETATM    5  C5  UNL     1     -33.175   5.548   2.422  1.00 20.00     0.158 A 
HETATM    6  C6  UNL     1     -33.269   5.871   3.776  1.00 20.00     0.161 A 
HETATM    7  F10 UNL     1     -31.491   8.509   1.145  1.00 20.00    -0.206 F 
HETATM    8  F11 UNL     1     -33.661   4.383   1.975  1.00 20.00    -0.203 F 
HETATM    9  F12 UNL     1     -33.848   5.008   4.622  1.00 20.00    -0.202 F 
ENDROOT
BRANCH   3  10
HETATM   10  C8  UNL     1     -32.862   7.431   5.688  1.00 20.00     0.111 C 
BRANCH  10  11
HETATM   11  C7  UNL     1     -34.279   7.462   6.217  1.00 20.00     0.235 C 
HETATM   12  O9  UNL     1     -34.713   6.716   7.088  1.00 20.00    -0.307 OA
ENDBRANCH  10  11
ENDBRANCH   3  10
TORSDOF 2
