REMARK  4 active torsions:
REMARK  status: ('A' for Active; 'I' for Inactive)
REMARK    1  A    between atoms: C5_5  and  C9_9 
REMARK    2  A    between atoms: C6_6  and  C10_10 
REMARK    3  A    between atoms: C9_9  and  C12_12 
REMARK    4  A    between atoms: C11_11  and  C12_12 
ROOT
HETATM    1  C1  UNL     1     -33.099   5.318   3.462  1.00 20.00     0.131 C 
HETATM    2  C2  UNL     1     -33.101   4.479   4.721  1.00 20.00     0.079 C 
HETATM    3  C3  UNL     1     -34.299   4.824   5.595  1.00 20.00     0.012 C 
HETATM    4  C4  UNL     1     -34.449   7.115   4.555  1.00 20.00     0.016 C 
HETATM    5  C5  UNL     1     -33.243   6.824   3.655  1.00 20.00     0.056 C 
HETATM    6  C6  UNL     1     -34.430   6.328   5.876  1.00 20.00    -0.014 C 
HETATM    7  O13 UNL     1     -32.898   4.804   2.362  1.00 20.00    -0.298 OA
ENDROOT
BRANCH   5   8
HETATM    8  C9  UNL     1     -33.384   7.550   2.320  1.00 20.00     0.012 C 
BRANCH   8   9
HETATM    9  C12 UNL     1     -32.023   7.774   1.664  1.00 20.00     0.000 C 
BRANCH   9  10
HETATM   10  C11 UNL     1     -32.166   8.530   0.344  1.00 20.00    -0.005 C 
HETATM   11  C8  UNL     1     -32.837   9.880   0.544  1.00 20.00     0.005 C 
ENDBRANCH   9  10
ENDBRANCH   8   9
ENDBRANCH   5   8
BRANCH   6  12
HETATM   12  C10 UNL     1     -33.344   6.831   6.829  1.00 20.00     0.000 C 
HETATM   13  C7  UNL     1     -33.513   8.281   7.137  1.00 20.00     0.005 C 
ENDBRANCH   6  12
TORSDOF 4
