REMARK  3 active torsions:
REMARK  status: ('A' for Active; 'I' for Inactive)
REMARK    1  A    between atoms: C5_5  and  C9_9 
REMARK    2  A    between atoms: C6_6  and  C10_10 
REMARK    3  A    between atoms: C9_9  and  C11_11 
ROOT
HETATM    1  C1  UNL     1     -33.049   5.470   2.610  1.00 20.00     0.131 C 
HETATM    2  C2  UNL     1     -33.613   4.431   3.554  1.00 20.00     0.079 C 
HETATM    3  C3  UNL     1     -34.435   5.094   4.650  1.00 20.00     0.012 C 
HETATM    4  C4  UNL     1     -33.150   7.243   4.365  1.00 20.00     0.016 C 
HETATM    5  C5  UNL     1     -32.289   6.620   3.261  1.00 20.00     0.055 C 
HETATM    6  C6  UNL     1     -33.639   6.191   5.372  1.00 20.00    -0.014 C 
HETATM    7  O12 UNL     1     -33.131   5.328   1.390  1.00 20.00    -0.298 OA
ENDROOT
BRANCH   5   8
HETATM    8  C9  UNL     1     -31.876   7.674   2.238  1.00 20.00     0.012 C 
BRANCH   8   9
HETATM    9  C11 UNL     1     -33.089   8.244   1.509  1.00 20.00    -0.004 C 
HETATM   10  C8  UNL     1     -32.680   9.313   0.509  1.00 20.00     0.005 C 
ENDBRANCH   8   9
ENDBRANCH   5   8
BRANCH   6  11
HETATM   11  C10 UNL     1     -34.490   6.843   6.460  1.00 20.00     0.000 C 
HETATM   12  C7  UNL     1     -33.729   7.896   7.198  1.00 20.00     0.005 C 
ENDBRANCH   6  11
TORSDOF 3
