REMARK  4 active torsions:
REMARK  status: ('A' for Active; 'I' for Inactive)
REMARK    1  A    between atoms: C5_5  and  C6_6 
REMARK    2  A    between atoms: C6_6  and  C8_8 
REMARK    3  A    between atoms: C7_7  and  C8_8 
REMARK    4  A    between atoms: C8_8  and  O9_9 
ROOT
HETATM    1  C1  UNL     1     -33.387   9.950   1.599  1.00 20.00     0.012 C 
HETATM    2  C2  UNL     1     -32.904   8.869   1.800  1.00 20.00    -0.117 C 
HETATM    3  C5  UNL     1     -32.313   7.546   2.039  1.00 20.00     0.095 C 
ENDROOT
BRANCH   3   4
HETATM    4  C6  UNL     1     -31.848   7.368   3.484  1.00 20.00     0.044 C 
BRANCH   4   5
HETATM    5  C8  UNL     1     -32.956   7.411   4.552  1.00 20.00     0.122 C 
BRANCH   5   6
HETATM    6  C7  UNL     1     -33.720   6.086   4.772  1.00 20.00     0.006 C 
HETATM    7  C3  UNL     1     -34.744   6.235   5.904  1.00 20.00     0.012 C 
HETATM    8  C4  UNL     1     -34.435   5.590   3.511  1.00 20.00     0.012 C 
ENDBRANCH   5   6
BRANCH   5   9
HETATM    9  O9  UNL     1     -32.359   7.809   5.790  1.00 20.00    -0.395 OA
HETATM   10  H23 UNL     1     -33.074   7.828   6.442  1.00 20.00     0.210 HD
ENDBRANCH   5   9
ENDBRANCH   4   5
ENDBRANCH   3   4
TORSDOF 4
