REMARK  3 active torsions:
REMARK  status: ('A' for Active; 'I' for Inactive)
REMARK    1  A    between atoms: C2_2  and  C9_9 
REMARK    2  A    between atoms: C6_6  and  C9_9 
REMARK    3  A    between atoms: C7_7  and  O10_10 
ROOT
HETATM    1  C3  UNL     1     -33.551   6.518   6.843  1.00 20.00     0.003 C 
HETATM    2  C4  UNL     1     -33.005   7.077   5.530  1.00 20.00     0.007 C 
HETATM    3  C5  UNL     1     -34.840   5.775   6.490  1.00 20.00     0.032 C 
HETATM    4  C6  UNL     1     -34.189   7.039   4.568  1.00 20.00     0.018 C 
HETATM    5  C7  UNL     1     -34.889   5.742   4.967  1.00 20.00     0.122 C 
ENDROOT
BRANCH   4   6
HETATM    6  C9  UNL     1     -33.775   7.075   3.106  1.00 20.00     0.040 C 
BRANCH   6   7
HETATM    7  C2  UNL     1     -32.522   6.278   2.832  1.00 20.00    -0.093 C 
HETATM    8  C1  UNL     1     -31.307   6.845   2.878  1.00 20.00     0.014 C 
HETATM    9  C8  UNL     1     -32.698   4.830   2.473  1.00 20.00     0.042 C 
ENDBRANCH   6   7
ENDBRANCH   4   6
BRANCH   5  10
HETATM   10  O10 UNL     1     -36.220   5.711   4.490  1.00 20.00    -0.395 OA
HETATM   11  H26 UNL     1     -36.634   4.907   4.848  1.00 20.00     0.210 HD
ENDBRANCH   5  10
TORSDOF 3
