REMARK  2 active torsions:
REMARK  status: ('A' for Active; 'I' for Inactive)
REMARK    1  A    between atoms: C4_4  and  C10_10 
REMARK    2  A    between atoms: C8_8  and  C10_10 
ROOT
HETATM    1  C5  UNL     1     -34.569   5.960   6.811  1.00 20.00     0.002 C 
HETATM    2  C6  UNL     1     -33.210   6.585   6.487  1.00 20.00     0.006 C 
HETATM    3  C7  UNL     1     -35.399   6.026   5.525  1.00 20.00     0.016 C 
HETATM    4  C8  UNL     1     -33.368   7.194   5.092  1.00 20.00     0.004 C 
HETATM    5  C9  UNL     1     -34.398   6.296   4.409  1.00 20.00     0.062 C 
HETATM    6 BR12 UNL     1     -33.662   4.602   3.775  1.00 20.00    -0.091 Br
ENDROOT
BRANCH   4   7
HETATM    7  C10 UNL     1     -32.048   7.408   4.367  1.00 20.00     0.045 C 
BRANCH   7   8
HETATM    8  C4  UNL     1     -32.248   8.044   3.016  1.00 20.00    -0.051 A 
HETATM    9  C1  UNL     1     -31.815   7.460   1.791  1.00 20.00     0.014 A 
HETATM   10  C2  UNL     1     -32.122   8.249   0.704  1.00 20.00     0.050 A 
HETATM   11  S11 UNL     1     -32.928   9.689   1.163  1.00 20.00    -0.113 SA
HETATM   12  C3  UNL     1     -32.869   9.258   2.819  1.00 20.00     0.056 A 
ENDBRANCH   7   8
ENDBRANCH   4   7
TORSDOF 2
