REMARK  3 active torsions:
REMARK  status: ('A' for Active; 'I' for Inactive)
REMARK    1  A    between atoms: C5_5  and  C9_9 
REMARK    2  A    between atoms: C6_6  and  C10_10 
REMARK    3  A    between atoms: C9_9  and  C11_11 
ROOT
HETATM    1  C1  UNL     1     -33.097   5.200   3.122  1.00 20.00     0.131 C 
HETATM    2  C2  UNL     1     -33.951   4.351   4.039  1.00 20.00     0.079 C 
HETATM    3  C3  UNL     1     -35.169   5.131   4.515  1.00 20.00     0.012 C 
HETATM    4  C4  UNL     1     -33.972   7.315   4.127  1.00 20.00     0.016 C 
HETATM    5  C5  UNL     1     -32.715   6.581   3.644  1.00 20.00     0.055 C 
HETATM    6  C6  UNL     1     -34.813   6.497   5.119  1.00 20.00    -0.014 C 
HETATM    7  O12 UNL     1     -32.669   4.747   2.061  1.00 20.00    -0.298 OA
ENDROOT
BRANCH   5   8
HETATM    8  C9  UNL     1     -31.990   7.402   2.581  1.00 20.00     0.012 C 
BRANCH   8   9
HETATM    9  C11 UNL     1     -32.850   7.573   1.333  1.00 20.00    -0.004 C 
HETATM   10  C8  UNL     1     -32.139   8.414   0.285  1.00 20.00     0.005 C 
ENDBRANCH   8   9
ENDBRANCH   5   8
BRANCH   6  11
HETATM   11  C10 UNL     1     -34.127   6.361   6.480  1.00 20.00     0.000 C 
HETATM   12  C7  UNL     1     -33.835   7.694   7.084  1.00 20.00     0.005 C 
ENDBRANCH   6  11
TORSDOF 3
