REMARK  3 active torsions:
REMARK  status: ('A' for Active; 'I' for Inactive)
REMARK    1  A    between atoms: C5_5  and  C9_9 
REMARK    2  A    between atoms: C6_6  and  C10_10 
REMARK    3  A    between atoms: C10_10  and  C11_11 
ROOT
HETATM    1  C1  UNL     1     -34.091   5.296   4.208  1.00 20.00     0.131 C 
HETATM    2  C2  UNL     1     -33.382   4.620   3.055  1.00 20.00     0.079 C 
HETATM    3  C3  UNL     1     -33.096   5.619   1.943  1.00 20.00     0.012 C 
HETATM    4  C4  UNL     1     -33.151   7.526   3.590  1.00 20.00     0.016 C 
HETATM    5  C5  UNL     1     -33.433   6.561   4.747  1.00 20.00     0.055 C 
HETATM    6  C6  UNL     1     -32.347   6.853   2.466  1.00 20.00    -0.013 C 
HETATM    7  O12 UNL     1     -35.087   4.790   4.723  1.00 20.00    -0.298 OA
ENDROOT
BRANCH   6   8
HETATM    8  C10 UNL     1     -32.080   7.840   1.332  1.00 20.00     0.004 C 
BRANCH   8   9
HETATM    9  C11 UNL     1     -33.379   8.285   0.669  1.00 20.00    -0.004 C 
HETATM   10  C8  UNL     1     -33.115   9.287  -0.444  1.00 20.00     0.005 C 
ENDBRANCH   8   9
ENDBRANCH   6   8
BRANCH   5  11
HETATM   11  C9  UNL     1     -34.291   7.234   5.814  1.00 20.00     0.007 C 
HETATM   12  C7  UNL     1     -34.583   6.311   6.952  1.00 20.00     0.006 C 
ENDBRANCH   5  11
TORSDOF 3
