REMARK  0 active torsions:
REMARK  status: ('A' for Active; 'I' for Inactive)
ROOT
HETATM    1  C1  UNL     1     -33.345   4.444   3.197  1.00 20.00    -0.029 C 
HETATM    2  C2  UNL     1     -34.359   4.660   4.050  1.00 20.00    -0.014 C 
HETATM    3  C3  UNL     1     -33.645   6.986   4.846  1.00 20.00     0.143 C 
HETATM    4  C4  UNL     1     -32.263   5.397   2.788  1.00 20.00     0.032 C 
HETATM    5  C5  UNL     1     -31.995   7.960   3.085  1.00 20.00     0.018 A 
HETATM    6  C6  UNL     1     -33.395   7.619   3.527  1.00 20.00     0.061 A 
HETATM    7  C7  UNL     1     -32.711   6.791   2.470  1.00 20.00     0.001 A 
HETATM    8  C8  UNL     1     -34.715   5.879   4.881  1.00 20.00     0.031 C 
HETATM    9  C9  UNL     1     -36.055   6.452   4.390  1.00 20.00     0.027 C 
HETATM   10  C10 UNL     1     -34.890   5.422   6.343  1.00 20.00     0.027 C 
HETATM   11  O11 UNL     1     -33.011   7.359   5.828  1.00 20.00    -0.296 OA
ENDROOT
TORSDOF 0
