REMARK  0 active torsions:
REMARK  status: ('A' for Active; 'I' for Inactive)
ROOT
HETATM    1  C1  UNL     1     -34.000   4.943   6.524  1.00 20.00    -0.030 C 
HETATM    2  C2  UNL     1     -34.116   6.079   7.219  1.00 20.00    -0.030 C 
HETATM    3  C3  UNL     1     -32.753   7.006   3.210  1.00 20.00     0.128 C 
HETATM    4  C4  UNL     1     -34.062   4.884   5.032  1.00 20.00     0.037 C 
HETATM    5  C5  UNL     1     -34.340   7.417   6.589  1.00 20.00     0.037 C 
HETATM    6  C6  UNL     1     -34.044   6.271   2.929  1.00 20.00     0.088 C 
HETATM    7  C7  UNL     1     -32.708   7.581   4.608  1.00 20.00     0.088 C 
HETATM    8  C8  UNL     1     -34.655   6.155   4.343  1.00 20.00    -0.026 C 
HETATM    9  C9  UNL     1     -34.188   7.473   5.051  1.00 20.00    -0.026 C 
HETATM   10  C10 UNL     1     -36.184   6.015   4.262  1.00 20.00     0.016 C 
HETATM   11  C11 UNL     1     -34.929   8.743   4.562  1.00 20.00     0.016 C 
HETATM   12  O12 UNL     1     -31.844   7.121   2.397  1.00 20.00    -0.298 OA
ENDROOT
TORSDOF 0
