REMARK  1 active torsions:
REMARK  status: ('A' for Active; 'I' for Inactive)
REMARK    1  A    between atoms: C8_8  and  O10_10 
ROOT
HETATM    1  C1  UNL     1     -33.599   7.271   5.407  1.00 20.00    -0.023 C 
HETATM    2  C2  UNL     1     -33.702   7.944   4.248  1.00 20.00     0.001 C 
HETATM    3  C3  UNL     1     -33.712   5.330   2.888  1.00 20.00     0.003 C 
HETATM    4  C4  UNL     1     -32.448   6.232   2.886  1.00 20.00     0.036 C 
HETATM    5  C5  UNL     1     -33.980   4.584   4.215  1.00 20.00     0.005 C 
HETATM    6  C6  UNL     1     -34.643   5.224   6.630  1.00 20.00     0.014 A 
HETATM    7  C7  UNL     1     -34.755   6.536   5.918  1.00 20.00     0.012 A 
HETATM    8  C8  UNL     1     -32.682   7.736   3.171  1.00 20.00     0.140 C 
HETATM    9  C9  UNL     1     -34.983   5.224   5.160  1.00 20.00    -0.006 A 
ENDROOT
BRANCH   8  10
HETATM   10  O10 UNL     1     -31.459   8.388   3.486  1.00 20.00    -0.392 OA
HETATM   11  H24 UNL     1     -30.850   8.212   2.751  1.00 20.00     0.210 HD
ENDBRANCH   8  10
TORSDOF 1
