REMARK  0 active torsions:
REMARK  status: ('A' for Active; 'I' for Inactive)
ROOT
HETATM    1  C1  UNL     1     -33.043   5.357   3.089  1.00 20.00    -0.082 C 
HETATM    2  C2  UNL     1     -32.872   4.450   2.115  1.00 20.00     0.015 C 
HETATM    3  C3  UNL     1     -31.951   6.330   3.470  1.00 20.00     0.038 C 
HETATM    4  C4  UNL     1     -34.854   6.924   3.671  1.00 20.00     0.018 C 
HETATM    5  C5  UNL     1     -33.755   7.483   5.823  1.00 20.00     0.173 C 
HETATM    6  C6  UNL     1     -34.360   5.487   3.843  1.00 20.00     0.043 C 
HETATM    7  C7  UNL     1     -33.845   7.865   4.336  1.00 20.00     0.014 C 
HETATM    8  C8  UNL     1     -32.464   7.779   3.624  1.00 20.00    -0.009 C 
HETATM    9  C9  UNL     1     -34.179   5.148   5.342  1.00 20.00     0.125 C 
HETATM   10  C10 UNL     1     -32.507   8.475   2.255  1.00 20.00     0.011 C 
HETATM   11  C11 UNL     1     -35.506   4.949   6.074  1.00 20.00     0.040 C 
HETATM   12  O12 UNL     1     -33.382   6.122   6.030  1.00 20.00    -0.385 OA
ENDROOT
TORSDOF 0
