REMARK  0 active torsions:
REMARK  status: ('A' for Active; 'I' for Inactive)
ROOT
HETATM    1  C1  UNL     1     -33.731   5.263   3.689  1.00 20.00    -0.082 C 
HETATM    2  C2  UNL     1     -34.174   4.152   3.081  1.00 20.00     0.015 C 
HETATM    3  C3  UNL     1     -32.315   5.759   3.503  1.00 20.00     0.038 C 
HETATM    4  C4  UNL     1     -34.650   7.532   3.987  1.00 20.00     0.018 C 
HETATM    5  C5  UNL     1     -32.832   8.115   5.573  1.00 20.00     0.173 C 
HETATM    6  C6  UNL     1     -34.637   6.114   4.565  1.00 20.00     0.043 C 
HETATM    7  C7  UNL     1     -33.232   8.106   4.087  1.00 20.00     0.014 C 
HETATM    8  C8  UNL     1     -32.243   7.275   3.219  1.00 20.00    -0.009 C 
HETATM    9  C9  UNL     1     -34.182   6.194   6.043  1.00 20.00     0.125 C 
HETATM   10  C10 UNL     1     -32.463   7.547   1.723  1.00 20.00     0.011 C 
HETATM   11  C11 UNL     1     -34.104   4.828   6.716  1.00 20.00     0.040 C 
HETATM   12  O12 UNL     1     -32.900   6.820   6.171  1.00 20.00    -0.385 OA
ENDROOT
TORSDOF 0
