REMARK  1 active torsions:
REMARK  status: ('A' for Active; 'I' for Inactive)
REMARK    1  A    between atoms: C6_6  and  O10_10 
ROOT
HETATM    1  C1  UNL     1     -33.171   8.271   4.275  1.00 20.00     0.003 C 
HETATM    2  C2  UNL     1     -32.957   7.407   3.028  1.00 20.00     0.032 C 
HETATM    3  C3  UNL     1     -33.357   7.500   5.581  1.00 20.00     0.010 C 
HETATM    4  C4  UNL     1     -35.327   6.175   4.423  1.00 20.00     0.017 A 
HETATM    5  C5  UNL     1     -34.024   5.441   4.223  1.00 20.00     0.023 A 
HETATM    6  C6  UNL     1     -32.957   5.898   3.275  1.00 20.00     0.125 C 
HETATM    7  C7  UNL     1     -34.231   6.268   5.467  1.00 20.00    -0.038 A 
HETATM    8  C8  UNL     1     -34.448   5.543   6.768  1.00 20.00     0.015 C 
ENDROOT
BRANCH   6   9
HETATM    9  O10 UNL     1     -33.124   5.219   2.032  1.00 20.00    -0.390 OA
HETATM   10  C9  UNL     1     -32.686   3.871   2.115  1.00 20.00     0.202 C 
ENDBRANCH   6   9
TORSDOF 1
