REMARK  1 active torsions:
REMARK  status: ('A' for Active; 'I' for Inactive)
REMARK    1  A    between atoms: C6_6  and  O10_10 
ROOT
HETATM    1  C1  UNL     1     -34.298   4.950   3.617  1.00 20.00     0.003 C 
HETATM    2  C2  UNL     1     -33.164   5.919   3.243  1.00 20.00     0.032 C 
HETATM    3  C3  UNL     1     -35.147   5.398   4.811  1.00 20.00     0.010 C 
HETATM    4  C4  UNL     1     -34.392   7.358   6.355  1.00 20.00     0.017 A 
HETATM    5  C5  UNL     1     -33.226   6.918   5.512  1.00 20.00     0.023 A 
HETATM    6  C6  UNL     1     -33.170   7.225   4.043  1.00 20.00     0.125 C 
HETATM    7  C7  UNL     1     -34.271   5.909   5.935  1.00 20.00    -0.038 A 
HETATM    8  C8  UNL     1     -33.892   4.892   6.974  1.00 20.00     0.015 C 
ENDROOT
BRANCH   6   9
HETATM    9  O10 UNL     1     -31.988   7.967   3.761  1.00 20.00    -0.390 OA
HETATM   10  C9  UNL     1     -32.103   8.667   2.534  1.00 20.00     0.202 C 
ENDBRANCH   6   9
TORSDOF 1
