REMARK  1 active torsions:
REMARK  status: ('A' for Active; 'I' for Inactive)
REMARK    1  A    between atoms: C6_6  and  O8_8 
ROOT
HETATM    1  C1  UNL     1     -33.966   7.069   6.481  1.00 20.00    -0.023 C 
HETATM    2  C2  UNL     1     -34.916   6.141   6.265  1.00 20.00     0.001 C 
HETATM    3  C3  UNL     1     -32.111   7.622   4.565  1.00 20.00     0.009 C 
HETATM    4  C4  UNL     1     -32.767   6.938   3.295  1.00 20.00     0.009 C 
HETATM    5  C5  UNL     1     -33.507   7.490   5.157  1.00 20.00     0.015 C 
HETATM    6  C6  UNL     1     -34.990   5.763   4.791  1.00 20.00     0.145 C 
HETATM    7  C7  UNL     1     -33.576   6.129   4.350  1.00 20.00     0.026 C 
ENDROOT
BRANCH   6   8
HETATM    8  O8  UNL     1     -35.194   4.368   4.653  1.00 20.00    -0.391 OA
HETATM    9  H18 UNL     1     -36.032   4.157   5.098  1.00 20.00     0.210 HD
ENDBRANCH   6   8
TORSDOF 1
