REMARK  4 active torsions:
REMARK  status: ('A' for Active; 'I' for Inactive)
REMARK    1  A    between atoms: C1_1  and  C3_3 
REMARK    2  A    between atoms: C3_3  and  N6_6 
REMARK    3  A    between atoms: C4_4  and  C5_5 
REMARK    4  A    between atoms: C4_4  and  N6_6 
ROOT
HETATM    1  C4  UNL     1     -33.166   6.423   4.761  1.00 20.00     0.389 C 
ENDROOT
BRANCH   1   2
HETATM    2  C5  UNL     1     -34.269   5.513   5.241  1.00 20.00     0.413 C 
HETATM    3  F8  UNL     1     -34.374   5.567   6.587  1.00 20.00    -0.169 F 
HETATM    4  F9  UNL     1     -35.463   5.871   4.723  1.00 20.00    -0.169 F 
HETATM    5  F10 UNL     1     -34.031   4.229   4.900  1.00 20.00    -0.169 F 
ENDBRANCH   1   2
BRANCH   1   6
HETATM    6  N6  UNL     1     -33.028   6.382   3.305  1.00 20.00     0.099 N 
HETATM    7  C2  UNL     1     -32.677   5.033   2.863  1.00 20.00     0.310 C 
BRANCH   6   8
HETATM    8  C3  UNL     1     -32.021   7.345   2.860  1.00 20.00     0.341 C 
BRANCH   8   9
HETATM    9  C1  UNL     1     -32.286   7.677   1.419  1.00 20.00     0.261 C 
HETATM   10  O7  UNL     1     -32.516   8.821   1.036  1.00 20.00    -0.305 OA
ENDBRANCH   8   9
ENDBRANCH   6   8
ENDBRANCH   1   6
TORSDOF 4
