REMARK  4 active torsions:
REMARK  status: ('A' for Active; 'I' for Inactive)
REMARK    1  A    between atoms: C1_1  and  C7_7 
REMARK    2  A    between atoms: C7_7  and  N10_10 
REMARK    3  A    between atoms: C8_8  and  C9_9 
REMARK    4  A    between atoms: C8_8  and  N10_10 
ROOT
HETATM    1  C2  UNL     1     -35.720   5.678   4.266  1.00 20.00     0.043 C 
HETATM    2  C8  UNL     1     -34.407   6.312   4.729  1.00 20.00     0.226 C 
ENDROOT
BRANCH   2   3
HETATM    3  C9  UNL     1     -34.063   6.097   6.240  1.00 20.00    -0.021 C 
HETATM    4  C3  UNL     1     -33.935   7.430   7.002  1.00 20.00     0.016 C 
HETATM    5  C4  UNL     1     -35.153   5.247   6.923  1.00 20.00     0.016 C 
HETATM    6  C5  UNL     1     -32.727   5.332   6.368  1.00 20.00     0.016 C 
ENDBRANCH   2   3
BRANCH   2   7
HETATM    7  N10 UNL     1     -33.334   5.852   3.871  1.00 20.00     0.095 N 
HETATM    8  C6  UNL     1     -33.493   4.429   3.550  1.00 20.00     0.310 C 
BRANCH   7   9
HETATM    9  C7  UNL     1     -33.277   6.640   2.634  1.00 20.00     0.341 C 
BRANCH   9  10
HETATM   10  C1  UNL     1     -32.639   7.964   2.944  1.00 20.00     0.261 C 
HETATM   11  O11 UNL     1     -31.794   8.101   3.824  1.00 20.00    -0.305 OA
ENDBRANCH   9  10
ENDBRANCH   7   9
ENDBRANCH   2   7
TORSDOF 4
