REMARK  0 active torsions:
REMARK  status: ('A' for Active; 'I' for Inactive)
ROOT
HETATM    1  C1  UNL     1     -33.910   6.939   5.696  1.00 20.00     0.136 C 
HETATM    2  C2  UNL     1     -34.594   4.345   5.605  1.00 20.00     0.018 A 
HETATM    3  C3  UNL     1     -31.900   7.983   4.474  1.00 20.00     0.018 A 
HETATM    4  C4  UNL     1     -33.312   5.287   1.821  1.00 20.00     0.011 A 
HETATM    5  C5  UNL     1     -33.660   5.500   5.552  1.00 20.00     0.060 A 
HETATM    6  C6  UNL     1     -33.390   7.824   4.611  1.00 20.00     0.060 A 
HETATM    7  C7  UNL     1     -34.308   4.952   4.271  1.00 20.00     0.002 A 
HETATM    8  C8  UNL     1     -32.681   7.373   3.335  1.00 20.00     0.002 A 
HETATM    9  C9  UNL     1     -33.251   4.719   3.210  1.00 20.00    -0.005 A 
HETATM   10  C10 UNL     1     -32.402   5.937   2.836  1.00 20.00    -0.005 A 
HETATM   11  O11 UNL     1     -34.486   7.397   6.673  1.00 20.00    -0.297 OA
ENDROOT
TORSDOF 0
