REMARK  0 active torsions:
REMARK  status: ('A' for Active; 'I' for Inactive)
ROOT
HETATM    1  C1  UNL     1     -34.225   7.695   6.042  1.00 20.00     0.069 C 
HETATM    2  C2  UNL     1     -34.514   4.780   4.816  1.00 20.00     0.007 C 
HETATM    3  C3  UNL     1     -35.433   6.001   4.698  1.00 20.00     0.025 C 
HETATM    4  C4  UNL     1     -33.091   5.273   4.545  1.00 20.00     0.070 C 
HETATM    5  C5  UNL     1     -31.873   8.123   2.925  1.00 20.00     0.197 C 
HETATM    6  C6  UNL     1     -32.371   7.117   1.926  1.00 20.00     0.197 C 
HETATM    7  C7  UNL     1     -34.508   7.221   4.675  1.00 20.00     0.155 C 
HETATM    8  C8  UNL     1     -33.263   6.675   3.965  1.00 20.00     0.180 C 
HETATM    9  N9  UNL     1     -34.003   8.069   7.117  1.00 20.00    -0.197 NA
HETATM   10  O10 UNL     1     -32.098   7.476   4.176  1.00 20.00    -0.352 OA
HETATM   11  O11 UNL     1     -33.535   6.582   2.553  1.00 20.00    -0.352 OA
ENDROOT
TORSDOF 0
