REMARK  1 active torsions:
REMARK  status: ('A' for Active; 'I' for Inactive)
REMARK    1  A    between atoms: C2_2  and  C6_6 
ROOT
HETATM    1  C1  UNL     1     -32.994   7.380   3.853  1.00 20.00     0.133 A 
HETATM    2  C2  UNL     1     -33.446   6.078   3.793  1.00 20.00     0.007 A 
HETATM    3  C3  UNL     1     -32.324   6.891   1.822  1.00 20.00     0.143 A 
HETATM    4  N7  UNL     1     -32.350   7.847   2.724  1.00 20.00    -0.245 NA
HETATM    5  S8  UNL     1     -33.056   5.403   2.265  1.00 20.00    -0.066 SA
HETATM    6 BR9  UNL     1     -31.513   7.143   0.112  1.00 20.00    -0.021 Br
ENDROOT
BRANCH   2   7
HETATM    7  C6  UNL     1     -34.188   5.338   4.919  1.00 20.00     0.027 A 
HETATM    8  C4  UNL     1     -35.127   6.124   5.804  1.00 20.00     0.010 A 
HETATM    9  C5  UNL     1     -33.819   5.645   6.352  1.00 20.00     0.010 A 
ENDBRANCH   2   7
TORSDOF 1
