REMARK  2 active torsions:
REMARK  status: ('A' for Active; 'I' for Inactive)
REMARK    1  A    between atoms: C3_3  and  C6_6 
REMARK    2  A    between atoms: C3_3  and  O10_10 
ROOT
HETATM    1  C1  UNL     1     -34.654   6.162   6.765  1.00 20.00    -0.003 C 
HETATM    2  C2  UNL     1     -34.632   5.166   5.871  1.00 20.00     0.132 C 
HETATM    3  C4  UNL     1     -34.051   7.498   6.466  1.00 20.00     0.032 C 
HETATM    4  C5  UNL     1     -33.170   7.423   5.221  1.00 20.00     0.046 C 
HETATM    5  C6  UNL     1     -33.852   6.572   4.154  1.00 20.00     0.227 C 
HETATM    6  O9  UNL     1     -34.127   5.239   4.598  1.00 20.00    -0.348 OA
ENDROOT
BRANCH   5   7
HETATM    7  C3  UNL     1     -32.957   6.387   2.973  1.00 20.00     0.288 C 
HETATM    8  O8  UNL     1     -32.535   5.302   2.597  1.00 20.00    -0.262 OA
BRANCH   7   9
HETATM    9  O10 UNL     1     -32.698   7.598   2.404  1.00 20.00    -0.324 OA
HETATM   10  C7  UNL     1     -31.846   7.567   1.254  1.00 20.00     0.213 C 
ENDBRANCH   7   9
ENDBRANCH   5   7
TORSDOF 2
