REMARK  1 active torsions:
REMARK  status: ('A' for Active; 'I' for Inactive)
REMARK    1  A    between atoms: C3_3  and  C7_7 
ROOT
HETATM    1  C1  UNL     1     -33.336   7.386   3.764  1.00 20.00     0.034 A 
HETATM    2  C2  UNL     1     -33.530   5.074   3.913  1.00 20.00     0.058 A 
HETATM    3  C3  UNL     1     -33.917   6.282   4.453  1.00 20.00    -0.046 A 
HETATM    4  C4  UNL     1     -32.528   6.980   2.724  1.00 20.00     0.051 A 
HETATM    5  S8  UNL     1     -32.472   5.274   2.582  1.00 20.00    -0.094 SA
HETATM    6 BR9  UNL     1     -31.581   8.160   1.576  1.00 20.00    -0.043 Br
ENDROOT
BRANCH   3   7
HETATM    7  C7  UNL     1     -34.856   6.422   5.648  1.00 20.00     0.019 A 
HETATM    8  C5  UNL     1     -34.392   7.207   6.859  1.00 20.00     0.010 A 
HETATM    9  C6  UNL     1     -34.507   5.717   6.944  1.00 20.00     0.010 A 
ENDBRANCH   3   7
TORSDOF 1
