REMARK  1 active torsions:
REMARK  status: ('A' for Active; 'I' for Inactive)
REMARK    1  A    between atoms: C5_5  and  C8_8 
ROOT
HETATM    1  C1  UNL     1     -32.592   7.783   1.161  1.00 20.00     0.047 C 
HETATM    2  C2  UNL     1     -32.502   7.186   2.356  1.00 20.00    -0.009 C 
HETATM    3  C3  UNL     1     -33.032   9.195   1.061  1.00 20.00     0.149 C 
HETATM    4  C6  UNL     1     -33.282   9.964   2.337  1.00 20.00     0.084 C 
HETATM    5  C7  UNL     1     -33.792   9.045   3.440  1.00 20.00     0.025 C 
HETATM    6  C8  UNL     1     -32.876   7.824   3.678  1.00 20.00    -0.003 C 
HETATM    7  C11 UNL     1     -31.589   8.234   4.413  1.00 20.00     0.024 C 
HETATM    8  O12 UNL     1     -33.122   9.729  -0.043  1.00 20.00    -0.293 OA
ENDROOT
BRANCH   6   9
HETATM    9  C5  UNL     1     -33.618   6.837   4.547  1.00 20.00    -0.076 C 
HETATM   10  C4  UNL     1     -34.380   5.867   4.006  1.00 20.00    -0.027 C 
HETATM   11  C9  UNL     1     -35.162   4.834   4.712  1.00 20.00     0.036 C 
HETATM   12  C10 UNL     1     -33.436   7.029   6.026  1.00 20.00     0.044 C 
ENDBRANCH   6   9
TORSDOF 1
