REMARK  1 active torsions:
REMARK  status: ('A' for Active; 'I' for Inactive)
REMARK    1  A    between atoms: C4_4  and  C8_8 
ROOT
HETATM    1  C1  UNL     1     -32.656   6.313   2.626  1.00 20.00     0.012 A 
HETATM    2  C2  UNL     1     -33.229   5.462   3.565  1.00 20.00     0.040 A 
HETATM    3  C3  UNL     1     -33.130   8.142   4.070  1.00 20.00     0.125 A 
HETATM    4  C4  UNL     1     -32.602   7.680   2.875  1.00 20.00    -0.036 A 
HETATM    5  C5  UNL     1     -33.729   6.024   4.728  1.00 20.00     0.102 A 
HETATM    6  N9  UNL     1     -33.694   7.347   5.006  1.00 20.00    -0.253 NA
HETATM    7 BR10 UNL     1     -34.516   4.881   6.025  1.00 20.00    -0.029 Br
ENDROOT
BRANCH   4   8
HETATM    8  C8  UNL     1     -31.994   8.615   1.892  1.00 20.00     0.020 A 
HETATM    9  C6  UNL     1     -32.808   9.778   1.383  1.00 20.00     0.010 A 
HETATM   10  C7  UNL     1     -32.507   8.629   0.474  1.00 20.00     0.010 A 
ENDBRANCH   4   8
TORSDOF 1
