REMARK  1 active torsions:
REMARK  status: ('A' for Active; 'I' for Inactive)
REMARK    1  A    between atoms: C10_10  and  O11_11 
ROOT
HETATM    1  C1  UNL     1     -32.896   7.914   2.922  1.00 20.00     0.011 A 
HETATM    2  C2  UNL     1     -34.132   4.915   2.639  1.00 20.00     0.013 A 
HETATM    3  C3  UNL     1     -34.215   7.634   6.328  1.00 20.00     0.013 A 
HETATM    4  C4  UNL     1     -32.133   6.638   3.162  1.00 20.00    -0.005 A 
HETATM    5  C5  UNL     1     -32.334   7.651   4.291  1.00 20.00    -0.005 A 
HETATM    6  C6  UNL     1     -32.739   5.218   3.146  1.00 20.00    -0.003 A 
HETATM    7  C7  UNL     1     -33.074   7.144   5.505  1.00 20.00    -0.003 A 
HETATM    8  C8  UNL     1     -33.780   4.549   4.056  1.00 20.00     0.019 A 
HETATM    9  C9  UNL     1     -34.481   6.643   5.231  1.00 20.00     0.019 A 
HETATM   10  C10 UNL     1     -34.520   5.159   5.229  1.00 20.00     0.127 C 
ENDROOT
BRANCH  10  11
HETATM   11  O11 UNL     1     -35.876   4.720   5.188  1.00 20.00    -0.395 OA
HETATM   12  H25 UNL     1     -35.853   3.753   5.249  1.00 20.00     0.210 HD
ENDBRANCH  10  11
TORSDOF 1
