REMARK  1 active torsions:
REMARK  status: ('A' for Active; 'I' for Inactive)
REMARK    1  A    between atoms: C9_9  and  C10_10 
ROOT
HETATM    1  C1  UNL     1     -32.245   8.360   0.993  1.00 20.00     0.063 C 
HETATM    2  C10 UNL     1     -31.513   7.466   1.868  1.00 20.00     0.163 C 
HETATM    3  N11 UNL     1     -32.801   9.090   0.282  1.00 20.00    -0.197 NA
ENDROOT
BRANCH   2   4
HETATM    4  C9  UNL     1     -32.518   6.605   2.638  1.00 20.00    -0.033 A 
HETATM    5  C6  UNL     1     -33.163   5.330   2.373  1.00 20.00     0.021 A 
HETATM    6  C7  UNL     1     -33.800   5.430   3.545  1.00 20.00    -0.025 A 
HETATM    7  C4  UNL     1     -34.741   4.859   4.518  1.00 20.00     0.012 A 
HETATM    8  C8  UNL     1     -33.172   6.671   3.804  1.00 20.00    -0.019 A 
HETATM    9  C2  UNL     1     -34.977   5.557   5.649  1.00 20.00     0.001 A 
HETATM   10  C3  UNL     1     -34.324   6.844   5.918  1.00 20.00     0.001 A 
HETATM   11  C5  UNL     1     -33.455   7.399   5.047  1.00 20.00     0.013 A 
ENDBRANCH   2   4
TORSDOF 1
