REMARK  2 active torsions:
REMARK  status: ('A' for Active; 'I' for Inactive)
REMARK    1  A    between atoms: C5_5  and  C9_9 
REMARK    2  A    between atoms: C6_6  and  C10_10 
ROOT
HETATM    1  C1  UNL     1     -33.885   5.532   3.790  1.00 20.00     0.131 C 
HETATM    2  C2  UNL     1     -33.188   4.860   2.628  1.00 20.00     0.079 C 
HETATM    3  C3  UNL     1     -32.786   5.887   1.579  1.00 20.00     0.012 C 
HETATM    4  C4  UNL     1     -32.755   7.709   3.320  1.00 20.00     0.016 C 
HETATM    5  C5  UNL     1     -33.152   6.713   4.416  1.00 20.00     0.055 C 
HETATM    6  C6  UNL     1     -31.964   7.030   2.190  1.00 20.00    -0.014 C 
HETATM    7  O11 UNL     1     -34.935   5.081   4.246  1.00 20.00    -0.298 OA
ENDROOT
BRANCH   5   8
HETATM    8  C9  UNL     1     -33.994   7.398   5.487  1.00 20.00     0.007 C 
HETATM    9  C7  UNL     1     -34.397   6.447   6.566  1.00 20.00     0.006 C 
ENDBRANCH   5   8
BRANCH   6  10
HETATM   10  C10 UNL     1     -31.580   8.048   1.117  1.00 20.00     0.000 C 
HETATM   11  C8  UNL     1     -32.785   8.668   0.489  1.00 20.00     0.005 C 
ENDBRANCH   6  10
TORSDOF 2
