REMARK  0 active torsions:
REMARK  status: ('A' for Active; 'I' for Inactive)
ROOT
HETATM    1  C1  UNL     1     -32.604   7.180   3.311  1.00 20.00     0.050 C 
HETATM    2  C2  UNL     1     -32.828   5.953   2.809  1.00 20.00     0.003 C 
HETATM    3  C3  UNL     1     -32.678   7.495   4.770  1.00 20.00     0.027 C 
HETATM    4  C4  UNL     1     -34.511   4.779   5.811  1.00 20.00     0.056 A 
HETATM    5  C5  UNL     1     -34.625   6.201   5.317  1.00 20.00     0.133 A 
HETATM    6  C6  UNL     1     -34.502   5.070   4.341  1.00 20.00     0.108 A 
HETATM    7  C7  UNL     1     -32.495   5.679   1.364  1.00 20.00     0.068 C 
HETATM    8  C8  UNL     1     -31.617   8.454   5.270  1.00 20.00     0.070 C 
HETATM    9  N9  UNL     1     -33.516   7.077   5.660  1.00 20.00    -0.287 NA
HETATM   10  N10 UNL     1     -33.328   4.870   3.503  1.00 20.00    -0.387 N 
HETATM   11  H22 UNL     1     -33.192   3.966   3.061  1.00 20.00     0.159 HD
ENDROOT
TORSDOF 0
