REMARK  1 active torsions:
REMARK  status: ('A' for Active; 'I' for Inactive)
REMARK    1  A    between atoms: C4_4  and  C11_11 
ROOT
HETATM    1  C1  UNL     1     -32.320   6.354   2.691  1.00 20.00     0.027 A 
HETATM    2  C2  UNL     1     -33.345   8.502   2.348  1.00 20.00     0.034 A 
HETATM    3  C3  UNL     1     -31.626   6.556   1.509  1.00 20.00     0.117 A 
HETATM    4  C4  UNL     1     -33.194   7.350   3.111  1.00 20.00    -0.047 A 
HETATM    5  C5  UNL     1     -32.605   8.608   1.181  1.00 20.00     0.030 A 
HETATM    6  C12 UNL     1     -32.742   9.831   0.336  1.00 20.00     0.070 C 
HETATM    7  N13 UNL     1     -31.747   7.661   0.740  1.00 20.00    -0.266 NA
ENDROOT
BRANCH   4   8
HETATM    8  C11 UNL     1     -33.980   7.180   4.400  1.00 20.00     0.041 C 
HETATM    9  C7  UNL     1     -34.947   6.020   4.339  1.00 20.00    -0.021 C 
HETATM   10  C6  UNL     1     -35.137   5.169   5.358  1.00 20.00    -0.030 C 
HETATM   11  C8  UNL     1     -34.443   5.300   6.680  1.00 20.00     0.027 C 
HETATM   12  C9  UNL     1     -33.777   6.664   6.873  1.00 20.00     0.005 C 
HETATM   13  C10 UNL     1     -33.029   7.096   5.614  1.00 20.00     0.013 C 
ENDBRANCH   4   8
TORSDOF 1
