REMARK  0 active torsions:
REMARK  status: ('A' for Active; 'I' for Inactive)
ROOT
HETATM    1  C1  UNL     1     -32.161   7.632   4.594  1.00 20.00    -0.029 C 
HETATM    2  C2  UNL     1     -32.322   6.822   3.535  1.00 20.00    -0.014 C 
HETATM    3  C3  UNL     1     -34.566   5.800   4.226  1.00 20.00     0.143 C 
HETATM    4  C4  UNL     1     -33.010   7.722   5.826  1.00 20.00     0.032 C 
HETATM    5  C5  UNL     1     -34.858   6.173   6.785  1.00 20.00     0.018 A 
HETATM    6  C6  UNL     1     -34.236   5.436   5.627  1.00 20.00     0.061 A 
HETATM    7  C7  UNL     1     -33.417   6.413   6.431  1.00 20.00     0.001 A 
HETATM    8  C8  UNL     1     -33.395   5.794   3.225  1.00 20.00     0.031 C 
HETATM    9  C9  UNL     1     -33.957   6.103   1.823  1.00 20.00     0.027 C 
HETATM   10  C10 UNL     1     -32.760   4.394   3.195  1.00 20.00     0.027 C 
HETATM   11  O11 UNL     1     -35.721   6.080   3.928  1.00 20.00    -0.296 OA
ENDROOT
TORSDOF 0
