REMARK  1 active torsions:
REMARK  status: ('A' for Active; 'I' for Inactive)
REMARK    1  A    between atoms: C3_3  and  C7_7 
ROOT
HETATM    1  C1  UNL     1     -32.964   5.708   2.675  1.00 20.00     0.259 C 
HETATM    2  C4  UNL     1     -32.504   7.130   2.489  1.00 20.00     0.111 C 
HETATM    3  C5  UNL     1     -31.980   7.699   3.798  1.00 20.00     0.013 C 
HETATM    4  C6  UNL     1     -32.925   7.439   4.970  1.00 20.00     0.037 C 
HETATM    5  C7  UNL     1     -34.160   6.649   4.541  1.00 20.00     0.154 C 
HETATM    6  O8  UNL     1     -32.671   4.807   1.896  1.00 20.00    -0.265 OA
HETATM    7  O9  UNL     1     -33.763   5.505   3.758  1.00 20.00    -0.312 OA
ENDROOT
BRANCH   5   8
HETATM    8  C3  UNL     1     -34.938   6.160   5.718  1.00 20.00    -0.005 C 
HETATM    9  C2  UNL     1     -34.620   6.426   6.990  1.00 20.00     0.009 C 
ENDBRANCH   5   8
TORSDOF 1
