REMARK  0 active torsions:
REMARK  status: ('A' for Active; 'I' for Inactive)
ROOT
HETATM    1  C1  UNL     1     -32.981   7.384   4.781  1.00 20.00     0.005 A 
HETATM    2  C2  UNL     1     -34.161   7.460   5.428  1.00 20.00     0.107 A 
HETATM    3  C3  UNL     1     -33.043   5.903   4.378  1.00 20.00     0.132 A 
HETATM    4  C4  UNL     1     -32.976   5.635   2.883  1.00 20.00     0.031 C 
HETATM    5  O5  UNL     1     -35.778   6.064   4.313  1.00 20.00    -0.223 OA
HETATM    6  O6  UNL     1     -34.646   5.369   6.524  1.00 20.00    -0.223 OA
HETATM    7  S7  UNL     1     -34.629   5.764   5.135  1.00 20.00     0.172 S 
ENDROOT
TORSDOF 0
