REMARK  0 active torsions:
REMARK  status: ('A' for Active; 'I' for Inactive)
ROOT
HETATM    1  C1  UNL     1     -32.467   5.362   2.759  1.00 20.00    -0.029 C 
HETATM    2  C2  UNL     1     -33.352   4.928   3.681  1.00 20.00    -0.014 C 
HETATM    3  C3  UNL     1     -33.819   7.045   5.238  1.00 20.00     0.143 C 
HETATM    4  C4  UNL     1     -31.982   6.761   2.456  1.00 20.00     0.032 C 
HETATM    5  C5  UNL     1     -32.246   8.906   4.101  1.00 20.00     0.018 A 
HETATM    6  C6  UNL     1     -32.564   7.577   4.697  1.00 20.00     0.061 A 
HETATM    7  C7  UNL     1     -32.720   7.803   3.206  1.00 20.00     0.001 A 
HETATM    8  C8  UNL     1     -34.194   5.614   4.767  1.00 20.00     0.031 C 
HETATM    9  C9  UNL     1     -35.648   5.660   4.266  1.00 20.00     0.027 C 
HETATM   10  C10 UNL     1     -34.123   4.737   6.034  1.00 20.00     0.027 C 
HETATM   11  O11 UNL     1     -34.484   7.707   6.025  1.00 20.00    -0.296 OA
ENDROOT
TORSDOF 0
