REMARK  1 active torsions:
REMARK  status: ('A' for Active; 'I' for Inactive)
REMARK    1  A    between atoms: C10_10  and  O11_11 
ROOT
HETATM    1  C1  UNL     1     -32.655   7.015   2.417  1.00 20.00    -0.021 C 
HETATM    2  C2  UNL     1     -32.219   7.791   4.876  1.00 20.00    -0.021 C 
HETATM    3  C3  UNL     1     -33.161   5.762   2.426  1.00 20.00    -0.025 C 
HETATM    4  C4  UNL     1     -32.897   7.308   5.939  1.00 20.00    -0.022 C 
HETATM    5  C5  UNL     1     -34.815   4.734   4.431  1.00 20.00     0.041 C 
HETATM    6  C6  UNL     1     -33.064   7.823   3.633  1.00 20.00     0.035 C 
HETATM    7  C7  UNL     1     -33.698   5.511   3.781  1.00 20.00     0.016 C 
HETATM    8  C8  UNL     1     -34.320   6.911   5.601  1.00 20.00     0.042 C 
HETATM    9  C9  UNL     1     -34.194   6.938   4.096  1.00 20.00     0.015 C 
HETATM   10  C10 UNL     1     -34.864   5.463   5.820  1.00 20.00     0.127 C 
ENDROOT
BRANCH  10  11
HETATM   11  O11 UNL     1     -34.078   4.758   6.768  1.00 20.00    -0.395 OA
HETATM   12  H23 UNL     1     -34.455   3.866   6.839  1.00 20.00     0.210 HD
ENDBRANCH  10  11
TORSDOF 1
