REMARK  0 active torsions:
REMARK  status: ('A' for Active; 'I' for Inactive)
ROOT
HETATM    1  C1  UNL     1     -33.933   8.224   6.990  1.00 20.00    -0.017 C 
HETATM    2  C2  UNL     1     -34.559   8.599   5.829  1.00 20.00    -0.019 C 
HETATM    3  C3  UNL     1     -33.357   5.565   6.852  1.00 20.00     0.136 C 
HETATM    4  C4  UNL     1     -33.883   4.407   5.985  1.00 20.00     0.083 C 
HETATM    5  C5  UNL     1     -32.356   6.543   2.139  1.00 20.00     0.000 C 
HETATM    6  C6  UNL     1     -33.224   5.282   2.204  1.00 20.00     0.000 C 
HETATM    7  C7  UNL     1     -32.775   7.733   3.006  1.00 20.00     0.001 C 
HETATM    8  C8  UNL     1     -33.185   4.554   3.548  1.00 20.00     0.005 C 
HETATM    9  C9  UNL     1     -32.689   7.479   4.513  1.00 20.00     0.014 C 
HETATM   10  C10 UNL     1     -34.980   6.269   4.464  1.00 20.00     0.019 C 
HETATM   11  C11 UNL     1     -34.233   6.791   6.652  1.00 20.00     0.090 C 
HETATM   12  C12 UNL     1     -34.333   4.845   4.545  1.00 20.00    -0.007 C 
HETATM   13  C13 UNL     1     -34.086   7.288   5.167  1.00 20.00    -0.009 C 
HETATM   14  O14 UNL     1     -32.406   5.443   7.617  1.00 20.00    -0.297 OA
ENDROOT
TORSDOF 0
