REMARK  0 active torsions:
REMARK  status: ('A' for Active; 'I' for Inactive)
ROOT
HETATM    1  C1  UNL     1     -31.808   7.713   4.085  1.00 20.00     0.052 A 
HETATM    2  C2  UNL     1     -33.088   5.824   2.482  1.00 20.00     0.126 A 
HETATM    3  C3  UNL     1     -33.056   7.240   4.410  1.00 20.00    -0.043 A 
HETATM    4  C4  UNL     1     -33.706   6.291   3.612  1.00 20.00    -0.028 A 
HETATM    5  C5  UNL     1     -31.261   7.190   2.921  1.00 20.00     0.126 A 
HETATM    6  C6  UNL     1     -35.319   7.380   4.833  1.00 20.00     0.020 C 
HETATM    7  C7  UNL     1     -33.985   6.262   6.470  1.00 20.00     0.030 C 
HETATM    8  C8  UNL     1     -33.972   7.522   5.574  1.00 20.00     0.021 C 
HETATM    9  C9  UNL     1     -35.018   5.969   4.277  1.00 20.00     0.040 C 
HETATM   10  C10 UNL     1     -34.765   5.223   5.609  1.00 20.00     0.091 C 
HETATM   11  N11 UNL     1     -31.863   6.266   2.115  1.00 20.00    -0.248 NA
HETATM   12 CL12 UNL     1     -29.706   7.689   2.385  1.00 20.00    -0.062 Cl
HETATM   13 CL13 UNL     1     -33.892   3.692   5.415  1.00 20.00    -0.124 Cl
ENDROOT
TORSDOF 0
