REMARK  3 active torsions:
REMARK  status: ('A' for Active; 'I' for Inactive)
REMARK    1  A    between atoms: C6_6  and  N10_10 
REMARK    2  A    between atoms: C7_7  and  C8_8 
REMARK    3  A    between atoms: C7_7  and  N10_10 
ROOT
HETATM    1  C1  UNL     1     -32.320   7.765   1.231  1.00 20.00     0.086 C 
HETATM    2  C6  UNL     1     -32.235   6.679   2.203  1.00 20.00     0.357 C 
HETATM    3  N9  UNL     1     -32.386   8.627   0.456  1.00 20.00    -0.196 NA
ENDROOT
BRANCH   2   4
HETATM    4  N10 UNL     1     -32.902   7.096   3.491  1.00 20.00    -0.062 N 
HETATM    5  C5  UNL     1     -32.042   8.071   4.258  1.00 20.00     0.270 C 
HETATM    6  H27 UNL     1     -33.751   7.619   3.217  1.00 20.00     0.280 HD
BRANCH   4   7
HETATM    7  C7  UNL     1     -33.326   5.938   4.315  1.00 20.00     0.243 C 
BRANCH   7   8
HETATM    8  C8  UNL     1     -34.486   6.287   5.272  1.00 20.00    -0.027 C 
HETATM    9  C2  UNL     1     -35.389   5.068   5.527  1.00 20.00     0.016 C 
HETATM   10  C3  UNL     1     -33.872   6.730   6.614  1.00 20.00     0.016 C 
HETATM   11  C4  UNL     1     -35.339   7.443   4.721  1.00 20.00     0.016 C 
ENDBRANCH   7   8
ENDBRANCH   4   7
ENDBRANCH   2   4
TORSDOF 3
