REMARK  0 active torsions:
REMARK  status: ('A' for Active; 'I' for Inactive)
ROOT
HETATM    1  C1  UNL     1     -32.055   8.651   4.649  1.00 20.00    -0.023 C 
HETATM    2  C2  UNL     1     -31.424   8.099   3.554  1.00 20.00    -0.013 C 
HETATM    3  C3  UNL     1     -32.931   5.773   3.137  1.00 20.00     0.140 C 
HETATM    4  C4  UNL     1     -33.960   5.399   4.236  1.00 20.00     0.088 C 
HETATM    5  C5  UNL     1     -32.661   7.305   4.894  1.00 20.00     0.035 C 
HETATM    6  C6  UNL     1     -32.703   7.301   3.280  1.00 20.00     0.042 C 
HETATM    7  C7  UNL     1     -33.989   6.643   5.221  1.00 20.00    -0.033 C 
HETATM    8  C8  UNL     1     -33.597   8.055   2.283  1.00 20.00     0.029 C 
HETATM    9  C9  UNL     1     -35.209   7.549   5.062  1.00 20.00     0.016 C 
HETATM   10  C10 UNL     1     -33.962   6.151   6.680  1.00 20.00     0.016 C 
HETATM   11  O11 UNL     1     -32.466   4.981   2.331  1.00 20.00    -0.297 OA
ENDROOT
TORSDOF 0
