REMARK  2 active torsions:
REMARK  status: ('A' for Active; 'I' for Inactive)
REMARK    1  A    between atoms: C7_7  and  C9_9 
REMARK    2  A    between atoms: C8_8  and  C9_9 
ROOT
HETATM    1  C1  UNL     1     -32.153   8.613   2.239  1.00 20.00     0.012 C 
HETATM    2  C2  UNL     1     -32.309   7.497   1.823  1.00 20.00    -0.117 C 
HETATM    3  C8  UNL     1     -32.501   6.134   1.311  1.00 20.00     0.093 C 
ENDROOT
BRANCH   3   4
HETATM    4  C9  UNL     1     -32.537   5.136   2.456  1.00 20.00     0.017 C 
BRANCH   4   5
HETATM    5  C7  UNL     1     -33.675   5.446   3.415  1.00 20.00    -0.006 C 
HETATM    6  C5  UNL     1     -33.356   6.607   4.360  1.00 20.00     0.082 C 
HETATM    7  C3  UNL     1     -34.248   6.299   5.535  1.00 20.00     0.127 C 
HETATM    8  C4  UNL     1     -34.828   4.910   5.464  1.00 20.00     0.079 C 
HETATM    9  O10 UNL     1     -34.476   7.088   6.443  1.00 20.00    -0.298 OA
HETATM   10  C6  UNL     1     -33.994   4.282   4.354  1.00 20.00     0.012 C 
ENDBRANCH   4   5
ENDBRANCH   3   4
TORSDOF 2
