REMARK  3 active torsions:
REMARK  status: ('A' for Active; 'I' for Inactive)
REMARK    1  A    between atoms: C3_3  and  C7_7 
REMARK    2  A    between atoms: C6_6  and  N9_9 
REMARK    3  A    between atoms: C7_7  and  N9_9 
ROOT
HETATM    1  C1  UNL     1     -34.336   4.936   4.588  1.00 20.00     0.089 C 
HETATM    2  C6  UNL     1     -34.804   6.307   4.389  1.00 20.00     0.395 C 
HETATM    3  N8  UNL     1     -33.969   3.847   4.744  1.00 20.00    -0.195 NA
ENDROOT
BRANCH   2   4
HETATM    4  N9  UNL     1     -33.858   7.273   4.971  1.00 20.00     0.100 N 
HETATM    5  C5  UNL     1     -33.729   7.021   6.416  1.00 20.00     0.311 C 
BRANCH   4   6
HETATM    6  C7  UNL     1     -32.582   7.220   4.313  1.00 20.00     0.300 C 
BRANCH   6   7
HETATM    7  C3  UNL     1     -32.672   7.937   3.006  1.00 20.00    -0.002 C 
HETATM    8  C2  UNL     1     -32.434   7.355   1.822  1.00 20.00    -0.033 C 
HETATM    9  C4  UNL     1     -32.529   8.065   0.512  1.00 20.00     0.036 C 
ENDBRANCH   6   7
ENDBRANCH   4   6
ENDBRANCH   2   4
TORSDOF 3
