REMARK  3 active torsions:
REMARK  status: ('A' for Active; 'I' for Inactive)
REMARK    1  A    between atoms: C6_6  and  C7_7 
REMARK    2  A    between atoms: C8_8  and  C10_10 
REMARK    3  A    between atoms: C9_9  and  C11_11 
ROOT
HETATM    1  C1  UNL     1     -35.979   6.122   4.476  1.00 20.00    -0.021 C 
HETATM    2  C2  UNL     1     -35.450   7.289   4.919  1.00 20.00    -0.020 C 
HETATM    3  C5  UNL     1     -33.836   5.406   3.547  1.00 20.00    -0.003 C 
HETATM    4  C6  UNL     1     -33.382   6.656   3.801  1.00 20.00     0.024 C 
HETATM    5  C8  UNL     1     -34.957   4.947   4.485  1.00 20.00     0.039 C 
HETATM    6  C9  UNL     1     -33.932   7.269   5.115  1.00 20.00     0.056 C 
ENDROOT
BRANCH   4   7
HETATM    7  C7  UNL     1     -32.337   7.335   2.955  1.00 20.00     0.205 C 
HETATM    8  O12 UNL     1     -32.321   6.997   1.735  1.00 20.00    -0.644 OA
HETATM    9  O13 UNL     1     -31.599   8.163   3.565  1.00 20.00    -0.644 OA
ENDBRANCH   4   7
BRANCH   6  10
HETATM   10  C11 UNL     1     -33.461   6.150   6.070  1.00 20.00     0.029 C 
HETATM   11  C4  UNL     1     -33.507   5.705   7.508  1.00 20.00    -0.024 C 
HETATM   12  C3  UNL     1     -33.666   4.415   7.015  1.00 20.00    -0.024 C 
HETATM   13  C10 UNL     1     -34.574   5.023   5.978  1.00 20.00     0.028 C 
ENDBRANCH   6  10
TORSDOF 3
