REMARK  0 active torsions:
REMARK  status: ('A' for Active; 'I' for Inactive)
ROOT
HETATM    1  C1  UNL     1     -37.311   5.780   3.899  1.00 20.00     0.064 C 
HETATM    2  C2  UNL     1     -33.456   6.568   6.792  1.00 20.00    -0.030 C 
HETATM    3  C3  UNL     1     -34.001   5.346   6.716  1.00 20.00    -0.030 C 
HETATM    4  C4  UNL     1     -33.956   7.690   5.933  1.00 20.00     0.037 C 
HETATM    5  C5  UNL     1     -35.117   5.071   5.754  1.00 20.00     0.038 C 
HETATM    6  C6  UNL     1     -33.138   6.839   2.221  1.00 20.00     0.001 C 
HETATM    7  C7  UNL     1     -33.342   5.326   2.264  1.00 20.00     0.001 C 
HETATM    8  C8  UNL     1     -33.019   7.474   3.597  1.00 20.00     0.011 C 
HETATM    9  C9  UNL     1     -33.807   4.768   3.610  1.00 20.00     0.012 C 
HETATM   10  C10 UNL     1     -35.623   7.667   3.971  1.00 20.00     0.030 C 
HETATM   11  C11 UNL     1     -35.984   6.231   3.534  1.00 20.00     0.103 C 
HETATM   12  C12 UNL     1     -34.237   7.179   4.499  1.00 20.00    -0.027 C 
HETATM   13  C13 UNL     1     -34.772   5.695   4.381  1.00 20.00    -0.013 C 
HETATM   14  N14 UNL     1     -38.374   5.419   4.191  1.00 20.00    -0.197 NA
ENDROOT
TORSDOF 0
