REMARK  1 active torsions:
REMARK  status: ('A' for Active; 'I' for Inactive)
REMARK    1  A    between atoms: C3_3  and  C8_8 
ROOT
HETATM    1  C1  UNL     1     -33.363   6.861   4.497  1.00 20.00     0.147 C 
HETATM    2  C4  UNL     1     -34.606   4.828   6.140  1.00 20.00     0.007 C 
HETATM    3  C5  UNL     1     -33.694   4.484   4.945  1.00 20.00     0.022 C 
HETATM    4  C6  UNL     1     -35.471   5.921   4.245  1.00 20.00     0.027 C 
HETATM    5  C7  UNL     1     -35.220   6.189   5.737  1.00 20.00     0.002 C 
HETATM    6  C8  UNL     1     -34.009   5.598   3.944  1.00 20.00     0.038 C 
HETATM    7  C9  UNL     1     -34.156   7.337   5.714  1.00 20.00     0.018 C 
HETATM    8  C10 UNL     1     -34.785   8.705   5.442  1.00 20.00     0.023 C 
HETATM    9  C11 UNL     1     -33.276   7.404   6.960  1.00 20.00     0.023 C 
HETATM   10  O12 UNL     1     -32.352   7.397   4.067  1.00 20.00    -0.296 OA
ENDROOT
BRANCH   6  11
HETATM   11  C3  UNL     1     -33.671   5.333   2.528  1.00 20.00    -0.020 C 
HETATM   12  C2  UNL     1     -32.425   5.145   2.079  1.00 20.00     0.008 C 
ENDBRANCH   6  11
TORSDOF 1
