REMARK  0 active torsions:
REMARK  status: ('A' for Active; 'I' for Inactive)
ROOT
HETATM    1  C1  UNL     1     -34.788   5.234   6.407  1.00 20.00    -0.021 C 
HETATM    2  C2  UNL     1     -33.810   7.807   6.811  1.00 20.00    -0.021 C 
HETATM    3  C3  UNL     1     -34.796   4.663   5.176  1.00 20.00    -0.018 C 
HETATM    4  C4  UNL     1     -33.165   8.496   5.819  1.00 20.00    -0.024 C 
HETATM    5  C5  UNL     1     -33.125   5.845   3.172  1.00 20.00     0.135 C 
HETATM    6  C6  UNL     1     -32.749   7.358   3.217  1.00 20.00     0.087 C 
HETATM    7  C7  UNL     1     -33.840   6.364   6.405  1.00 20.00     0.036 C 
HETATM    8  C8  UNL     1     -34.324   5.573   4.083  1.00 20.00     0.083 C 
HETATM    9  C9  UNL     1     -32.800   7.521   4.720  1.00 20.00     0.021 C 
HETATM   10  C10 UNL     1     -34.079   6.755   4.968  1.00 20.00     0.020 C 
HETATM   11  O11 UNL     1     -32.593   5.013   2.453  1.00 20.00    -0.297 OA
ENDROOT
TORSDOF 0
