REMARK  3 active torsions:
REMARK  status: ('A' for Active; 'I' for Inactive)
REMARK    1  A    between atoms: C6_6  and  C7_7 
REMARK    2  A    between atoms: C8_8  and  C10_10 
REMARK    3  A    between atoms: C9_9  and  C11_11 
ROOT
HETATM    1  C1  UNL     1     -36.069   6.133   4.143  1.00 20.00    -0.021 C 
HETATM    2  C2  UNL     1     -35.588   7.389   4.269  1.00 20.00    -0.020 C 
HETATM    3  C5  UNL     1     -33.789   5.300   3.701  1.00 20.00    -0.003 C 
HETATM    4  C6  UNL     1     -33.318   6.553   3.834  1.00 20.00     0.024 C 
HETATM    5  C8  UNL     1     -35.061   5.036   4.503  1.00 20.00     0.039 C 
HETATM    6  C9  UNL     1     -34.134   7.457   4.748  1.00 20.00     0.056 C 
ENDROOT
BRANCH   4   7
HETATM    7  C7  UNL     1     -32.065   7.014   3.136  1.00 20.00     0.205 C 
HETATM    8  O12 UNL     1     -31.819   6.446   2.031  1.00 20.00    -0.644 OA
HETATM    9  O13 UNL     1     -31.407   7.914   3.736  1.00 20.00    -0.644 OA
ENDBRANCH   4   7
BRANCH   6  10
HETATM   10  C11 UNL     1     -34.186   6.780   6.156  1.00 20.00     0.029 A 
HETATM   11  C4  UNL     1     -32.945   6.126   6.737  1.00 20.00    -0.024 A 
HETATM   12  C3  UNL     1     -33.422   4.872   6.608  1.00 20.00    -0.024 A 
HETATM   13  C10 UNL     1     -34.745   5.316   6.007  1.00 20.00     0.028 A 
ENDBRANCH   6  10
TORSDOF 3
