REMARK  0 active torsions:
REMARK  status: ('A' for Active; 'I' for Inactive)
ROOT
HETATM    1  C1  UNL     1     -32.967   6.349   3.294  1.00 20.00    -0.010 C 
HETATM    2  C2  UNL     1     -33.027   4.860   3.252  1.00 20.00     0.155 C 
HETATM    3  C3  UNL     1     -32.773   7.008   2.144  1.00 20.00    -0.078 C 
HETATM    4  C4  UNL     1     -33.153   7.014   4.626  1.00 20.00     0.051 C 
HETATM    5  C5  UNL     1     -34.004   4.185   4.191  1.00 20.00     0.084 C 
HETATM    6  C6  UNL     1     -34.107   4.879   5.546  1.00 20.00     0.017 C 
HETATM    7  C7  UNL     1     -34.313   6.407   5.447  1.00 20.00    -0.043 C 
HETATM    8  C8  UNL     1     -32.698   8.506   2.089  1.00 20.00     0.043 C 
HETATM    9  C9  UNL     1     -32.618   6.292   0.834  1.00 20.00     0.043 C 
HETATM   10  C10 UNL     1     -35.674   6.741   4.806  1.00 20.00     0.015 C 
HETATM   11  C11 UNL     1     -34.291   7.008   6.865  1.00 20.00     0.015 C 
HETATM   12  O12 UNL     1     -32.370   4.212   2.440  1.00 20.00    -0.293 OA
ENDROOT
TORSDOF 0
