REMARK  2 active torsions:
REMARK  status: ('A' for Active; 'I' for Inactive)
REMARK    1  A    between atoms: C6_6  and  C10_10 
REMARK    2  A    between atoms: C10_10  and  O11_11 
ROOT
HETATM    1  C1  UNL     1     -33.754   7.095   5.714  1.00 20.00    -0.024 C 
HETATM    2  C2  UNL     1     -32.765   7.243   4.813  1.00 20.00    -0.081 C 
HETATM    3  C3  UNL     1     -34.829   6.055   5.619  1.00 20.00     0.027 C 
HETATM    4  C4  UNL     1     -34.504   4.957   4.611  1.00 20.00     0.004 C 
HETATM    5  C5  UNL     1     -33.961   5.555   3.320  1.00 20.00     0.012 C 
HETATM    6  C6  UNL     1     -32.675   6.370   3.568  1.00 20.00     0.042 C 
HETATM    7  C7  UNL     1     -31.676   8.255   5.038  1.00 20.00     0.043 C 
ENDROOT
BRANCH   6   8
HETATM    8  C10 UNL     1     -32.346   7.165   2.299  1.00 20.00     0.124 C 
HETATM    9  C8  UNL     1     -32.303   6.266   1.078  1.00 20.00     0.040 C 
BRANCH   8  10
HETATM   10  O11 UNL     1     -33.334   8.169   2.119  1.00 20.00    -0.390 OA
HETATM   11  C9  UNL     1     -32.874   9.208   1.265  1.00 20.00     0.202 C 
ENDBRANCH   8  10
ENDBRANCH   6   8
TORSDOF 2
