REMARK  2 active torsions:
REMARK  status: ('A' for Active; 'I' for Inactive)
REMARK    1  A    between atoms: C3_3  and  N10_10 
REMARK    2  A    between atoms: C8_8  and  N10_10 
ROOT
HETATM    1  C1  UNL     1     -32.703   6.305   2.970  1.00 20.00     0.094 C 
HETATM    2  C7  UNL     1     -31.162   8.230   3.005  1.00 20.00     0.059 C 
HETATM    3  C8  UNL     1     -32.485   7.659   3.496  1.00 20.00     0.322 C 
HETATM    4  N9  UNL     1     -32.877   5.237   2.551  1.00 20.00    -0.195 NA
ENDROOT
BRANCH   3   5
HETATM    5  N10 UNL     1     -32.527   7.637   4.949  1.00 20.00     0.106 N 
HETATM    6  H24 UNL     1     -32.376   8.575   5.310  1.00 20.00     0.318 HD
BRANCH   5   7
HETATM    7  C3  UNL     1     -33.831   7.157   5.420  1.00 20.00     0.230 A 
HETATM    8  C2  UNL     1     -34.101   7.041   6.896  1.00 20.00     0.047 A 
HETATM    9  C4  UNL     1     -33.991   5.788   6.057  1.00 20.00    -0.015 A 
HETATM   10  C5  UNL     1     -35.256   5.028   5.757  1.00 20.00     0.017 C 
HETATM   11  C6  UNL     1     -32.783   4.911   6.262  1.00 20.00     0.017 C 
ENDBRANCH   5   7
ENDBRANCH   3   5
TORSDOF 2
