REMARK  3 active torsions:
REMARK  status: ('A' for Active; 'I' for Inactive)
REMARK    1  A    between atoms: C2_2  and  N8_8 
REMARK    2  A    between atoms: C6_6  and  C7_7 
REMARK    3  A    between atoms: C6_6  and  N8_8 
ROOT
HETATM    1  N8  UNL     1     -34.019   7.555   3.485  1.00 20.00     0.097 N 
HETATM    2  H23 UNL     1     -34.907   7.304   3.060  1.00 20.00     0.316 HD
ENDROOT
BRANCH   1   3
HETATM    3  C2  UNL     1     -32.935   7.143   2.587  1.00 20.00     0.229 A 
HETATM    4  C1  UNL     1     -31.570   7.765   2.720  1.00 20.00     0.047 A 
HETATM    5  C3  UNL     1     -32.411   8.063   1.499  1.00 20.00    -0.015 A 
HETATM    6  C4  UNL     1     -32.006   7.431   0.193  1.00 20.00     0.017 C 
HETATM    7  C5  UNL     1     -32.974   9.454   1.359  1.00 20.00     0.017 C 
ENDBRANCH   1   3
BRANCH   1   8
HETATM    8  C6  UNL     1     -33.891   6.899   4.775  1.00 20.00     0.386 C 
BRANCH   8   9
HETATM    9  C7  UNL     1     -34.454   5.500   4.746  1.00 20.00     0.413 C 
HETATM   10  F9  UNL     1     -34.321   4.911   5.955  1.00 20.00    -0.169 F 
HETATM   11  F10 UNL     1     -35.768   5.505   4.436  1.00 20.00    -0.169 F 
HETATM   12  F11 UNL     1     -33.813   4.729   3.842  1.00 20.00    -0.169 F 
ENDBRANCH   8   9
ENDBRANCH   1   8
TORSDOF 3
