REMARK  3 active torsions:
REMARK  status: ('A' for Active; 'I' for Inactive)
REMARK    1  A    between atoms: C2_2  and  C8_8 
REMARK    2  A    between atoms: C4_4  and  N9_9 
REMARK    3  A    between atoms: C8_8  and  N9_9 
ROOT
HETATM    1  N9  UNL     1     -33.815   5.344   3.374  1.00 20.00     0.093 N 
HETATM    2  H24 UNL     1     -34.441   5.401   2.576  1.00 20.00     0.316 HD
ENDROOT
BRANCH   1   3
HETATM    3  C4  UNL     1     -34.218   6.353   4.360  1.00 20.00     0.229 A 
HETATM    4  C3  UNL     1     -35.374   6.095   5.289  1.00 20.00     0.047 A 
HETATM    5  C5  UNL     1     -33.972   6.179   5.848  1.00 20.00    -0.015 A 
HETATM    6  C6  UNL     1     -33.346   4.911   6.369  1.00 20.00     0.017 C 
HETATM    7  C7  UNL     1     -33.600   7.410   6.634  1.00 20.00     0.017 C 
ENDBRANCH   1   3
BRANCH   1   8
HETATM    8  C8  UNL     1     -32.447   5.573   2.941  1.00 20.00     0.320 C 
BRANCH   8   9
HETATM    9  C2  UNL     1     -32.136   7.029   2.759  1.00 20.00     0.030 C 
HETATM   10  C1  UNL     1     -32.327   7.699   1.616  1.00 20.00     0.034 C 
HETATM   11 CL10 UNL     1     -31.428   7.834   4.121  1.00 20.00    -0.088 Cl
ENDBRANCH   8   9
ENDBRANCH   1   8
TORSDOF 3
