REMARK  1 active torsions:
REMARK  status: ('A' for Active; 'I' for Inactive)
REMARK    1  A    between atoms: C6_6  and  N7_7 
ROOT
HETATM    1  C1  UNL     1     -34.454   5.606   6.578  1.00 20.00     0.015 C 
HETATM    2  C2  UNL     1     -34.201   5.809   5.422  1.00 20.00    -0.084 C 
HETATM    3  C4  UNL     1     -33.195   4.849   3.382  1.00 20.00     0.055 C 
HETATM    4  C5  UNL     1     -35.153   6.421   3.224  1.00 20.00     0.055 C 
HETATM    5  C6  UNL     1     -33.893   6.056   4.004  1.00 20.00     0.112 C 
ENDROOT
BRANCH   5   6
HETATM    6  N7  UNL     1     -32.965   7.191   3.969  1.00 20.00    -0.224 NA
HETATM    7  C3  UNL     1     -32.629   7.504   2.890  1.00 20.00     0.333 C 
HETATM    8  O8  UNL     1     -32.288   7.823   1.811  1.00 20.00    -0.260 OA
ENDBRANCH   5   6
TORSDOF 1
