REMARK  0 active torsions:
REMARK  status: ('A' for Active; 'I' for Inactive)
ROOT
HETATM    1  C1  UNL     1     -33.722   5.702   2.897  1.00 20.00     0.042 C 
HETATM    2  C2  UNL     1     -35.100   5.588   6.487  1.00 20.00    -0.026 A 
HETATM    3  C3  UNL     1     -34.781   6.813   6.925  1.00 20.00    -0.026 A 
HETATM    4  C4  UNL     1     -34.020   6.097   4.265  1.00 20.00    -0.050 A 
HETATM    5  C5  UNL     1     -33.696   7.335   4.705  1.00 20.00    -0.067 A 
HETATM    6  C6  UNL     1     -32.863   6.425   2.169  1.00 20.00     0.079 C 
HETATM    7  C7  UNL     1     -34.760   5.094   5.112  1.00 20.00     0.065 A 
HETATM    8  C8  UNL     1     -34.049   7.820   6.089  1.00 20.00     0.061 A 
HETATM    9  C9  UNL     1     -32.960   8.323   3.816  1.00 20.00     0.074 C 
HETATM   10  C10 UNL     1     -32.016   7.492   0.458  1.00 20.00     0.345 C 
HETATM   11  C11 UNL     1     -32.181   7.632   2.695  1.00 20.00     0.184 C 
HETATM   12  O12 UNL     1     -32.651   6.258   0.821  1.00 20.00    -0.328 OA
HETATM   13  O13 UNL     1     -32.071   8.443   1.531  1.00 20.00    -0.354 OA
ENDROOT
TORSDOF 0
