REMARK  0 active torsions:
REMARK  status: ('A' for Active; 'I' for Inactive)
ROOT
HETATM    1  C1  UNL     1     -33.154   7.593   3.833  1.00 20.00     0.060 A 
HETATM    2  C2  UNL     1     -33.432   4.790   3.765  1.00 20.00     0.065 A 
HETATM    3  C3  UNL     1     -34.495   6.569   6.975  1.00 20.00     0.167 A 
HETATM    4  C4  UNL     1     -33.669   6.916   4.959  1.00 20.00     0.076 A 
HETATM    5  C5  UNL     1     -32.926   5.485   2.664  1.00 20.00     0.139 A 
HETATM    6  C6  UNL     1     -33.798   5.524   4.905  1.00 20.00     0.038 A 
HETATM    7  C7  UNL     1     -32.788   6.868   2.695  1.00 20.00     0.074 A 
HETATM    8  N8  UNL     1     -34.072   7.499   6.152  1.00 20.00    -0.253 NA
HETATM    9  F9  UNL     1     -32.572   4.793   1.571  1.00 20.00    -0.204 F 
HETATM   10  S10 UNL     1     -34.445   4.959   6.399  1.00 20.00    -0.080 SA
HETATM   11 CL11 UNL     1     -32.160   7.705   1.326  1.00 20.00    -0.081 Cl
ENDROOT
TORSDOF 0
