REMARK  0 active torsions:
REMARK  status: ('A' for Active; 'I' for Inactive)
ROOT
HETATM    1  C1  UNL     1     -33.401   5.304   2.296  1.00 20.00     0.035 A 
HETATM    2  C2  UNL     1     -32.778   6.086   1.319  1.00 20.00     0.026 A 
HETATM    3  C3  UNL     1     -32.434   7.876   2.918  1.00 20.00     0.045 A 
HETATM    4  C4  UNL     1     -33.548   5.806   3.607  1.00 20.00     0.077 A 
HETATM    5  C5  UNL     1     -33.061   7.084   3.895  1.00 20.00     0.039 A 
HETATM    6  C6  UNL     1     -32.301   7.355   1.629  1.00 20.00     0.035 A 
HETATM    7  C7  UNL     1     -34.102   5.912   5.740  1.00 20.00     0.253 A 
HETATM    8  N8  UNL     1     -34.141   5.147   4.674  1.00 20.00    -0.213 NA
HETATM    9  F9  UNL     1     -34.611   5.512   6.914  1.00 20.00    -0.176 F 
HETATM   10  S10 UNL     1     -33.367   7.445   5.552  1.00 20.00    -0.037 SA
HETATM   11 CL11 UNL     1     -31.535   8.299   0.408  1.00 20.00    -0.084 Cl
ENDROOT
TORSDOF 0
