REMARK  1 active torsions:
REMARK  status: ('A' for Active; 'I' for Inactive)
REMARK    1  A    between atoms: C1_1  and  C2_2 
ROOT
HETATM    1  C2  UNL     1     -34.103   5.647   4.601  1.00 20.00     0.447 C 
HETATM    2  F5  UNL     1     -33.937   4.310   4.676  1.00 20.00    -0.166 F 
HETATM    3  F6  UNL     1     -35.334   5.886   4.101  1.00 20.00    -0.166 F 
HETATM    4  F7  UNL     1     -33.200   6.131   3.722  1.00 20.00    -0.166 F 
ENDROOT
BRANCH   1   5
HETATM    5  C1  UNL     1     -33.938   6.289   5.946  1.00 20.00     0.459 C 
HETATM    6  F3  UNL     1     -34.879   5.811   6.796  1.00 20.00    -0.205 F 
HETATM    7  F4  UNL     1     -34.143   7.624   5.841  1.00 20.00    -0.205 F 
ENDBRANCH   1   5
TORSDOF 1
