REMARK  0 active torsions:
REMARK  status: ('A' for Active; 'I' for Inactive)
ROOT
HETATM    1  C1  UNL     1     -33.910   5.378   4.583  1.00 20.00     0.317 C 
HETATM    2  C2  UNL     1     -33.648   6.652   4.878  1.00 20.00     0.253 C 
HETATM    3  F3  UNL     1     -34.488   4.562   5.490  1.00 20.00    -0.169 F 
HETATM    4  F4  UNL     1     -33.594   4.898   3.362  1.00 20.00    -0.169 F 
HETATM    5  F5  UNL     1     -33.068   7.436   3.943  1.00 20.00    -0.187 F 
HETATM    6 CL6  UNL     1     -34.025   7.326   6.415  1.00 20.00    -0.046 Cl
ENDROOT
TORSDOF 0
