REMARK  0 active torsions:
REMARK  status: ('A' for Active; 'I' for Inactive)
ROOT
HETATM    1  C1  UNL     1     -34.105   4.301   5.150  1.00 20.00     0.089 C 
HETATM    2  C2  UNL     1     -34.256   5.731   4.666  1.00 20.00     0.251 C 
HETATM    3  F3  UNL     1     -35.507   5.883   4.154  1.00 20.00    -0.208 F 
HETATM    4 CL4  UNL     1     -33.070   6.080   3.388  1.00 20.00    -0.066 Cl
HETATM    5 CL5  UNL     1     -34.049   6.868   6.017  1.00 20.00    -0.066 Cl
ENDROOT
TORSDOF 0
