REMARK  0 active torsions:
REMARK  status: ('A' for Active; 'I' for Inactive)
ROOT
HETATM    1  C1  UNL     1     -33.741   5.208   3.103  1.00 20.00     0.085 C 
HETATM    2  C2  UNL     1     -34.182   4.840   5.510  1.00 20.00     0.067 C 
HETATM    3  C3  UNL     1     -33.792   7.160   4.624  1.00 20.00     0.067 C 
HETATM    4  C4  UNL     1     -34.625   5.491   6.818  1.00 20.00     0.170 C 
HETATM    5  C5  UNL     1     -34.257   7.679   5.982  1.00 20.00     0.170 C 
HETATM    6  C6  UNL     1     -34.372   5.774   4.306  1.00 20.00     0.129 C 
HETATM    7  N7  UNL     1     -33.243   4.762   2.155  1.00 20.00    -0.195 NA
HETATM    8  O8  UNL     1     -33.958   6.738   7.012  1.00 20.00    -0.391 OA
HETATM    9 CL9  UNL     1     -36.124   5.922   3.923  1.00 20.00    -0.103 Cl
ENDROOT
TORSDOF 0
