REMARK  1 active torsions:
REMARK  status: ('A' for Active; 'I' for Inactive)
REMARK    1  A    between atoms: C7_7  and  N8_8 
ROOT
HETATM    1  C1  UNL     1     -33.502   6.046   2.022  1.00 20.00     0.045 C 
HETATM    2  C2  UNL     1     -33.674   5.314   3.345  1.00 20.00     0.236 C 
HETATM    3  C3  UNL     1     -32.999   7.638   3.695  1.00 20.00     0.251 C 
HETATM    4  C4  UNL     1     -32.503   7.152   2.342  1.00 20.00     0.086 C 
HETATM    5  N8  UNL     1     -33.361   6.350   4.409  1.00 20.00    -0.066 N 
HETATM    6  S9  UNL     1     -32.528   8.472   1.107  1.00 20.00    -0.091 SA
HETATM    7  H24 UNL     1     -32.512   6.030   4.896  1.00 20.00     0.280 HD
ENDROOT
BRANCH   5   8
HETATM    8  C7  UNL     1     -34.426   6.512   5.445  1.00 20.00     0.180 C 
HETATM    9  C5  UNL     1     -33.989   7.593   6.420  1.00 20.00     0.039 C 
HETATM   10  C6  UNL     1     -34.641   5.171   6.129  1.00 20.00     0.039 C 
ENDBRANCH   5   8
TORSDOF 1
