REMARK  0 active torsions:
REMARK  status: ('A' for Active; 'I' for Inactive)
ROOT
HETATM    1  C1  UNL     1     -32.663   6.870   2.781  1.00 20.00     0.085 C 
HETATM    2  C2  UNL     1     -33.630   5.085   4.178  1.00 20.00     0.051 C 
HETATM    3  C3  UNL     1     -32.908   7.316   5.192  1.00 20.00     0.051 C 
HETATM    4  C4  UNL     1     -34.435   4.672   5.408  1.00 20.00     0.076 C 
HETATM    5  C5  UNL     1     -33.656   7.079   6.501  1.00 20.00     0.076 C 
HETATM    6  C6  UNL     1     -33.503   6.604   3.965  1.00 20.00     0.127 C 
HETATM    7  N7  UNL     1     -32.002   7.079   1.851  1.00 20.00    -0.195 NA
HETATM    8  S8  UNL     1     -33.712   5.320   6.940  1.00 20.00    -0.169 SA
HETATM    9 CL9  UNL     1     -35.116   7.303   3.575  1.00 20.00    -0.103 Cl
ENDROOT
TORSDOF 0
