REMARK  1 active torsions:
REMARK  status: ('A' for Active; 'I' for Inactive)
REMARK    1  A    between atoms: C5_5  and  C6_6 
ROOT
HETATM    1  C1  UNL     1     -32.785   7.176   3.598  1.00 20.00     0.080 C 
HETATM    2  C5  UNL     1     -33.074   5.900   4.272  1.00 20.00     0.196 C 
HETATM    3  N7  UNL     1     -32.554   8.184   3.070  1.00 20.00    -0.196 NA
HETATM    4 CL8  UNL     1     -33.139   4.653   2.984  1.00 20.00    -0.109 Cl
ENDROOT
BRANCH   2   5
HETATM    5  C6  UNL     1     -34.360   5.935   5.154  1.00 20.00    -0.022 C 
HETATM    6  C2  UNL     1     -34.204   6.979   6.281  1.00 20.00     0.017 C 
HETATM    7  C3  UNL     1     -35.570   6.364   4.293  1.00 20.00     0.017 C 
HETATM    8  C4  UNL     1     -34.679   4.570   5.797  1.00 20.00     0.017 C 
ENDBRANCH   2   5
TORSDOF 1
