REMARK  1 active torsions:
REMARK  status: ('A' for Active; 'I' for Inactive)
REMARK    1  A    between atoms: C4_4  and  C5_5 
ROOT
HETATM    1  C1  UNL     1     -33.497   6.674   3.990  1.00 20.00     0.085 C 
HETATM    2  C3  UNL     1     -35.752   5.776   4.365  1.00 20.00     0.049 C 
HETATM    3  C5  UNL     1     -34.266   5.652   4.721  1.00 20.00     0.121 C 
HETATM    4  N6  UNL     1     -32.893   7.482   3.415  1.00 20.00    -0.195 NA
HETATM    5 CL7  UNL     1     -33.690   4.050   4.151  1.00 20.00    -0.103 Cl
ENDROOT
BRANCH   3   6
HETATM    6  C4  UNL     1     -34.081   5.786   6.247  1.00 20.00     0.036 C 
HETATM    7  C2  UNL     1     -34.516   7.118   6.853  1.00 20.00     0.008 C 
ENDBRANCH   3   6
TORSDOF 1
