REMARK  1 active torsions:
REMARK  status: ('A' for Active; 'I' for Inactive)
REMARK    1  A    between atoms: C5_5  and  C6_6 
ROOT
HETATM    1  C1  UNL     1     -32.228   7.613   1.940  1.00 20.00     0.084 C 
HETATM    2  C6  UNL     1     -32.364   6.415   2.797  1.00 20.00     0.222 C 
HETATM    3  N7  UNL     1     -32.128   8.543   1.252  1.00 20.00    -0.195 NA
HETATM    4 CL9  UNL     1     -33.084   5.112   1.794  1.00 20.00    -0.104 Cl
ENDROOT
BRANCH   2   5
HETATM    5  C5  UNL     1     -33.157   6.630   4.030  1.00 20.00    -0.019 A 
HETATM    6  C2  UNL     1     -32.793   7.545   5.060  1.00 20.00     0.017 A 
HETATM    7  C3  UNL     1     -33.703   7.550   6.093  1.00 20.00     0.050 A 
HETATM    8  S8  UNL     1     -34.991   6.455   5.820  1.00 20.00    -0.113 SA
HETATM    9  C4  UNL     1     -34.333   5.971   4.316  1.00 20.00     0.059 A 
ENDBRANCH   2   5
TORSDOF 1
