REMARK  1 active torsions:
REMARK  status: ('A' for Active; 'I' for Inactive)
REMARK    1  A    between atoms: C5_5  and  C6_6 
ROOT
HETATM    1  C1  UNL     1     -33.024   5.603   2.790  1.00 20.00     0.080 C 
HETATM    2  C6  UNL     1     -33.035   6.456   3.984  1.00 20.00     0.195 C 
HETATM    3  N7  UNL     1     -33.010   4.930   1.845  1.00 20.00    -0.196 NA
HETATM    4 CL9  UNL     1     -32.395   8.056   3.521  1.00 20.00    -0.109 Cl
ENDROOT
BRANCH   2   5
HETATM    5  C5  UNL     1     -34.443   6.605   4.558  1.00 20.00     0.044 C 
HETATM    6  C2  UNL     1     -35.002   5.281   5.038  1.00 20.00     0.035 C 
HETATM    7  C3  UNL     1     -34.436   5.159   6.438  1.00 20.00     0.168 C 
HETATM    8  O8  UNL     1     -34.214   6.491   6.921  1.00 20.00    -0.391 OA
HETATM    9  C4  UNL     1     -34.444   7.413   5.846  1.00 20.00     0.174 C 
ENDBRANCH   2   5
TORSDOF 1
