REMARK  2 active torsions:
REMARK  status: ('A' for Active; 'I' for Inactive)
REMARK    1  A    between atoms: C4_4  and  C5_5 
REMARK    2  A    between atoms: C4_4  and  C6_6 
ROOT
HETATM    1  C1  UNL     1     -32.400   7.403   1.725  1.00 20.00     0.079 C 
HETATM    2  C5  UNL     1     -33.199   6.551   2.613  1.00 20.00     0.189 C 
HETATM    3  N7  UNL     1     -31.771   8.080   1.023  1.00 20.00    -0.196 NA
HETATM    4 CL8  UNL     1     -32.511   4.900   2.516  1.00 20.00    -0.109 Cl
ENDROOT
BRANCH   2   5
HETATM    5  C4  UNL     1     -33.168   7.027   4.070  1.00 20.00     0.039 C 
BRANCH   5   6
HETATM    6  C6  UNL     1     -34.298   6.467   4.962  1.00 20.00    -0.020 C 
HETATM    7  C2  UNL     1     -34.274   4.940   5.045  1.00 20.00     0.009 C 
HETATM    8  C3  UNL     1     -34.187   7.062   6.369  1.00 20.00     0.009 C 
ENDBRANCH   5   6
ENDBRANCH   2   5
TORSDOF 2
