REMARK  1 active torsions:
REMARK  status: ('A' for Active; 'I' for Inactive)
REMARK    1  A    between atoms: C2_2  and  C4_4 
ROOT
HETATM    1  C1  UNL     1     -33.804   4.491   3.913  1.00 20.00     0.076 A 
HETATM    2  C2  UNL     1     -33.976   5.409   4.867  1.00 20.00     0.053 A 
HETATM    3  C3  UNL     1     -32.577   6.625   3.072  1.00 20.00     0.255 A 
HETATM    4  O5  UNL     1     -31.933   7.440   2.428  1.00 20.00    -0.272 OA
HETATM    5  S7  UNL     1     -32.888   4.978   2.523  1.00 20.00    -0.051 SA
HETATM    6  S8  UNL     1     -33.290   6.972   4.645  1.00 20.00    -0.037 SA
ENDROOT
BRANCH   2   7
HETATM    7  C4  UNL     1     -34.727   5.123   6.083  1.00 20.00     0.278 C 
HETATM    8  O6  UNL     1     -34.896   5.953   6.973  1.00 20.00    -0.301 OA
ENDBRANCH   2   7
TORSDOF 1
