REMARK  0 active torsions:
REMARK  status: ('A' for Active; 'I' for Inactive)
ROOT
HETATM    1  C1  UNL     1     -32.061   7.447   4.442  1.00 20.00     0.022 A 
HETATM    2  C2  UNL     1     -33.157   5.228   2.531  1.00 20.00     0.120 C 
HETATM    3  C3  UNL     1     -32.294   7.302   2.086  1.00 20.00     0.101 C 
HETATM    4  C4  UNL     1     -32.792   7.824   3.388  1.00 20.00     0.025 A 
HETATM    5  C5  UNL     1     -33.613   5.573   3.753  1.00 20.00    -0.048 C 
HETATM    6  C6  UNL     1     -34.265   4.676   6.097  1.00 20.00     0.014 A 
HETATM    7  C7  UNL     1     -34.419   7.213   5.382  1.00 20.00     0.021 C 
HETATM    8  C8  UNL     1     -34.544   4.834   4.628  1.00 20.00     0.021 A 
HETATM    9  C9  UNL     1     -35.069   5.859   5.627  1.00 20.00    -0.005 A 
HETATM   10  C10 UNL     1     -33.388   6.913   4.342  1.00 20.00     0.004 A 
HETATM   11  N11 UNL     1     -32.444   6.069   1.690  1.00 20.00    -0.276 NA
ENDROOT
TORSDOF 0
