REMARK  1 active torsions:
REMARK  status: ('A' for Active; 'I' for Inactive)
REMARK    1  A    between atoms: C3_3  and  C8_8 
ROOT
HETATM    1  C1  UNL     1     -34.979   5.595   6.470  1.00 20.00    -0.029 C 
HETATM    2  C2  UNL     1     -34.403   6.706   6.944  1.00 20.00    -0.030 C 
HETATM    3  C4  UNL     1     -34.560   4.875   5.228  1.00 20.00     0.045 C 
HETATM    4  C5  UNL     1     -33.269   7.411   6.276  1.00 20.00     0.037 C 
HETATM    5  C6  UNL     1     -34.565   6.458   3.183  1.00 20.00     0.019 C 
HETATM    6  C7  UNL     1     -34.513   7.746   4.013  1.00 20.00     0.012 C 
HETATM    7  C8  UNL     1     -33.700   5.727   4.271  1.00 20.00     0.031 C 
HETATM    8  C9  UNL     1     -33.267   7.180   4.762  1.00 20.00    -0.026 C 
HETATM    9  C11 UNL     1     -31.967   7.730   4.153  1.00 20.00     0.016 C 
ENDROOT
BRANCH   7  10
HETATM   10  C3  UNL     1     -32.552   4.843   3.678  1.00 20.00     0.132 C 
HETATM   11  C10 UNL     1     -31.591   4.233   4.662  1.00 20.00     0.091 C 
HETATM   12  O12 UNL     1     -32.442   4.655   2.468  1.00 20.00    -0.298 OA
ENDBRANCH   7  10
TORSDOF 1
