REMARK  2 active torsions:
REMARK  status: ('A' for Active; 'I' for Inactive)
REMARK    1  A    between atoms: C1_1  and  C3_3 
REMARK       I    between atoms: C1_1  and  N8_8 
REMARK    2  A    between atoms: N8_8  and  O10_10 
ROOT
HETATM    1  C1  UNL     1     -33.158   5.785   2.986  1.00 20.00     0.247 C 
HETATM    2  C6  UNL     1     -34.370   4.358   4.625  1.00 20.00     0.189 C 
HETATM    3  N8  UNL     1     -34.065   5.634   4.005  1.00 20.00    -0.231 N 
HETATM    4  O9  UNL     1     -32.513   4.856   2.496  1.00 20.00    -0.271 OA
ENDROOT
BRANCH   1   5
HETATM    5  C3  UNL     1     -32.961   7.192   2.478  1.00 20.00     0.084 A 
HETATM    6  C2  UNL     1     -31.638   7.834   2.701  1.00 20.00     0.019 A 
HETATM    7  C4  UNL     1     -32.043   7.391   1.323  1.00 20.00    -0.005 A 
HETATM    8  C5  UNL     1     -32.394   8.401   0.285  1.00 20.00     0.011 C 
ENDBRANCH   1   5
BRANCH   3   9
HETATM    9  O10 UNL     1     -34.797   6.702   4.558  1.00 20.00    -0.281 OA
HETATM   10  C7  UNL     1     -34.059   7.257   5.643  1.00 20.00     0.238 C 
ENDBRANCH   3   9
TORSDOF 2
