REMARK  4 active torsions:
REMARK  status: ('A' for Active; 'I' for Inactive)
REMARK    1  A    between atoms: C4_4  and  C6_6 
REMARK    2  A    between atoms: C4_4  and  N7_7 
REMARK    3  A    between atoms: C5_5  and  C6_6 
REMARK    4  A    between atoms: C5_5  and  O8_8 
ROOT
HETATM    1  C1  UNL     1     -33.785   6.694   5.457  1.00 20.00     0.157 C 
HETATM    2  N7  UNL     1     -33.550   7.533   4.670  1.00 20.00    -0.275 NA
HETATM    3  S9  UNL     1     -34.133   5.565   6.526  1.00 20.00    -0.055 SA
ENDROOT
BRANCH   2   4
HETATM    4  C4  UNL     1     -32.152   7.596   4.236  1.00 20.00     0.157 C 
BRANCH   4   5
HETATM    5  C6  UNL     1     -32.035   7.338   2.730  1.00 20.00     0.025 C 
HETATM    6  C2  UNL     1     -32.594   5.963   2.349  1.00 20.00     0.014 C 
BRANCH   5   7
HETATM    7  C5  UNL     1     -32.694   8.455   1.912  1.00 20.00     0.172 C 
BRANCH   7   8
HETATM    8  O8  UNL     1     -32.455   8.243   0.526  1.00 20.00    -0.396 OA
HETATM    9  C3  UNL     1     -33.014   9.282  -0.264  1.00 20.00     0.201 C 
ENDBRANCH   7   8
ENDBRANCH   5   7
ENDBRANCH   4   5
ENDBRANCH   2   4
TORSDOF 4
