REMARK  2 active torsions:
REMARK  status: ('A' for Active; 'I' for Inactive)
REMARK    1  A    between atoms: C3_3  and  C8_8 
REMARK    2  A    between atoms: C8_8  and  C10_10 
ROOT
HETATM    1  C1  UNL     1     -34.624   5.020   6.866  1.00 20.00    -0.026 C 
HETATM    2  C2  UNL     1     -33.591   4.583   6.130  1.00 20.00    -0.024 C 
HETATM    3  C4  UNL     1     -33.092   6.735   6.765  1.00 20.00     0.018 C 
HETATM    4  C5  UNL     1     -35.023   6.974   5.387  1.00 20.00     0.025 C 
HETATM    5  C6  UNL     1     -34.606   6.529   6.811  1.00 20.00     0.010 C 
HETATM    6  C7  UNL     1     -32.905   5.803   5.555  1.00 20.00     0.024 C 
HETATM    7  C8  UNL     1     -33.842   6.463   4.497  1.00 20.00     0.020 C 
ENDROOT
BRANCH   7   8
HETATM    8  C3  UNL     1     -33.108   7.613   3.850  1.00 20.00     0.241 C 
HETATM    9  O11 UNL     1     -31.917   7.842   4.031  1.00 20.00    -0.306 OA
ENDBRANCH   7   8
BRANCH   7  10
HETATM   10  C10 UNL     1     -34.303   5.527   3.379  1.00 20.00     0.013 C 
HETATM   11  C9  UNL     1     -33.149   5.001   2.592  1.00 20.00     0.006 C 
ENDBRANCH   7  10
TORSDOF 2
