REMARK  1 active torsions:
REMARK  status: ('A' for Active; 'I' for Inactive)
REMARK    1  A    between atoms: C3_3  and  C8_8 
ROOT
HETATM    1  C1  UNL     1     -34.415   4.535   6.146  1.00 20.00    -0.028 C 
HETATM    2  C2  UNL     1     -34.532   5.719   6.768  1.00 20.00    -0.016 C 
HETATM    3  C4  UNL     1     -34.433   4.359   4.650  1.00 20.00     0.042 C 
HETATM    4  C5  UNL     1     -33.386   7.790   5.923  1.00 20.00     0.020 C 
HETATM    5  C6  UNL     1     -32.702   7.630   4.557  1.00 20.00     0.016 C 
HETATM    6  C7  UNL     1     -34.726   7.055   6.089  1.00 20.00     0.070 C 
HETATM    7  C8  UNL     1     -32.834   6.227   3.948  1.00 20.00     0.086 C 
HETATM    8  C9  UNL     1     -34.277   5.663   3.837  1.00 20.00     0.063 C 
HETATM    9  S11 UNL     1     -35.528   6.836   4.468  1.00 20.00    -0.154 SA
ENDROOT
BRANCH   7  10
HETATM   10  C3  UNL     1     -32.223   6.266   2.576  1.00 20.00     0.224 C 
HETATM   11  O10 UNL     1     -32.286   7.267   1.870  1.00 20.00    -0.279 OA
HETATM   12 CL12 UNL     1     -31.453   4.764   2.161  1.00 20.00    -0.043 Cl
ENDBRANCH   7  10
TORSDOF 1
