REMARK  2 active torsions:
REMARK  status: ('A' for Active; 'I' for Inactive)
REMARK    1  A    between atoms: C4_4  and  C5_5 
REMARK    2  A    between atoms: C6_6  and  C10_10 
ROOT
HETATM    1  C1  UNL     1     -32.104   8.544   4.938  1.00 20.00    -0.003 C 
HETATM    2  C2  UNL     1     -32.995   7.545   5.464  1.00 20.00     0.010 C 
HETATM    3  C3  UNL     1     -31.587   8.445   3.707  1.00 20.00    -0.021 C 
HETATM    4  C4  UNL     1     -33.444   6.540   4.699  1.00 20.00    -0.016 C 
HETATM    5  C6  UNL     1     -31.877   7.285   2.786  1.00 20.00     0.016 C 
HETATM    6  C7  UNL     1     -33.051   6.353   3.249  1.00 20.00     0.025 C 
HETATM    7  C8  UNL     1     -32.678   4.895   2.932  1.00 20.00     0.016 C 
ENDROOT
BRANCH   4   8
HETATM    8  C5  UNL     1     -34.428   5.650   5.326  1.00 20.00     0.266 C 
HETATM    9  O11 UNL     1     -34.445   5.430   6.531  1.00 20.00    -0.302 OA
ENDBRANCH   4   8
BRANCH   5  10
HETATM   10  C10 UNL     1     -32.138   7.800   1.366  1.00 20.00     0.005 C 
HETATM   11  C9  UNL     1     -33.359   8.655   1.310  1.00 20.00     0.006 C 
ENDBRANCH   5  10
TORSDOF 2
