REMARK  2 active torsions:
REMARK  status: ('A' for Active; 'I' for Inactive)
REMARK    1  A    between atoms: C6_6  and  S8_8 
REMARK    2  A    between atoms: C7_7  and  S9_9 
ROOT
HETATM    1  C1  UNL     1     -34.993   6.418   3.639  1.00 20.00     0.011 C 
HETATM    2  C2  UNL     1     -33.087   5.071   3.165  1.00 20.00     0.020 C 
HETATM    3  C3  UNL     1     -34.225   5.023   5.411  1.00 20.00     0.020 C 
HETATM    4  C4  UNL     1     -34.449   5.013   3.885  1.00 20.00    -0.012 C 
HETATM    5  C5  UNL     1     -33.775   7.103   4.272  1.00 20.00     0.013 C 
HETATM    6  C6  UNL     1     -32.599   6.505   3.458  1.00 20.00     0.050 C 
HETATM    7  C7  UNL     1     -33.726   6.457   5.680  1.00 20.00     0.050 C 
ENDROOT
BRANCH   6   8
HETATM    8  S8  UNL     1     -32.272   7.442   1.930  1.00 20.00    -0.177 SA
HETATM    9  H20 UNL     1     -31.334   6.610   1.460  1.00 20.00     0.102 HD
ENDBRANCH   6   8
BRANCH   7  10
HETATM   10  S9  UNL     1     -34.783   7.335   6.877  1.00 20.00    -0.177 SA
HETATM   11  H21 UNL     1     -34.594   6.471   7.883  1.00 20.00     0.102 HD
ENDBRANCH   7  10
TORSDOF 2
