REMARK  0 active torsions:
REMARK  status: ('A' for Active; 'I' for Inactive)
ROOT
HETATM    1  C1  UNL     1     -34.710   6.460   5.930  1.00 20.00     0.096 A 
HETATM    2  C2  UNL     1     -35.005   5.340   3.993  1.00 20.00     0.096 A 
HETATM    3  C3  UNL     1     -33.675   6.789   5.091  1.00 20.00    -0.025 A 
HETATM    4  C4  UNL     1     -33.860   6.088   3.878  1.00 20.00    -0.025 A 
HETATM    5  C5  UNL     1     -32.496   7.666   5.199  1.00 20.00     0.114 A 
HETATM    6  C6  UNL     1     -32.859   6.287   2.816  1.00 20.00     0.114 A 
HETATM    7  N7  UNL     1     -35.515   5.575   5.250  1.00 20.00    -0.374 N 
HETATM    8  S8  UNL     1     -31.647   7.485   3.557  1.00 20.00    -0.160 SA
HETATM    9  H15 UNL     1     -36.359   5.159   5.619  1.00 20.00     0.164 HD
ENDROOT
TORSDOF 0
