REMARK  1 active torsions:
REMARK  status: ('A' for Active; 'I' for Inactive)
REMARK    1  A    between atoms: C6_6  and  C10_10 
ROOT
HETATM    1  C1  UNL     1     -32.334   7.535   2.523  1.00 20.00     0.059 C 
HETATM    2  C10 UNL     1     -32.215   7.442   3.968  1.00 20.00     0.133 C 
HETATM    3  N11 UNL     1     -32.381   7.607   1.366  1.00 20.00    -0.197 NA
ENDROOT
BRANCH   2   4
HETATM    4  C6  UNL     1     -33.683   7.457   4.451  1.00 20.00    -0.025 C 
HETATM    5  C4  UNL     1     -33.716   7.866   5.939  1.00 20.00     0.011 C 
HETATM    6  C2  UNL     1     -33.528   6.575   6.736  1.00 20.00     0.002 C 
HETATM    7  C3  UNL     1     -33.719   5.416   5.757  1.00 20.00     0.010 C 
HETATM    8  C5  UNL     1     -34.336   6.031   4.483  1.00 20.00    -0.040 C 
HETATM    9  C7  UNL     1     -34.018   5.167   3.254  1.00 20.00     0.015 C 
HETATM   10  C8  UNL     1     -35.873   6.070   4.640  1.00 20.00     0.015 C 
HETATM   11  C9  UNL     1     -34.443   8.477   3.591  1.00 20.00     0.017 C 
ENDBRANCH   2   4
TORSDOF 1
