REMARK  2 active torsions:
REMARK  status: ('A' for Active; 'I' for Inactive)
REMARK    1  A    between atoms: C1_1  and  C5_5 
REMARK    2  A    between atoms: C1_1  and  C6_6 
ROOT
HETATM    1  C1  UNL     1     -33.626   6.556   4.985  1.00 20.00     0.184 C 
HETATM    2  O7  UNL     1     -33.159   7.391   5.762  1.00 20.00    -0.293 OA
ENDROOT
BRANCH   1   3
HETATM    3  C5  UNL     1     -33.258   6.548   3.503  1.00 20.00     0.052 C 
HETATM    4  C2  UNL     1     -31.857   7.119   3.322  1.00 20.00     0.017 C 
HETATM    5  C3  UNL     1     -33.351   5.139   2.922  1.00 20.00     0.017 C 
ENDBRANCH   1   3
BRANCH   1   6
HETATM    6  C6  UNL     1     -34.584   5.479   5.469  1.00 20.00     0.235 C 
HETATM    7  C4  UNL     1     -34.859   5.609   6.957  1.00 20.00     0.079 C 
HETATM    8  F8  UNL     1     -34.101   4.228   5.238  1.00 20.00    -0.217 F 
HETATM    9 CL9  UNL     1     -36.088   5.674   4.536  1.00 20.00    -0.075 Cl
ENDBRANCH   1   6
TORSDOF 2
