REMARK  2 active torsions:
REMARK  status: ('A' for Active; 'I' for Inactive)
REMARK    1  A    between atoms: C1_1  and  C5_5 
REMARK    2  A    between atoms: C1_1  and  C6_6 
ROOT
HETATM    1  C1  UNL     1     -33.454   6.566   4.357  1.00 20.00     0.182 C 
HETATM    2  O7  UNL     1     -32.751   7.494   4.768  1.00 20.00    -0.293 OA
ENDROOT
BRANCH   1   3
HETATM    3  C5  UNL     1     -33.234   6.032   2.960  1.00 20.00     0.335 C 
HETATM    4  F8  UNL     1     -32.863   4.723   3.001  1.00 20.00    -0.225 F 
HETATM    5 CL9  UNL     1     -31.931   6.973   2.216  1.00 20.00    -0.081 Cl
ENDBRANCH   1   3
BRANCH   1   6
HETATM    6  C6  UNL     1     -34.531   5.912   5.247  1.00 20.00     0.014 C 
HETATM    7  C2  UNL     1     -34.231   4.425   5.475  1.00 20.00     0.023 C 
HETATM    8  C3  UNL     1     -35.903   6.029   4.558  1.00 20.00     0.023 C 
HETATM    9  C4  UNL     1     -34.587   6.656   6.588  1.00 20.00     0.023 C 
ENDBRANCH   1   6
TORSDOF 2
