REMARK  1 active torsions:
REMARK  status: ('A' for Active; 'I' for Inactive)
REMARK    1  A    between atoms: C1_1  and  C5_5 
ROOT
HETATM    1  C1  UNL     1     -34.077   5.663   4.434  1.00 20.00     0.141 A 
HETATM    2  C2  UNL     1     -32.770   6.330   2.827  1.00 20.00     0.187 A 
HETATM    3  N6  UNL     1     -33.481   6.765   3.844  1.00 20.00    -0.211 NA
HETATM    4  N7  UNL     1     -33.874   4.437   3.951  1.00 20.00    -0.193 NA
HETATM    5  S8  UNL     1     -32.854   4.627   2.638  1.00 20.00     0.046 SA
HETATM    6 CL9  UNL     1     -31.845   7.312   1.786  1.00 20.00    -0.053 Cl
ENDROOT
BRANCH   1   7
HETATM    7  C5  UNL     1     -34.983   5.861   5.661  1.00 20.00     0.058 A 
HETATM    8  C3  UNL     1     -34.421   6.577   6.867  1.00 20.00     0.013 A 
HETATM    9  C4  UNL     1     -34.663   5.102   6.927  1.00 20.00     0.013 A 
ENDBRANCH   1   7
TORSDOF 1
