REMARK  3 active torsions:
REMARK  status: ('A' for Active; 'I' for Inactive)
REMARK    1  A    between atoms: C4_4  and  N8_8 
REMARK    2  A    between atoms: C6_6  and  C7_7 
REMARK    3  A    between atoms: C6_6  and  N8_8 
ROOT
HETATM    1  C1  UNL     1     -35.164   7.040   4.708  1.00 20.00     0.047 C 
HETATM    2  C2  UNL     1     -34.349   7.189   5.985  1.00 20.00     0.076 C 
HETATM    3  C3  UNL     1     -34.509   4.706   4.963  1.00 20.00     0.109 C 
HETATM    4  C4  UNL     1     -34.615   5.837   3.942  1.00 20.00     0.232 C 
HETATM    5  S9  UNL     1     -34.022   5.489   6.531  1.00 20.00    -0.167 SA
ENDROOT
BRANCH   4   6
HETATM    6  N8  UNL     1     -33.310   6.132   3.349  1.00 20.00     0.090 N 
HETATM    7  C5  UNL     1     -32.799   4.969   2.618  1.00 20.00     0.310 C 
BRANCH   6   8
HETATM    8  C6  UNL     1     -33.398   7.291   2.458  1.00 20.00     0.287 C 
BRANCH   8   9
HETATM    9  C7  UNL     1     -32.207   7.397   1.519  1.00 20.00     0.144 C 
HETATM   10 CL10 UNL     1     -32.345   8.819   0.456  1.00 20.00    -0.129 Cl
ENDBRANCH   8   9
ENDBRANCH   6   8
ENDBRANCH   4   6
TORSDOF 3
