REMARK  3 active torsions:
REMARK  status: ('A' for Active; 'I' for Inactive)
REMARK    1  A    between atoms: C10_10  and  C12_12 
REMARK    2  A    between atoms: C11_11  and  C12_12 
REMARK    3  A    between atoms: C12_12  and  N13_13 
ROOT
HETATM    1  C1  UNL     1     -32.350   8.663   0.490  1.00 20.00     0.130 C 
HETATM    2  C2  UNL     1     -32.633   9.602   1.640  1.00 20.00     0.106 C 
HETATM    3  C3  UNL     1     -31.907   7.268   0.862  1.00 20.00     0.106 C 
HETATM    4  C8  UNL     1     -33.545   8.943   2.660  1.00 20.00     0.242 C 
HETATM    5  C9  UNL     1     -32.837   6.668   1.901  1.00 20.00     0.242 C 
HETATM    6  N13 UNL     1     -32.959   7.612   3.075  1.00 20.00    -0.065 N 
HETATM    7  O14 UNL     1     -32.377   9.045  -0.679  1.00 20.00    -0.298 OA
HETATM    8  H34 UNL     1     -32.010   7.787   3.434  1.00 20.00     0.280 HD
ENDROOT
BRANCH   6   9
HETATM    9  C12 UNL     1     -33.734   6.994   4.206  1.00 20.00     0.196 C 
BRANCH   9  10
HETATM   10  C10 UNL     1     -33.320   7.673   5.502  1.00 20.00     0.017 A 
HETATM   11  C4  UNL     1     -34.247   7.674   6.686  1.00 20.00     0.007 A 
HETATM   12  C5  UNL     1     -32.991   6.849   6.715  1.00 20.00     0.007 A 
ENDBRANCH   9  10
BRANCH   9  13
HETATM   13  C11 UNL     1     -33.454   5.500   4.222  1.00 20.00     0.017 A 
HETATM   14  C6  UNL     1     -34.439   4.551   4.847  1.00 20.00     0.007 A 
HETATM   15  C7  UNL     1     -34.256   4.570   3.355  1.00 20.00     0.007 A 
ENDBRANCH   9  13
ENDBRANCH   6   9
TORSDOF 3
