REMARK  2 active torsions:
REMARK  status: ('A' for Active; 'I' for Inactive)
REMARK    1  A    between atoms: C4_4  and  C5_5 
REMARK    2  A    between atoms: C5_5  and  C6_6 
ROOT
HETATM    1  C1  UNL     1     -34.124   7.048   6.095  1.00 20.00     0.033 C 
HETATM    2  C2  UNL     1     -34.422   5.810   6.914  1.00 20.00     0.168 C 
HETATM    3  C3  UNL     1     -34.017   5.155   4.715  1.00 20.00     0.172 C 
HETATM    4  C4  UNL     1     -33.306   6.475   4.958  1.00 20.00     0.012 C 
HETATM    5  O7  UNL     1     -34.500   4.712   5.993  1.00 20.00    -0.391 OA
ENDROOT
BRANCH   4   6
HETATM    6  C5  UNL     1     -33.234   7.365   3.733  1.00 20.00     0.017 C 
BRANCH   6   7
HETATM    7  C6  UNL     1     -32.363   6.749   2.652  1.00 20.00     0.085 C 
HETATM    8 BR8  UNL     1     -32.343   7.898   1.081  1.00 20.00    -0.096 Br
ENDBRANCH   6   7
ENDBRANCH   4   6
TORSDOF 2
