REMARK  1 active torsions:
REMARK  status: ('A' for Active; 'I' for Inactive)
REMARK    1  A    between atoms: C2_2  and  C4_4 
ROOT
HETATM    1  C1  UNL     1     -33.647   6.706   6.723  1.00 20.00     0.095 A 
HETATM    2  C3  UNL     1     -33.942   5.233   6.780  1.00 20.00     0.122 A 
HETATM    3  C4  UNL     1     -34.203   6.495   4.555  1.00 20.00     0.255 A 
HETATM    4  N5  UNL     1     -33.754   7.391   5.628  1.00 20.00    -0.280 NA
HETATM    5  S7  UNL     1     -34.405   4.793   5.105  1.00 20.00    -0.128 SA
ENDROOT
BRANCH   3   6
HETATM    6  C2  UNL     1     -33.155   6.530   3.497  1.00 20.00     0.253 C 
HETATM    7  O6  UNL     1     -32.952   5.571   2.758  1.00 20.00    -0.277 OA
HETATM    8 CL8  UNL     1     -32.307   8.047   3.466  1.00 20.00    -0.041 Cl
ENDBRANCH   3   6
TORSDOF 1
