REMARK  2 active torsions:
REMARK  status: ('A' for Active; 'I' for Inactive)
REMARK    1  A    between atoms: C2_2  and  C6_6 
REMARK       I    between atoms: C2_2  and  N7_7 
REMARK    2  A    between atoms: C5_5  and  C6_6 
ROOT
HETATM    1  C1  UNL     1     -32.292   7.727   1.802  1.00 20.00     0.166 C 
HETATM    2  C2  UNL     1     -33.176   6.124   3.012  1.00 20.00     0.244 C 
HETATM    3  N7  UNL     1     -32.129   6.963   2.679  1.00 20.00    -0.199 NA
HETATM    4  O8  UNL     1     -33.397   5.010   2.542  1.00 20.00    -0.271 OA
HETATM    5  S9  UNL     1     -32.476   8.776   0.618  1.00 20.00    -0.055 SA
ENDROOT
BRANCH   2   6
HETATM    6  C6  UNL     1     -34.079   6.737   4.071  1.00 20.00     0.109 C 
BRANCH   6   7
HETATM    7  C5  UNL     1     -33.703   6.384   5.469  1.00 20.00    -0.006 A 
HETATM    8  C3  UNL     1     -34.705   6.523   6.581  1.00 20.00     0.005 A 
HETATM    9  C4  UNL     1     -34.278   5.157   6.120  1.00 20.00     0.005 A 
ENDBRANCH   6   7
ENDBRANCH   2   6
TORSDOF 2
