REMARK  3 active torsions:
REMARK  status: ('A' for Active; 'I' for Inactive)
REMARK    1  A    between atoms: C4_4  and  C7_7 
REMARK    2  A    between atoms: C7_7  and  C9_9 
REMARK    3  A    between atoms: C8_8  and  C9_9 
ROOT
HETATM    1  C1  UNL     1     -34.769   4.823   5.068  1.00 20.00     0.002 C 
HETATM    2  C2  UNL     1     -33.548   4.917   4.148  1.00 20.00     0.006 C 
HETATM    3  C3  UNL     1     -35.315   6.246   5.200  1.00 20.00     0.020 C 
HETATM    4  C4  UNL     1     -33.479   6.381   3.705  1.00 20.00     0.004 C 
HETATM    5  C5  UNL     1     -34.137   7.153   4.856  1.00 20.00     0.086 C 
HETATM    6 CL10 UNL     1     -33.078   7.338   6.287  1.00 20.00    -0.125 Cl
ENDROOT
BRANCH   4   7
HETATM    7  C7  UNL     1     -32.103   6.831   3.320  1.00 20.00     0.006 C 
BRANCH   7   8
HETATM    8  C9  UNL     1     -32.100   8.285   2.852  1.00 20.00     0.000 C 
BRANCH   8   9
HETATM    9  C8  UNL     1     -33.031   8.485   1.655  1.00 20.00    -0.005 C 
HETATM   10  C6  UNL     1     -33.057   9.938   1.207  1.00 20.00     0.005 C 
ENDBRANCH   8   9
ENDBRANCH   7   8
ENDBRANCH   4   7
TORSDOF 3
