REMARK  2 active torsions:
REMARK  status: ('A' for Active; 'I' for Inactive)
REMARK    1  A    between atoms: C8_8  and  C9_9 
REMARK    2  A    between atoms: C9_9  and  N11_11 
ROOT
HETATM    1  C1  UNL     1     -32.816   4.908   2.310  1.00 20.00     0.071 C 
HETATM    2  C4  UNL     1     -32.150   7.263   1.704  1.00 20.00     0.028 A 
HETATM    3  C5  UNL     1     -33.639   7.167   1.553  1.00 20.00     0.028 A 
HETATM    4  C8  UNL     1     -32.934   6.317   2.586  1.00 20.00     0.075 A 
HETATM    5  N10 UNL     1     -32.721   3.773   2.089  1.00 20.00    -0.196 NA
ENDROOT
BRANCH   4   6
HETATM    6  C9  UNL     1     -33.103   6.674   4.023  1.00 20.00     0.296 C 
BRANCH   6   7
HETATM    7  N11 UNL     1     -34.501   6.493   4.455  1.00 20.00     0.090 N 
HETATM    8  C6  UNL     1     -34.752   7.247   5.691  1.00 20.00     0.272 C 
HETATM    9  C2  UNL     1     -34.297   6.355   6.837  1.00 20.00     0.032 C 
HETATM   10  C3  UNL     1     -34.292   4.943   6.268  1.00 20.00     0.032 C 
HETATM   11  C7  UNL     1     -34.742   5.091   4.822  1.00 20.00     0.272 C 
ENDBRANCH   6   7
ENDBRANCH   4   6
TORSDOF 2
