REMARK  2 active torsions:
REMARK  status: ('A' for Active; 'I' for Inactive)
REMARK    1  A    between atoms: C4_4  and  C8_8 
REMARK    2  A    between atoms: C8_8  and  C9_9 
ROOT
HETATM    1  C1  UNL     1     -34.524   5.940   6.669  1.00 20.00     0.002 C 
HETATM    2  C2  UNL     1     -33.262   6.770   6.409  1.00 20.00     0.006 C 
HETATM    3  C3  UNL     1     -35.356   6.012   5.387  1.00 20.00     0.020 C 
HETATM    4  C4  UNL     1     -33.465   7.401   5.028  1.00 20.00     0.004 C 
HETATM    5  C5  UNL     1     -34.367   6.402   4.293  1.00 20.00     0.086 C 
HETATM    6 CL10 UNL     1     -33.493   4.955   3.712  1.00 20.00    -0.125 Cl
ENDROOT
BRANCH   4   7
HETATM    7  C8  UNL     1     -32.162   7.769   4.335  1.00 20.00     0.010 C 
BRANCH   7   8
HETATM    8  C9  UNL     1     -32.356   8.331   2.915  1.00 20.00    -0.022 C 
HETATM    9  C6  UNL     1     -33.205   9.602   2.903  1.00 20.00     0.009 C 
HETATM   10  C7  UNL     1     -30.994   8.612   2.276  1.00 20.00     0.009 C 
ENDBRANCH   7   8
ENDBRANCH   4   7
TORSDOF 2
