REMARK  0 active torsions:
REMARK  status: ('A' for Active; 'I' for Inactive)
ROOT
HETATM    1  C1  UNL     1     -33.352   5.831   2.873  1.00 20.00     0.019 A 
HETATM    2  C2  UNL     1     -33.735   6.146   4.180  1.00 20.00    -0.033 A 
HETATM    3  C3  UNL     1     -32.588   6.725   2.134  1.00 20.00    -0.021 A 
HETATM    4  C4  UNL     1     -33.304   7.367   4.707  1.00 20.00     0.042 A 
HETATM    5  C5  UNL     1     -32.223   7.914   2.737  1.00 20.00     0.132 A 
HETATM    6  C6  UNL     1     -34.526   5.156   4.991  1.00 20.00     0.040 C 
HETATM    7  C7  UNL     1     -33.697   7.797   6.096  1.00 20.00     0.060 C 
HETATM    8  C8  UNL     1     -35.160   5.770   6.239  1.00 20.00     0.005 C 
HETATM    9  C9  UNL     1     -34.149   6.637   6.980  1.00 20.00     0.006 C 
HETATM   10  C10 UNL     1     -32.192   6.377   0.740  1.00 20.00     0.051 C 
HETATM   11  N11 UNL     1     -32.562   8.257   3.999  1.00 20.00    -0.240 NA
HETATM   12 CL12 UNL     1     -31.281   9.104   1.929  1.00 20.00    -0.062 Cl
ENDROOT
TORSDOF 0
