REMARK  4 active torsions:
REMARK  status: ('A' for Active; 'I' for Inactive)
REMARK    1  A    between atoms: C5_5  and  C6_6 
REMARK    2  A    between atoms: C5_5  and  C7_7 
REMARK    3  A    between atoms: C6_6  and  C8_8 
REMARK    4  A    between atoms: C7_7  and  C9_9 
ROOT
HETATM    1  C5  UNL     1     -33.435   7.028   2.677  1.00 20.00     0.002 C 
ENDROOT
BRANCH   1   2
HETATM    2  C6  UNL     1     -32.250   7.445   1.793  1.00 20.00     0.020 C 
BRANCH   2   3
HETATM    3  C8  UNL     1     -32.604   8.332   0.591  1.00 20.00     0.078 C 
HETATM    4  C1  UNL     1     -31.395   8.761  -0.231  1.00 20.00     0.026 C 
HETATM    5 CL10 UNL     1     -33.512   9.780   1.119  1.00 20.00    -0.125 Cl
ENDBRANCH   2   3
ENDBRANCH   1   2
BRANCH   1   6
HETATM    6  C7  UNL     1     -32.957   6.184   3.867  1.00 20.00     0.008 C 
BRANCH   6   7
HETATM    7  C9  UNL     1     -34.058   5.753   4.874  1.00 20.00    -0.051 C 
HETATM    8  C2  UNL     1     -34.114   4.223   5.017  1.00 20.00     0.014 C 
HETATM    9  C3  UNL     1     -33.825   6.383   6.257  1.00 20.00     0.014 C 
HETATM   10  C4  UNL     1     -35.417   6.244   4.337  1.00 20.00     0.014 C 
ENDBRANCH   6   7
ENDBRANCH   1   6
TORSDOF 4
