REMARK  2 active torsions:
REMARK  status: ('A' for Active; 'I' for Inactive)
REMARK    1  A    between atoms: C2_2  and  C8_8 
REMARK    2  A    between atoms: C6_6  and  C8_8 
ROOT
HETATM    1  C3  UNL     1     -33.973   6.741   6.635  1.00 20.00     0.002 C 
HETATM    2  C4  UNL     1     -33.015   7.196   5.530  1.00 20.00     0.006 C 
HETATM    3  C5  UNL     1     -35.039   5.882   5.952  1.00 20.00     0.020 C 
HETATM    4  C6  UNL     1     -33.629   6.690   4.221  1.00 20.00     0.007 C 
HETATM    5  C7  UNL     1     -34.405   5.434   4.637  1.00 20.00     0.086 C 
HETATM    6 CL9  UNL     1     -33.357   4.014   4.916  1.00 20.00    -0.125 Cl
ENDROOT
BRANCH   4   7
HETATM    7  C8  UNL     1     -32.612   6.513   3.104  1.00 20.00     0.032 C 
BRANCH   7   8
HETATM    8  C2  UNL     1     -32.266   7.824   2.466  1.00 20.00    -0.036 C 
HETATM    9  C1  UNL     1     -32.423   8.087   1.164  1.00 20.00     0.007 C 
ENDBRANCH   7   8
ENDBRANCH   4   7
TORSDOF 2
