REMARK  1 active torsions:
REMARK  status: ('A' for Active; 'I' for Inactive)
REMARK    1  A    between atoms: C6_6  and  C8_8 
ROOT
HETATM    1  C1  UNL     1     -32.185   7.630   1.340  1.00 20.00     0.012 C 
HETATM    2  C2  UNL     1     -32.141   7.499   2.533  1.00 20.00    -0.117 C 
HETATM    3  C8  UNL     1     -32.080   7.341   3.990  1.00 20.00     0.098 C 
ENDROOT
BRANCH   3   4
HETATM    4  C6  UNL     1     -33.410   6.853   4.547  1.00 20.00     0.011 C 
HETATM    5  C4  UNL     1     -33.835   5.511   3.950  1.00 20.00     0.007 C 
HETATM    6  C3  UNL     1     -34.821   4.980   4.978  1.00 20.00     0.002 C 
HETATM    7  C5  UNL     1     -34.149   5.303   6.308  1.00 20.00     0.016 C 
HETATM    8  C7  UNL     1     -33.366   6.594   6.061  1.00 20.00     0.062 C 
HETATM    9 BR9  UNL     1     -34.191   8.082   7.019  1.00 20.00    -0.091 Br
ENDBRANCH   3   4
TORSDOF 1
