REMARK  3 active torsions:
REMARK  status: ('A' for Active; 'I' for Inactive)
REMARK    1  A    between atoms: C4_4  and  C5_5 
REMARK    2  A    between atoms: C5_5  and  C6_6 
REMARK    3  A    between atoms: C6_6  and  C7_7 
ROOT
HETATM    1  C2  UNL     1     -33.538   4.761   3.149  1.00 20.00     0.011 C 
HETATM    2  C6  UNL     1     -33.220   5.986   4.018  1.00 20.00    -0.001 C 
ENDROOT
BRANCH   2   3
HETATM    3  C5  UNL     1     -33.174   7.284   3.178  1.00 20.00     0.005 C 
BRANCH   3   4
HETATM    4  C4  UNL     1     -32.103   7.332   2.081  1.00 20.00    -0.004 C 
HETATM    5  C1  UNL     1     -32.056   8.653   1.330  1.00 20.00     0.005 C 
ENDBRANCH   3   4
ENDBRANCH   2   3
BRANCH   2   6
HETATM    6  C7  UNL     1     -34.194   6.073   5.224  1.00 20.00     0.082 C 
HETATM    7  C3  UNL     1     -34.142   4.851   6.136  1.00 20.00     0.027 C 
HETATM    8 CL8  UNL     1     -33.926   7.545   6.210  1.00 20.00    -0.125 Cl
ENDBRANCH   2   6
TORSDOF 3
