REMARK  1 active torsions:
REMARK  status: ('A' for Active; 'I' for Inactive)
REMARK    1  A    between atoms: C4_4  and  C9_9 
ROOT
HETATM    1  C1  UNL     1     -33.103   6.191   2.355  1.00 20.00     0.006 C 
HETATM    2  C2  UNL     1     -33.573   5.180   3.406  1.00 20.00     0.021 C 
HETATM    3  C3  UNL     1     -32.208   7.457   4.351  1.00 20.00     0.010 C 
HETATM    4  C4  UNL     1     -32.782   7.579   2.936  1.00 20.00    -0.014 C 
HETATM    5  C5  UNL     1     -33.196   6.789   5.332  1.00 20.00     0.000 C 
HETATM    6  C6  UNL     1     -34.207   5.872   4.609  1.00 20.00     0.086 C 
HETATM    7  C7  UNL     1     -33.926   7.847   6.168  1.00 20.00     0.011 C 
HETATM    8 CL10 UNL     1     -34.859   4.644   5.738  1.00 20.00    -0.125 Cl
ENDROOT
BRANCH   4   9
HETATM    9  C9  UNL     1     -31.831   8.342   2.016  1.00 20.00     0.000 C 
HETATM   10  C8  UNL     1     -32.395   8.490   0.642  1.00 20.00     0.005 C 
ENDBRANCH   4   9
TORSDOF 1
