REMARK  2 active torsions:
REMARK  status: ('A' for Active; 'I' for Inactive)
REMARK    1  A    between atoms: C4_4  and  C7_7 
REMARK    2  A    between atoms: C7_7  and  C8_8 
ROOT
HETATM    1  C1  UNL     1     -33.850   6.169   6.408  1.00 20.00     0.002 C 
HETATM    2  C2  UNL     1     -32.972   7.148   5.623  1.00 20.00     0.006 C 
HETATM    3  C3  UNL     1     -34.944   5.706   5.444  1.00 20.00     0.020 C 
HETATM    4  C4  UNL     1     -33.661   7.318   4.265  1.00 20.00     0.004 C 
HETATM    5  C5  UNL     1     -34.389   5.986   4.050  1.00 20.00     0.086 C 
HETATM    6 CL9  UNL     1     -33.304   4.659   3.546  1.00 20.00    -0.125 Cl
ENDROOT
BRANCH   4   7
HETATM    7  C7  UNL     1     -32.714   7.754   3.158  1.00 20.00     0.005 C 
BRANCH   7   8
HETATM    8  C8  UNL     1     -33.438   7.872   1.818  1.00 20.00    -0.004 C 
HETATM    9  C6  UNL     1     -32.499   8.335   0.717  1.00 20.00     0.005 C 
ENDBRANCH   7   8
ENDBRANCH   4   7
TORSDOF 2
