REMARK  1 active torsions:
REMARK  status: ('A' for Active; 'I' for Inactive)
REMARK    1  A    between atoms: C6_6  and  C8_8 
ROOT
HETATM    1  C1  UNL     1     -31.714   6.890   1.910  1.00 20.00     0.012 C 
HETATM    2  C2  UNL     1     -32.006   7.144   3.046  1.00 20.00    -0.117 C 
HETATM    3  C8  UNL     1     -32.357   7.455   4.437  1.00 20.00     0.099 C 
ENDROOT
BRANCH   3   4
HETATM    4  C6  UNL     1     -33.872   7.419   4.648  1.00 20.00     0.015 C 
HETATM    5  C4  UNL     1     -34.235   7.717   6.108  1.00 20.00     0.007 C 
HETATM    6  C3  UNL     1     -34.366   6.361   6.806  1.00 20.00     0.002 C 
HETATM    7  C5  UNL     1     -34.201   5.296   5.723  1.00 20.00     0.020 C 
HETATM    8  C7  UNL     1     -34.449   6.021   4.404  1.00 20.00     0.087 C 
HETATM    9 CL9  UNL     1     -36.208   6.116   4.078  1.00 20.00    -0.125 Cl
ENDBRANCH   3   4
TORSDOF 1
