REMARK  2 active torsions:
REMARK  status: ('A' for Active; 'I' for Inactive)
REMARK    1  A    between atoms: C4_4  and  C8_8 
REMARK    2  A    between atoms: C8_8  and  C9_9 
ROOT
HETATM    1  C1  UNL     1     -34.766   4.774   5.762  1.00 20.00     0.002 C 
HETATM    2  C2  UNL     1     -34.258   5.288   4.412  1.00 20.00     0.006 C 
HETATM    3  C3  UNL     1     -34.419   5.849   6.791  1.00 20.00     0.020 C 
HETATM    4  C4  UNL     1     -33.452   6.552   4.729  1.00 20.00     0.004 C 
HETATM    5  C5  UNL     1     -34.175   7.101   5.959  1.00 20.00     0.086 C 
HETATM    6 CL10 UNL     1     -33.223   8.306   6.841  1.00 20.00    -0.125 Cl
ENDROOT
BRANCH   4   7
HETATM    7  C8  UNL     1     -33.395   7.521   3.559  1.00 20.00     0.010 C 
BRANCH   7   8
HETATM    8  C9  UNL     1     -32.300   7.183   2.532  1.00 20.00    -0.022 C 
HETATM    9  C6  UNL     1     -32.489   5.797   1.913  1.00 20.00     0.009 C 
HETATM   10  C7  UNL     1     -32.277   8.243   1.428  1.00 20.00     0.009 C 
ENDBRANCH   7   8
ENDBRANCH   4   7
TORSDOF 2
