REMARK  4 active torsions:
REMARK  status: ('A' for Active; 'I' for Inactive)
REMARK    1  A    between atoms: C6_6  and  C7_7 
REMARK    2  A    between atoms: C7_7  and  C9_9 
REMARK    3  A    between atoms: C8_8  and  C9_9 
REMARK    4  A    between atoms: C8_8  and  N11_11 
ROOT
HETATM    1  C1  UNL     1     -33.309   5.299   3.264  1.00 20.00     0.095 C 
HETATM    2  C8  UNL     1     -34.040   6.327   4.026  1.00 20.00     0.331 C 
HETATM    3  N10 UNL     1     -32.738   4.488   2.662  1.00 20.00    -0.195 NA
ENDROOT
BRANCH   2   4
HETATM    4  C9  UNL     1     -33.421   7.744   3.860  1.00 20.00     0.029 C 
HETATM    5  C3  UNL     1     -31.982   7.835   4.391  1.00 20.00     0.013 C 
BRANCH   4   6
HETATM    6  C7  UNL     1     -33.516   8.214   2.388  1.00 20.00     0.007 C 
BRANCH   6   7
HETATM    7  C6  UNL     1     -32.311   7.805   1.538  1.00 20.00    -0.004 C 
HETATM    8  C2  UNL     1     -32.418   8.357   0.124  1.00 20.00     0.005 C 
ENDBRANCH   6   7
ENDBRANCH   4   6
ENDBRANCH   2   4
BRANCH   2   9
HETATM    9  N11 UNL     1     -34.095   5.945   5.439  1.00 20.00     0.098 N 
HETATM   10  C4  UNL     1     -34.331   4.508   5.568  1.00 20.00     0.311 C 
HETATM   11  C5  UNL     1     -35.138   6.700   6.131  1.00 20.00     0.311 C 
ENDBRANCH   2   9
TORSDOF 4
