REMARK  3 active torsions:
REMARK  status: ('A' for Active; 'I' for Inactive)
REMARK    1  A    between atoms: C4_4  and  C10_10 
REMARK    2  A    between atoms: C5_5  and  C11_11 
REMARK    3  A    between atoms: C6_6  and  C12_12 
ROOT
HETATM    1  C7  UNL     1     -32.576   8.014   3.466  1.00 20.00     0.009 C 
HETATM    2  C8  UNL     1     -33.108   7.325   4.723  1.00 20.00     0.010 C 
HETATM    3  C9  UNL     1     -33.548   6.156   2.044  1.00 20.00     0.017 C 
HETATM    4  C10 UNL     1     -32.306   7.017   2.332  1.00 20.00     0.008 C 
HETATM    5  C11 UNL     1     -34.353   6.480   4.412  1.00 20.00     0.015 C 
HETATM    6  C12 UNL     1     -34.077   5.437   3.300  1.00 20.00     0.015 C 
ENDROOT
BRANCH   4   7
HETATM    7  C4  UNL     1     -31.865   7.728   1.089  1.00 20.00    -0.032 C 
HETATM    8  C1  UNL     1     -32.615   8.616   0.429  1.00 20.00     0.007 C 
ENDBRANCH   4   7
BRANCH   6   9
HETATM    9  C6  UNL     1     -33.134   4.336   3.711  1.00 20.00    -0.031 C 
HETATM   10  C3  UNL     1     -33.458   3.039   3.723  1.00 20.00     0.007 C 
ENDBRANCH   6   9
BRANCH   5  11
HETATM   11  C5  UNL     1     -34.923   5.869   5.658  1.00 20.00    -0.031 C 
HETATM   12  C2  UNL     1     -34.187   5.466   6.699  1.00 20.00     0.007 C 
ENDBRANCH   5  11
TORSDOF 3
