REMARK  3 active torsions:
REMARK  status: ('A' for Active; 'I' for Inactive)
REMARK    1  A    between atoms: C1_1  and  C3_3 
REMARK    2  A    between atoms: C1_1  and  C4_4 
REMARK    3  A    between atoms: C3_3  and  C5_5 
ROOT
HETATM    1  C1  UNL     1     -33.179   6.458   3.652  1.00 20.00     0.140 C 
HETATM    2  O6  UNL     1     -32.518   7.243   4.330  1.00 20.00    -0.297 OA
ENDROOT
BRANCH   1   3
HETATM    3  C3  UNL     1     -34.382   5.718   4.221  1.00 20.00     0.079 C 
BRANCH   3   4
HETATM    4  C5  UNL     1     -34.309   5.482   5.728  1.00 20.00     0.003 C 
HETATM    5  C2  UNL     1     -34.221   6.780   6.519  1.00 20.00     0.005 C 
ENDBRANCH   3   4
ENDBRANCH   1   3
BRANCH   1   6
HETATM    6  C4  UNL     1     -32.841   6.127   2.214  1.00 20.00     0.192 C 
HETATM    7 CL7  UNL     1     -32.086   7.511   1.410  1.00 20.00    -0.123 Cl
ENDBRANCH   1   6
TORSDOF 3
