REMARK  3 active torsions:
REMARK  status: ('A' for Active; 'I' for Inactive)
REMARK    1  A    between atoms: C1_1  and  C7_7 
REMARK    2  A    between atoms: C5_5  and  N8_8 
REMARK    3  A    between atoms: C7_7  and  N8_8 
ROOT
HETATM    1  C2  UNL     1     -32.602   6.209   2.088  1.00 20.00     0.047 C 
HETATM    2  C3  UNL     1     -32.212   7.557   1.502  1.00 20.00     0.076 C 
HETATM    3  C4  UNL     1     -32.437   7.451   4.180  1.00 20.00     0.109 C 
HETATM    4  C5  UNL     1     -33.340   6.508   3.391  1.00 20.00     0.233 C 
HETATM    5  S10 UNL     1     -31.745   8.575   2.931  1.00 20.00    -0.167 SA
ENDROOT
BRANCH   4   6
HETATM    6  N8  UNL     1     -33.629   5.297   4.149  1.00 20.00     0.096 N 
HETATM    7  C6  UNL     1     -34.039   4.213   3.253  1.00 20.00     0.310 C 
BRANCH   6   8
HETATM    8  C7  UNL     1     -34.668   5.548   5.149  1.00 20.00     0.341 C 
BRANCH   8   9
HETATM    9  C1  UNL     1     -34.034   6.216   6.336  1.00 20.00     0.261 C 
HETATM   10  O9  UNL     1     -34.382   7.324   6.735  1.00 20.00    -0.305 OA
ENDBRANCH   8   9
ENDBRANCH   6   8
ENDBRANCH   4   6
TORSDOF 3
