REMARK  2 active torsions:
REMARK  status: ('A' for Active; 'I' for Inactive)
REMARK    1  A    between atoms: C1_1  and  C7_7 
REMARK    2  A    between atoms: C7_7  and  N8_8 
ROOT
HETATM    1  C2  UNL     1     -34.058   7.198   6.502  1.00 20.00     0.040 C 
HETATM    2  C3  UNL     1     -32.845   7.369   5.580  1.00 20.00     0.273 C 
HETATM    3  C4  UNL     1     -33.533   5.743   3.865  1.00 20.00     0.283 C 
HETATM    4  C5  UNL     1     -34.371   5.746   6.843  1.00 20.00     0.075 C 
HETATM    5  C6  UNL     1     -35.034   5.588   4.101  1.00 20.00     0.104 C 
HETATM    6  N8  UNL     1     -33.077   7.109   4.154  1.00 20.00     0.095 N 
HETATM    7  S10 UNL     1     -35.506   4.894   5.710  1.00 20.00    -0.167 SA
ENDROOT
BRANCH   6   8
HETATM    8  C7  UNL     1     -31.850   7.399   3.403  1.00 20.00     0.341 C 
BRANCH   8   9
HETATM    9  C1  UNL     1     -32.214   7.610   1.961  1.00 20.00     0.261 C 
HETATM   10  O9  UNL     1     -33.296   8.075   1.613  1.00 20.00    -0.305 OA
ENDBRANCH   8   9
ENDBRANCH   6   8
TORSDOF 2
