REMARK  0 active torsions:
REMARK  status: ('A' for Active; 'I' for Inactive)
ROOT
HETATM    1  C1  UNL     1     -33.085   7.475   3.845  1.00 20.00     0.055 A 
HETATM    2  C2  UNL     1     -33.667   6.625   4.753  1.00 20.00    -0.029 A 
HETATM    3  C3  UNL     1     -33.740   5.274   4.458  1.00 20.00     0.063 A 
HETATM    4  C4  UNL     1     -32.622   6.894   2.678  1.00 20.00     0.148 A 
HETATM    5  C5  UNL     1     -34.229   6.915   6.104  1.00 20.00     0.041 C 
HETATM    6  C6  UNL     1     -34.355   4.505   5.589  1.00 20.00     0.062 C 
HETATM    7  C7  UNL     1     -35.047   5.638   6.363  1.00 20.00     0.011 C 
HETATM    8  N8  UNL     1     -33.276   4.730   3.323  1.00 20.00    -0.153 NA
HETATM    9  N9  UNL     1     -32.710   5.564   2.410  1.00 20.00    -0.138 NA
HETATM   10 CL10 UNL     1     -31.876   7.829   1.451  1.00 20.00    -0.060 Cl
ENDROOT
TORSDOF 0
