REMARK  4 active torsions:
REMARK  status: ('A' for Active; 'I' for Inactive)
REMARK    1  A    between atoms: C2_2  and  C11_11 
REMARK    2  A    between atoms: C9_9  and  C10_10 
REMARK    3  A    between atoms: C10_10  and  C11_11 
REMARK    4  A    between atoms: C11_11  and  O12_12 
ROOT
HETATM    1  C11 UNL     1     -33.440   6.600   2.397  1.00 20.00     0.147 C 
ENDROOT
BRANCH   1   2
HETATM    2  C2  UNL     1     -33.735   6.585   3.868  1.00 20.00    -0.055 C 
HETATM    3  C1  UNL     1     -33.073   7.373   4.733  1.00 20.00    -0.021 C 
HETATM    4  C3  UNL     1     -33.311   7.364   6.215  1.00 20.00     0.027 C 
HETATM    5  C5  UNL     1     -34.127   6.161   6.688  1.00 20.00     0.004 C 
HETATM    6  C6  UNL     1     -35.298   5.891   5.750  1.00 20.00     0.005 C 
HETATM    7  C4  UNL     1     -34.815   5.634   4.320  1.00 20.00     0.036 C 
ENDBRANCH   1   2
BRANCH   1   8
HETATM    8  C10 UNL     1     -32.262   7.506   2.068  1.00 20.00     0.041 C 
BRANCH   8   9
HETATM    9  C9  UNL     1     -31.965   7.565   0.578  1.00 20.00    -0.012 A 
HETATM   10  C7  UNL     1     -32.632   8.598  -0.288  1.00 20.00     0.005 A 
HETATM   11  C8  UNL     1     -31.163   8.703   0.010  1.00 20.00     0.005 A 
ENDBRANCH   8   9
ENDBRANCH   1   8
BRANCH   1  12
HETATM   12  O12 UNL     1     -33.099   5.262   2.072  1.00 20.00    -0.391 OA
HETATM   13  H30 UNL     1     -32.902   5.243   1.121  1.00 20.00     0.210 HD
ENDBRANCH   1  12
TORSDOF 4
