REMARK  2 active torsions:
REMARK  status: ('A' for Active; 'I' for Inactive)
REMARK    1  A    between atoms: C2_2  and  C3_3 
REMARK    2  A    between atoms: C3_3  and  C11_11 
ROOT
HETATM    1  C7  UNL     1     -35.061   5.173   6.330  1.00 20.00     0.005 C 
HETATM    2  C8  UNL     1     -34.184   4.515   5.253  1.00 20.00     0.006 C 
HETATM    3  C9  UNL     1     -34.415   7.452   5.504  1.00 20.00     0.017 C 
HETATM    4  C10 UNL     1     -32.838   5.995   6.531  1.00 20.00     0.010 C 
HETATM    5  C11 UNL     1     -33.590   6.782   4.392  1.00 20.00     0.065 C 
HETATM    6  C12 UNL     1     -34.286   6.457   6.674  1.00 20.00    -0.013 C 
HETATM    7  C13 UNL     1     -33.033   5.522   5.087  1.00 20.00    -0.003 C 
ENDROOT
BRANCH   5   8
HETATM    8  C3  UNL     1     -32.493   7.678   3.904  1.00 20.00     0.159 C 
HETATM    9  O14 UNL     1     -31.636   8.128   4.659  1.00 20.00    -0.292 OA
BRANCH   8  10
HETATM   10  C2  UNL     1     -32.475   8.010   2.514  1.00 20.00    -0.016 C 
HETATM   11  C1  UNL     1     -32.556   9.240   1.993  1.00 20.00    -0.016 C 
HETATM   12  C4  UNL     1     -32.527   9.209   0.501  1.00 20.00     0.028 C 
HETATM   13  C6  UNL     1     -32.067   7.783   0.200  1.00 20.00     0.009 C 
HETATM   14  C5  UNL     1     -32.378   6.962   1.452  1.00 20.00     0.042 C 
ENDBRANCH   8  10
ENDBRANCH   5   8
TORSDOF 2
