REMARK  2 active torsions:
REMARK  status: ('A' for Active; 'I' for Inactive)
REMARK    1  A    between atoms: C2_2  and  C3_3 
REMARK    2  A    between atoms: C3_3  and  C9_9 
ROOT
HETATM    1  C1  UNL     1     -34.280   4.888   4.648  1.00 20.00    -0.016 C 
HETATM    2  C2  UNL     1     -33.564   5.992   4.408  1.00 20.00    -0.016 C 
HETATM    3  C4  UNL     1     -34.851   4.890   6.027  1.00 20.00     0.028 C 
HETATM    4  C5  UNL     1     -33.543   6.908   5.590  1.00 20.00     0.042 C 
HETATM    5  C6  UNL     1     -34.082   6.019   6.711  1.00 20.00     0.009 C 
ENDROOT
BRANCH   2   6
HETATM    6  C3  UNL     1     -32.897   6.318   3.187  1.00 20.00     0.159 C 
HETATM    7  O10 UNL     1     -32.462   5.432   2.437  1.00 20.00    -0.292 OA
BRANCH   6   8
HETATM    8  C9  UNL     1     -32.738   7.778   2.818  1.00 20.00     0.060 A 
HETATM    9  C7  UNL     1     -31.501   8.180   2.107  1.00 20.00     0.013 A 
HETATM   10  C8  UNL     1     -32.813   8.139   1.383  1.00 20.00     0.013 A 
ENDBRANCH   6   8
ENDBRANCH   2   6
TORSDOF 2
