REMARK  2 active torsions:
REMARK  status: ('A' for Active; 'I' for Inactive)
REMARK    1  A    between atoms: C2_2  and  C3_3 
REMARK    2  A    between atoms: C3_3  and  C9_9 
ROOT
HETATM    1  C1  UNL     1     -33.069   5.577   3.310  1.00 20.00    -0.016 C 
HETATM    2  C2  UNL     1     -33.097   6.852   3.725  1.00 20.00    -0.016 C 
HETATM    3  C4  UNL     1     -33.943   4.514   3.911  1.00 20.00     0.028 C 
HETATM    4  C5  UNL     1     -34.012   7.361   4.797  1.00 20.00     0.042 C 
HETATM    5  C6  UNL     1     -34.617   4.947   5.215  1.00 20.00     0.004 C 
HETATM    6  C7  UNL     1     -35.140   6.378   5.123  1.00 20.00     0.005 C 
ENDROOT
BRANCH   2   7
HETATM    7  C3  UNL     1     -32.191   7.800   3.072  1.00 20.00     0.159 C 
HETATM    8  O12 UNL     1     -31.335   8.402   3.724  1.00 20.00    -0.292 OA
BRANCH   7   9
HETATM    9  C9  UNL     1     -32.334   8.009   1.585  1.00 20.00     0.064 A 
HETATM   10  C8  UNL     1     -31.325   8.861   0.898  1.00 20.00     0.018 A 
HETATM   11  C10 UNL     1     -32.738   9.344   1.064  1.00 20.00    -0.006 A 
HETATM   12  C11 UNL     1     -33.027  10.516   1.939  1.00 20.00     0.011 C 
ENDBRANCH   7   9
ENDBRANCH   2   7
TORSDOF 2
