REMARK  3 active torsions:
REMARK  status: ('A' for Active; 'I' for Inactive)
REMARK    1  A    between atoms: C6_6  and  N10_10 
REMARK    2  A    between atoms: C7_7  and  C8_8 
REMARK    3  A    between atoms: C8_8  and  N10_10 
ROOT
HETATM    1  C1  UNL     1     -33.054   5.295   2.167  1.00 20.00     0.094 C 
HETATM    2  C2  UNL     1     -31.987   7.466   1.689  1.00 20.00     0.059 C 
HETATM    3  C6  UNL     1     -33.126   6.744   2.396  1.00 20.00     0.322 C 
HETATM    4  N9  UNL     1     -33.000   4.150   1.982  1.00 20.00    -0.195 NA
ENDROOT
BRANCH   3   5
HETATM    5  N10 UNL     1     -33.102   7.021   3.829  1.00 20.00     0.105 N 
HETATM    6  H26 UNL     1     -32.136   6.970   4.159  1.00 20.00     0.318 HD
BRANCH   5   7
HETATM    7  C8  UNL     1     -33.916   6.072   4.561  1.00 20.00     0.221 C 
HETATM    8  C5  UNL     1     -35.355   6.160   4.057  1.00 20.00     0.043 C 
BRANCH   7   9
HETATM    9  C7  UNL     1     -33.793   6.298   6.085  1.00 20.00     0.010 C 
HETATM   10  C3  UNL     1     -34.276   7.676   6.551  1.00 20.00     0.011 C 
HETATM   11  C4  UNL     1     -34.523   5.202   6.871  1.00 20.00     0.011 C 
ENDBRANCH   7   9
ENDBRANCH   5   7
ENDBRANCH   3   5
TORSDOF 3
