REMARK  1 active torsions:
REMARK  status: ('A' for Active; 'I' for Inactive)
REMARK    1  A    between atoms: C9_9  and  O11_11 
ROOT
HETATM    1  C1  UNL     1     -33.928   6.004   2.961  1.00 20.00     0.052 A 
HETATM    2  C2  UNL     1     -31.981   7.459   3.083  1.00 20.00     0.049 A 
HETATM    3  C3  UNL     1     -34.134   6.223   4.313  1.00 20.00    -0.020 A 
HETATM    4  C4  UNL     1     -33.278   7.056   5.046  1.00 20.00    -0.043 A 
HETATM    5  C5  UNL     1     -32.202   7.685   4.443  1.00 20.00    -0.052 A 
HETATM    6  C6  UNL     1     -32.837   6.625   2.347  1.00 20.00     0.117 A 
HETATM    7  C7  UNL     1     -33.732   7.173   6.468  1.00 20.00     0.042 C 
HETATM    8  C8  UNL     1     -34.651   5.949   6.584  1.00 20.00     0.041 C 
HETATM    9  C9  UNL     1     -35.241   5.712   5.184  1.00 20.00     0.152 C 
HETATM   10  C10 UNL     1     -31.296   8.586   5.208  1.00 20.00     0.049 C 
HETATM   11  F12 UNL     1     -32.610   6.428   1.041  1.00 20.00    -0.206 F 
ENDROOT
BRANCH   9  12
HETATM   12  O11 UNL     1     -35.498   4.339   4.968  1.00 20.00    -0.391 OA
HETATM   13  H23 UNL     1     -36.223   4.084   5.565  1.00 20.00     0.210 HD
ENDBRANCH   9  12
TORSDOF 1
