REMARK  3 active torsions:
REMARK  status: ('A' for Active; 'I' for Inactive)
REMARK    1  A    between atoms: C3_3  and  C5_5 
REMARK    2  A    between atoms: C5_5  and  C6_6 
REMARK    3  A    between atoms: C6_6  and  S9_9 
ROOT
HETATM    1  C1  UNL     1     -34.613   6.473   5.594  1.00 20.00     0.281 C 
HETATM    2  C2  UNL     1     -34.438   4.981   5.839  1.00 20.00     0.106 C 
HETATM    3  C3  UNL     1     -33.716   5.922   3.487  1.00 20.00     0.282 C 
HETATM    4  N7  UNL     1     -33.613   6.867   4.601  1.00 20.00     0.098 N 
HETATM    5  S8  UNL     1     -34.155   4.299   4.189  1.00 20.00    -0.132 SA
HETATM    6  H22 UNL     1     -33.782   7.819   4.277  1.00 20.00     0.317 HD
ENDROOT
BRANCH   3   7
HETATM    7  C5  UNL     1     -32.401   5.850   2.729  1.00 20.00     0.056 C 
BRANCH   7   8
HETATM    8  C6  UNL     1     -32.038   7.203   2.127  1.00 20.00     0.076 C 
BRANCH   8   9
HETATM    9  S9  UNL     1     -33.322   7.750   0.966  1.00 20.00    -0.173 SA
HETATM   10  C4  UNL     1     -32.556   9.300   0.438  1.00 20.00     0.089 C 
ENDBRANCH   8   9
ENDBRANCH   7   8
ENDBRANCH   3   7
TORSDOF 3
