REMARK  5 active torsions:
REMARK  status: ('A' for Active; 'I' for Inactive)
REMARK    1  A    between atoms: C5_5  and  N10_10 
REMARK    2  A    between atoms: C6_6  and  C7_7 
REMARK    3  A    between atoms: C6_6  and  C8_8 
REMARK    4  A    between atoms: C7_7  and  C9_9 
REMARK    5  A    between atoms: C8_8  and  N10_10 
ROOT
HETATM    1  C1  UNL     1     -34.175   4.486   4.929  1.00 20.00     0.013 C 
HETATM    2  C2  UNL     1     -34.200   5.580   5.424  1.00 20.00    -0.087 C 
HETATM    3  C5  UNL     1     -34.235   6.913   6.030  1.00 20.00     0.362 C 
ENDROOT
BRANCH   3   4
HETATM    4  N10 UNL     1     -33.006   7.650   5.728  1.00 20.00     0.094 N 
HETATM    5  H27 UNL     1     -32.272   7.329   6.369  1.00 20.00     0.317 HD
BRANCH   4   6
HETATM    6  C8  UNL     1     -32.595   7.460   4.365  1.00 20.00     0.270 C 
BRANCH   6   7
HETATM    7  C6  UNL     1     -31.586   8.511   3.909  1.00 20.00     0.030 C 
BRANCH   7   8
HETATM    8  C7  UNL     1     -31.125   8.293   2.463  1.00 20.00     0.005 C 
BRANCH   8   9
HETATM    9  C9  UNL     1     -32.265   8.412   1.434  1.00 20.00    -0.023 C 
HETATM   10  C3  UNL     1     -32.887   9.809   1.508  1.00 20.00     0.009 C 
HETATM   11  C4  UNL     1     -31.795   8.132   0.006  1.00 20.00     0.009 C 
ENDBRANCH   8   9
ENDBRANCH   7   8
ENDBRANCH   6   7
ENDBRANCH   4   6
ENDBRANCH   3   4
TORSDOF 5
