REMARK  3 active torsions:
REMARK  status: ('A' for Active; 'I' for Inactive)
REMARK    1  A    between atoms: C3_3  and  C4_4 
REMARK    2  A    between atoms: C3_3  and  C5_5 
REMARK    3  A    between atoms: C5_5  and  C6_6 
ROOT
HETATM    1  C1  UNL     1     -32.549   8.678   0.757  1.00 20.00     0.012 C 
HETATM    2  C2  UNL     1     -32.232   7.767   1.472  1.00 20.00    -0.110 C 
HETATM    3  C4  UNL     1     -31.836   6.654   2.342  1.00 20.00     0.171 C 
ENDROOT
BRANCH   3   4
HETATM    4  C3  UNL     1     -32.974   6.168   3.222  1.00 20.00     0.146 C 
HETATM    5  O7  UNL     1     -33.734   5.263   2.879  1.00 20.00    -0.297 OA
BRANCH   4   6
HETATM    6  C5  UNL     1     -33.114   6.877   4.560  1.00 20.00     0.196 C 
BRANCH   6   7
HETATM    7  C6  UNL     1     -34.280   6.376   5.379  1.00 20.00     0.394 C 
HETATM    8  F8  UNL     1     -34.358   7.050   6.548  1.00 20.00    -0.171 F 
HETATM    9  F9  UNL     1     -35.451   6.549   4.731  1.00 20.00    -0.171 F 
HETATM   10  F10 UNL     1     -34.151   5.065   5.674  1.00 20.00    -0.171 F 
ENDBRANCH   6   7
ENDBRANCH   4   6
ENDBRANCH   3   4
TORSDOF 3
