REMARK  4 active torsions:
REMARK  status: ('A' for Active; 'I' for Inactive)
REMARK    1  A    between atoms: C2_2  and  C6_6 
REMARK    2  A    between atoms: C3_3  and  C6_6 
REMARK    3  A    between atoms: C3_3  and  C7_7 
REMARK    4  A    between atoms: C7_7  and  C8_8 
ROOT
HETATM    1  C1  UNL     1     -32.301   7.870   1.044  1.00 20.00    -0.111 C 
HETATM    2  C2  UNL     1     -32.447   6.981   1.838  1.00 20.00    -0.100 C 
HETATM    3  C4  UNL     1     -32.124   8.953   0.078  1.00 20.00     0.112 C 
ENDROOT
BRANCH   2   4
HETATM    4  C6  UNL     1     -32.619   5.892   2.806  1.00 20.00     0.172 C 
BRANCH   4   5
HETATM    5  C3  UNL     1     -33.674   6.203   3.853  1.00 20.00     0.137 C 
HETATM    6  O9  UNL     1     -33.898   7.348   4.246  1.00 20.00    -0.297 OA
BRANCH   5   7
HETATM    7  C7  UNL     1     -34.439   5.001   4.387  1.00 20.00     0.079 C 
BRANCH   7   8
HETATM    8  C8  UNL     1     -34.247   4.802   5.887  1.00 20.00     0.003 C 
HETATM    9  C5  UNL     1     -34.694   6.023   6.674  1.00 20.00     0.005 C 
ENDBRANCH   7   8
ENDBRANCH   5   7
ENDBRANCH   4   5
ENDBRANCH   2   4
TORSDOF 4
