REMARK  4 active torsions:
REMARK  status: ('A' for Active; 'I' for Inactive)
REMARK    1  A    between atoms: C2_2  and  C5_5 
REMARK    2  A    between atoms: C2_2  and  C9_9 
REMARK    3  A    between atoms: C7_7  and  C9_9 
REMARK    4  A    between atoms: C8_8  and  C9_9 
ROOT
HETATM    1  C1  UNL     1     -33.148   9.160   1.496  1.00 20.00     0.059 C 
HETATM    2  C7  UNL     1     -32.486   7.860   1.687  1.00 20.00     0.136 C 
HETATM    3  N10 UNL     1     -33.669  10.186   1.344  1.00 20.00    -0.197 NA
ENDROOT
BRANCH   2   4
HETATM    4  C9  UNL     1     -33.271   6.901   2.598  1.00 20.00     0.068 C 
BRANCH   4   5
HETATM    5  C2  UNL     1     -33.104   7.312   4.058  1.00 20.00     0.136 C 
HETATM    6  O11 UNL     1     -32.080   7.799   4.523  1.00 20.00    -0.297 OA
BRANCH   5   7
HETATM    7  C5  UNL     1     -34.277   7.067   4.948  1.00 20.00     0.056 A 
HETATM    8  C3  UNL     1     -34.134   6.083   6.061  1.00 20.00     0.013 A 
HETATM    9  C4  UNL     1     -34.213   7.550   6.358  1.00 20.00     0.013 A 
ENDBRANCH   5   7
ENDBRANCH   4   5
BRANCH   4  10
HETATM   10  C8  UNL     1     -32.882   5.430   2.363  1.00 20.00     0.008 C 
HETATM   11  C6  UNL     1     -33.689   4.470   3.228  1.00 20.00     0.006 C 
ENDBRANCH   4  10
ENDBRANCH   2   4
TORSDOF 4
