REMARK  4 active torsions:
REMARK  status: ('A' for Active; 'I' for Inactive)
REMARK    1  A    between atoms: C2_2  and  C7_7 
REMARK    2  A    between atoms: C3_3  and  C8_8 
REMARK    3  A    between atoms: C3_3  and  C9_9 
REMARK    4  A    between atoms: C7_7  and  C8_8 
ROOT
HETATM    1  C1  UNL     1     -32.543   8.410   0.734  1.00 20.00    -0.111 C 
HETATM    2  C2  UNL     1     -32.526   7.288   1.161  1.00 20.00    -0.107 C 
HETATM    3  C4  UNL     1     -32.568   9.777   0.215  1.00 20.00     0.112 C 
ENDROOT
BRANCH   2   4
HETATM    4  C7  UNL     1     -32.509   5.913   1.683  1.00 20.00     0.101 C 
BRANCH   4   5
HETATM    5  C8  UNL     1     -33.582   5.700   2.747  1.00 20.00     0.090 C 
BRANCH   5   6
HETATM    6  C3  UNL     1     -33.445   6.626   3.951  1.00 20.00     0.131 C 
HETATM    7  O10 UNL     1     -32.551   7.468   4.032  1.00 20.00    -0.298 OA
BRANCH   6   8
HETATM    8  C9  UNL     1     -34.485   6.451   5.055  1.00 20.00     0.047 C 
HETATM    9  C5  UNL     1     -34.964   5.004   5.080  1.00 20.00     0.017 C 
HETATM   10  C6  UNL     1     -33.917   6.863   6.410  1.00 20.00     0.017 C 
ENDBRANCH   6   8
ENDBRANCH   5   6
ENDBRANCH   4   5
ENDBRANCH   2   4
TORSDOF 4
