REMARK  2 active torsions:
REMARK  status: ('A' for Active; 'I' for Inactive)
REMARK    1  A    between atoms: C2_2  and  C11_11 
REMARK    2  A    between atoms: C7_7  and  C11_11 
ROOT
HETATM    1  C1  UNL     1     -32.841   9.202   1.594  1.00 20.00    -0.111 C 
HETATM    2  C2  UNL     1     -33.035   8.941   2.750  1.00 20.00    -0.106 C 
HETATM    3  C9  UNL     1     -32.604   9.520   0.187  1.00 20.00     0.112 C 
ENDROOT
BRANCH   2   4
HETATM    4  C11 UNL     1     -33.267   8.630   4.164  1.00 20.00     0.106 C 
BRANCH   4   5
HETATM    5  C7  UNL     1     -34.008   7.306   4.319  1.00 20.00     0.067 C 
HETATM    6  C3  UNL     1     -34.312   6.997   5.781  1.00 20.00     0.132 C 
HETATM    7  C4  UNL     1     -34.935   5.647   6.057  1.00 20.00     0.079 C 
HETATM    8  O12 UNL     1     -34.153   7.818   6.683  1.00 20.00    -0.298 OA
HETATM    9  C5  UNL     1     -34.117   4.538   5.410  1.00 20.00     0.011 C 
HETATM   10  C8  UNL     1     -33.888   4.799   3.915  1.00 20.00    -0.017 C 
HETATM   11  C6  UNL     1     -33.197   6.156   3.710  1.00 20.00     0.017 C 
HETATM   12  C10 UNL     1     -33.058   3.675   3.295  1.00 20.00     0.010 C 
ENDBRANCH   4   5
ENDBRANCH   2   4
TORSDOF 2
