REMARK  3 active torsions:
REMARK  status: ('A' for Active; 'I' for Inactive)
REMARK    1  A    between atoms: C2_2  and  C7_7 
REMARK    2  A    between atoms: C3_3  and  C8_8 
REMARK    3  A    between atoms: C7_7  and  C8_8 
ROOT
HETATM    1  C1  UNL     1     -32.685   8.028   1.657  1.00 20.00    -0.111 C 
HETATM    2  C2  UNL     1     -32.663   6.990   2.259  1.00 20.00    -0.106 C 
HETATM    3  C4  UNL     1     -32.715   9.294   0.926  1.00 20.00     0.112 C 
ENDROOT
BRANCH   2   4
HETATM    4  C7  UNL     1     -32.635   5.719   2.999  1.00 20.00     0.105 C 
BRANCH   4   5
HETATM    5  C8  UNL     1     -33.919   5.454   3.798  1.00 20.00     0.062 C 
HETATM    6  C6  UNL     1     -34.117   3.965   4.090  1.00 20.00     0.018 C 
BRANCH   5   7
HETATM    7  C3  UNL     1     -33.973   6.286   5.082  1.00 20.00     0.127 C 
HETATM    8  C5  UNL     1     -34.762   5.716   6.234  1.00 20.00     0.091 C 
HETATM    9  O9  UNL     1     -33.392   7.365   5.194  1.00 20.00    -0.298 OA
ENDBRANCH   5   7
ENDBRANCH   4   5
ENDBRANCH   2   4
TORSDOF 3
