REMARK  4 active torsions:
REMARK  status: ('A' for Active; 'I' for Inactive)
REMARK    1  A    between atoms: C2_2  and  C7_7 
REMARK    2  A    between atoms: C5_5  and  C8_8 
REMARK    3  A    between atoms: C7_7  and  C8_8 
REMARK    4  A    between atoms: C8_8  and  O9_9 
ROOT
HETATM    1  C1  UNL     1     -32.683   8.278   1.057  1.00 20.00    -0.111 C 
HETATM    2  C2  UNL     1     -32.409   7.774   2.113  1.00 20.00    -0.104 C 
HETATM    3  C6  UNL     1     -33.017   8.892  -0.227  1.00 20.00     0.112 C 
ENDROOT
BRANCH   2   4
HETATM    4  C7  UNL     1     -32.071   7.155   3.405  1.00 20.00     0.126 C 
BRANCH   4   5
HETATM    5  C8  UNL     1     -33.063   7.566   4.495  1.00 20.00     0.133 C 
BRANCH   5   6
HETATM    6  C5  UNL     1     -34.326   6.716   4.438  1.00 20.00     0.015 A 
HETATM    7  C3  UNL     1     -34.321   5.314   4.982  1.00 20.00     0.007 A 
HETATM    8  C4  UNL     1     -35.080   6.395   5.699  1.00 20.00     0.007 A 
ENDBRANCH   5   6
BRANCH   5   9
HETATM    9  O9  UNL     1     -32.449   7.380   5.769  1.00 20.00    -0.394 OA
HETATM   10  H21 UNL     1     -33.097   7.665   6.431  1.00 20.00     0.210 HD
ENDBRANCH   5   9
ENDBRANCH   4   5
ENDBRANCH   2   4
TORSDOF 4
