REMARK  3 active torsions:
REMARK  status: ('A' for Active; 'I' for Inactive)
REMARK    1  A    between atoms: C2_2  and  C10_10 
REMARK    2  A    between atoms: C7_7  and  N11_11 
REMARK    3  A    between atoms: C10_10  and  N11_11 
ROOT
HETATM    1  C1  UNL     1     -32.701   9.077   0.778  1.00 20.00    -0.109 C 
HETATM    2  C2  UNL     1     -32.641   8.214   1.612  1.00 20.00    -0.077 C 
HETATM    3  C8  UNL     1     -32.773  10.126  -0.238  1.00 20.00     0.112 C 
ENDROOT
BRANCH   2   4
HETATM    4  C10 UNL     1     -32.561   7.162   2.629  1.00 20.00     0.363 C 
BRANCH   4   5
HETATM    5  N11 UNL     1     -33.887   6.776   3.082  1.00 20.00     0.103 N 
HETATM    6  H28 UNL     1     -34.306   6.140   2.410  1.00 20.00     0.318 HD
BRANCH   5   7
HETATM    7  C7  UNL     1     -33.812   6.111   4.363  1.00 20.00     0.155 C 
HETATM    8  C5  UNL     1     -35.206   5.707   4.857  1.00 20.00     0.041 C 
HETATM    9  C3  UNL     1     -35.075   5.600   6.374  1.00 20.00     0.003 C 
HETATM   10  C4  UNL     1     -33.889   6.482   6.762  1.00 20.00     0.003 C 
HETATM   11  C6  UNL     1     -33.360   7.080   5.462  1.00 20.00     0.041 C 
HETATM   12  C9  UNL     1     -32.876   4.902   4.251  1.00 20.00     0.049 C 
ENDBRANCH   5   7
ENDBRANCH   4   5
ENDBRANCH   2   4
TORSDOF 3
