REMARK  3 active torsions:
REMARK  status: ('A' for Active; 'I' for Inactive)
REMARK    1  A    between atoms: C2_2  and  C9_9 
REMARK    2  A    between atoms: C7_7  and  N10_10 
REMARK    3  A    between atoms: C9_9  and  N10_10 
ROOT
HETATM    1  C1  UNL     1     -32.501   8.335   0.970  1.00 20.00    -0.109 C 
HETATM    2  C2  UNL     1     -32.266   8.026   2.107  1.00 20.00    -0.077 C 
HETATM    3  C8  UNL     1     -32.787   8.712  -0.414  1.00 20.00     0.112 C 
ENDROOT
BRANCH   2   4
HETATM    4  C9  UNL     1     -31.976   7.655   3.494  1.00 20.00     0.363 C 
BRANCH   4   5
HETATM    5  N10 UNL     1     -32.711   6.461   3.877  1.00 20.00     0.099 N 
HETATM    6  H26 UNL     1     -32.270   6.032   4.686  1.00 20.00     0.317 HD
BRANCH   5   7
HETATM    7  C7  UNL     1     -34.077   6.791   4.214  1.00 20.00     0.225 C 
HETATM    8  C3  UNL     1     -34.169   7.342   5.639  1.00 20.00     0.062 C 
HETATM    9  C5  UNL     1     -34.043   6.233   6.679  1.00 20.00     0.169 C 
HETATM   10  O11 UNL     1     -35.012   5.211   6.448  1.00 20.00    -0.391 OA
HETATM   11  C6  UNL     1     -34.834   4.577   5.182  1.00 20.00     0.169 C 
HETATM   12  C4  UNL     1     -34.998   5.581   4.044  1.00 20.00     0.062 C 
ENDBRANCH   5   7
ENDBRANCH   4   5
ENDBRANCH   2   4
TORSDOF 3
