REMARK  3 active torsions:
REMARK  status: ('A' for Active; 'I' for Inactive)
REMARK    1  A    between atoms: C2_2  and  C9_9 
REMARK    2  A    between atoms: C6_6  and  C9_9 
REMARK    3  A    between atoms: C7_7  and  O10_10 
ROOT
HETATM    1  C1  UNL     1     -32.071   7.846   1.434  1.00 20.00    -0.111 C 
HETATM    2  C2  UNL     1     -32.476   6.868   2.002  1.00 20.00    -0.107 C 
HETATM    3  C8  UNL     1     -31.578   9.036   0.743  1.00 20.00     0.112 C 
ENDROOT
BRANCH   2   4
HETATM    4  C9  UNL     1     -32.969   5.670   2.691  1.00 20.00     0.101 C 
BRANCH   4   5
HETATM    5  C6  UNL     1     -33.795   6.039   3.914  1.00 20.00     0.025 C 
HETATM    6  C4  UNL     1     -34.675   4.897   4.412  1.00 20.00     0.008 C 
HETATM    7  C3  UNL     1     -34.979   5.245   5.870  1.00 20.00     0.003 C 
HETATM    8  C5  UNL     1     -33.956   6.303   6.282  1.00 20.00     0.032 C 
HETATM    9  C7  UNL     1     -32.946   6.357   5.142  1.00 20.00     0.123 C 
BRANCH   9  10
HETATM   10  O10 UNL     1     -32.351   7.636   5.037  1.00 20.00    -0.395 OA
HETATM   11  H24 UNL     1     -31.901   7.813   5.881  1.00 20.00     0.210 HD
ENDBRANCH   9  10
ENDBRANCH   4   5
ENDBRANCH   2   4
TORSDOF 3
