REMARK  4 active torsions:
REMARK  status: ('A' for Active; 'I' for Inactive)
REMARK    1  A    between atoms: C2_2  and  C7_7 
REMARK    2  A    between atoms: C7_7  and  N11_11 
REMARK    3  A    between atoms: C8_8  and  C9_9 
REMARK    4  A    between atoms: C8_8  and  N11_11 
ROOT
HETATM    1  C1  UNL     1     -32.663   9.848   1.383  1.00 20.00    -0.109 C 
HETATM    2  C2  UNL     1     -32.411   8.707   1.661  1.00 20.00    -0.077 C 
HETATM    3  C4  UNL     1     -32.971  11.236   1.044  1.00 20.00     0.112 C 
ENDROOT
BRANCH   2   4
HETATM    4  C7  UNL     1     -32.100   7.314   1.995  1.00 20.00     0.365 C 
BRANCH   4   5
HETATM    5  N11 UNL     1     -32.552   6.986   3.353  1.00 20.00     0.096 N 
HETATM    6  C6  UNL     1     -31.882   7.860   4.324  1.00 20.00     0.311 C 
BRANCH   5   7
HETATM    7  C8  UNL     1     -33.989   7.093   3.462  1.00 20.00     0.291 C 
BRANCH   7   8
HETATM    8  C9  UNL     1     -34.535   6.300   4.658  1.00 20.00     0.117 C 
HETATM    9  C3  UNL     1     -34.340   7.031   5.925  1.00 20.00     0.065 C 
HETATM   10  N10 UNL     1     -34.190   7.606   6.922  1.00 20.00    -0.197 NA
HETATM   11  C5  UNL     1     -33.926   4.901   4.747  1.00 20.00     0.027 C 
ENDBRANCH   7   8
ENDBRANCH   5   7
ENDBRANCH   4   5
ENDBRANCH   2   4
TORSDOF 4
