REMARK  4 active torsions:
REMARK  status: ('A' for Active; 'I' for Inactive)
REMARK    1  A    between atoms: C1_1  and  C3_3 
REMARK    2  A    between atoms: C4_4  and  C10_10 
REMARK    3  A    between atoms: C8_8  and  C10_10 
REMARK    4  A    between atoms: C9_9  and  C10_10 
ROOT
HETATM    1  C2  UNL     1     -33.860   5.080   2.266  1.00 20.00     0.018 A 
HETATM    2  C3  UNL     1     -33.722   5.065   3.767  1.00 20.00     0.060 A 
HETATM    3  C4  UNL     1     -32.982   6.092   2.945  1.00 20.00     0.002 A 
ENDROOT
BRANCH   3   4
HETATM    4  C10 UNL     1     -33.375   7.572   2.943  1.00 20.00    -0.010 C 
BRANCH   4   5
HETATM    5  C8  UNL     1     -33.511   8.121   1.507  1.00 20.00     0.000 C 
HETATM    6  C6  UNL     1     -32.223   8.051   0.697  1.00 20.00     0.005 C 
ENDBRANCH   4   5
BRANCH   4   7
HETATM    7  C9  UNL     1     -32.354   8.432   3.717  1.00 20.00     0.000 C 
HETATM    8  C7  UNL     1     -32.180   8.021   5.173  1.00 20.00     0.005 C 
ENDBRANCH   4   7
ENDBRANCH   3   4
BRANCH   2   9
HETATM    9  C1  UNL     1     -34.869   5.448   4.599  1.00 20.00     0.127 C 
HETATM   10  C5  UNL     1     -34.715   5.272   6.085  1.00 20.00     0.091 C 
HETATM   11  O11 UNL     1     -35.904   5.892   4.105  1.00 20.00    -0.298 OA
ENDBRANCH   2   9
TORSDOF 4
