REMARK  3 active torsions:
REMARK  status: ('A' for Active; 'I' for Inactive)
REMARK    1  A    between atoms: C2_2  and  C11_11 
REMARK    2  A    between atoms: C7_7  and  C11_11 
REMARK    3  A    between atoms: C8_8  and  C12_12 
ROOT
HETATM    1  C1  UNL     1     -32.381   7.628   1.248  1.00 20.00    -0.111 C 
HETATM    2  C2  UNL     1     -32.348   6.744   2.059  1.00 20.00    -0.106 C 
HETATM    3  C9  UNL     1     -32.421   8.705   0.259  1.00 20.00     0.112 C 
ENDROOT
BRANCH   2   4
HETATM    4  C11 UNL     1     -32.299   5.664   3.049  1.00 20.00     0.106 C 
BRANCH   4   5
HETATM    5  C7  UNL     1     -33.701   5.250   3.479  1.00 20.00     0.067 C 
HETATM    6  C3  UNL     1     -33.630   4.029   4.379  1.00 20.00     0.132 C 
HETATM    7  C4  UNL     1     -33.370   4.257   5.850  1.00 20.00     0.079 C 
HETATM    8  O13 UNL     1     -33.682   2.890   3.912  1.00 20.00    -0.298 OA
HETATM    9  C5  UNL     1     -34.315   5.311   6.405  1.00 20.00     0.012 C 
HETATM   10  C8  UNL     1     -34.274   6.628   5.621  1.00 20.00    -0.014 C 
HETATM   11  C6  UNL     1     -34.518   6.377   4.124  1.00 20.00     0.017 C 
BRANCH  10  12
HETATM   12  C12 UNL     1     -33.003   7.428   5.902  1.00 20.00     0.000 C 
HETATM   13  C10 UNL     1     -33.015   8.746   5.200  1.00 20.00     0.005 C 
ENDBRANCH  10  12
ENDBRANCH   4   5
ENDBRANCH   2   4
TORSDOF 3
