REMARK  2 active torsions:
REMARK  status: ('A' for Active; 'I' for Inactive)
REMARK    1  A    between atoms: C2_2  and  C11_11 
REMARK    2  A    between atoms: C7_7  and  C11_11 
ROOT
HETATM    1  C1  UNL     1     -32.444   8.573   1.016  1.00 20.00    -0.111 C 
HETATM    2  C2  UNL     1     -32.416   7.590   1.706  1.00 20.00    -0.106 C 
HETATM    3  C9  UNL     1     -32.478   9.769   0.175  1.00 20.00     0.112 C 
ENDROOT
BRANCH   2   4
HETATM    4  C11 UNL     1     -32.375   6.388   2.543  1.00 20.00     0.106 C 
BRANCH   4   5
HETATM    5  C7  UNL     1     -33.503   6.397   3.571  1.00 20.00     0.067 C 
HETATM    6  C3  UNL     1     -33.191   7.329   4.737  1.00 20.00     0.132 C 
HETATM    7  C4  UNL     1     -34.171   7.307   5.890  1.00 20.00     0.079 C 
HETATM    8  O12 UNL     1     -32.256   8.129   4.719  1.00 20.00    -0.298 OA
HETATM    9  C5  UNL     1     -34.417   5.880   6.360  1.00 20.00     0.011 C 
HETATM   10  C8  UNL     1     -34.810   4.928   5.221  1.00 20.00    -0.017 C 
HETATM   11  C6  UNL     1     -33.760   4.981   4.099  1.00 20.00     0.017 C 
HETATM   12  C10 UNL     1     -36.222   5.207   4.701  1.00 20.00     0.010 C 
ENDBRANCH   4   5
ENDBRANCH   2   4
TORSDOF 2
