REMARK  2 active torsions:
REMARK  status: ('A' for Active; 'I' for Inactive)
REMARK    1  A    between atoms: C1_1  and  C5_5 
REMARK    2  A    between atoms: C6_6  and  C7_7 
ROOT
HETATM    1  C4  UNL     1     -31.892   7.541   3.684  1.00 20.00     0.021 A 
HETATM    2  C5  UNL     1     -32.794   6.403   3.284  1.00 20.00     0.091 A 
HETATM    3  C7  UNL     1     -32.917   7.751   2.601  1.00 20.00     0.005 A 
ENDROOT
BRANCH   2   4
HETATM    4  C1  UNL     1     -33.844   6.021   4.207  1.00 20.00     0.177 C 
HETATM    5  O8  UNL     1     -34.361   6.970   4.858  1.00 20.00    -0.648 OA
HETATM    6  O9  UNL     1     -34.100   4.784   4.236  1.00 20.00    -0.648 OA
ENDBRANCH   2   4
BRANCH   3   7
HETATM    7  C6  UNL     1     -32.537   7.962   1.143  1.00 20.00    -0.010 A 
HETATM    8  C2  UNL     1     -32.558   9.314   0.487  1.00 20.00     0.005 A 
HETATM    9  C3  UNL     1     -31.249   8.615   0.727  1.00 20.00     0.005 A 
ENDBRANCH   3   7
TORSDOF 2
