REMARK  4 active torsions:
REMARK  status: ('A' for Active; 'I' for Inactive)
REMARK    1  A    between atoms: C2_2  and  C6_6 
REMARK    2  A    between atoms: C6_6  and  N10_10 
REMARK    3  A    between atoms: C7_7  and  N10_10 
REMARK    4  A    between atoms: C8_8  and  N10_10 
ROOT
HETATM    1  C1  UNL     1     -33.779   7.386   5.943  1.00 20.00    -0.109 C 
HETATM    2  C2  UNL     1     -33.042   7.500   5.001  1.00 20.00    -0.077 C 
HETATM    3  C4  UNL     1     -34.677   7.247   7.088  1.00 20.00     0.112 C 
ENDROOT
BRANCH   2   4
HETATM    4  C6  UNL     1     -32.138   7.643   3.856  1.00 20.00     0.366 C 
BRANCH   4   5
HETATM    5  N10 UNL     1     -32.653   6.926   2.691  1.00 20.00     0.111 N 
BRANCH   5   6
HETATM    6  C7  UNL     1     -32.357   5.498   2.797  1.00 20.00     0.396 C 
HETATM    7  C3  UNL     1     -33.312   4.832   3.680  1.00 20.00     0.089 C 
HETATM    8  N9  UNL     1     -34.069   4.300   4.381  1.00 20.00    -0.195 NA
ENDBRANCH   5   6
BRANCH   5   9
HETATM    9  C8  UNL     1     -32.086   7.476   1.460  1.00 20.00     0.270 C 
HETATM   10  C5  UNL     1     -32.430   8.918   1.306  1.00 20.00     0.037 C 
ENDBRANCH   5   9
ENDBRANCH   4   5
ENDBRANCH   2   4
TORSDOF 4
