REMARK  4 active torsions:
REMARK  status: ('A' for Active; 'I' for Inactive)
REMARK    1  A    between atoms: C2_2  and  C7_7 
REMARK    2  A    between atoms: C7_7  and  N11_11 
REMARK    3  A    between atoms: C8_8  and  C9_9 
REMARK    4  A    between atoms: C8_8  and  N11_11 
ROOT
HETATM    1  C1  UNL     1     -32.412   8.569   0.736  1.00 20.00    -0.109 C 
HETATM    2  C2  UNL     1     -32.388   7.561   1.388  1.00 20.00    -0.079 C 
HETATM    3  C4  UNL     1     -32.442   9.796  -0.060  1.00 20.00     0.112 C 
ENDROOT
BRANCH   2   4
HETATM    4  C7  UNL     1     -32.355   6.333   2.177  1.00 20.00     0.327 C 
BRANCH   4   5
HETATM    5  N11 UNL     1     -33.198   6.503   3.417  1.00 20.00    -0.064 N 
HETATM    6  C6  UNL     1     -32.499   7.368   4.438  1.00 20.00     0.270 C 
HETATM    7  H26 UNL     1     -34.038   7.029   3.123  1.00 20.00     0.280 HD
BRANCH   5   8
HETATM    8  C8  UNL     1     -33.650   5.207   3.982  1.00 20.00     0.254 C 
BRANCH   8   9
HETATM    9  C9  UNL     1     -34.986   5.338   4.720  1.00 20.00     0.114 C 
HETATM   10  C3  UNL     1     -34.802   5.904   6.071  1.00 20.00     0.065 C 
HETATM   11  N10 UNL     1     -34.659   6.348   7.133  1.00 20.00    -0.197 NA
HETATM   12  C5  UNL     1     -36.023   6.146   3.940  1.00 20.00     0.027 C 
ENDBRANCH   8   9
ENDBRANCH   5   8
ENDBRANCH   4   5
ENDBRANCH   2   4
TORSDOF 4
