REMARK  3 active torsions:
REMARK  status: ('A' for Active; 'I' for Inactive)
REMARK    1  A    between atoms: C1_1  and  C3_3 
REMARK    2  A    between atoms: C2_2  and  C4_4 
REMARK    3  A    between atoms: C4_4  and  S7_7 
ROOT
HETATM    1  C1  UNL     1     -33.356   6.988   4.813  1.00 20.00     0.081 C 
HETATM    2  C2  UNL     1     -32.970   6.667   3.570  1.00 20.00    -0.010 C 
ENDROOT
BRANCH   1   3
HETATM    3  C3  UNL     1     -34.471   6.223   5.541  1.00 20.00     0.198 C 
HETATM    4  O5  UNL     1     -35.015   5.271   4.916  1.00 20.00    -0.645 OA
HETATM    5  O6  UNL     1     -34.712   6.652   6.707  1.00 20.00    -0.645 OA
ENDBRANCH   1   3
BRANCH   2   6
HETATM    6  C4  UNL     1     -31.896   7.400   2.828  1.00 20.00     0.098 C 
BRANCH   6   7
HETATM    7  S7  UNL     1     -32.569   8.120   1.306  1.00 20.00    -0.178 SA
HETATM    8  H12 UNL     1     -31.423   8.678   0.891  1.00 20.00     0.101 HD
ENDBRANCH   6   7
ENDBRANCH   2   6
TORSDOF 3
