REMARK  2 active torsions:
REMARK  status: ('A' for Active; 'I' for Inactive)
REMARK    1  A    between atoms: C1_1  and  C3_3 
REMARK    2  A    between atoms: C2_2  and  C4_4 
ROOT
HETATM    1  C1  UNL     1     -35.048   5.142   4.418  1.00 20.00    -0.015 C 
HETATM    2  C2  UNL     1     -34.946   6.177   5.265  1.00 20.00    -0.015 C 
ENDROOT
BRANCH   1   3
HETATM    3  C3  UNL     1     -33.953   4.154   4.185  1.00 20.00     0.141 C 
HETATM    4 CL5  UNL     1     -32.912   4.706   2.856  1.00 20.00    -0.126 Cl
ENDBRANCH   1   3
BRANCH   2   5
HETATM    5  C4  UNL     1     -33.727   6.466   6.076  1.00 20.00     0.141 C 
HETATM    6 CL6  UNL     1     -32.650   7.560   5.181  1.00 20.00    -0.126 Cl
ENDBRANCH   2   5
TORSDOF 2
