REMARK  1 active torsions:
REMARK  status: ('A' for Active; 'I' for Inactive)
REMARK    1  A    between atoms: C3_3  and  C8_8 
ROOT
HETATM    1  C1  UNL     1     -32.332   8.532   1.334  1.00 20.00     0.087 C 
HETATM    2  C2  UNL     1     -32.278   7.788   2.542  1.00 20.00     0.090 C 
HETATM    3  C3  UNL     1     -33.377   7.241   3.080  1.00 20.00    -0.011 C 
HETATM    4  N9  UNL     1     -32.372   9.141   0.346  1.00 20.00    -0.192 NA
ENDROOT
BRANCH   3   5
HETATM    5  C8  UNL     1     -33.372   6.439   4.366  1.00 20.00     0.013 C 
HETATM    6  C4  UNL     1     -34.287   7.135   5.366  1.00 20.00     0.035 C 
HETATM    7  C6  UNL     1     -34.512   6.249   6.585  1.00 20.00     0.168 C 
HETATM    8  O10 UNL     1     -35.029   4.976   6.197  1.00 20.00    -0.391 OA
HETATM    9  C7  UNL     1     -34.127   4.265   5.347  1.00 20.00     0.168 C 
HETATM   10  C5  UNL     1     -33.881   5.036   4.056  1.00 20.00     0.035 C 
ENDBRANCH   3   5
TORSDOF 1
