REMARK  3 active torsions:
REMARK  status: ('A' for Active; 'I' for Inactive)
REMARK    1  A    between atoms: C2_2  and  C9_9 
REMARK    2  A    between atoms: C6_6  and  C9_9 
REMARK    3  A    between atoms: C7_7  and  O10_10 
ROOT
HETATM    1  C3  UNL     1     -34.115   6.716   6.747  1.00 20.00     0.003 C 
HETATM    2  C4  UNL     1     -33.218   7.087   5.564  1.00 20.00     0.008 C 
HETATM    3  C5  UNL     1     -34.956   5.518   6.297  1.00 20.00     0.032 C 
HETATM    4  C6  UNL     1     -33.755   6.277   4.381  1.00 20.00     0.022 C 
HETATM    5  C7  UNL     1     -34.265   4.996   5.042  1.00 20.00     0.122 C 
ENDROOT
BRANCH   4   6
HETATM    6  C9  UNL     1     -32.712   6.061   3.296  1.00 20.00     0.010 C 
HETATM    7  C8  UNL     1     -33.274   5.190   2.169  1.00 20.00     0.014 C 
BRANCH   6   8
HETATM    8  C2  UNL     1     -32.244   7.384   2.741  1.00 20.00    -0.032 C 
HETATM    9  C1  UNL     1     -33.045   8.270   2.138  1.00 20.00     0.007 C 
ENDBRANCH   6   8
ENDBRANCH   4   6
BRANCH   5  10
HETATM   10  O10 UNL     1     -33.184   4.146   5.407  1.00 20.00    -0.395 OA
HETATM   11  H26 UNL     1     -33.565   3.414   5.918  1.00 20.00     0.210 HD
ENDBRANCH   5  10
TORSDOF 3
