REMARK  1 active torsions:
REMARK  status: ('A' for Active; 'I' for Inactive)
REMARK    1  A    between atoms: C1_1  and  C6_6 
ROOT
HETATM    1  C2  UNL     1     -32.909   6.648   3.080  1.00 20.00     0.021 C 
HETATM    2  C3  UNL     1     -34.081   8.159   4.833  1.00 20.00     0.027 A 
HETATM    3  C4  UNL     1     -32.326   7.485   1.957  1.00 20.00     0.075 C 
HETATM    4  C5  UNL     1     -31.519   8.229   4.415  1.00 20.00     0.084 C 
HETATM    5  C6  UNL     1     -33.478   7.028   5.626  1.00 20.00     0.097 A 
HETATM    6  C7  UNL     1     -32.826   7.485   4.330  1.00 20.00    -0.017 A 
HETATM    7  S10 UNL     1     -30.892   8.295   2.706  1.00 20.00    -0.168 SA
ENDROOT
BRANCH   5   8
HETATM    8  C1  UNL     1     -34.189   5.765   5.647  1.00 20.00     0.177 C 
HETATM    9  O8  UNL     1     -34.765   5.452   4.568  1.00 20.00    -0.648 OA
HETATM   10  O9  UNL     1     -34.137   5.147   6.747  1.00 20.00    -0.648 OA
ENDBRANCH   5   8
TORSDOF 1
