REMARK  2 active torsions:
REMARK  status: ('A' for Active; 'I' for Inactive)
REMARK    1  A    between atoms: C4_4  and  N9_9 
REMARK    2  A    between atoms: C7_7  and  N9_9 
ROOT
HETATM    1  C1  UNL     1     -32.241   7.555   1.662  1.00 20.00     0.094 C 
HETATM    2  C6  UNL     1     -32.069   7.953   4.090  1.00 20.00     0.059 C 
HETATM    3  C7  UNL     1     -32.935   7.432   2.951  1.00 20.00     0.322 C 
HETATM    4  N8  UNL     1     -31.693   7.655   0.644  1.00 20.00    -0.195 NA
ENDROOT
BRANCH   3   5
HETATM    5  N9  UNL     1     -33.309   6.047   3.181  1.00 20.00     0.106 N 
HETATM    6  H21 UNL     1     -33.635   5.632   2.312  1.00 20.00     0.318 HD
BRANCH   5   7
HETATM    7  C4  UNL     1     -34.383   5.962   4.175  1.00 20.00     0.226 A 
HETATM    8  C2  UNL     1     -34.933   4.621   4.587  1.00 20.00     0.042 A 
HETATM    9  C3  UNL     1     -34.104   5.420   5.554  1.00 20.00     0.016 A 
HETATM   10  C5  UNL     1     -34.740   6.045   6.747  1.00 20.00     0.012 C 
ENDBRANCH   5   7
ENDBRANCH   3   5
TORSDOF 2
