REMARK  2 active torsions:
REMARK  status: ('A' for Active; 'I' for Inactive)
REMARK    1  A    between atoms: C4_4  and  N9_9 
REMARK    2  A    between atoms: C7_7  and  N9_9 
ROOT
HETATM    1  C1  UNL     1     -32.483   7.454   2.841  1.00 20.00     0.094 C 
HETATM    2  C6  UNL     1     -32.980   5.252   1.848  1.00 20.00     0.059 C 
HETATM    3  C7  UNL     1     -32.865   6.065   3.130  1.00 20.00     0.322 C 
HETATM    4  N8  UNL     1     -32.179   8.550   2.613  1.00 20.00    -0.195 NA
ENDROOT
BRANCH   3   5
HETATM    5  N9  UNL     1     -34.116   6.040   3.869  1.00 20.00     0.106 N 
HETATM    6  H21 UNL     1     -34.895   6.163   3.227  1.00 20.00     0.318 HD
BRANCH   5   7
HETATM    7  C4  UNL     1     -34.151   7.117   4.862  1.00 20.00     0.226 A 
HETATM    8  C2  UNL     1     -33.103   7.179   5.943  1.00 20.00     0.042 A 
HETATM    9  C3  UNL     1     -34.528   6.855   6.300  1.00 20.00     0.016 A 
HETATM   10  C5  UNL     1     -34.885   5.493   6.791  1.00 20.00     0.012 C 
ENDBRANCH   5   7
ENDBRANCH   3   5
TORSDOF 2
