REMARK  2 active torsions:
REMARK  status: ('A' for Active; 'I' for Inactive)
REMARK    1  A    between atoms: C5_5  and  N8_8 
REMARK    2  A    between atoms: C7_7  and  N8_8 
ROOT
HETATM    1  C1  UNL     1     -34.913   5.564   5.771  1.00 20.00     0.013 C 
HETATM    2  C2  UNL     1     -34.235   6.549   5.880  1.00 20.00    -0.087 C 
HETATM    3  C7  UNL     1     -33.410   7.751   6.017  1.00 20.00     0.362 C 
ENDROOT
BRANCH   3   4
HETATM    4  N8  UNL     1     -32.427   7.825   4.949  1.00 20.00     0.099 N 
HETATM    5  H19 UNL     1     -32.097   8.781   4.853  1.00 20.00     0.317 HD
BRANCH   4   6
HETATM    6  C5  UNL     1     -33.018   7.401   3.676  1.00 20.00     0.225 A 
HETATM    7  C3  UNL     1     -32.372   7.792   2.371  1.00 20.00     0.042 A 
HETATM    8  C4  UNL     1     -32.334   6.359   2.828  1.00 20.00     0.016 A 
HETATM    9  C6  UNL     1     -33.138   5.325   2.118  1.00 20.00     0.012 C 
ENDBRANCH   4   6
ENDBRANCH   3   4
TORSDOF 2
