REMARK  1 active torsions:
REMARK  status: ('A' for Active; 'I' for Inactive)
REMARK    1  A    between atoms: C4_4  and  N6_6 
ROOT
HETATM    1  C1  UNL     1     -32.761   6.290   2.834  1.00 20.00     0.158 C 
HETATM    2  N6  UNL     1     -33.221   5.443   3.510  1.00 20.00    -0.270 NA
HETATM    3  S7  UNL     1     -32.122   7.424   1.916  1.00 20.00    -0.055 SA
ENDROOT
BRANCH   2   4
HETATM    4  C4  UNL     1     -34.524   5.748   4.087  1.00 20.00     0.114 A 
HETATM    5  C2  UNL     1     -34.918   5.021   5.344  1.00 20.00     0.034 A 
HETATM    6  C3  UNL     1     -34.595   6.489   5.398  1.00 20.00     0.008 A 
HETATM    7  C5  UNL     1     -33.369   6.960   6.102  1.00 20.00     0.012 C 
ENDBRANCH   2   4
TORSDOF 1
