REMARK  1 active torsions:
REMARK  status: ('A' for Active; 'I' for Inactive)
REMARK    1  A    between atoms: C8_8  and  N10_10 
ROOT
HETATM    1  C1  UNL     1     -34.280   6.016   4.679  1.00 20.00     0.130 C 
HETATM    2  C2  UNL     1     -33.877   7.449   4.937  1.00 20.00     0.108 C 
HETATM    3  C3  UNL     1     -33.928   5.453   3.322  1.00 20.00     0.108 C 
HETATM    4  C5  UNL     1     -32.447   7.699   4.464  1.00 20.00     0.280 C 
HETATM    5  C6  UNL     1     -32.494   5.818   2.944  1.00 20.00     0.280 C 
HETATM    6  N10 UNL     1     -32.169   7.242   3.096  1.00 20.00     0.094 N 
HETATM    7  O11 UNL     1     -34.959   5.381   5.485  1.00 20.00    -0.298 OA
ENDROOT
BRANCH   6   8
HETATM    8  C8  UNL     1     -32.821   8.073   2.087  1.00 20.00     0.227 A 
HETATM    9  C4  UNL     1     -32.215   9.392   1.682  1.00 20.00     0.042 A 
HETATM   10  C7  UNL     1     -32.205   8.235   0.721  1.00 20.00     0.017 A 
HETATM   11  C9  UNL     1     -33.070   8.262  -0.492  1.00 20.00     0.012 C 
ENDBRANCH   6   8
TORSDOF 1
