REMARK  1 active torsions:
REMARK  status: ('A' for Active; 'I' for Inactive)
REMARK    1  A    between atoms: C5_5  and  C6_6 
ROOT
HETATM    1  C1  UNL     1     -35.038   5.578   4.761  1.00 20.00     0.014 A 
HETATM    2  C2  UNL     1     -33.789   6.533   6.864  1.00 20.00     0.275 C 
HETATM    3  C3  UNL     1     -35.014   6.410   6.016  1.00 20.00     0.021 A 
HETATM    4  C4  UNL     1     -34.725   7.053   4.712  1.00 20.00     0.034 A 
HETATM    5  C5  UNL     1     -33.326   7.594   4.784  1.00 20.00     0.331 C 
HETATM    6  N7  UNL     1     -32.716   6.884   5.922  1.00 20.00     0.097 N 
HETATM    7  H18 UNL     1     -32.005   7.458   6.373  1.00 20.00     0.316 HD
ENDROOT
BRANCH   5   8
HETATM    8  C6  UNL     1     -32.538   7.360   3.508  1.00 20.00     0.418 C 
HETATM    9  F8  UNL     1     -31.283   7.825   3.640  1.00 20.00    -0.169 F 
HETATM   10  F9  UNL     1     -32.479   6.047   3.226  1.00 20.00    -0.169 F 
HETATM   11  F10 UNL     1     -33.120   7.993   2.474  1.00 20.00    -0.169 F 
ENDBRANCH   5   8
TORSDOF 1
