REMARK  3 active torsions:
REMARK  status: ('A' for Active; 'I' for Inactive)
REMARK    1  A    between atoms: C4_4  and  C6_6 
REMARK    2  A    between atoms: C6_6  and  C7_7 
REMARK    3  A    between atoms: C7_7  and  C8_8 
ROOT
HETATM    1  C1  UNL     1     -34.857   4.790   5.821  1.00 20.00     0.029 C 
HETATM    2  C2  UNL     1     -33.984   4.280   4.702  1.00 20.00     0.034 C 
HETATM    3  C3  UNL     1     -34.247   6.147   6.101  1.00 20.00     0.168 C 
HETATM    4  C4  UNL     1     -33.742   5.550   3.905  1.00 20.00     0.121 C 
HETATM    5  O9  UNL     1     -33.697   6.622   4.863  1.00 20.00    -0.386 OA
ENDROOT
BRANCH   4   6
HETATM    6  C6  UNL     1     -32.456   5.525   3.101  1.00 20.00     0.033 C 
BRANCH   6   7
HETATM    7  C7  UNL     1     -32.473   6.578   1.989  1.00 20.00     0.022 C 
BRANCH   7   8
HETATM    8  C8  UNL     1     -32.650   8.010   2.511  1.00 20.00     0.078 C 
HETATM    9  C5  UNL     1     -31.509   8.400   3.444  1.00 20.00     0.026 C 
HETATM   10 CL10 UNL     1     -32.718   9.184   1.162  1.00 20.00    -0.125 Cl
ENDBRANCH   7   8
ENDBRANCH   6   7
ENDBRANCH   4   6
TORSDOF 3
