REMARK  3 active torsions:
REMARK  status: ('A' for Active; 'I' for Inactive)
REMARK    1  A    between atoms: C4_4  and  C6_6 
REMARK    2  A    between atoms: C6_6  and  C7_7 
REMARK    3  A    between atoms: C7_7  and  C8_8 
ROOT
HETATM    1  C1  UNL     1     -35.031   6.030   6.360  1.00 20.00     0.029 C 
HETATM    2  C2  UNL     1     -34.253   5.097   5.466  1.00 20.00     0.034 C 
HETATM    3  C3  UNL     1     -34.253   7.321   6.218  1.00 20.00     0.168 C 
HETATM    4  C4  UNL     1     -33.875   6.021   4.321  1.00 20.00     0.121 C 
HETATM    5  O9  UNL     1     -33.677   7.320   4.904  1.00 20.00    -0.386 OA
ENDROOT
BRANCH   4   6
HETATM    6  C6  UNL     1     -32.620   5.591   3.586  1.00 20.00     0.033 C 
BRANCH   6   7
HETATM    7  C7  UNL     1     -32.533   6.245   2.203  1.00 20.00     0.022 C 
BRANCH   7   8
HETATM    8  C8  UNL     1     -32.520   7.778   2.256  1.00 20.00     0.078 C 
HETATM    9  C5  UNL     1     -32.448   8.376   0.856  1.00 20.00     0.026 C 
HETATM   10 CL10 UNL     1     -31.130   8.377   3.211  1.00 20.00    -0.125 Cl
ENDBRANCH   7   8
ENDBRANCH   6   7
ENDBRANCH   4   6
TORSDOF 3
