REMARK  5 active torsions:
REMARK  status: ('A' for Active; 'I' for Inactive)
REMARK    1  A    between atoms: C1_1  and  C7_7 
REMARK    2  A    between atoms: C1_1  and  C11_11 
REMARK    3  A    between atoms: C7_7  and  C10_10 
REMARK    4  A    between atoms: C8_8  and  C9_9 
REMARK    5  A    between atoms: C9_9  and  C10_10 
ROOT
HETATM    1  C1  UNL     1     -33.694   7.055   5.113  1.00 20.00     0.134 C 
HETATM    2  O12 UNL     1     -33.258   7.374   6.221  1.00 20.00    -0.297 OA
ENDROOT
BRANCH   1   3
HETATM    3  C7  UNL     1     -33.700   8.054   3.958  1.00 20.00     0.083 C 
BRANCH   3   4
HETATM    4  C10 UNL     1     -32.431   7.996   3.085  1.00 20.00    -0.012 C 
HETATM    5  C3  UNL     1     -31.184   8.267   3.935  1.00 20.00     0.010 C 
BRANCH   4   6
HETATM    6  C9  UNL     1     -32.565   9.007   1.927  1.00 20.00     0.004 C 
BRANCH   6   7
HETATM    7  C8  UNL     1     -33.414   8.496   0.760  1.00 20.00    -0.004 C 
HETATM    8  C2  UNL     1     -33.451   9.501  -0.381  1.00 20.00     0.005 C 
ENDBRANCH   6   7
ENDBRANCH   4   6
ENDBRANCH   3   4
ENDBRANCH   1   3
BRANCH   1   9
HETATM    9  C11 UNL     1     -34.261   5.643   4.851  1.00 20.00     0.009 C 
HETATM   10  C4  UNL     1     -33.473   4.942   3.737  1.00 20.00     0.022 C 
HETATM   11  C5  UNL     1     -34.192   4.830   6.150  1.00 20.00     0.022 C 
HETATM   12  C6  UNL     1     -35.732   5.754   4.412  1.00 20.00     0.022 C 
ENDBRANCH   1   9
TORSDOF 5
