REMARK  6 active torsions:
REMARK  status: ('A' for Active; 'I' for Inactive)
REMARK    1  A    between atoms: C1_1  and  C6_6 
REMARK    2  A    between atoms: C1_1  and  C7_7 
REMARK    3  A    between atoms: C6_6  and  C10_10 
REMARK    4  A    between atoms: C7_7  and  C11_11 
REMARK    5  A    between atoms: C8_8  and  C9_9 
REMARK    6  A    between atoms: C9_9  and  C11_11 
ROOT
HETATM    1  C1  UNL     1     -34.149   5.623   3.557  1.00 20.00     0.127 C 
HETATM    2  O12 UNL     1     -35.154   6.247   3.216  1.00 20.00    -0.298 OA
ENDROOT
BRANCH   1   3
HETATM    3  C6  UNL     1     -34.094   4.919   4.902  1.00 20.00     0.082 C 
BRANCH   3   4
HETATM    4  C10 UNL     1     -34.965   5.598   5.966  1.00 20.00    -0.016 C 
HETATM    5  C3  UNL     1     -34.527   7.043   6.212  1.00 20.00     0.010 C 
HETATM    6  C4  UNL     1     -34.903   4.806   7.273  1.00 20.00     0.010 C 
ENDBRANCH   3   4
ENDBRANCH   1   3
BRANCH   1   7
HETATM    7  C7  UNL     1     -32.933   5.481   2.652  1.00 20.00     0.082 C 
BRANCH   7   8
HETATM    8  C11 UNL     1     -32.304   6.830   2.261  1.00 20.00    -0.012 C 
HETATM    9  C5  UNL     1     -31.808   7.571   3.510  1.00 20.00     0.010 C 
BRANCH   8  10
HETATM   10  C9  UNL     1     -33.301   7.734   1.505  1.00 20.00     0.004 C 
BRANCH  10  11
HETATM   11  C8  UNL     1     -32.627   8.755   0.585  1.00 20.00    -0.004 C 
HETATM   12  C2  UNL     1     -33.655   9.564  -0.192  1.00 20.00     0.005 C 
ENDBRANCH  10  11
ENDBRANCH   8  10
ENDBRANCH   7   8
ENDBRANCH   1   7
TORSDOF 6
