REMARK  3 active torsions:
REMARK  status: ('A' for Active; 'I' for Inactive)
REMARK    1  A    between atoms: C1_1  and  C9_9 
REMARK    2  A    between atoms: C3_3  and  C8_8 
REMARK    3  A    between atoms: C9_9  and  N10_10 
ROOT
HETATM    1  C4  UNL     1     -33.626   6.184   6.752  1.00 20.00     0.028 C 
HETATM    2  C5  UNL     1     -34.945   5.530   6.351  1.00 20.00     0.015 C 
HETATM    3  C6  UNL     1     -33.395   7.488   6.005  1.00 20.00     0.235 C 
HETATM    4  C7  UNL     1     -34.762   6.650   4.073  1.00 20.00     0.246 C 
HETATM    5  C8  UNL     1     -35.090   5.377   4.840  1.00 20.00     0.073 C 
HETATM    6  N10 UNL     1     -33.437   7.223   4.521  1.00 20.00    -0.067 N 
HETATM    7  H27 UNL     1     -32.710   6.523   4.316  1.00 20.00     0.280 HD
ENDROOT
BRANCH   6   8
HETATM    8  C9  UNL     1     -33.069   8.449   3.729  1.00 20.00     0.263 C 
BRANCH   8   9
HETATM    9  C1  UNL     1     -32.558   8.125   2.364  1.00 20.00     0.012 C 
HETATM   10  C2  UNL     1     -33.125   8.576   1.242  1.00 20.00     0.082 C 
HETATM   11 CL12 UNL     1     -32.529   8.206  -0.321  1.00 20.00    -0.097 Cl
ENDBRANCH   8   9
ENDBRANCH   6   8
BRANCH   5  12
HETATM   12  C3  UNL     1     -34.215   4.216   4.391  1.00 20.00     0.237 C 
HETATM   13  O11 UNL     1     -33.341   4.318   3.536  1.00 20.00    -0.306 OA
ENDBRANCH   5  12
TORSDOF 3
