REMARK  2 active torsions:
REMARK  status: ('A' for Active; 'I' for Inactive)
REMARK    1  A    between atoms: C1_1  and  C2_2 
REMARK    2  A    between atoms: C9_9  and  N10_10 
ROOT
HETATM    1  C1  UNL     1     -33.043   6.729   3.450  1.00 20.00     0.150 C 
HETATM    2  C3  UNL     1     -32.237   5.476   3.245  1.00 20.00     0.068 C 
HETATM    3  C4  UNL     1     -33.151   4.255   3.205  1.00 20.00     0.008 C 
HETATM    4  C5  UNL     1     -34.128   4.255   4.378  1.00 20.00     0.029 C 
HETATM    5  C6  UNL     1     -34.920   5.557   4.448  1.00 20.00     0.242 C 
HETATM    6  N10 UNL     1     -34.020   6.770   4.510  1.00 20.00    -0.038 N 
HETATM    7  H28 UNL     1     -34.640   7.582   4.377  1.00 20.00     0.286 HD
ENDROOT
BRANCH   6   8
HETATM    8  C9  UNL     1     -33.352   6.980   5.841  1.00 20.00     0.186 C 
HETATM    9  C7  UNL     1     -34.393   7.479   6.830  1.00 20.00     0.040 C 
HETATM   10  C8  UNL     1     -32.212   7.968   5.657  1.00 20.00     0.040 C 
ENDBRANCH   6   8
BRANCH   1  11
HETATM   11  C2  UNL     1     -32.923   7.813   2.668  1.00 20.00     0.291 C 
HETATM   12  O11 UNL     1     -32.194   8.057   1.671  1.00 20.00    -0.300 OA
ENDBRANCH   1  11
TORSDOF 2
