REMARK  4 active torsions:
REMARK  status: ('A' for Active; 'I' for Inactive)
REMARK    1  A    between atoms: C3_3  and  C8_8 
REMARK    2  A    between atoms: C3_3  and  O9_9 
REMARK    3  A    between atoms: C6_6  and  C7_7 
REMARK    4  A    between atoms: C7_7  and  C8_8 
ROOT
HETATM    1  C1  UNL     1     -34.108   4.450   4.770  1.00 20.00     0.041 A 
HETATM    2  C2  UNL     1     -34.657   4.788   6.129  1.00 20.00     0.041 A 
HETATM    3  C3  UNL     1     -34.594   5.844   5.059  1.00 20.00     0.061 A 
ENDROOT
BRANCH   3   4
HETATM    4  C8  UNL     1     -33.593   6.997   5.171  1.00 20.00     0.016 C 
HETATM    5  C5  UNL     1     -34.102   8.025   6.183  1.00 20.00     0.013 C 
BRANCH   4   6
HETATM    6  C7  UNL     1     -33.346   7.612   3.781  1.00 20.00     0.007 C 
BRANCH   6   7
HETATM    7  C6  UNL     1     -32.413   6.776   2.901  1.00 20.00    -0.004 C 
HETATM    8  C4  UNL     1     -32.260   7.389   1.517  1.00 20.00     0.005 C 
ENDBRANCH   6   7
ENDBRANCH   4   6
ENDBRANCH   3   4
BRANCH   3   9
HETATM    9  O9  UNL     1     -35.846   6.212   4.455  1.00 20.00    -0.389 OA
HETATM   10  H25 UNL     1     -36.498   5.588   4.799  1.00 20.00     0.210 HD
ENDBRANCH   3   9
TORSDOF 4
