REMARK  2 active torsions:
REMARK  status: ('A' for Active; 'I' for Inactive)
REMARK    1  A    between atoms: C2_2  and  C7_7 
REMARK       I    between atoms: C2_2  and  N8_8 
REMARK    2  A    between atoms: C6_6  and  C7_7 
ROOT
HETATM    1  C1  UNL     1     -32.334   7.292   2.538  1.00 20.00     0.166 C 
HETATM    2  C2  UNL     1     -33.297   5.547   3.461  1.00 20.00     0.252 C 
HETATM    3  N8  UNL     1     -32.337   6.544   3.443  1.00 20.00    -0.199 NA
HETATM    4  O9  UNL     1     -33.444   4.679   2.599  1.00 20.00    -0.270 OA
HETATM    5  S10 UNL     1     -32.298   8.326   1.327  1.00 20.00    -0.055 SA
ENDROOT
BRANCH   2   6
HETATM    6  C7  UNL     1     -34.223   5.611   4.697  1.00 20.00     0.035 C 
HETATM    7  C4  UNL     1     -34.119   4.303   5.502  1.00 20.00     0.025 C 
HETATM    8  C5  UNL     1     -35.675   5.753   4.203  1.00 20.00     0.025 C 
BRANCH   6   9
HETATM    9  C6  UNL     1     -33.871   6.831   5.586  1.00 20.00     0.014 C 
HETATM   10  C3  UNL     1     -34.730   6.984   6.836  1.00 20.00     0.006 C 
ENDBRANCH   6   9
ENDBRANCH   2   6
TORSDOF 2
