REMARK  2 active torsions:
REMARK  status: ('A' for Active; 'I' for Inactive)
REMARK    1  A    between atoms: C7_7  and  C11_11 
REMARK    2  A    between atoms: C8_8  and  C12_12 
ROOT
HETATM    1  C1  UNL     1     -33.745   9.638   1.466  1.00 20.00     0.012 C 
HETATM    2  C2  UNL     1     -32.857   9.094   2.064  1.00 20.00    -0.117 C 
HETATM    3  C11 UNL     1     -31.767   8.438   2.793  1.00 20.00     0.105 C 
ENDROOT
BRANCH   3   4
HETATM    4  C7  UNL     1     -32.219   7.099   3.367  1.00 20.00     0.067 C 
HETATM    5  C3  UNL     1     -32.621   6.121   2.269  1.00 20.00     0.132 C 
HETATM    6  C4  UNL     1     -33.203   4.805   2.735  1.00 20.00     0.079 C 
HETATM    7  O13 UNL     1     -32.408   6.332   1.076  1.00 20.00    -0.298 OA
HETATM    8  C5  UNL     1     -34.342   5.042   3.717  1.00 20.00     0.012 C 
HETATM    9  C8  UNL     1     -33.914   5.952   4.876  1.00 20.00    -0.010 C 
HETATM   10  C6  UNL     1     -33.391   7.292   4.335  1.00 20.00     0.018 C 
BRANCH   9  11
HETATM   11  C12 UNL     1     -35.077   6.178   5.840  1.00 20.00    -0.019 C 
HETATM   12  C9  UNL     1     -35.580   4.848   6.395  1.00 20.00     0.010 C 
HETATM   13  C10 UNL     1     -34.661   7.111   6.974  1.00 20.00     0.010 C 
ENDBRANCH   9  11
ENDBRANCH   3   4
TORSDOF 2
