REMARK  1 active torsions:
REMARK  status: ('A' for Active; 'I' for Inactive)
REMARK    1  A    between atoms: C1_1  and  C6_6 
ROOT
HETATM    1  C2  UNL     1     -34.459   6.552   6.733  1.00 20.00     0.027 C 
HETATM    2  C3  UNL     1     -33.494   6.904   5.610  1.00 20.00     0.017 C 
HETATM    3  C4  UNL     1     -34.789   5.061   6.729  1.00 20.00     0.167 C 
HETATM    4  C5  UNL     1     -35.050   5.312   4.377  1.00 20.00     0.181 C 
HETATM    5  C6  UNL     1     -34.065   6.478   4.254  1.00 20.00     0.096 C 
HETATM    6  O8  UNL     1     -34.661   4.450   5.444  1.00 20.00    -0.390 OA
ENDROOT
BRANCH   5   7
HETATM    7  C1  UNL     1     -32.933   6.093   3.350  1.00 20.00     0.225 C 
HETATM    8  O7  UNL     1     -32.863   4.977   2.842  1.00 20.00    -0.279 OA
HETATM    9 CL9  UNL     1     -31.795   7.389   3.138  1.00 20.00    -0.043 Cl
ENDBRANCH   5   7
TORSDOF 1
