REMARK  0 active torsions:
REMARK  status: ('A' for Active; 'I' for Inactive)
ROOT
HETATM    1  C1  UNL     1     -32.391   7.243   2.445  1.00 20.00    -0.006 C 
HETATM    2  C2  UNL     1     -32.779   6.013   2.093  1.00 20.00     0.112 C 
HETATM    3  C3  UNL     1     -33.789   5.516   4.079  1.00 20.00     0.023 C 
HETATM    4  C4  UNL     1     -33.608   7.123   6.055  1.00 20.00     0.136 C 
HETATM    5  C5  UNL     1     -32.617   7.743   3.831  1.00 20.00     0.046 C 
HETATM    6  C6  UNL     1     -34.488   4.520   4.978  1.00 20.00     0.056 C 
HETATM    7  C7  UNL     1     -34.299   6.090   6.917  1.00 20.00     0.079 C 
HETATM    8  C8  UNL     1     -34.004   4.688   6.408  1.00 20.00     0.013 C 
HETATM    9  C9  UNL     1     -33.733   6.969   4.542  1.00 20.00     0.106 C 
HETATM   10  N10 UNL     1     -33.369   5.099   2.922  1.00 20.00    -0.269 NA
HETATM   11  O11 UNL     1     -33.074   8.107   6.570  1.00 20.00    -0.297 OA
ENDROOT
TORSDOF 0
