REMARK  3 active torsions:
REMARK  status: ('A' for Active; 'I' for Inactive)
REMARK    1  A    between atoms: C2_2  and  C7_7 
REMARK    2  A    between atoms: C5_5  and  C7_7 
REMARK    3  A    between atoms: C6_6  and  C7_7 
ROOT
HETATM    1  C7  UNL     1     -34.387   6.636   4.270  1.00 20.00     0.016 C 
ENDROOT
BRANCH   1   2
HETATM    2  C2  UNL     1     -34.700   6.499   5.764  1.00 20.00     0.149 A 
HETATM    3  C1  UNL     1     -33.718   5.865   6.710  1.00 20.00     0.200 A 
HETATM    4  O8  UNL     1     -33.871   7.291   6.620  1.00 20.00    -0.381 OA
ENDBRANCH   1   2
BRANCH   1   5
HETATM    5  C5  UNL     1     -34.711   5.338   3.501  1.00 20.00     0.002 C 
HETATM    6  C3  UNL     1     -33.909   4.130   3.967  1.00 20.00     0.005 C 
ENDBRANCH   1   5
BRANCH   1   7
HETATM    7  C6  UNL     1     -32.908   7.006   4.032  1.00 20.00     0.002 C 
HETATM    8  C4  UNL     1     -32.547   7.183   2.564  1.00 20.00     0.005 C 
ENDBRANCH   1   7
TORSDOF 3
