REMARK  3 active torsions:
REMARK  status: ('A' for Active; 'I' for Inactive)
REMARK    1  A    between atoms: C2_2  and  C6_6 
REMARK    2  A    between atoms: C6_6  and  C7_7 
REMARK    3  A    between atoms: C7_7  and  C8_8 
ROOT
HETATM    1  C6  UNL     1     -32.928   7.382   4.559  1.00 20.00     0.040 C 
ENDROOT
BRANCH   1   2
HETATM    2  C2  UNL     1     -33.790   6.621   5.555  1.00 20.00     0.079 A 
HETATM    3  C1  UNL     1     -34.082   5.158   5.321  1.00 20.00     0.206 A 
HETATM    4  O9  UNL     1     -35.044   6.179   5.015  1.00 20.00    -0.375 OA
HETATM    5  C3  UNL     1     -33.893   7.180   6.937  1.00 20.00     0.048 C 
ENDBRANCH   1   2
BRANCH   1   6
HETATM    6  C7  UNL     1     -32.992   6.747   3.167  1.00 20.00     0.007 C 
BRANCH   6   7
HETATM    7  C8  UNL     1     -32.193   7.522   2.103  1.00 20.00    -0.023 C 
HETATM    8  C4  UNL     1     -32.739   8.946   1.978  1.00 20.00     0.009 C 
HETATM    9  C5  UNL     1     -32.223   6.836   0.736  1.00 20.00     0.009 C 
ENDBRANCH   6   7
ENDBRANCH   1   6
TORSDOF 3
