REMARK  3 active torsions:
REMARK  status: ('A' for Active; 'I' for Inactive)
REMARK    1  A    between atoms: C3_3  and  C4_4 
REMARK    2  A    between atoms: C4_4  and  C6_6 
REMARK    3  A    between atoms: C5_5  and  C6_6 
ROOT
HETATM    1  C2  UNL     1     -33.760   4.056   3.943  1.00 20.00     0.011 C 
HETATM    2  C6  UNL     1     -33.361   5.534   3.866  1.00 20.00    -0.005 C 
ENDROOT
BRANCH   2   3
HETATM    3  C4  UNL     1     -34.557   6.418   4.277  1.00 20.00     0.005 C 
BRANCH   3   4
HETATM    4  C3  UNL     1     -35.041   6.168   5.707  1.00 20.00    -0.004 C 
HETATM    5  C1  UNL     1     -33.934   6.427   6.719  1.00 20.00     0.005 C 
ENDBRANCH   3   4
ENDBRANCH   2   3
BRANCH   2   6
HETATM    6  C5  UNL     1     -32.752   5.877   2.497  1.00 20.00     0.119 C 
HETATM    7 CL7  UNL     1     -32.262   7.581   2.342  1.00 20.00    -0.130 Cl
ENDBRANCH   2   6
TORSDOF 3
