REMARK  1 active torsions:
REMARK  status: ('A' for Active; 'I' for Inactive)
REMARK    1  A    between atoms: C1_1  and  C2_2 
ROOT
HETATM    1  C1  UNL     1     -34.137   5.942   6.057  1.00 20.00     0.437 C 
HETATM    2  F3  UNL     1     -34.584   7.085   6.625  1.00 20.00    -0.166 F 
HETATM    3  F4  UNL     1     -32.877   5.737   6.503  1.00 20.00    -0.166 F 
HETATM    4  F5  UNL     1     -34.901   4.932   6.532  1.00 20.00    -0.166 F 
ENDROOT
BRANCH   1   5
HETATM    5  C2  UNL     1     -34.188   6.015   4.541  1.00 20.00     0.286 C 
HETATM    6 CL6  UNL     1     -33.167   7.361   3.961  1.00 20.00    -0.074 Cl
HETATM    7 CL7  UNL     1     -33.591   4.486   3.835  1.00 20.00    -0.074 Cl
HETATM    8 CL8  UNL     1     -35.869   6.287   4.000  1.00 20.00    -0.074 Cl
ENDBRANCH   1   5
TORSDOF 1
