REMARK  3 active torsions:
REMARK  status: ('A' for Active; 'I' for Inactive)
REMARK    1  A    between atoms: C3_3  and  C4_4 
REMARK    2  A    between atoms: C3_3  and  C5_5 
REMARK    3  A    between atoms: C4_4  and  O6_6 
ROOT
HETATM    1  C1  UNL     1     -34.056   8.001   5.467  1.00 20.00     0.022 A 
HETATM    2  C2  UNL     1     -32.906   7.135   5.897  1.00 20.00     0.022 A 
HETATM    3  C3  UNL     1     -33.637   6.829   4.611  1.00 20.00     0.079 A 
ENDROOT
BRANCH   3   4
HETATM    4  C4  UNL     1     -34.534   5.622   4.580  1.00 20.00     0.182 C 
BRANCH   4   5
HETATM    5  O6  UNL     1     -35.026   5.365   5.890  1.00 20.00    -0.400 OA
HETATM    6  H16 UNL     1     -35.597   4.583   5.825  1.00 20.00     0.209 HD
ENDBRANCH   4   5
ENDBRANCH   3   4
BRANCH   3   7
HETATM    7  C5  UNL     1     -32.934   7.119   3.313  1.00 20.00     0.397 C 
HETATM    8  F7  UNL     1     -31.787   7.798   3.527  1.00 20.00    -0.170 F 
HETATM    9  F8  UNL     1     -32.626   5.976   2.665  1.00 20.00    -0.170 F 
HETATM   10  F9  UNL     1     -33.712   7.863   2.498  1.00 20.00    -0.170 F 
ENDBRANCH   3   7
TORSDOF 3
