REMARK  0 active torsions:
REMARK  status: ('A' for Active; 'I' for Inactive)
ROOT
HETATM    1  C1  UNL     1     -35.252   7.441   5.345  1.00 20.00     0.013 C 
HETATM    2  C2  UNL     1     -35.537   6.360   4.282  1.00 20.00     0.013 C 
HETATM    3  C3  UNL     1     -32.713   7.604   5.151  1.00 20.00     0.280 C 
HETATM    4  C4  UNL     1     -33.165   5.891   3.469  1.00 20.00     0.280 C 
HETATM    5  C5  UNL     1     -33.897   7.044   5.963  1.00 20.00     0.086 C 
HETATM    6  C6  UNL     1     -34.330   5.405   4.353  1.00 20.00     0.086 C 
HETATM    7  C7  UNL     1     -33.932   5.533   5.813  1.00 20.00     0.254 C 
HETATM    8  N8  UNL     1     -32.777   7.287   3.717  1.00 20.00     0.084 N 
HETATM    9  F9  UNL     1     -32.759   4.944   6.097  1.00 20.00    -0.205 F 
HETATM   10  F10 UNL     1     -34.870   4.989   6.619  1.00 20.00    -0.205 F 
HETATM   11  H21 UNL     1     -33.472   7.896   3.284  1.00 20.00     0.315 HD
ENDROOT
TORSDOF 0
