REMARK  1 active torsions:
REMARK  status: ('A' for Active; 'I' for Inactive)
REMARK    1  A    between atoms: C7_7  and  C8_8 
ROOT
HETATM    1  C1  UNL     1     -34.054   7.531   6.379  1.00 20.00     0.132 C 
HETATM    2  C2  UNL     1     -34.555   6.229   6.955  1.00 20.00     0.079 C 
HETATM    3  C3  UNL     1     -33.979   5.040   6.196  1.00 20.00     0.008 C 
HETATM    4  C4  UNL     1     -34.388   5.062   4.725  1.00 20.00     0.006 C 
HETATM    5  C5  UNL     1     -34.025   7.629   4.899  1.00 20.00     0.073 A 
HETATM    6  C6  UNL     1     -34.144   6.381   4.059  1.00 20.00     0.011 A 
HETATM    7  C7  UNL     1     -32.819   7.096   4.157  1.00 20.00     0.110 A 
HETATM    8  O9  UNL     1     -33.745   8.495   7.070  1.00 20.00    -0.298 OA
ENDROOT
BRANCH   7   9
HETATM    9  C8  UNL     1     -32.283   7.837   2.981  1.00 20.00     0.392 C 
HETATM   10  F10 UNL     1     -31.604   7.016   2.144  1.00 20.00    -0.171 F 
HETATM   11  F11 UNL     1     -33.276   8.415   2.262  1.00 20.00    -0.171 F 
HETATM   12  F12 UNL     1     -31.433   8.821   3.359  1.00 20.00    -0.171 F 
ENDBRANCH   7   9
TORSDOF 1
