REMARK  0 active torsions:
REMARK  status: ('A' for Active; 'I' for Inactive)
ROOT
HETATM    1  C1  UNL     1     -32.357   6.629   3.654  1.00 20.00     0.027 C 
HETATM    2  C2  UNL     1     -32.627   7.400   4.945  1.00 20.00     0.027 C 
HETATM    3  C3  UNL     1     -35.953   5.296   4.602  1.00 20.00     0.009 C 
HETATM    4  C4  UNL     1     -34.712   6.361   2.709  1.00 20.00     0.030 C 
HETATM    5  C5  UNL     1     -33.652   4.470   4.068  1.00 20.00     0.030 C 
HETATM    6  C6  UNL     1     -35.165   7.656   4.866  1.00 20.00     0.030 C 
HETATM    7  C7  UNL     1     -34.107   5.764   6.226  1.00 20.00     0.030 C 
HETATM    8  C8  UNL     1     -35.679   6.610   3.871  1.00 20.00    -0.010 C 
HETATM    9  C9  UNL     1     -34.647   4.766   5.195  1.00 20.00    -0.010 C 
HETATM   10  C10 UNL     1     -33.408   5.651   3.113  1.00 20.00     0.038 C 
HETATM   11  C11 UNL     1     -33.951   7.199   5.694  1.00 20.00     0.038 C 
HETATM   12 CL12 UNL     1     -32.682   4.962   1.587  1.00 20.00    -0.119 Cl
HETATM   13 CL13 UNL     1     -33.852   8.298   7.147  1.00 20.00    -0.119 Cl
ENDROOT
TORSDOF 0
