REMARK  3 active torsions:
REMARK  status: ('A' for Active; 'I' for Inactive)
REMARK    1  A    between atoms: C1_1  and  C4_4 
REMARK       I    between atoms: C1_1  and  N10_10 
REMARK    2  A    between atoms: C8_8  and  C9_9 
REMARK    3  A    between atoms: C9_9  and  N10_10 
ROOT
HETATM    1  C1  UNL     1     -32.700   6.813   2.719  1.00 20.00     0.222 C 
HETATM    2  N10 UNL     1     -32.950   7.266   3.995  1.00 20.00    -0.352 N 
HETATM    3  O11 UNL     1     -33.067   5.749   2.234  1.00 20.00    -0.273 OA
HETATM    4  H28 UNL     1     -32.585   8.170   4.268  1.00 20.00     0.163 HD
ENDROOT
BRANCH   2   5
HETATM    5  C9  UNL     1     -33.715   6.503   4.967  1.00 20.00     0.025 C 
HETATM    6  C6  UNL     1     -35.123   6.268   4.396  1.00 20.00     0.038 C 
HETATM    7  C7  UNL     1     -33.037   5.145   5.192  1.00 20.00     0.038 C 
BRANCH   5   8
HETATM    8  C8  UNL     1     -33.841   7.300   6.288  1.00 20.00     0.026 C 
HETATM    9  C5  UNL     1     -34.658   6.615   7.378  1.00 20.00     0.007 C 
ENDBRANCH   5   8
ENDBRANCH   2   5
BRANCH   1  10
HETATM   10  C4  UNL     1     -31.896   7.760   1.891  1.00 20.00     0.078 A 
HETATM   11  C2  UNL     1     -32.449   8.206   0.579  1.00 20.00     0.015 A 
HETATM   12  C3  UNL     1     -32.389   9.160   1.733  1.00 20.00     0.015 A 
ENDBRANCH   1  10
TORSDOF 3
