REMARK  2 active torsions:
REMARK  status: ('A' for Active; 'I' for Inactive)
REMARK    1  A    between atoms: C1_1  and  C9_9 
REMARK    2  A    between atoms: C2_2  and  C8_8 
ROOT
HETATM    1  C1  UNL     1     -33.468   6.863   4.624  1.00 20.00    -0.016 C 
HETATM    2  C2  UNL     1     -32.930   6.808   3.387  1.00 20.00    -0.087 C 
HETATM    3  C3  UNL     1     -31.838   7.782   3.011  1.00 20.00     0.043 C 
ENDROOT
BRANCH   1   4
HETATM    4  C9  UNL     1     -34.565   6.034   5.286  1.00 20.00    -0.033 C 
HETATM    5  C5  UNL     1     -34.750   6.555   6.731  1.00 20.00     0.018 C 
HETATM    6  C6  UNL     1     -35.930   6.162   4.586  1.00 20.00     0.018 C 
HETATM    7  C7  UNL     1     -34.144   4.558   5.372  1.00 20.00     0.018 C 
ENDBRANCH   1   4
BRANCH   2   8
HETATM    8  C8  UNL     1     -33.274   5.813   2.306  1.00 20.00     0.029 C 
HETATM    9  C4  UNL     1     -32.405   4.563   2.358  1.00 20.00     0.010 C 
ENDBRANCH   2   8
TORSDOF 2
