REMARK  1 active torsions:
REMARK  status: ('A' for Active; 'I' for Inactive)
REMARK    1  A    between atoms: C1_1  and  C5_5 
ROOT
HETATM    1  C2  UNL     1     -34.009   6.479   6.774  1.00 20.00     0.002 C 
HETATM    2  C3  UNL     1     -34.101   5.123   6.053  1.00 20.00     0.016 C 
HETATM    3  C4  UNL     1     -33.567   7.103   5.439  1.00 20.00     0.016 C 
HETATM    4  C5  UNL     1     -34.215   5.891   4.698  1.00 20.00     0.009 C 
HETATM    5  C6  UNL     1     -35.660   6.146   4.261  1.00 20.00     0.023 C 
ENDROOT
BRANCH   4   6
HETATM    6  C1  UNL     1     -33.376   5.303   3.530  1.00 20.00     0.240 C 
HETATM    7  O7  UNL     1     -32.498   5.929   2.945  1.00 20.00    -0.306 OA
ENDBRANCH   4   6
TORSDOF 1
