REMARK  3 active torsions:
REMARK  status: ('A' for Active; 'I' for Inactive)
REMARK    1  A    between atoms: C4_4  and  C7_7 
REMARK    2  A    between atoms: C6_6  and  C7_7 
REMARK    3  A    between atoms: C7_7  and  O9_9 
ROOT
HETATM    1  C1  UNL     1     -34.265   6.023   4.405  1.00 20.00     0.035 C 
HETATM    2  C2  UNL     1     -35.146   5.549   5.542  1.00 20.00     0.168 C 
HETATM    3  C3  UNL     1     -33.295   6.632   6.451  1.00 20.00     0.174 C 
HETATM    4  C4  UNL     1     -33.523   7.173   5.050  1.00 20.00     0.040 C 
HETATM    5  O8  UNL     1     -34.429   5.806   6.758  1.00 20.00    -0.391 OA
ENDROOT
BRANCH   4   6
HETATM    6  C7  UNL     1     -32.248   7.571   4.333  1.00 20.00     0.124 C 
BRANCH   6   7
HETATM    7  C6  UNL     1     -32.534   8.050   2.906  1.00 20.00     0.027 C 
HETATM    8  C5  UNL     1     -31.274   8.501   2.179  1.00 20.00     0.007 C 
ENDBRANCH   6   7
BRANCH   6   9
HETATM    9  O9  UNL     1     -31.616   8.626   5.057  1.00 20.00    -0.395 OA
HETATM   10  H23 UNL     1     -31.425   8.276   5.941  1.00 20.00     0.210 HD
ENDBRANCH   6   9
ENDBRANCH   4   6
TORSDOF 3
