REMARK  3 active torsions:
REMARK  status: ('A' for Active; 'I' for Inactive)
REMARK    1  A    between atoms: C4_4  and  C7_7 
REMARK    2  A    between atoms: C6_6  and  C7_7 
REMARK    3  A    between atoms: C7_7  and  O9_9 
ROOT
HETATM    1  C1  UNL     1     -32.931   6.931   3.124  1.00 20.00     0.035 C 
HETATM    2  C2  UNL     1     -32.467   5.501   2.938  1.00 20.00     0.168 C 
HETATM    3  C3  UNL     1     -34.497   5.471   4.084  1.00 20.00     0.174 C 
HETATM    4  C4  UNL     1     -33.867   6.836   4.311  1.00 20.00     0.040 C 
HETATM    5  O8  UNL     1     -33.507   4.652   3.445  1.00 20.00    -0.391 OA
ENDROOT
BRANCH   4   6
HETATM    6  C7  UNL     1     -33.114   6.899   5.639  1.00 20.00     0.124 C 
BRANCH   6   7
HETATM    7  C6  UNL     1     -34.034   7.338   6.784  1.00 20.00     0.027 C 
HETATM    8  C5  UNL     1     -35.180   6.362   7.016  1.00 20.00     0.007 C 
ENDBRANCH   6   7
BRANCH   6   9
HETATM    9  O9  UNL     1     -32.043   7.834   5.524  1.00 20.00    -0.395 OA
HETATM   10  H23 UNL     1     -31.594   7.845   6.383  1.00 20.00     0.210 HD
ENDBRANCH   6   9
ENDBRANCH   4   6
TORSDOF 3
