REMARK  3 active torsions:
REMARK  status: ('A' for Active; 'I' for Inactive)
REMARK    1  A    between atoms: C4_4  and  C7_7 
REMARK    2  A    between atoms: C6_6  and  C7_7 
REMARK    3  A    between atoms: C7_7  and  O9_9 
ROOT
HETATM    1  C1  UNL     1     -32.951   7.378   4.058  1.00 20.00     0.035 C 
HETATM    2  C2  UNL     1     -31.899   7.187   2.986  1.00 20.00     0.168 C 
HETATM    3  C3  UNL     1     -33.509   5.522   2.737  1.00 20.00     0.174 C 
HETATM    4  C4  UNL     1     -33.516   5.980   4.185  1.00 20.00     0.040 C 
HETATM    5  O8  UNL     1     -32.375   6.149   2.117  1.00 20.00    -0.391 OA
ENDROOT
BRANCH   4   6
HETATM    6  C7  UNL     1     -34.882   5.918   4.839  1.00 20.00     0.124 C 
BRANCH   6   7
HETATM    7  C6  UNL     1     -34.839   6.447   6.277  1.00 20.00     0.027 C 
HETATM    8  C5  UNL     1     -33.854   5.682   7.150  1.00 20.00     0.007 C 
ENDBRANCH   6   7
BRANCH   6   9
HETATM    9  O9  UNL     1     -35.330   4.564   4.859  1.00 20.00    -0.395 OA
HETATM   10  H23 UNL     1     -34.674   4.066   5.371  1.00 20.00     0.210 HD
ENDBRANCH   6   9
ENDBRANCH   4   6
TORSDOF 3
