REMARK  4 active torsions:
REMARK  status: ('A' for Active; 'I' for Inactive)
REMARK    1  A    between atoms: C2_2  and  C3_3 
REMARK    2  A    between atoms: C3_3  and  C5_5 
REMARK    3  A    between atoms: C5_5  and  C6_6 
REMARK    4  A    between atoms: C6_6  and  C7_7 
ROOT
HETATM    1  C3  UNL     1     -33.230   6.372   3.866  1.00 20.00     0.154 C 
HETATM    2  O8  UNL     1     -33.077   7.434   4.472  1.00 20.00    -0.293 OA
ENDROOT
BRANCH   1   3
HETATM    3  C2  UNL     1     -34.213   5.362   4.391  1.00 20.00    -0.025 C 
HETATM    4  C1  UNL     1     -34.039   4.046   4.203  1.00 20.00     0.022 C 
HETATM    5  C4  UNL     1     -35.396   5.905   5.137  1.00 20.00     0.051 C 
ENDBRANCH   1   3
BRANCH   1   6
HETATM    6  C5  UNL     1     -32.445   6.056   2.599  1.00 20.00     0.084 C 
BRANCH   6   7
HETATM    7  C6  UNL     1     -32.119   7.316   1.791  1.00 20.00     0.023 C 
BRANCH   7   8
HETATM    8  C7  UNL     1     -33.354   8.125   1.410  1.00 20.00     0.115 C 
HETATM    9 CL9  UNL     1     -32.937   9.591   0.493  1.00 20.00    -0.130 Cl
ENDBRANCH   7   8
ENDBRANCH   6   7
ENDBRANCH   1   6
TORSDOF 4
