REMARK  2 active torsions:
REMARK  status: ('A' for Active; 'I' for Inactive)
REMARK    1  A    between atoms: C2_2  and  C3_3 
REMARK    2  A    between atoms: C2_2  and  C4_4 
ROOT
HETATM    1  C2  UNL     1     -33.559   6.497   4.207  1.00 20.00     0.154 C 
ENDROOT
BRANCH   1   2
HETATM    2  C3  UNL     1     -33.414   5.954   2.789  1.00 20.00     0.174 C 
HETATM    3  C1  UNL     1     -32.389   6.733   1.985  1.00 20.00     0.045 C 
HETATM    4  F5  UNL     1     -32.995   4.659   2.858  1.00 20.00    -0.250 F 
ENDBRANCH   1   2
BRANCH   1   5
HETATM    5  C4  UNL     1     -34.588   5.727   5.008  1.00 20.00     0.390 C 
HETATM    6  F6  UNL     1     -34.707   6.249   6.249  1.00 20.00    -0.171 F 
HETATM    7  F7  UNL     1     -34.242   4.430   5.141  1.00 20.00    -0.171 F 
HETATM    8  F8  UNL     1     -35.804   5.778   4.424  1.00 20.00    -0.171 F 
ENDBRANCH   1   5
TORSDOF 2
