REMARK  1 active torsions:
REMARK  status: ('A' for Active; 'I' for Inactive)
REMARK    1  A    between atoms: C1_1  and  C4_4 
ROOT
HETATM    1  C1  UNL     1     -33.718   6.522   4.516  1.00 20.00     0.172 C 
HETATM    2  C2  UNL     1     -34.628   6.842   6.557  1.00 20.00     0.160 C 
HETATM    3  C3  UNL     1     -34.380   5.343   6.616  1.00 20.00     0.103 C 
HETATM    4  N5  UNL     1     -33.896   7.432   5.416  1.00 20.00    -0.278 NA
HETATM    5  S9  UNL     1     -34.239   4.897   4.876  1.00 20.00    -0.104 SA
ENDROOT
BRANCH   1   6
HETATM    6  C4  UNL     1     -33.055   6.777   3.206  1.00 20.00     0.440 C 
HETATM    7  F6  UNL     1     -32.964   5.645   2.474  1.00 20.00    -0.164 F 
HETATM    8  F7  UNL     1     -33.745   7.680   2.474  1.00 20.00    -0.164 F 
HETATM    9  F8  UNL     1     -31.803   7.258   3.371  1.00 20.00    -0.164 F 
ENDBRANCH   1   6
TORSDOF 1
