REMARK  1 active torsions:
REMARK  status: ('A' for Active; 'I' for Inactive)
REMARK    1  A    between atoms: C4_4  and  C6_6 
ROOT
HETATM    1  C1  UNL     1     -34.588   6.033   6.938  1.00 20.00     0.135 A 
HETATM    2  C2  UNL     1     -33.729   7.024   6.516  1.00 20.00     0.136 A 
HETATM    3  C3  UNL     1     -34.577   5.129   4.837  1.00 20.00     0.144 A 
HETATM    4  C4  UNL     1     -33.719   6.121   4.415  1.00 20.00     0.065 A 
HETATM    5  N7  UNL     1     -35.027   5.067   6.106  1.00 20.00    -0.270 NA
HETATM    6  N8  UNL     1     -33.280   7.086   5.246  1.00 20.00    -0.261 NA
ENDROOT
BRANCH   4   7
HETATM    7  C6  UNL     1     -33.243   6.158   3.004  1.00 20.00     0.107 C 
HETATM    8  C5  UNL     1     -32.270   7.271   2.718  1.00 20.00     0.029 C 
HETATM    9 BR9  UNL     1     -32.430   4.435   2.529  1.00 20.00    -0.085 Br
ENDBRANCH   4   7
TORSDOF 1
