REMARK  1 active torsions:
REMARK  status: ('A' for Active; 'I' for Inactive)
REMARK    1  A    between atoms: C3_3  and  C5_5 
ROOT
HETATM    1  C1  UNL     1     -32.347   7.624   1.682  1.00 20.00     0.012 C 
HETATM    2  C2  UNL     1     -32.607   7.097   2.729  1.00 20.00    -0.111 C 
HETATM    3  C4  UNL     1     -32.919   6.468   3.980  1.00 20.00     0.088 A 
HETATM    4  C5  UNL     1     -34.358   6.108   4.273  1.00 20.00     0.112 A 
HETATM    5  C6  UNL     1     -33.683   7.219   5.057  1.00 20.00    -0.018 A 
HETATM    6  C7  UNL     1     -33.257   6.985   6.488  1.00 20.00     0.017 C 
HETATM    7  C8  UNL     1     -34.167   8.628   4.806  1.00 20.00     0.017 C 
ENDROOT
BRANCH   4   8
HETATM    8  C3  UNL     1     -34.614   4.835   4.922  1.00 20.00     0.179 C 
HETATM    9  O9  UNL     1     -35.297   4.897   5.981  1.00 20.00    -0.648 OA
HETATM   10  O10 UNL     1     -34.116   3.833   4.335  1.00 20.00    -0.648 OA
ENDBRANCH   4   8
TORSDOF 1
