REMARK  0 active torsions:
REMARK  status: ('A' for Active; 'I' for Inactive)
ROOT
HETATM    1  C1  UNL     1     -33.319   6.876   4.736  1.00 20.00     0.025 A 
HETATM    2  C2  UNL     1     -32.970   6.392   3.534  1.00 20.00     0.091 A 
HETATM    3  C3  UNL     1     -33.902   5.874   5.668  1.00 20.00     0.227 A 
HETATM    4  C4  UNL     1     -33.193   8.279   5.239  1.00 20.00     0.055 C 
HETATM    5  O5  UNL     1     -34.287   6.137   6.798  1.00 20.00    -0.279 OA
HETATM    6  S6  UNL     1     -33.214   4.720   3.167  1.00 20.00    -0.036 SA
HETATM    7  S7  UNL     1     -33.986   4.262   4.993  1.00 20.00    -0.009 SA
HETATM    8 CL8  UNL     1     -32.273   7.372   2.295  1.00 20.00    -0.075 Cl
ENDROOT
TORSDOF 0
