REMARK  2 active torsions:
REMARK  status: ('A' for Active; 'I' for Inactive)
REMARK    1  A    between atoms: C3_3  and  C6_6 
REMARK    2  A    between atoms: C4_4  and  C7_7 
ROOT
HETATM    1  C1  UNL     1     -32.114   8.189   1.808  1.00 20.00    -0.176 C 
HETATM    2  C2  UNL     1     -32.407   8.194   0.543  1.00 20.00     0.091 C 
HETATM    3  C3  UNL     1     -31.819   8.186   3.074  1.00 20.00     0.072 C 
ENDROOT
BRANCH   3   4
HETATM    4  C6  UNL     1     -32.296   7.106   3.924  1.00 20.00     0.017 A 
HETATM    5  C5  UNL     1     -33.011   5.945   3.294  1.00 20.00     0.022 A 
HETATM    6  C7  UNL     1     -33.786   6.937   4.122  1.00 20.00     0.092 A 
BRANCH   6   7
HETATM    7  C4  UNL     1     -34.241   6.508   5.430  1.00 20.00     0.177 C 
HETATM    8  O8  UNL     1     -33.892   7.248   6.392  1.00 20.00    -0.648 OA
HETATM    9  O9  UNL     1     -34.926   5.447   5.431  1.00 20.00    -0.648 OA
ENDBRANCH   6   7
ENDBRANCH   3   4
TORSDOF 2
