REMARK  2 active torsions:
REMARK  status: ('A' for Active; 'I' for Inactive)
REMARK    1  A    between atoms: C1_1  and  C3_3 
REMARK    2  A    between atoms: C1_1  and  O7_7 
ROOT
HETATM    1  C2  UNL     1     -35.163   5.981   4.885  1.00 20.00     0.055 A 
HETATM    2  C3  UNL     1     -34.116   5.015   4.440  1.00 20.00     0.122 A 
HETATM    3  C4  UNL     1     -33.959   5.726   5.733  1.00 20.00     0.184 A 
HETATM    4  F8  UNL     1     -34.134   4.971   6.880  1.00 20.00    -0.248 F 
ENDROOT
BRANCH   2   5
HETATM    5  C1  UNL     1     -33.225   5.409   3.300  1.00 20.00     0.265 C 
HETATM    6  O6  UNL     1     -32.795   4.627   2.464  1.00 20.00    -0.265 OA
BRANCH   5   7
HETATM    7  O7  UNL     1     -32.983   6.750   3.354  1.00 20.00    -0.326 OA
HETATM    8  C5  UNL     1     -32.141   7.265   2.319  1.00 20.00     0.213 C 
ENDBRANCH   5   7
ENDBRANCH   2   5
TORSDOF 2
