REMARK  2 active torsions:
REMARK  status: ('A' for Active; 'I' for Inactive)
REMARK    1  A    between atoms: C1_1  and  C4_4 
REMARK    2  A    between atoms: C4_4  and  C5_5 
ROOT
HETATM    1  C4  UNL     1     -33.185   7.112   4.541  1.00 20.00     0.137 C 
ENDROOT
BRANCH   1   2
HETATM    2  C1  UNL     1     -32.865   6.487   3.179  1.00 20.00     0.174 C 
HETATM    3  O6  UNL     1     -32.258   7.245   2.371  1.00 20.00    -0.648 OA
HETATM    4  O7  UNL     1     -33.268   5.300   3.026  1.00 20.00    -0.648 OA
ENDBRANCH   1   2
BRANCH   1   5
HETATM    5  C5  UNL     1     -33.988   6.210   5.493  1.00 20.00     0.039 C 
HETATM    6  C2  UNL     1     -34.271   6.897   6.833  1.00 20.00     0.032 C 
HETATM    7  C3  UNL     1     -35.297   5.728   4.860  1.00 20.00     0.032 C 
HETATM    8 CL8  UNL     1     -32.977   4.750   5.833  1.00 20.00    -0.119 Cl
ENDBRANCH   1   5
TORSDOF 2
