REMARK  1 active torsions:
REMARK  status: ('A' for Active; 'I' for Inactive)
REMARK    1  A    between atoms: C1_1  and  C2_2 
ROOT
HETATM    1  C2  UNL     1     -33.831   7.444   4.358  1.00 20.00     0.064 A 
HETATM    2  C3  UNL     1     -33.856   6.582   5.611  1.00 20.00    -0.030 A 
HETATM    3  C4  UNL     1     -34.479   6.069   4.301  1.00 20.00    -0.030 A 
HETATM    4  C5  UNL     1     -34.763   7.024   6.740  1.00 20.00     0.016 C 
HETATM    5  C6  UNL     1     -32.580   5.954   6.127  1.00 20.00     0.016 C 
HETATM    6  C7  UNL     1     -33.805   4.943   3.546  1.00 20.00     0.016 C 
HETATM    7  C8  UNL     1     -35.986   6.016   4.166  1.00 20.00     0.016 C 
ENDROOT
BRANCH   1   8
HETATM    8  C1  UNL     1     -32.573   7.723   3.651  1.00 20.00     0.237 C 
HETATM    9  O9  UNL     1     -32.408   7.510   2.454  1.00 20.00    -0.306 OA
ENDBRANCH   1   8
TORSDOF 1
