REMARK  0 active torsions:
REMARK  status: ('A' for Active; 'I' for Inactive)
ROOT
HETATM    1  C1  UNL     1     -33.009   7.050   3.999  1.00 20.00     0.064 C 
HETATM    2  C2  UNL     1     -34.680   6.793   5.822  1.00 20.00     0.030 C 
HETATM    3  C3  UNL     1     -33.990   5.640   6.538  1.00 20.00     0.075 C 
HETATM    4  C4  UNL     1     -34.668   5.198   3.974  1.00 20.00     0.093 C 
HETATM    5  C5  UNL     1     -34.392   6.657   4.327  1.00 20.00     0.103 C 
HETATM    6  N6  UNL     1     -31.921   7.359   3.741  1.00 20.00    -0.197 NA
HETATM    7  S7  UNL     1     -34.151   4.222   5.419  1.00 20.00    -0.168 SA
ENDROOT
TORSDOF 0
