REMARK  1 active torsions:
REMARK  status: ('A' for Active; 'I' for Inactive)
REMARK    1  A    between atoms: C2_2  and  C8_8 
ROOT
HETATM    1  C1  UNL     1     -33.230   5.849   2.749  1.00 20.00     0.203 C 
HETATM    2  C2  UNL     1     -32.278   6.906   3.312  1.00 20.00     0.244 C 
HETATM    3  C3  UNL     1     -33.385   6.724   5.444  1.00 20.00     0.245 C 
HETATM    4  C4  UNL     1     -34.337   5.662   4.861  1.00 20.00     0.150 C 
HETATM    5  C5  UNL     1     -34.008   7.520   6.589  1.00 20.00     0.045 C 
HETATM    6  C6  UNL     1     -35.710   6.176   4.424  1.00 20.00     0.042 C 
HETATM    7  N9  UNL     1     -32.939   7.648   4.392  1.00 20.00     0.097 N 
HETATM    8  O10 UNL     1     -33.688   4.973   3.781  1.00 20.00    -0.382 OA
HETATM    9  H27 UNL     1     -32.293   8.332   4.785  1.00 20.00     0.317 HD
ENDROOT
BRANCH   2  10
HETATM   10  C8  UNL     1     -31.836   7.877   2.223  1.00 20.00     0.033 C 
HETATM   11  C7  UNL     1     -32.997   8.595   1.616  1.00 20.00     0.007 C 
ENDBRANCH   2  10
TORSDOF 1
