REMARK  5 active torsions:
REMARK  status: ('A' for Active; 'I' for Inactive)
REMARK    1  A    between atoms: C1_1  and  C3_3 
REMARK    2  A    between atoms: C3_3  and  C4_4 
REMARK    3  A    between atoms: C4_4  and  C5_5 
REMARK    4  A    between atoms: C5_5  and  C6_6 
REMARK    5  A    between atoms: C6_6  and  C7_7 
ROOT
HETATM    1  C4  UNL     1     -33.058   6.229   3.514  1.00 20.00     0.004 C 
ENDROOT
BRANCH   1   2
HETATM    2  C3  UNL     1     -31.907   7.205   3.258  1.00 20.00     0.028 C 
BRANCH   2   3
HETATM    3  C1  UNL     1     -32.381   8.424   2.522  1.00 20.00    -0.015 C 
HETATM    4  C2  UNL     1     -32.442   8.502   1.190  1.00 20.00     0.080 C 
HETATM    5 CL8  UNL     1     -32.991   9.897   0.361  1.00 20.00    -0.097 Cl
ENDBRANCH   2   3
ENDBRANCH   1   2
BRANCH   1   6
HETATM    6  C5  UNL     1     -34.145   6.869   4.383  1.00 20.00     0.001 C 
BRANCH   6   7
HETATM    7  C6  UNL     1     -35.283   5.882   4.662  1.00 20.00     0.015 C 
BRANCH   7   8
HETATM    8  C7  UNL     1     -34.823   4.621   5.387  1.00 20.00     0.114 C 
HETATM    9 CL9  UNL     1     -34.069   4.989   6.955  1.00 20.00    -0.130 Cl
ENDBRANCH   7   8
ENDBRANCH   6   7
ENDBRANCH   1   6
TORSDOF 5
