REMARK  2 active torsions:
REMARK  status: ('A' for Active; 'I' for Inactive)
REMARK    1  A    between atoms: C4_4  and  C5_5 
REMARK    2  A    between atoms: C5_5  and  N6_6 
ROOT
HETATM    1  C1  UNL     1     -32.997   5.905   2.874  1.00 20.00     0.158 C 
HETATM    2  N6  UNL     1     -33.396   5.102   3.628  1.00 20.00    -0.264 NA
HETATM    3  S7  UNL     1     -32.439   6.967   1.827  1.00 20.00    -0.055 SA
ENDROOT
BRANCH   2   4
HETATM    4  C5  UNL     1     -34.156   5.653   4.762  1.00 20.00     0.060 C 
HETATM    5  C2  UNL     1     -35.631   5.713   4.346  1.00 20.00     0.041 C 
HETATM    6  C3  UNL     1     -33.996   4.696   5.947  1.00 20.00     0.041 C 
BRANCH   4   7
HETATM    7  C4  UNL     1     -33.651   7.071   5.071  1.00 20.00     0.147 C 
HETATM    8 CL8  UNL     1     -34.110   7.648   6.696  1.00 20.00    -0.128 Cl
ENDBRANCH   4   7
ENDBRANCH   2   4
TORSDOF 2
