REMARK  1 active torsions:
REMARK  status: ('A' for Active; 'I' for Inactive)
REMARK    1  A    between atoms: C1_1  and  C2_2 
ROOT
HETATM    1  C1  UNL     1     -33.954   6.050   5.896  1.00 20.00     0.417 C 
HETATM    2  F3  UNL     1     -34.936   5.643   6.738  1.00 20.00    -0.208 F 
HETATM    3  F4  UNL     1     -33.834   7.391   6.047  1.00 20.00    -0.208 F 
ENDROOT
BRANCH   1   4
HETATM    4  C2  UNL     1     -34.341   5.730   4.479  1.00 20.00     0.417 C 
HETATM    5  F5  UNL     1     -33.345   6.096   3.638  1.00 20.00    -0.208 F 
HETATM    6  F6  UNL     1     -34.502   4.391   4.345  1.00 20.00    -0.208 F 
ENDBRANCH   1   4
TORSDOF 1
