REMARK  3 active torsions:
REMARK  status: ('A' for Active; 'I' for Inactive)
REMARK    1  A    between atoms: C3_3  and  C4_4 
REMARK    2  A    between atoms: C4_4  and  C5_5 
REMARK    3  A    between atoms: C5_5  and  C6_6 
ROOT
HETATM    1  C4  UNL     1     -33.043   7.105   5.616  1.00 20.00     0.005 C 
ENDROOT
BRANCH   1   2
HETATM    2  C3  UNL     1     -34.435   6.496   5.570  1.00 20.00    -0.014 A 
HETATM    3  C1  UNL     1     -34.618   5.049   5.204  1.00 20.00     0.005 A 
HETATM    4  C2  UNL     1     -34.863   5.504   6.616  1.00 20.00     0.005 A 
ENDBRANCH   1   2
BRANCH   1   5
HETATM    5  C5  UNL     1     -32.638   7.682   4.260  1.00 20.00     0.015 C 
BRANCH   5   6
HETATM    6  C6  UNL     1     -32.599   6.597   3.192  1.00 20.00     0.114 C 
HETATM    7 CL7  UNL     1     -32.142   7.291   1.619  1.00 20.00    -0.130 Cl
ENDBRANCH   5   6
ENDBRANCH   1   5
TORSDOF 3
