REMARK  2 active torsions:
REMARK  status: ('A' for Active; 'I' for Inactive)
REMARK    1  A    between atoms: C1_1  and  C2_2 
REMARK    2  A    between atoms: C2_2  and  C3_3 
ROOT
HETATM    1  C2  UNL     1     -33.774   5.790   4.595  1.00 20.00     0.396 C 
HETATM    2  F6  UNL     1     -34.698   4.875   4.205  1.00 20.00    -0.190 F 
HETATM    3  F7  UNL     1     -32.818   5.115   5.281  1.00 20.00    -0.190 F 
ENDROOT
BRANCH   1   4
HETATM    4  C1  UNL     1     -33.154   6.415   3.369  1.00 20.00     0.434 C 
HETATM    5  F4  UNL     1     -32.584   5.444   2.612  1.00 20.00    -0.207 F 
HETATM    6  F5  UNL     1     -32.162   7.265   3.726  1.00 20.00    -0.207 F 
ENDBRANCH   1   4
BRANCH   1   7
HETATM    7  C3  UNL     1     -34.429   6.786   5.517  1.00 20.00     0.460 C 
HETATM    8  F8  UNL     1     -35.418   7.449   4.879  1.00 20.00    -0.165 F 
HETATM    9  F9  UNL     1     -33.540   7.700   5.960  1.00 20.00    -0.165 F 
HETATM   10  F10 UNL     1     -34.970   6.178   6.594  1.00 20.00    -0.165 F 
ENDBRANCH   1   7
TORSDOF 2
