REMARK  2 active torsions:
REMARK  status: ('A' for Active; 'I' for Inactive)
REMARK    1  A    between atoms: C1_1  and  C2_2 
REMARK    2  A    between atoms: C2_2  and  C3_3 
ROOT
HETATM    1  C2  UNL     1     -34.455   5.700   4.538  1.00 20.00     0.365 C 
HETATM    2  F5  UNL     1     -34.317   4.345   4.469  1.00 20.00    -0.193 F 
HETATM    3  F6  UNL     1     -35.771   5.952   4.294  1.00 20.00    -0.193 F 
ENDROOT
BRANCH   1   4
HETATM    4  C1  UNL     1     -33.626   6.310   3.418  1.00 20.00     0.345 C 
HETATM    5  F4  UNL     1     -32.771   7.214   3.976  1.00 20.00    -0.226 F 
HETATM    6 CL9  UNL     1     -32.663   5.114   2.531  1.00 20.00    -0.083 Cl
ENDBRANCH   1   4
BRANCH   1   7
HETATM    7  C3  UNL     1     -34.144   6.136   5.960  1.00 20.00     0.388 C 
HETATM    8  F7  UNL     1     -32.852   5.818   6.239  1.00 20.00    -0.181 F 
HETATM    9  F8  UNL     1     -34.903   5.447   6.847  1.00 20.00    -0.181 F 
HETATM   10 CL10 UNL     1     -34.373   7.875   6.212  1.00 20.00    -0.042 Cl
ENDBRANCH   1   7
TORSDOF 2
