REMARK  0 active torsions:
REMARK  status: ('A' for Active; 'I' for Inactive)
ROOT
HETATM    1  C1  UNL     1     -32.695   5.516   2.441  1.00 20.00    -0.030 A 
HETATM    2  C2  UNL     1     -32.285   6.779   2.599  1.00 20.00    -0.030 A 
HETATM    3  C3  UNL     1     -33.480   4.763   3.470  1.00 20.00     0.036 A 
HETATM    4  C4  UNL     1     -32.560   7.594   3.825  1.00 20.00     0.036 A 
HETATM    5  C5  UNL     1     -34.908   6.691   4.457  1.00 20.00     0.020 A 
HETATM    6  C6  UNL     1     -33.953   5.540   4.689  1.00 20.00    -0.032 A 
HETATM    7  C7  UNL     1     -33.482   6.987   4.870  1.00 20.00    -0.032 A 
HETATM    8  C8  UNL     1     -34.207   4.664   5.891  1.00 20.00     0.016 C 
HETATM    9  C9  UNL     1     -33.268   7.553   6.253  1.00 20.00     0.016 C 
ENDROOT
TORSDOF 0
