REMARK  4 active torsions:
REMARK  status: ('A' for Active; 'I' for Inactive)
REMARK    1  A    between atoms: C2_2  and  C8_8 
REMARK    2  A    between atoms: C3_3  and  C9_9 
REMARK    3  A    between atoms: C8_8  and  C9_9 
REMARK    4  A    between atoms: C9_9  and  C10_10 
ROOT
HETATM    1  C1  UNL     1     -32.394   7.948   1.150  1.00 20.00    -0.111 C 
HETATM    2  C2  UNL     1     -32.315   7.583   2.292  1.00 20.00    -0.106 C 
HETATM    3  C4  UNL     1     -32.493   8.390  -0.240  1.00 20.00     0.112 C 
ENDROOT
BRANCH   2   4
HETATM    4  C8  UNL     1     -32.217   7.138   3.691  1.00 20.00     0.106 C 
BRANCH   4   5
HETATM    5  C9  UNL     1     -33.486   6.424   4.196  1.00 20.00     0.069 C 
BRANCH   5   6
HETATM    6  C3  UNL     1     -33.534   5.016   3.589  1.00 20.00     0.128 C 
HETATM    7  C5  UNL     1     -33.461   4.921   2.086  1.00 20.00     0.091 C 
HETATM    8  O11 UNL     1     -33.603   4.002   4.284  1.00 20.00    -0.298 OA
ENDBRANCH   5   6
BRANCH   5   9
HETATM    9  C10 UNL     1     -33.655   6.381   5.740  1.00 20.00    -0.011 C 
HETATM   10  C6  UNL     1     -35.130   6.188   6.123  1.00 20.00     0.010 C 
HETATM   11  C7  UNL     1     -33.136   7.653   6.420  1.00 20.00     0.010 C 
ENDBRANCH   5   9
ENDBRANCH   4   5
ENDBRANCH   2   4
TORSDOF 4
