REMARK  4 active torsions:
REMARK  status: ('A' for Active; 'I' for Inactive)
REMARK    1  A    between atoms: C2_2  and  C8_8 
REMARK    2  A    between atoms: C3_3  and  C9_9 
REMARK    3  A    between atoms: C8_8  and  C9_9 
REMARK    4  A    between atoms: C9_9  and  C10_10 
ROOT
HETATM    1  C9  UNL     1     -33.940   6.482   4.247  1.00 20.00     0.062 C 
ENDROOT
BRANCH   1   2
HETATM    2  C3  UNL     1     -33.936   6.913   5.718  1.00 20.00     0.127 C 
HETATM    3  C5  UNL     1     -34.125   8.384   5.993  1.00 20.00     0.091 C 
HETATM    4  O11 UNL     1     -33.765   6.116   6.640  1.00 20.00    -0.298 OA
ENDBRANCH   1   2
BRANCH   1   5
HETATM    5  C8  UNL     1     -32.526   6.582   3.635  1.00 20.00     0.045 C 
BRANCH   5   6
HETATM    6  C2  UNL     1     -32.523   6.739   2.128  1.00 20.00    -0.092 C 
HETATM    7  C1  UNL     1     -32.537   5.674   1.310  1.00 20.00     0.014 C 
HETATM    8  C4  UNL     1     -32.455   8.137   1.582  1.00 20.00     0.042 C 
ENDBRANCH   5   6
ENDBRANCH   1   5
BRANCH   1   9
HETATM    9  C10 UNL     1     -34.588   5.077   4.127  1.00 20.00    -0.011 C 
HETATM   10  C6  UNL     1     -35.846   4.970   4.996  1.00 20.00     0.010 C 
HETATM   11  C7  UNL     1     -33.636   3.924   4.456  1.00 20.00     0.010 C 
ENDBRANCH   1   9
TORSDOF 4
