REMARK  2 active torsions:
REMARK  status: ('A' for Active; 'I' for Inactive)
REMARK    1  A    between atoms: C3_3  and  C8_8 
REMARK    2  A    between atoms: C4_4  and  C7_7 
ROOT
HETATM    1  C1  UNL     1     -32.266   8.328   1.462  1.00 20.00     0.065 C 
HETATM    2  C8  UNL     1     -31.596   7.040   1.726  1.00 20.00     0.183 C 
HETATM    3  N9  UNL     1     -32.801   9.338   1.259  1.00 20.00    -0.197 NA
ENDROOT
BRANCH   2   4
HETATM    4  C3  UNL     1     -32.394   6.203   2.644  1.00 20.00     0.055 A 
HETATM    5  C2  UNL     1     -32.420   4.824   2.660  1.00 20.00     0.079 A 
HETATM    6  S11 UNL     1     -33.484   4.282   3.891  1.00 20.00    -0.084 SA
HETATM    7  C4  UNL     1     -33.815   5.918   4.290  1.00 20.00     0.079 A 
HETATM    8  N10 UNL     1     -33.194   6.832   3.578  1.00 20.00    -0.249 NA
BRANCH   7   9
HETATM    9  C7  UNL     1     -34.786   6.295   5.422  1.00 20.00     0.045 A 
HETATM   10  C5  UNL     1     -34.224   6.562   6.798  1.00 20.00     0.012 A 
HETATM   11  C6  UNL     1     -35.004   5.309   6.546  1.00 20.00     0.012 A 
ENDBRANCH   7   9
ENDBRANCH   2   4
TORSDOF 2
