REMARK  3 active torsions:
REMARK  status: ('A' for Active; 'I' for Inactive)
REMARK    1  A    between atoms: C3_3  and  C4_4 
REMARK    2  A    between atoms: C4_4  and  C5_5 
REMARK    3  A    between atoms: C4_4  and  O6_6 
ROOT
HETATM    1  C1  UNL     1     -34.002   8.037   6.524  1.00 20.00     0.012 C 
HETATM    2  C2  UNL     1     -34.245   6.865   6.429  1.00 20.00    -0.115 C 
HETATM    3  C3  UNL     1     -34.543   5.428   6.318  1.00 20.00     0.133 C 
ENDROOT
BRANCH   3   4
HETATM    4  C4  UNL     1     -34.839   5.031   4.870  1.00 20.00     0.236 C 
BRANCH   4   5
HETATM    5  C5  UNL     1     -33.681   5.371   3.950  1.00 20.00     0.413 C 
HETATM    6  F7  UNL     1     -33.976   5.072   2.666  1.00 20.00    -0.168 F 
HETATM    7  F8  UNL     1     -33.368   6.682   4.008  1.00 20.00    -0.168 F 
HETATM    8  F9  UNL     1     -32.578   4.667   4.287  1.00 20.00    -0.168 F 
ENDBRANCH   4   5
BRANCH   4   9
HETATM    9  O6  UNL     1     -35.992   5.743   4.424  1.00 20.00    -0.386 OA
HETATM   10  H14 UNL     1     -36.717   5.488   5.014  1.00 20.00     0.210 HD
ENDBRANCH   4   9
ENDBRANCH   3   4
TORSDOF 3
