REMARK  2 active torsions:
REMARK  status: ('A' for Active; 'I' for Inactive)
REMARK    1  A    between atoms: C5_5  and  C6_6 
REMARK    2  A    between atoms: C5_5  and  C7_7 
ROOT
HETATM    1  C1  UNL     1     -32.339   7.777   2.124  1.00 20.00     0.079 C 
HETATM    2  C6  UNL     1     -32.990   7.654   3.433  1.00 20.00     0.189 C 
HETATM    3  N8  UNL     1     -31.827   7.870   1.086  1.00 20.00    -0.196 NA
HETATM    4 CL9  UNL     1     -31.877   8.430   4.611  1.00 20.00    -0.109 Cl
ENDROOT
BRANCH   2   5
HETATM    5  C5  UNL     1     -33.229   6.197   3.856  1.00 20.00     0.043 C 
BRANCH   5   6
HETATM    6  C7  UNL     1     -34.376   5.925   4.875  1.00 20.00    -0.049 C 
HETATM    7  C2  UNL     1     -34.111   6.563   6.246  1.00 20.00     0.014 C 
HETATM    8  C3  UNL     1     -35.725   6.434   4.336  1.00 20.00     0.014 C 
HETATM    9  C4  UNL     1     -34.480   4.397   5.070  1.00 20.00     0.014 C 
ENDBRANCH   5   6
ENDBRANCH   2   5
TORSDOF 2
