REMARK  1 active torsions:
REMARK  status: ('A' for Active; 'I' for Inactive)
REMARK    1  A    between atoms: C8_8  and  N10_10 
ROOT
HETATM    1  C1  UNL     1     -32.435   8.293   1.362  1.00 20.00     0.065 C 
HETATM    2  C4  UNL     1     -32.788   5.970   2.194  1.00 20.00     0.051 C 
HETATM    3  C5  UNL     1     -33.776   5.694   3.319  1.00 20.00     0.274 C 
HETATM    4  C6  UNL     1     -32.964   7.826   3.741  1.00 20.00     0.292 C 
HETATM    5  C7  UNL     1     -32.231   7.367   2.482  1.00 20.00     0.122 C 
HETATM    6  N9  UNL     1     -32.597   9.026   0.477  1.00 20.00    -0.197 NA
HETATM    7  N10 UNL     1     -33.309   6.564   4.400  1.00 20.00     0.094 N 
ENDROOT
BRANCH   7   8
HETATM    8  C8  UNL     1     -34.300   6.726   5.484  1.00 20.00     0.223 A 
HETATM    9  C2  UNL     1     -34.459   5.662   6.535  1.00 20.00     0.038 A 
HETATM   10  C3  UNL     1     -33.852   6.986   6.896  1.00 20.00     0.038 A 
ENDBRANCH   7   8
TORSDOF 1
