REMARK  1 active torsions:
REMARK  status: ('A' for Active; 'I' for Inactive)
REMARK    1  A    between atoms: C3_3  and  C7_7 
ROOT
HETATM    1  C1  UNL     1     -35.044   5.426   5.461  1.00 20.00     0.304 C 
HETATM    2  C2  UNL     1     -33.913   6.325   5.923  1.00 20.00     0.148 C 
HETATM    3  C3  UNL     1     -33.777   6.019   3.663  1.00 20.00     0.360 C 
HETATM    4  C4  UNL     1     -34.354   7.405   6.891  1.00 20.00     0.041 C 
HETATM    5  N8  UNL     1     -34.480   4.871   4.237  1.00 20.00     0.115 N 
HETATM    6  O9  UNL     1     -33.409   6.923   4.719  1.00 20.00    -0.350 OA
HETATM    7  H24 UNL     1     -33.800   4.153   4.489  1.00 20.00     0.319 HD
ENDROOT
BRANCH   3   8
HETATM    8  C7  UNL     1     -32.528   5.573   2.924  1.00 20.00     0.036 C 
HETATM    9  C5  UNL     1     -32.885   4.645   1.763  1.00 20.00     0.014 C 
HETATM   10  C6  UNL     1     -31.737   6.780   2.416  1.00 20.00     0.014 C 
ENDBRANCH   3   8
TORSDOF 1
