REMARK  1 active torsions:
REMARK  status: ('A' for Active; 'I' for Inactive)
REMARK    1  A    between atoms: C2_2  and  C7_7 
ROOT
HETATM    1  C1  UNL     1     -33.722   4.385   4.122  1.00 20.00     0.310 C 
HETATM    2  C2  UNL     1     -32.704   6.360   3.649  1.00 20.00     0.356 C 
HETATM    3  C3  UNL     1     -34.162   5.415   5.159  1.00 20.00     0.083 C 
HETATM    4  C4  UNL     1     -33.988   4.901   6.584  1.00 20.00     0.047 C 
HETATM    5  C5  UNL     1     -35.599   5.901   4.942  1.00 20.00     0.047 C 
HETATM    6  N8  UNL     1     -33.326   5.211   2.981  1.00 20.00     0.115 N 
HETATM    7  O9  UNL     1     -33.275   6.530   4.957  1.00 20.00    -0.345 OA
HETATM    8  H24 UNL     1     -32.651   4.721   2.396  1.00 20.00     0.319 HD
ENDROOT
BRANCH   2   9
HETATM    9  C7  UNL     1     -32.880   7.644   2.855  1.00 20.00     0.059 C 
HETATM   10  C6  UNL     1     -32.227   7.566   1.511  1.00 20.00     0.009 C 
ENDBRANCH   2   9
TORSDOF 1
