REMARK  2 active torsions:
REMARK  status: ('A' for Active; 'I' for Inactive)
REMARK    1  A    between atoms: C1_1  and  C9_9 
REMARK    2  A    between atoms: C8_8  and  C9_9 
ROOT
HETATM    1  C2  UNL     1     -34.206   5.423   6.381  1.00 20.00     0.005 C 
HETATM    2  C3  UNL     1     -34.287   4.339   5.297  1.00 20.00     0.005 C 
HETATM    3  C4  UNL     1     -35.542   6.219   4.579  1.00 20.00     0.009 C 
HETATM    4  C5  UNL     1     -33.325   7.072   4.709  1.00 20.00     0.010 C 
HETATM    5  C6  UNL     1     -34.524   6.713   5.605  1.00 20.00    -0.014 C 
HETATM    6  C7  UNL     1     -34.602   5.146   4.024  1.00 20.00    -0.010 C 
HETATM    7  C8  UNL     1     -33.342   5.958   3.640  1.00 20.00    -0.004 C 
ENDROOT
BRANCH   7   8
HETATM    8  C9  UNL     1     -33.408   6.517   2.223  1.00 20.00     0.074 C 
BRANCH   8   9
HETATM    9  C1  UNL     1     -32.209   7.362   1.883  1.00 20.00     0.231 C 
HETATM   10  O10 UNL     1     -32.248   8.551   1.584  1.00 20.00    -0.307 OA
ENDBRANCH   8   9
ENDBRANCH   7   8
TORSDOF 2
