REMARK  1 active torsions:
REMARK  status: ('A' for Active; 'I' for Inactive)
REMARK    1  A    between atoms: C3_3  and  C5_5 
ROOT
HETATM    1  C1  UNL     1     -32.907   7.699   3.885  1.00 20.00     0.030 A 
HETATM    2  C2  UNL     1     -33.565   6.896   4.838  1.00 20.00    -0.044 A 
HETATM    3  C3  UNL     1     -32.692   6.988   2.715  1.00 20.00     0.043 A 
HETATM    4  C4  UNL     1     -33.819   5.637   4.369  1.00 20.00    -0.010 A 
HETATM    5  C6  UNL     1     -34.060   7.062   6.226  1.00 20.00     0.040 C 
HETATM    6  C7  UNL     1     -34.512   4.759   5.341  1.00 20.00     0.047 C 
HETATM    7  C8  UNL     1     -34.347   5.587   6.653  1.00 20.00     0.010 C 
HETATM    8  S10 UNL     1     -33.296   5.367   2.804  1.00 20.00    -0.091 SA
ENDROOT
BRANCH   3   9
HETATM    9  C5  UNL     1     -32.063   7.420   1.509  1.00 20.00     0.277 C 
HETATM   10  O9  UNL     1     -31.594   8.564   1.334  1.00 20.00    -0.301 OA
ENDBRANCH   3   9
TORSDOF 1
