REMARK  0 active torsions:
REMARK  status: ('A' for Active; 'I' for Inactive)
ROOT
HETATM    1  C1  UNL     1     -32.142   7.204   1.059  1.00 20.00     0.107 C 
HETATM    2  C2  UNL     1     -32.848   7.825   3.359  1.00 20.00     0.038 A 
HETATM    3  C3  UNL     1     -32.757   6.931   2.314  1.00 20.00     0.086 A 
HETATM    4  C4  UNL     1     -33.519   7.266   4.489  1.00 20.00    -0.043 A 
HETATM    5  C5  UNL     1     -33.915   5.965   4.246  1.00 20.00    -0.010 A 
HETATM    6  C6  UNL     1     -33.809   7.959   5.784  1.00 20.00     0.040 C 
HETATM    7  C7  UNL     1     -34.620   5.083   5.229  1.00 20.00     0.046 C 
HETATM    8  C8  UNL     1     -34.192   6.962   6.890  1.00 20.00     0.005 C 
HETATM    9  C9  UNL     1     -35.196   5.916   6.385  1.00 20.00     0.005 C 
HETATM   10  N10 UNL     1     -31.641   7.427   0.036  1.00 20.00    -0.191 NA
HETATM   11  S11 UNL     1     -33.479   5.424   2.692  1.00 20.00    -0.083 SA
ENDROOT
TORSDOF 0
