REMARK  2 active torsions:
REMARK  status: ('A' for Active; 'I' for Inactive)
REMARK    1  A    between atoms: C1_1  and  C3_3 
REMARK    2  A    between atoms: C3_3  and  C5_5 
ROOT
HETATM    1  C3  UNL     1     -33.029   5.895   3.083  1.00 20.00     0.168 C 
HETATM    2  O6  UNL     1     -33.035   4.846   2.442  1.00 20.00    -0.292 OA
ENDROOT
BRANCH   1   3
HETATM    3  C1  UNL     1     -32.371   7.125   2.552  1.00 20.00     0.063 C 
HETATM    4  C2  UNL     1     -32.803   7.681   1.419  1.00 20.00     0.088 C 
HETATM    5 CL7  UNL     1     -32.092   9.092   0.754  1.00 20.00    -0.097 Cl
ENDBRANCH   1   3
BRANCH   1   6
HETATM    6  C5  UNL     1     -33.645   6.019   4.466  1.00 20.00     0.152 C 
HETATM    7  C4  UNL     1     -33.505   7.438   4.989  1.00 20.00     0.035 C 
HETATM    8 CL8  UNL     1     -35.368   5.570   4.366  1.00 20.00    -0.117 Cl
ENDBRANCH   1   6
TORSDOF 2
