REMARK  2 active torsions:
REMARK  status: ('A' for Active; 'I' for Inactive)
REMARK    1  A    between atoms: C4_4  and  C6_6 
REMARK    2  A    between atoms: C6_6  and  N7_7 
ROOT
HETATM    1  C1  UNL     1     -32.268   7.314   2.234  1.00 20.00     0.332 C 
HETATM    2  N7  UNL     1     -32.210   6.791   3.278  1.00 20.00    -0.242 NA
HETATM    3  O8  UNL     1     -32.310   7.838   1.182  1.00 20.00    -0.260 OA
ENDROOT
BRANCH   2   4
HETATM    4  C6  UNL     1     -33.506   6.730   3.985  1.00 20.00     0.112 C 
HETATM    5  C5  UNL     1     -33.226   6.864   5.486  1.00 20.00     0.035 C 
BRANCH   4   6
HETATM    6  C4  UNL     1     -34.219   5.468   3.639  1.00 20.00     0.010 A 
HETATM    7  C2  UNL     1     -33.609   4.136   3.977  1.00 20.00     0.007 A 
HETATM    8  C3  UNL     1     -34.821   4.618   4.724  1.00 20.00     0.007 A 
ENDBRANCH   4   6
ENDBRANCH   2   4
TORSDOF 2
