REMARK  1 active torsions:
REMARK  status: ('A' for Active; 'I' for Inactive)
REMARK    1  A    between atoms: C11_11  and  N13_13 
ROOT
HETATM    1  C1  UNL     1     -32.902   8.724   0.775  1.00 20.00     0.086 C 
HETATM    2  C11 UNL     1     -32.933   8.832   2.231  1.00 20.00     0.357 C 
HETATM    3  N12 UNL     1     -32.881   8.642  -0.382  1.00 20.00    -0.196 NA
ENDROOT
BRANCH   2   4
HETATM    4  N13 UNL     1     -32.158   7.694   2.840  1.00 20.00    -0.059 N 
HETATM    5  C8  UNL     1     -32.022   7.786   4.338  1.00 20.00     0.236 C 
HETATM    6  C6  UNL     1     -33.320   7.388   5.033  1.00 20.00     0.037 C 
HETATM    7  C10 UNL     1     -33.849   6.003   4.590  1.00 20.00    -0.037 C 
HETATM    8  C4  UNL     1     -33.009   4.848   5.170  1.00 20.00     0.010 C 
HETATM    9  C5  UNL     1     -35.220   5.710   5.223  1.00 20.00     0.010 C 
HETATM   10  C7  UNL     1     -33.928   5.948   3.055  1.00 20.00     0.037 C 
HETATM   11  C2  UNL     1     -33.498   4.679   6.607  1.00 20.00     0.001 C 
HETATM   12  C3  UNL     1     -34.913   5.252   6.646  1.00 20.00     0.001 C 
HETATM   13  C9  UNL     1     -32.616   6.333   2.383  1.00 20.00     0.236 C 
HETATM   14  H32 UNL     1     -31.171   7.801   2.461  1.00 20.00     0.281 HD
ENDBRANCH   2   4
TORSDOF 1
