REMARK  2 active torsions:
REMARK  status: ('A' for Active; 'I' for Inactive)
REMARK    1  A    between atoms: C9_9  and  C10_10 
REMARK    2  A    between atoms: C10_10  and  N12_12 
ROOT
HETATM    1  C1  UNL     1     -32.057   7.212   1.566  1.00 20.00     0.061 C 
HETATM    2  C9  UNL     1     -31.697   6.101   2.461  1.00 20.00     0.159 C 
HETATM    3  N11 UNL     1     -32.339   8.089   0.860  1.00 20.00    -0.197 NA
ENDROOT
BRANCH   2   4
HETATM    4  C10 UNL     1     -32.931   5.487   3.135  1.00 20.00     0.233 C 
HETATM    5  C8  UNL     1     -33.905   4.946   2.093  1.00 20.00     0.044 C 
BRANCH   4   6
HETATM    6  N12 UNL     1     -33.603   6.460   3.980  1.00 20.00     0.102 N 
HETATM    7  C4  UNL     1     -32.663   7.302   4.717  1.00 20.00     0.274 C 
HETATM    8  C2  UNL     1     -33.587   8.048   5.655  1.00 20.00     0.033 C 
HETATM    9  C3  UNL     1     -34.579   6.980   6.092  1.00 20.00     0.043 C 
HETATM   10  C5  UNL     1     -34.589   5.938   4.949  1.00 20.00     0.153 C 
HETATM   11  C6  UNL     1     -35.966   5.913   4.268  1.00 20.00     0.049 C 
HETATM   12  C7  UNL     1     -34.281   4.542   5.519  1.00 20.00     0.049 C 
ENDBRANCH   4   6
ENDBRANCH   2   4
TORSDOF 2
