REMARK  3 active torsions:
REMARK  status: ('A' for Active; 'I' for Inactive)
REMARK    1  A    between atoms: C4_4  and  C6_6 
REMARK    2  A    between atoms: C4_4  and  C7_7 
REMARK    3  A    between atoms: C5_5  and  C6_6 
ROOT
HETATM    1  C1  UNL     1     -32.739   6.069   2.557  1.00 20.00     0.065 C 
HETATM    2  C6  UNL     1     -33.046   7.447   2.990  1.00 20.00     0.107 C 
HETATM    3  N8  UNL     1     -32.501   4.986   2.216  1.00 20.00    -0.197 NA
ENDROOT
BRANCH   2   4
HETATM    4  C4  UNL     1     -32.930   7.596   4.522  1.00 20.00     0.024 C 
BRANCH   4   5
HETATM    5  C7  UNL     1     -34.166   7.128   5.324  1.00 20.00    -0.021 C 
HETATM    6  C2  UNL     1     -34.424   5.643   5.050  1.00 20.00     0.009 C 
HETATM    7  C3  UNL     1     -34.008   7.351   6.829  1.00 20.00     0.009 C 
ENDBRANCH   4   5
ENDBRANCH   2   4
BRANCH   2   8
HETATM    8  C5  UNL     1     -32.165   8.460   2.239  1.00 20.00     0.133 C 
HETATM    9 CL9  UNL     1     -32.369   8.413   0.467  1.00 20.00    -0.129 Cl
ENDBRANCH   2   8
TORSDOF 3
