REMARK  3 active torsions:
REMARK  status: ('A' for Active; 'I' for Inactive)
REMARK    1  A    between atoms: C6_6  and  N10_10 
REMARK    2  A    between atoms: C7_7  and  C8_8 
REMARK    3  A    between atoms: C8_8  and  N10_10 
ROOT
HETATM    1  C1  UNL     1     -32.588   9.518   0.275  1.00 20.00     0.013 C 
HETATM    2  C2  UNL     1     -33.017   8.688   1.030  1.00 20.00    -0.087 C 
HETATM    3  C6  UNL     1     -33.545   7.677   1.948  1.00 20.00     0.364 C 
ENDROOT
BRANCH   3   4
HETATM    4  N10 UNL     1     -32.456   7.031   2.691  1.00 20.00     0.100 N 
HETATM    5  C5  UNL     1     -32.034   7.891   3.803  1.00 20.00     0.311 C 
BRANCH   4   6
HETATM    6  C8  UNL     1     -32.853   5.725   3.166  1.00 20.00     0.232 C 
HETATM    7  C4  UNL     1     -32.807   4.719   2.020  1.00 20.00     0.044 C 
BRANCH   6   8
HETATM    8  C7  UNL     1     -34.251   5.772   3.794  1.00 20.00     0.159 C 
HETATM    9  C3  UNL     1     -34.225   6.346   5.149  1.00 20.00     0.061 C 
HETATM   10  N9  UNL     1     -34.206   6.799   6.217  1.00 20.00    -0.197 NA
ENDBRANCH   6   8
ENDBRANCH   4   6
ENDBRANCH   3   4
TORSDOF 3
