REMARK  3 active torsions:
REMARK  status: ('A' for Active; 'I' for Inactive)
REMARK    1  A    between atoms: C5_5  and  C7_7 
REMARK    2  A    between atoms: C6_6  and  C7_7 
REMARK    3  A    between atoms: C7_7  and  O8_8 
ROOT
HETATM    1  C1  UNL     1     -32.161   7.863   4.090  1.00 20.00     0.012 C 
HETATM    2  C2  UNL     1     -32.803   7.506   5.039  1.00 20.00    -0.115 C 
HETATM    3  C5  UNL     1     -33.584   7.072   6.211  1.00 20.00     0.130 C 
ENDROOT
BRANCH   3   4
HETATM    4  C7  UNL     1     -34.633   5.991   5.876  1.00 20.00     0.064 C 
HETATM    5  C4  UNL     1     -35.292   6.319   4.529  1.00 20.00     0.046 C 
BRANCH   4   6
HETATM    6  C6  UNL     1     -34.084   4.548   5.883  1.00 20.00     0.034 C 
HETATM    7  C3  UNL     1     -33.031   4.241   4.828  1.00 20.00     0.008 C 
ENDBRANCH   4   6
BRANCH   4   8
HETATM    8  O8  UNL     1     -35.670   6.038   6.867  1.00 20.00    -0.389 OA
HETATM    9  H20 UNL     1     -36.320   5.372   6.603  1.00 20.00     0.210 HD
ENDBRANCH   4   8
ENDBRANCH   3   4
TORSDOF 3
