REMARK  0 active torsions:
REMARK  status: ('A' for Active; 'I' for Inactive)
ROOT
HETATM    1  C1  UNL     1     -34.314   7.304   6.433  1.00 20.00     0.006 C 
HETATM    2  C2  UNL     1     -34.495   5.850   6.885  1.00 20.00     0.006 C 
HETATM    3  C3  UNL     1     -33.699   7.242   5.038  1.00 20.00     0.079 C 
HETATM    4  C4  UNL     1     -33.981   4.984   5.739  1.00 20.00     0.079 C 
HETATM    5  C5  UNL     1     -34.119   5.881   4.530  1.00 20.00     0.243 C 
HETATM    6  F6  UNL     1     -33.361   5.467   3.500  1.00 20.00    -0.206 F 
HETATM    7  F7  UNL     1     -35.406   5.913   4.114  1.00 20.00    -0.206 F 
ENDROOT
TORSDOF 0
