REMARK  1 active torsions:
REMARK  status: ('A' for Active; 'I' for Inactive)
REMARK    1  A    between atoms: C1_1  and  C2_2 
ROOT
HETATM    1  C2  UNL     1     -34.880   6.010   5.470  1.00 20.00     0.294 C 
HETATM    2  F4  UNL     1     -34.299   7.227   5.302  1.00 20.00    -0.230 F 
HETATM    3 CL5  UNL     1     -33.970   5.094   6.686  1.00 20.00    -0.087 Cl
ENDROOT
BRANCH   1   4
HETATM    4  C1  UNL     1     -34.896   5.289   4.141  1.00 20.00     0.275 C 
HETATM    5  F3  UNL     1     -33.618   5.111   3.710  1.00 20.00    -0.251 F 
ENDBRANCH   1   4
TORSDOF 1
