REMARK  1 active torsions:
REMARK  status: ('A' for Active; 'I' for Inactive)
REMARK    1  A    between atoms: C1_1  and  C2_2 
ROOT
HETATM    1  C2  UNL     1     -34.453   5.467   5.113  1.00 20.00     0.299 C 
HETATM    2  F4  UNL     1     -34.855   5.339   6.407  1.00 20.00    -0.203 F 
HETATM    3 CL6  UNL     1     -33.917   3.864   4.537  1.00 20.00    -0.061 Cl
HETATM    4 CL7  UNL     1     -35.840   5.999   4.129  1.00 20.00    -0.061 Cl
ENDROOT
BRANCH   1   5
HETATM    5  C1  UNL     1     -33.297   6.457   5.046  1.00 20.00     0.336 C 
HETATM    6  F3  UNL     1     -33.714   7.657   5.539  1.00 20.00    -0.227 F 
HETATM    7 CL5  UNL     1     -32.734   6.722   3.376  1.00 20.00    -0.083 Cl
ENDBRANCH   1   5
TORSDOF 1
