REMARK  3 active torsions:
REMARK  status: ('A' for Active; 'I' for Inactive)
REMARK    1  A    between atoms: C2_2  and  C3_3 
REMARK    2  A    between atoms: C2_2  and  C4_4 
REMARK    3  A    between atoms: C3_3  and  N5_5 
ROOT
HETATM    1  C1  UNL     1     -32.357   7.063   2.062  1.00 20.00     0.332 C 
HETATM    2  N5  UNL     1     -32.607   6.405   3.002  1.00 20.00    -0.247 NA
HETATM    3  O6  UNL     1     -32.104   7.725   1.123  1.00 20.00    -0.260 OA
ENDROOT
BRANCH   2   4
HETATM    4  C3  UNL     1     -33.562   5.325   2.745  1.00 20.00     0.162 C 
BRANCH   4   5
HETATM    5  C2  UNL     1     -33.775   4.541   4.032  1.00 20.00     0.139 C 
BRANCH   5   6
HETATM    6  C4  UNL     1     -34.324   5.412   5.141  1.00 20.00     0.389 C 
HETATM    7  F7  UNL     1     -34.472   4.715   6.287  1.00 20.00    -0.171 F 
HETATM    8  F8  UNL     1     -33.486   6.442   5.392  1.00 20.00    -0.171 F 
HETATM    9  F9  UNL     1     -35.525   5.931   4.809  1.00 20.00    -0.171 F 
ENDBRANCH   5   6
ENDBRANCH   4   5
ENDBRANCH   2   4
TORSDOF 3
