REMARK  0 active torsions:
REMARK  status: ('A' for Active; 'I' for Inactive)
ROOT
HETATM    1  C1  UNL     1     -32.623   7.654   4.757  1.00 20.00     0.059 C 
HETATM    2  C2  UNL     1     -32.129   7.170   3.607  1.00 20.00     0.059 C 
HETATM    3  C3  UNL     1     -33.860   6.912   5.147  1.00 20.00     0.332 C 
HETATM    4  C4  UNL     1     -32.982   6.053   3.101  1.00 20.00     0.332 C 
HETATM    5  C5  UNL     1     -33.669   5.619   4.380  1.00 20.00     0.379 C 
HETATM    6  F6  UNL     1     -33.995   6.685   6.469  1.00 20.00    -0.195 F 
HETATM    7  F7  UNL     1     -34.969   7.561   4.720  1.00 20.00    -0.195 F 
HETATM    8  F8  UNL     1     -33.888   6.503   2.201  1.00 20.00    -0.195 F 
HETATM    9  F9  UNL     1     -32.306   5.033   2.534  1.00 20.00    -0.195 F 
HETATM   10  F10 UNL     1     -34.813   4.951   4.169  1.00 20.00    -0.192 F 
HETATM   11  F11 UNL     1     -32.840   4.800   5.079  1.00 20.00    -0.192 F 
ENDROOT
TORSDOF 0
