REMARK  2 active torsions:
REMARK  status: ('A' for Active; 'I' for Inactive)
REMARK    1  A    between atoms: C1_1  and  C3_3 
REMARK    2  A    between atoms: C3_3  and  C4_4 
ROOT
HETATM    1  C1  UNL     1     -33.514   6.421   4.813  1.00 20.00     0.162 C 
HETATM    2  C2  UNL     1     -34.196   5.317   5.132  1.00 20.00     0.301 C 
HETATM    3  F5  UNL     1     -33.462   7.417   5.729  1.00 20.00    -0.205 F 
HETATM    4  F6  UNL     1     -34.822   5.214   6.323  1.00 20.00    -0.170 F 
HETATM    5  F7  UNL     1     -34.256   4.293   4.255  1.00 20.00    -0.170 F 
ENDROOT
BRANCH   1   6
HETATM    6  C3  UNL     1     -32.789   6.625   3.516  1.00 20.00     0.086 C 
BRANCH   6   7
HETATM    7  C4  UNL     1     -33.359   7.819   2.751  1.00 20.00     0.086 C 
HETATM    8  I8  UNL     1     -32.294   8.115   0.918  1.00 20.00    -0.090 I 
ENDBRANCH   6   7
ENDBRANCH   1   6
TORSDOF 2
