REMARK  0 active torsions:
REMARK  status: ('A' for Active; 'I' for Inactive)
ROOT
HETATM    1  C1  UNL     1     -34.870   7.445   6.169  1.00 20.00     0.009 C 
HETATM    2  C2  UNL     1     -35.685   5.694   4.562  1.00 20.00     0.009 C 
HETATM    3  C3  UNL     1     -34.529   7.746   3.704  1.00 20.00     0.013 C 
HETATM    4  C4  UNL     1     -32.571   7.267   5.200  1.00 20.00     0.014 C 
HETATM    5  C5  UNL     1     -33.388   5.512   3.590  1.00 20.00     0.014 C 
HETATM    6  C6  UNL     1     -35.485   7.203   4.780  1.00 20.00    -0.013 C 
HETATM    7  C7  UNL     1     -33.517   6.715   6.284  1.00 20.00    -0.009 C 
HETATM    8  C8  UNL     1     -34.335   4.958   4.672  1.00 20.00    -0.009 C 
HETATM    9  C9  UNL     1     -33.759   5.199   6.089  1.00 20.00    -0.010 C 
HETATM   10  C10 UNL     1     -33.161   7.029   3.791  1.00 20.00    -0.043 C 
HETATM   11  C11 UNL     1     -32.512   4.358   6.372  1.00 20.00     0.010 C 
HETATM   12  C12 UNL     1     -32.211   7.570   2.719  1.00 20.00     0.015 C 
ENDROOT
TORSDOF 0
