REMARK  1 active torsions:
REMARK  status: ('A' for Active; 'I' for Inactive)
REMARK    1  A    between atoms: C5_5  and  N7_7 
ROOT
HETATM    1  C1  UNL     1     -33.104   6.383   3.027  1.00 20.00     0.160 C 
HETATM    2  N7  UNL     1     -33.658   5.497   3.557  1.00 20.00    -0.237 NA
HETATM    3  S9  UNL     1     -32.334   7.563   2.285  1.00 20.00    -0.055 SA
ENDROOT
BRANCH   2   4
HETATM    4  C5  UNL     1     -34.555   5.901   4.650  1.00 20.00     0.152 C 
HETATM    5  C3  UNL     1     -34.604   4.771   5.675  1.00 20.00     0.065 C 
HETATM    6  C2  UNL     1     -33.478   5.151   6.607  1.00 20.00     0.031 C 
HETATM    7  C4  UNL     1     -33.604   6.658   6.649  1.00 20.00     0.171 C 
HETATM    8  O8  UNL     1     -34.136   7.070   5.382  1.00 20.00    -0.359 OA
HETATM    9  C6  UNL     1     -35.922   6.181   4.037  1.00 20.00     0.073 C 
ENDBRANCH   2   4
TORSDOF 1
