REMARK  2 active torsions:
REMARK  status: ('A' for Active; 'I' for Inactive)
REMARK    1  A    between atoms: C1_1  and  C5_5 
REMARK    2  A    between atoms: C5_5  and  C7_7 
ROOT
HETATM    1  C2  UNL     1     -33.176   8.646   4.093  1.00 20.00     0.002 C 
HETATM    2  C3  UNL     1     -32.334   7.360   4.047  1.00 20.00     0.020 C 
HETATM    3  C4  UNL     1     -34.435   7.762   4.142  1.00 20.00     0.020 C 
HETATM    4  C5  UNL     1     -33.545   6.587   4.659  1.00 20.00     0.048 C 
ENDROOT
BRANCH   4   5
HETATM    5  C1  UNL     1     -33.840   5.202   4.019  1.00 20.00     0.181 C 
HETATM    6  O8  UNL     1     -34.819   4.577   4.514  1.00 20.00    -0.647 OA
HETATM    7  O9  UNL     1     -33.060   4.876   3.081  1.00 20.00    -0.647 OA
ENDBRANCH   4   5
BRANCH   4   8
HETATM    8  C7  UNL     1     -33.495   6.486   6.185  1.00 20.00     0.016 C 
HETATM    9  C6  UNL     1     -34.788   5.996   6.752  1.00 20.00     0.006 C 
ENDBRANCH   4   8
TORSDOF 2
