REMARK  1 active torsions:
REMARK  status: ('A' for Active; 'I' for Inactive)
REMARK    1  A    between atoms: C3_3  and  C4_4 
ROOT
HETATM    1  C1  UNL     1     -35.049   5.756   6.141  1.00 20.00     0.175 C 
HETATM    2  C2  UNL     1     -33.637   7.127   5.528  1.00 20.00     0.175 C 
HETATM    3  C3  UNL     1     -33.912   5.677   5.115  1.00 20.00     0.047 C 
HETATM    4  O5  UNL     1     -34.565   7.029   6.635  1.00 20.00    -0.390 OA
ENDROOT
BRANCH   3   5
HETATM    5  C4  UNL     1     -34.312   5.444   3.674  1.00 20.00     0.123 C 
HETATM    6 CL6  UNL     1     -32.935   4.826   2.737  1.00 20.00    -0.130 Cl
ENDBRANCH   3   5
TORSDOF 1
