REMARK  0 active torsions:
REMARK  status: ('A' for Active; 'I' for Inactive)
ROOT
HETATM    1  C1  UNL     1     -34.183   6.412   5.608  1.00 20.00    -0.054 C 
HETATM    2  C2  UNL     1     -33.626   6.171   4.405  1.00 20.00     0.091 C 
HETATM    3  C3  UNL     1     -34.124   7.779   6.237  1.00 20.00     0.046 C 
HETATM    4  C4  UNL     1     -34.892   5.381   6.442  1.00 20.00     0.046 C 
HETATM    5  C5  UNL     1     -33.653   4.873   3.663  1.00 20.00     0.082 C 
HETATM    6  F6  UNL     1     -33.000   7.198   3.780  1.00 20.00    -0.211 F 
ENDROOT
TORSDOF 0
