REMARK  2 active torsions:
REMARK  status: ('A' for Active; 'I' for Inactive)
REMARK    1  A    between atoms: C1_1  and  C3_3 
REMARK    2  A    between atoms: C4_4  and  O10_10 
ROOT
HETATM    1  C3  UNL     1     -33.195   6.219   4.573  1.00 20.00     0.048 A 
HETATM    2  C4  UNL     1     -33.821   7.181   5.552  1.00 20.00     0.135 A 
HETATM    3  C5  UNL     1     -34.545   5.899   5.195  1.00 20.00    -0.012 A 
HETATM    4  C8  UNL     1     -34.589   4.773   6.198  1.00 20.00     0.018 C 
HETATM    5  C9  UNL     1     -35.811   6.028   4.384  1.00 20.00     0.018 C 
ENDROOT
BRANCH   1   6
HETATM    6  C1  UNL     1     -33.088   6.606   3.174  1.00 20.00    -0.017 C 
HETATM    7  C2  UNL     1     -32.137   7.367   2.600  1.00 20.00    -0.091 C 
HETATM    8  C6  UNL     1     -32.171   7.677   1.129  1.00 20.00     0.042 C 
HETATM    9  C7  UNL     1     -30.980   7.965   3.349  1.00 20.00     0.042 C 
ENDBRANCH   1   6
BRANCH   2  10
HETATM   10  O10 UNL     1     -33.200   7.248   6.847  1.00 20.00    -0.394 OA
HETATM   11  H26 UNL     1     -32.288   7.526   6.688  1.00 20.00     0.210 HD
ENDBRANCH   2  10
TORSDOF 2
