REMARK  1 active torsions:
REMARK  status: ('A' for Active; 'I' for Inactive)
REMARK    1  A    between atoms: C2_2  and  C4_4 
ROOT
HETATM    1  C1  UNL     1     -33.079   6.536   3.512  1.00 20.00     0.116 C 
HETATM    2  C2  UNL     1     -33.661   6.682   4.715  1.00 20.00     0.151 C 
HETATM    3  C3  UNL     1     -31.957   7.351   2.950  1.00 20.00     0.084 C 
HETATM    4  F5  UNL     1     -33.542   5.549   2.705  1.00 20.00    -0.209 F 
HETATM    5 CL9  UNL     1     -33.160   7.906   5.839  1.00 20.00    -0.076 Cl
ENDROOT
BRANCH   2   6
HETATM    6  C4  UNL     1     -34.782   5.833   5.223  1.00 20.00     0.430 C 
HETATM    7  F6  UNL     1     -35.171   6.208   6.470  1.00 20.00    -0.165 F 
HETATM    8  F7  UNL     1     -35.894   5.881   4.446  1.00 20.00    -0.165 F 
HETATM    9  F8  UNL     1     -34.426   4.524   5.302  1.00 20.00    -0.165 F 
ENDBRANCH   2   6
TORSDOF 1
