REMARK  1 active torsions:
REMARK  status: ('A' for Active; 'I' for Inactive)
REMARK    1  A    between atoms: C2_2  and  C3_3 
ROOT
HETATM    1  C3  UNL     1     -34.193   5.671   4.538  1.00 20.00     0.351 C 
HETATM    2  F5  UNL     1     -34.259   4.335   4.292  1.00 20.00    -0.185 F 
HETATM    3  F6  UNL     1     -35.431   6.169   4.279  1.00 20.00    -0.185 F 
HETATM    4 BR7  UNL     1     -33.763   5.955   6.415  1.00 20.00    -0.003 Br
ENDROOT
BRANCH   1   5
HETATM    5  C2  UNL     1     -33.162   6.359   3.711  1.00 20.00     0.167 C 
HETATM    6  C1  UNL     1     -32.378   5.746   2.818  1.00 20.00     0.059 C 
HETATM    7  F4  UNL     1     -33.030   7.700   3.845  1.00 20.00    -0.204 F 
ENDBRANCH   1   5
TORSDOF 1
