REMARK  1 active torsions:
REMARK  status: ('A' for Active; 'I' for Inactive)
REMARK    1  A    between atoms: C1_1  and  C3_3 
ROOT
HETATM    1  C1  UNL     1     -33.652   5.919   4.313  1.00 20.00     0.249 C 
HETATM    2  C2  UNL     1     -32.981   6.369   3.246  1.00 20.00     0.229 C 
HETATM    3  F4  UNL     1     -33.854   4.585   4.435  1.00 20.00    -0.197 F 
HETATM    4  F5  UNL     1     -32.521   5.501   2.319  1.00 20.00    -0.189 F 
HETATM    5 CL9  UNL     1     -32.681   8.052   3.014  1.00 20.00    -0.049 Cl
ENDROOT
BRANCH   1   6
HETATM    6  C3  UNL     1     -34.203   6.781   5.394  1.00 20.00     0.448 C 
HETATM    7  F6  UNL     1     -34.832   6.041   6.342  1.00 20.00    -0.164 F 
HETATM    8  F7  UNL     1     -33.264   7.521   6.036  1.00 20.00    -0.164 F 
HETATM    9  F8  UNL     1     -35.121   7.654   4.907  1.00 20.00    -0.164 F 
ENDBRANCH   1   6
TORSDOF 1
