REMARK  0 active torsions:
REMARK  status: ('A' for Active; 'I' for Inactive)
ROOT
HETATM    1  C1  UNL     1     -34.350   4.705   5.203  1.00 20.00     0.238 C 
HETATM    2  C2  UNL     1     -34.271   5.927   5.727  1.00 20.00     0.189 C 
HETATM    3  F3  UNL     1     -33.743   4.396   4.042  1.00 20.00    -0.216 F 
HETATM    4  F4  UNL     1     -34.904   6.172   6.895  1.00 20.00    -0.196 F 
HETATM    5 BR5  UNL     1     -33.328   7.312   4.921  1.00 20.00    -0.015 Br
ENDROOT
TORSDOF 0
