REMARK  0 active torsions:
REMARK  status: ('A' for Active; 'I' for Inactive)
ROOT
HETATM    1  C1  UNL     1     -33.031   6.999   3.852  1.00 20.00     0.145 C 
HETATM    2  C2  UNL     1     -33.959   6.686   4.748  1.00 20.00    -0.034 C 
HETATM    3  C3  UNL     1     -34.199   7.005   6.170  1.00 20.00     0.038 C 
HETATM    4  C4  UNL     1     -34.657   5.630   6.695  1.00 20.00     0.007 C 
HETATM    5  C5  UNL     1     -34.331   4.603   5.588  1.00 20.00     0.034 C 
HETATM    6  C6  UNL     1     -34.532   5.398   4.315  1.00 20.00     0.161 C 
HETATM    7  N7  UNL     1     -32.918   6.026   2.888  1.00 20.00    -0.167 NA
HETATM    8  N8  UNL     1     -33.670   5.040   3.171  1.00 20.00    -0.183 NA
ENDROOT
TORSDOF 0
