REMARK  0 active torsions:
REMARK  status: ('A' for Active; 'I' for Inactive)
ROOT
HETATM    1  C1  UNL     1     -33.075   5.116   3.058  1.00 20.00     0.009 C 
HETATM    2  C2  UNL     1     -32.419   6.440   2.661  1.00 20.00     0.035 C 
HETATM    3  C3  UNL     1     -33.096   4.940   4.575  1.00 20.00     0.082 C 
HETATM    4  C4  UNL     1     -32.947   7.600   3.447  1.00 20.00     0.157 A 
HETATM    5  C5  UNL     1     -33.671   7.393   4.752  1.00 20.00     0.223 A 
HETATM    6  C6  UNL     1     -33.952   6.014   5.231  1.00 20.00     0.271 C 
HETATM    7  O7  UNL     1     -32.294   7.772   4.721  1.00 20.00    -0.369 OA
HETATM    8  F8  UNL     1     -35.262   5.736   4.992  1.00 20.00    -0.203 F 
HETATM    9  F9  UNL     1     -33.790   5.960   6.577  1.00 20.00    -0.203 F 
ENDROOT
TORSDOF 0
