REMARK  1 active torsions:
REMARK  status: ('A' for Active; 'I' for Inactive)
REMARK    1  A    between atoms: C6_6  and  C8_8 
ROOT
HETATM    1  C1  UNL     1     -34.596   4.915   6.015  1.00 20.00     0.000 C 
HETATM    2  C2  UNL     1     -34.626   4.746   4.500  1.00 20.00     0.001 C 
HETATM    3  C3  UNL     1     -34.608   6.384   6.424  1.00 20.00     0.001 C 
HETATM    4  C4  UNL     1     -33.501   5.527   3.822  1.00 20.00     0.010 C 
HETATM    5  C5  UNL     1     -33.482   7.167   5.749  1.00 20.00     0.010 C 
HETATM    6  C6  UNL     1     -33.470   7.023   4.210  1.00 20.00    -0.032 C 
HETATM    7  C7  UNL     1     -34.667   7.768   3.588  1.00 20.00     0.016 C 
ENDROOT
BRANCH   6   8
HETATM    8  C8  UNL     1     -32.179   7.656   3.658  1.00 20.00     0.123 C 
HETATM    9 CL9  UNL     1     -32.139   7.490   1.899  1.00 20.00    -0.130 Cl
ENDBRANCH   6   8
TORSDOF 1
