REMARK  1 active torsions:
REMARK  status: ('A' for Active; 'I' for Inactive)
REMARK    1  A    between atoms: C5_5  and  C6_6 
ROOT
HETATM    1  C1  UNL     1     -33.480   5.589   3.938  1.00 20.00     0.015 C 
HETATM    2  C2  UNL     1     -32.881   7.426   5.597  1.00 20.00     0.015 C 
HETATM    3  C3  UNL     1     -34.782   5.233   4.645  1.00 20.00     0.074 C 
HETATM    4  C4  UNL     1     -34.135   7.218   6.437  1.00 20.00     0.074 C 
HETATM    5  C5  UNL     1     -33.075   7.059   4.118  1.00 20.00    -0.003 C 
HETATM    6  S7  UNL     1     -34.668   5.484   6.438  1.00 20.00    -0.169 SA
ENDROOT
BRANCH   5   7
HETATM    7  C6  UNL     1     -31.795   7.352   3.332  1.00 20.00     0.089 C 
HETATM    8 BR8  UNL     1     -32.230   7.573   1.456  1.00 20.00    -0.096 Br
ENDBRANCH   5   7
TORSDOF 1
