REMARK  1 active torsions:
REMARK  status: ('A' for Active; 'I' for Inactive)
REMARK    1  A    between atoms: C1_1  and  C3_3 
ROOT
HETATM    1  C1  UNL     1     -33.413   7.053   4.748  1.00 20.00     0.143 C 
HETATM    2  C2  UNL     1     -33.033   6.568   3.560  1.00 20.00     0.190 C 
HETATM    3  F4  UNL     1     -33.417   5.331   3.176  1.00 20.00    -0.193 F 
HETATM    4 CL8  UNL     1     -32.052   7.499   2.491  1.00 20.00    -0.051 Cl
ENDROOT
BRANCH   1   5
HETATM    5  C3  UNL     1     -34.257   6.330   5.738  1.00 20.00     0.411 C 
HETATM    6  F5  UNL     1     -34.501   7.040   6.868  1.00 20.00    -0.167 F 
HETATM    7  F6  UNL     1     -33.674   5.167   6.126  1.00 20.00    -0.167 F 
HETATM    8  F7  UNL     1     -35.465   6.005   5.212  1.00 20.00    -0.167 F 
ENDBRANCH   1   5
TORSDOF 1
