REMARK  2 active torsions:
REMARK  status: ('A' for Active; 'I' for Inactive)
REMARK    1  A    between atoms: C1_1  and  C4_4 
REMARK    2  A    between atoms: C4_4  and  C5_5 
ROOT
HETATM    1  C2  UNL     1     -34.485   5.266   4.163  1.00 20.00     0.020 A 
HETATM    2  C3  UNL     1     -35.414   6.430   4.324  1.00 20.00     0.020 A 
HETATM    3  C4  UNL     1     -33.956   6.576   4.709  1.00 20.00     0.039 A 
ENDROOT
BRANCH   3   4
HETATM    4  C1  UNL     1     -33.101   7.384   3.807  1.00 20.00     0.243 C 
HETATM    5  O6  UNL     1     -32.042   6.980   3.337  1.00 20.00    -0.306 OA
ENDBRANCH   3   4
BRANCH   3   6
HETATM    6  C5  UNL     1     -33.638   6.625   6.182  1.00 20.00     0.238 C 
HETATM    7  F7  UNL     1     -34.530   5.848   6.852  1.00 20.00    -0.254 F 
ENDBRANCH   3   6
TORSDOF 2
