REMARK  1 active torsions:
REMARK  status: ('A' for Active; 'I' for Inactive)
REMARK    1  A    between atoms: C6_6  and  C7_7 
ROOT
HETATM    1  C1  UNL     1     -34.672   6.099   6.962  1.00 20.00     0.005 C 
HETATM    2  C2  UNL     1     -33.666   7.145   6.470  1.00 20.00     0.011 C 
HETATM    3  C3  UNL     1     -34.975   6.367   4.549  1.00 20.00     0.015 C 
HETATM    4  C4  UNL     1     -33.395   5.116   5.121  1.00 20.00     0.015 C 
HETATM    5  C5  UNL     1     -34.843   5.295   5.676  1.00 20.00    -0.013 C 
HETATM    6  C6  UNL     1     -33.513   6.674   5.018  1.00 20.00    -0.031 C 
ENDROOT
BRANCH   6   7
HETATM    7  C7  UNL     1     -32.576   7.460   4.149  1.00 20.00     0.094 C 
HETATM    8 BR8  UNL     1     -32.490   6.672   2.369  1.00 20.00    -0.096 Br
ENDBRANCH   6   7
TORSDOF 1
