REMARK  3 active torsions:
REMARK  status: ('A' for Active; 'I' for Inactive)
REMARK    1  A    between atoms: C3_3  and  C5_5 
REMARK    2  A    between atoms: C5_5  and  C6_6 
REMARK    3  A    between atoms: C6_6  and  S9_9 
ROOT
HETATM    1  C1  UNL     1     -35.176   6.221   4.804  1.00 20.00     0.179 C 
HETATM    2  C2  UNL     1     -34.776   6.506   6.240  1.00 20.00     0.103 C 
HETATM    3  C3  UNL     1     -32.913   6.615   4.424  1.00 20.00     0.183 C 
HETATM    4  O7  UNL     1     -34.019   5.762   4.095  1.00 20.00    -0.375 OA
HETATM    5  S8  UNL     1     -33.197   7.350   6.056  1.00 20.00    -0.135 SA
ENDROOT
BRANCH   3   6
HETATM    6  C5  UNL     1     -32.763   7.694   3.362  1.00 20.00     0.057 C 
BRANCH   6   7
HETATM    7  C6  UNL     1     -32.064   7.214   2.082  1.00 20.00     0.043 C 
HETATM    8  C4  UNL     1     -32.522   5.805   1.709  1.00 20.00     0.021 C 
BRANCH   7   9
HETATM    9  S9  UNL     1     -32.389   8.327   0.669  1.00 20.00    -0.178 SA
HETATM   10  H21 UNL     1     -31.613   7.665  -0.198  1.00 20.00     0.102 HD
ENDBRANCH   7   9
ENDBRANCH   6   7
ENDBRANCH   3   6
TORSDOF 3
