REMARK  1 active torsions:
REMARK  status: ('A' for Active; 'I' for Inactive)
REMARK    1  A    between atoms: C2_2  and  C3_3 
ROOT
HETATM    1  C1  UNL     1     -34.411   5.463   5.196  1.00 20.00     0.018 C 
HETATM    2  C2  UNL     1     -33.548   6.427   4.852  1.00 20.00     0.188 C 
HETATM    3  C4  UNL     1     -35.128   5.410   6.506  1.00 20.00     0.039 C 
HETATM    4  F7  UNL     1     -33.294   7.426   5.730  1.00 20.00    -0.199 F 
ENDROOT
BRANCH   2   5
HETATM    5  C3  UNL     1     -32.828   6.449   3.494  1.00 20.00     0.238 C 
HETATM    6  O5  UNL     1     -33.124   5.479   2.737  1.00 20.00    -0.642 OA
HETATM    7  O6  UNL     1     -32.037   7.410   3.283  1.00 20.00    -0.642 OA
ENDBRANCH   2   5
TORSDOF 1
