REMARK  1 active torsions:
REMARK  status: ('A' for Active; 'I' for Inactive)
REMARK    1  A    between atoms: C3_3  and  C4_4 
ROOT
HETATM    1  C1  UNL     1     -32.818   5.620   2.376  1.00 20.00     0.149 A 
HETATM    2  C2  UNL     1     -32.508   6.909   2.757  1.00 20.00     0.093 A 
HETATM    3  C3  UNL     1     -33.889   5.664   4.289  1.00 20.00     0.089 A 
HETATM    4  N5  UNL     1     -33.609   4.905   3.253  1.00 20.00    -0.255 NA
HETATM    5  S6  UNL     1     -33.234   7.250   4.273  1.00 20.00    -0.060 SA
HETATM    6 CL7  UNL     1     -31.567   8.076   1.941  1.00 20.00    -0.075 Cl
ENDROOT
BRANCH   3   7
HETATM    7  C4  UNL     1     -34.717   5.240   5.439  1.00 20.00     0.181 C 
HETATM    8 CL8  UNL     1     -34.525   6.358   6.814  1.00 20.00    -0.123 Cl
ENDBRANCH   3   7
TORSDOF 1
