REMARK  0 active torsions:
REMARK  status: ('A' for Active; 'I' for Inactive)
ROOT
HETATM    1  C1  UNL     1     -32.863   7.494   3.256  1.00 20.00     0.052 A 
HETATM    2  C2  UNL     1     -33.282   4.820   2.937  1.00 20.00     0.126 A 
HETATM    3  C3  UNL     1     -33.421   6.768   4.312  1.00 20.00    -0.047 A 
HETATM    4  C4  UNL     1     -33.656   5.396   4.148  1.00 20.00    -0.034 A 
HETATM    5  C5  UNL     1     -32.539   6.819   2.090  1.00 20.00     0.126 A 
HETATM    6  C6  UNL     1     -33.813   7.486   5.579  1.00 20.00     0.039 C 
HETATM    7  C7  UNL     1     -34.230   4.546   5.247  1.00 20.00     0.040 C 
HETATM    8  C8  UNL     1     -34.045   6.540   6.757  1.00 20.00     0.005 C 
HETATM    9  C9  UNL     1     -34.920   5.365   6.337  1.00 20.00     0.005 C 
HETATM   10  N10 UNL     1     -32.732   5.497   1.904  1.00 20.00    -0.248 NA
HETATM   11 CL11 UNL     1     -31.848   7.642   0.753  1.00 20.00    -0.062 Cl
ENDROOT
TORSDOF 0
