REMARK  2 active torsions:
REMARK  status: ('A' for Active; 'I' for Inactive)
REMARK    1  A    between atoms: C5_5  and  C6_6 
REMARK    2  A    between atoms: C6_6  and  C7_7 
ROOT
HETATM    1  C1  UNL     1     -33.716   8.013   5.997  1.00 20.00     0.012 C 
HETATM    2  C6  UNL     1     -33.375   6.824   5.078  1.00 20.00     0.002 C 
ENDROOT
BRANCH   2   3
HETATM    3  C5  UNL     1     -33.111   7.328   3.642  1.00 20.00     0.119 C 
HETATM    4 CL8  UNL     1     -32.137   6.173   2.687  1.00 20.00    -0.130 Cl
ENDBRANCH   2   3
BRANCH   2   5
HETATM    5  C7  UNL     1     -34.457   5.676   5.125  1.00 20.00    -0.047 C 
HETATM    6  C2  UNL     1     -34.643   5.173   6.575  1.00 20.00     0.015 C 
HETATM    7  C3  UNL     1     -34.001   4.463   4.284  1.00 20.00     0.015 C 
HETATM    8  C4  UNL     1     -35.828   6.140   4.598  1.00 20.00     0.015 C 
ENDBRANCH   2   5
TORSDOF 2
