REMARK  2 active torsions:
REMARK  status: ('A' for Active; 'I' for Inactive)
REMARK    1  A    between atoms: C3_3  and  C4_4 
REMARK    2  A    between atoms: C3_3  and  C5_5 
ROOT
HETATM    1  C3  UNL     1     -33.216   5.517   4.574  1.00 20.00     0.157 C 
ENDROOT
BRANCH   1   2
HETATM    2  C4  UNL     1     -32.922   6.281   3.286  1.00 20.00     0.245 C 
HETATM    3  C1  UNL     1     -31.889   7.372   3.477  1.00 20.00     0.090 C 
HETATM    4  F6  UNL     1     -34.063   6.840   2.811  1.00 20.00    -0.207 F 
HETATM    5  F7  UNL     1     -32.479   5.423   2.333  1.00 20.00    -0.207 F 
ENDBRANCH   1   2
BRANCH   1   6
HETATM    6  C5  UNL     1     -34.193   6.261   5.479  1.00 20.00     0.245 C 
HETATM    7  C2  UNL     1     -34.143   5.779   6.915  1.00 20.00     0.090 C 
HETATM    8  F8  UNL     1     -33.920   7.590   5.458  1.00 20.00    -0.207 F 
HETATM    9  F9  UNL     1     -35.458   6.112   5.014  1.00 20.00    -0.207 F 
ENDBRANCH   1   6
TORSDOF 2
