REMARK  1 active torsions:
REMARK  status: ('A' for Active; 'I' for Inactive)
REMARK    1  A    between atoms: C4_4  and  C10_10 
ROOT
HETATM    1  C1  UNL     1     -32.573   7.757   2.917  1.00 20.00    -0.004 C 
HETATM    2  C2  UNL     1     -33.269   7.466   4.145  1.00 20.00     0.003 C 
HETATM    3  C3  UNL     1     -32.238   6.787   2.057  1.00 20.00    -0.026 C 
HETATM    4  C4  UNL     1     -33.757   6.243   4.410  1.00 20.00    -0.072 C 
HETATM    5  C5  UNL     1     -32.573   5.345   2.304  1.00 20.00     0.031 C 
HETATM    6  C6  UNL     1     -33.590   5.101   3.435  1.00 20.00     0.038 C 
ENDROOT
BRANCH   4   7
HETATM    7  C10 UNL     1     -34.513   5.941   5.669  1.00 20.00    -0.028 C 
HETATM    8  C7  UNL     1     -33.789   4.828   6.442  1.00 20.00     0.019 C 
HETATM    9  C8  UNL     1     -35.938   5.478   5.323  1.00 20.00     0.019 C 
HETATM   10  C9  UNL     1     -34.593   7.203   6.544  1.00 20.00     0.019 C 
ENDBRANCH   4   7
TORSDOF 1
