REMARK  2 active torsions:
REMARK  status: ('A' for Active; 'I' for Inactive)
REMARK    1  A    between atoms: C2_2  and  C3_3 
REMARK    2  A    between atoms: C3_3  and  C7_7 
ROOT
HETATM    1  C3  UNL     1     -33.274   5.750   3.770  1.00 20.00     0.255 C 
HETATM    2  O8  UNL     1     -33.147   4.678   3.185  1.00 20.00    -0.283 OA
ENDROOT
BRANCH   1   3
HETATM    3  C2  UNL     1     -32.408   6.923   3.472  1.00 20.00     0.062 C 
HETATM    4  C1  UNL     1     -32.373   7.457   2.251  1.00 20.00    -0.076 C 
HETATM    5  C4  UNL     1     -31.615   8.621   1.651  1.00 20.00     0.034 C 
HETATM    6  C5  UNL     1     -33.084   7.130   0.957  1.00 20.00     0.034 C 
HETATM    7  C6  UNL     1     -31.947   7.944   0.304  1.00 20.00     0.009 C 
ENDBRANCH   1   3
BRANCH   1   8
HETATM    8  C7  UNL     1     -34.317   5.951   4.830  1.00 20.00     0.455 C 
HETATM    9  F9  UNL     1     -34.283   7.206   5.344  1.00 20.00    -0.163 F 
HETATM   10  F10 UNL     1     -35.572   5.755   4.350  1.00 20.00    -0.163 F 
HETATM   11  F11 UNL     1     -34.158   5.096   5.871  1.00 20.00    -0.163 F 
ENDBRANCH   1   8
TORSDOF 2
