REMARK  2 active torsions:
REMARK  status: ('A' for Active; 'I' for Inactive)
REMARK    1  A    between atoms: C3_3  and  O10_10 
REMARK    2  A    between atoms: C8_8  and  O10_10 
ROOT
HETATM    1  C1  UNL     1     -33.821   4.447   4.258  1.00 20.00     0.069 C 
HETATM    2  C2  UNL     1     -34.623   5.105   5.405  1.00 20.00     0.173 C 
HETATM    3  C3  UNL     1     -33.063   5.777   4.039  1.00 20.00     0.134 C 
HETATM    4  C4  UNL     1     -34.194   6.507   4.842  1.00 20.00     0.008 C 
HETATM    5  C5  UNL     1     -33.652   7.577   5.794  1.00 20.00     0.020 C 
HETATM    6  C6  UNL     1     -35.305   7.107   3.965  1.00 20.00     0.020 C 
HETATM    7  O9  UNL     1     -34.103   4.784   6.674  1.00 20.00    -0.234 OA
ENDROOT
BRANCH   3   8
HETATM    8  O10 UNL     1     -32.876   6.185   2.672  1.00 20.00    -0.385 OA
BRANCH   8   9
HETATM    9  C8  UNL     1     -32.173   7.411   2.605  1.00 20.00     0.163 C 
HETATM   10  C7  UNL     1     -32.000   7.801   1.152  1.00 20.00     0.033 C 
ENDBRANCH   8   9
ENDBRANCH   3   8
TORSDOF 2
