REMARK  1 active torsions:
REMARK  status: ('A' for Active; 'I' for Inactive)
REMARK    1  A    between atoms: C4_4  and  C9_9 
ROOT
HETATM    1  C1  UNL     1     -31.464   8.173   1.795  1.00 20.00     0.017 C 
HETATM    2  C2  UNL     1     -32.267   7.487   2.365  1.00 20.00    -0.089 C 
HETATM    3  C3  UNL     1     -33.226   6.663   3.022  1.00 20.00     0.066 C 
HETATM    4  C4  UNL     1     -33.490   6.700   4.345  1.00 20.00    -0.068 C 
HETATM    5  C5  UNL     1     -32.751   7.646   5.274  1.00 20.00     0.044 C 
ENDROOT
BRANCH   4   6
HETATM    6  C9  UNL     1     -34.556   5.788   5.013  1.00 20.00    -0.028 C 
HETATM    7  C6  UNL     1     -34.624   6.063   6.531  1.00 20.00     0.019 C 
HETATM    8  C7  UNL     1     -35.988   5.988   4.461  1.00 20.00     0.019 C 
HETATM    9  C8  UNL     1     -34.188   4.307   4.789  1.00 20.00     0.019 C 
ENDBRANCH   4   6
TORSDOF 1
