REMARK  1 active torsions:
REMARK  status: ('A' for Active; 'I' for Inactive)
REMARK    1  A    between atoms: C3_3  and  C5_5 
ROOT
HETATM    1  C1  UNL     1     -34.265   7.226   3.878  1.00 20.00     0.055 A 
HETATM    2  C2  UNL     1     -34.940   6.481   4.748  1.00 20.00     0.085 A 
HETATM    3  C3  UNL     1     -32.806   7.088   4.123  1.00 20.00     0.273 A 
HETATM    4  C4  UNL     1     -33.990   5.783   5.637  1.00 20.00     0.378 A 
HETATM    5  O6  UNL     1     -32.671   6.142   5.200  1.00 20.00    -0.273 OA
HETATM    6  F7  UNL     1     -32.269   8.262   4.549  1.00 20.00    -0.202 F 
HETATM    7  F8  UNL     1     -34.121   6.146   6.935  1.00 20.00    -0.171 F 
HETATM    8  F9  UNL     1     -34.105   4.435   5.572  1.00 20.00    -0.171 F 
ENDROOT
BRANCH   3   9
HETATM    9  C5  UNL     1     -32.024   6.598   2.919  1.00 20.00     0.337 C 
HETATM   10  F10 UNL     1     -32.487   5.369   2.571  1.00 20.00    -0.226 F 
HETATM   11 CL11 UNL     1     -32.222   7.705   1.549  1.00 20.00    -0.083 Cl
ENDBRANCH   3   9
TORSDOF 1
