REMARK  3 active torsions:
REMARK  status: ('A' for Active; 'I' for Inactive)
REMARK    1  A    between atoms: C5_5  and  C6_6 
REMARK    2  A    between atoms: C6_6  and  C7_7 
REMARK    3  A    between atoms: C7_7  and  C8_8 
ROOT
HETATM    1  C1  UNL     1     -34.097   5.855   6.782  1.00 20.00     0.004 C 
HETATM    2  C2  UNL     1     -34.611   4.702   5.931  1.00 20.00     0.026 C 
HETATM    3  C3  UNL     1     -34.408   7.189   6.112  1.00 20.00     0.032 C 
HETATM    4  C4  UNL     1     -34.114   4.822   4.498  1.00 20.00     0.168 C 
HETATM    5  C5  UNL     1     -33.962   7.219   4.647  1.00 20.00     0.121 C 
HETATM    6  O9  UNL     1     -34.462   6.084   3.932  1.00 20.00    -0.386 OA
ENDROOT
BRANCH   5   7
HETATM    7  C6  UNL     1     -32.451   7.364   4.480  1.00 20.00     0.033 C 
BRANCH   7   8
HETATM    8  C7  UNL     1     -32.056   7.428   3.005  1.00 20.00     0.017 C 
BRANCH   8   9
HETATM    9  C8  UNL     1     -32.740   8.595   2.307  1.00 20.00     0.115 C 
HETATM   10 CL10 UNL     1     -32.257   8.665   0.596  1.00 20.00    -0.130 Cl
ENDBRANCH   8   9
ENDBRANCH   7   8
ENDBRANCH   5   7
TORSDOF 3
