REMARK  1 active torsions:
REMARK  status: ('A' for Active; 'I' for Inactive)
REMARK    1  A    between atoms: C4_4  and  C9_9 
ROOT
HETATM    1  C5  UNL     1     -33.451   5.469   3.641  1.00 20.00     0.135 C 
HETATM    2  C6  UNL     1     -34.528   4.985   4.580  1.00 20.00     0.079 C 
HETATM    3  C7  UNL     1     -34.360   5.927   5.765  1.00 20.00     0.008 C 
HETATM    4  C8  UNL     1     -33.879   7.235   5.149  1.00 20.00     0.017 C 
HETATM    5  C9  UNL     1     -32.868   6.796   4.082  1.00 20.00     0.090 C 
HETATM    6  O10 UNL     1     -33.099   4.853   2.642  1.00 20.00    -0.297 OA
ENDROOT
BRANCH   5   7
HETATM    7  C4  UNL     1     -32.678   7.794   2.971  1.00 20.00    -0.023 A 
HETATM    8  C1  UNL     1     -32.749   9.204   3.071  1.00 20.00     0.034 A 
HETATM    9  C2  UNL     1     -32.509   9.689   1.806  1.00 20.00     0.142 A 
HETATM   10  O11 UNL     1     -32.297   8.667   0.935  1.00 20.00    -0.334 OA
HETATM   11  C3  UNL     1     -32.401   7.518   1.652  1.00 20.00     0.149 A 
ENDBRANCH   5   7
TORSDOF 1
