REMARK  4 active torsions:
REMARK  status: ('A' for Active; 'I' for Inactive)
REMARK    1  A    between atoms: C5_5  and  C8_8 
REMARK    2  A    between atoms: C7_7  and  N10_10 
REMARK    3  A    between atoms: C8_8  and  N10_10 
REMARK    4  A    between atoms: C9_9  and  N10_10 
ROOT
HETATM    1  C1  UNL     1     -32.349   7.937   0.227  1.00 20.00     0.013 C 
HETATM    2  C2  UNL     1     -32.116   7.659   1.372  1.00 20.00    -0.087 C 
HETATM    3  C7  UNL     1     -31.826   7.320   2.767  1.00 20.00     0.364 C 
ENDROOT
BRANCH   3   4
HETATM    4  N10 UNL     1     -33.052   6.954   3.475  1.00 20.00     0.099 N 
BRANCH   4   5
HETATM    5  C8  UNL     1     -32.757   6.617   4.867  1.00 20.00     0.278 C 
BRANCH   5   6
HETATM    6  C5  UNL     1     -33.981   6.712   5.714  1.00 20.00     0.014 A 
HETATM    7  C3  UNL     1     -34.990   5.597   5.715  1.00 20.00     0.007 A 
HETATM    8  C4  UNL     1     -34.132   5.835   6.926  1.00 20.00     0.007 A 
ENDBRANCH   5   6
ENDBRANCH   4   5
BRANCH   4   9
HETATM    9  C9  UNL     1     -33.713   5.834   2.807  1.00 20.00     0.269 C 
HETATM   10  C6  UNL     1     -32.828   4.635   2.763  1.00 20.00     0.037 C 
ENDBRANCH   4   9
ENDBRANCH   3   4
TORSDOF 4
