REMARK  1 active torsions:
REMARK  status: ('A' for Active; 'I' for Inactive)
REMARK    1  A    between atoms: C4_4  and  C8_8 
ROOT
HETATM    1  C5  UNL     1     -35.357   5.413   5.967  1.00 20.00     0.002 C 
HETATM    2  C6  UNL     1     -35.013   5.810   4.529  1.00 20.00     0.011 C 
HETATM    3  C7  UNL     1     -34.162   5.826   6.824  1.00 20.00     0.021 C 
HETATM    4  C8  UNL     1     -33.527   6.210   4.551  1.00 20.00     0.039 C 
HETATM    5  C9  UNL     1     -33.364   6.804   5.965  1.00 20.00     0.090 C 
HETATM    6 CL11 UNL     1     -34.063   8.448   6.104  1.00 20.00    -0.124 Cl
ENDROOT
BRANCH   4   7
HETATM    7  C4  UNL     1     -33.013   7.052   3.401  1.00 20.00    -0.028 A 
HETATM    8  C1  UNL     1     -32.979   8.465   3.329  1.00 20.00     0.034 A 
HETATM    9  C2  UNL     1     -32.433   8.771   2.104  1.00 20.00     0.142 A 
HETATM   10  O10 UNL     1     -32.128   7.637   1.420  1.00 20.00    -0.334 OA
HETATM   11  C3  UNL     1     -32.484   6.595   2.216  1.00 20.00     0.148 A 
ENDBRANCH   4   7
TORSDOF 1
