REMARK  2 active torsions:
REMARK  status: ('A' for Active; 'I' for Inactive)
REMARK    1  A    between atoms: C5_5  and  C6_6 
REMARK    2  A    between atoms: C6_6  and  C7_7 
ROOT
HETATM    1  C1  UNL     1     -33.224   5.298   2.935  1.00 20.00     0.031 C 
HETATM    2  C2  UNL     1     -33.991   7.197   4.384  1.00 20.00     0.031 C 
HETATM    3  C3  UNL     1     -33.857   4.358   3.954  1.00 20.00     0.168 C 
HETATM    4  C4  UNL     1     -34.582   6.151   5.322  1.00 20.00     0.168 C 
HETATM    5  C5  UNL     1     -32.810   6.616   3.600  1.00 20.00    -0.010 C 
HETATM    6  O8  UNL     1     -34.967   4.983   4.598  1.00 20.00    -0.391 OA
ENDROOT
BRANCH   5   7
HETATM    7  C6  UNL     1     -32.291   7.614   2.568  1.00 20.00     0.020 C 
BRANCH   7   8
HETATM    8  C7  UNL     1     -33.289   7.903   1.455  1.00 20.00     0.115 C 
HETATM    9 CL9  UNL     1     -32.641   9.047   0.257  1.00 20.00    -0.130 Cl
ENDBRANCH   7   8
ENDBRANCH   5   7
TORSDOF 2
