REMARK  1 active torsions:
REMARK  status: ('A' for Active; 'I' for Inactive)
REMARK    1  A    between atoms: C4_4  and  C8_8 
ROOT
HETATM    1  C5  UNL     1     -34.447   6.448   6.950  1.00 20.00     0.002 C 
HETATM    2  C6  UNL     1     -33.594   7.113   5.867  1.00 20.00     0.011 C 
HETATM    3  C7  UNL     1     -34.887   5.099   6.383  1.00 20.00     0.021 C 
HETATM    4  C8  UNL     1     -33.353   6.028   4.801  1.00 20.00     0.039 C 
HETATM    5  C9  UNL     1     -34.649   5.194   4.879  1.00 20.00     0.090 C 
HETATM    6 CL11 UNL     1     -36.037   6.007   4.090  1.00 20.00    -0.124 Cl
ENDROOT
BRANCH   4   7
HETATM    7  C4  UNL     1     -32.925   6.486   3.423  1.00 20.00    -0.028 A 
HETATM    8  C1  UNL     1     -32.725   7.819   2.992  1.00 20.00     0.034 A 
HETATM    9  C2  UNL     1     -32.344   7.742   1.673  1.00 20.00     0.142 A 
HETATM   10  O10 UNL     1     -32.299   6.446   1.265  1.00 20.00    -0.334 OA
HETATM   11  C3  UNL     1     -32.654   5.689   2.335  1.00 20.00     0.148 A 
ENDBRANCH   4   7
TORSDOF 1
