REMARK  1 active torsions:
REMARK  status: ('A' for Active; 'I' for Inactive)
REMARK    1  A    between atoms: C4_4  and  C9_9 
ROOT
HETATM    1  C5  UNL     1     -32.439   6.626   2.578  1.00 20.00     0.135 C 
HETATM    2  C6  UNL     1     -32.110   7.636   1.508  1.00 20.00     0.079 C 
HETATM    3  C7  UNL     1     -31.372   8.708   2.300  1.00 20.00     0.008 C 
HETATM    4  C8  UNL     1     -32.012   8.669   3.682  1.00 20.00     0.017 C 
HETATM    5  C9  UNL     1     -32.193   7.173   3.969  1.00 20.00     0.090 C 
HETATM    6  O10 UNL     1     -32.858   5.500   2.337  1.00 20.00    -0.297 OA
ENDROOT
BRANCH   5   7
HETATM    7  C4  UNL     1     -33.284   6.868   4.961  1.00 20.00    -0.023 A 
HETATM    8  C1  UNL     1     -33.678   7.660   6.065  1.00 20.00     0.034 A 
HETATM    9  C2  UNL     1     -34.707   6.981   6.675  1.00 20.00     0.142 A 
HETATM   10  O11 UNL     1     -34.970   5.821   6.017  1.00 20.00    -0.334 OA
HETATM   11  C3  UNL     1     -34.100   5.760   4.975  1.00 20.00     0.149 A 
ENDBRANCH   5   7
TORSDOF 1
