REMARK  4 active torsions:
REMARK  status: ('A' for Active; 'I' for Inactive)
REMARK    1  A    between atoms: C1_1  and  C2_2 
REMARK    2  A    between atoms: C1_1  and  N9_9 
REMARK    3  A    between atoms: C7_7  and  C8_8 
REMARK    4  A    between atoms: C8_8  and  N9_9 
ROOT
HETATM    1  C4  UNL     1     -35.407   6.523   3.837  1.00 20.00     0.038 C 
HETATM    2  C5  UNL     1     -33.912   4.520   3.877  1.00 20.00     0.038 C 
HETATM    3  C8  UNL     1     -34.032   5.997   4.279  1.00 20.00     0.024 C 
ENDROOT
BRANCH   3   4
HETATM    4  C7  UNL     1     -33.898   6.181   5.810  1.00 20.00     0.026 C 
HETATM    5  C3  UNL     1     -34.945   5.449   6.641  1.00 20.00     0.007 C 
ENDBRANCH   3   4
BRANCH   3   6
HETATM    6  N9  UNL     1     -33.008   6.765   3.592  1.00 20.00    -0.383 N 
HETATM    7  C6  UNL     1     -32.237   7.694   4.411  1.00 20.00     0.150 C 
BRANCH   6   8
HETATM    8  C1  UNL     1     -32.926   6.791   2.227  1.00 20.00     0.127 C 
BRANCH   8   9
HETATM    9  C2  UNL     1     -32.185   7.606   1.457  1.00 20.00     0.275 C 
HETATM   10  O10 UNL     1     -32.057   7.691   0.207  1.00 20.00    -0.301 OA
ENDBRANCH   8   9
ENDBRANCH   6   8
ENDBRANCH   3   6
TORSDOF 4
