REMARK  3 active torsions:
REMARK  status: ('A' for Active; 'I' for Inactive)
REMARK    1  A    between atoms: C2_2  and  C3_3 
REMARK    2  A    between atoms: C3_3  and  C11_11 
REMARK    3  A    between atoms: C11_11  and  C12_12 
ROOT
HETATM    1  C3  UNL     1     -32.909   7.420   3.631  1.00 20.00     0.159 C 
HETATM    2  O13 UNL     1     -32.276   8.417   3.971  1.00 20.00    -0.292 OA
ENDROOT
BRANCH   1   3
HETATM    3  C2  UNL     1     -33.678   6.677   4.633  1.00 20.00    -0.016 C 
HETATM    4  C1  UNL     1     -34.787   6.045   4.225  1.00 20.00    -0.016 C 
HETATM    5  C4  UNL     1     -35.650   5.245   5.158  1.00 20.00     0.028 C 
HETATM    6  C6  UNL     1     -34.987   4.968   6.511  1.00 20.00     0.004 C 
HETATM    7  C7  UNL     1     -34.264   6.204   7.040  1.00 20.00     0.005 C 
HETATM    8  C5  UNL     1     -33.196   6.685   6.053  1.00 20.00     0.042 C 
ENDBRANCH   1   3
BRANCH   1   9
HETATM    9  C11 UNL     1     -32.952   6.903   2.194  1.00 20.00     0.059 C 
HETATM   10  C8  UNL     1     -32.530   5.433   2.150  1.00 20.00     0.018 C 
BRANCH   9  11
HETATM   11  C12 UNL     1     -32.141   7.833   1.258  1.00 20.00    -0.012 C 
HETATM   12  C9  UNL     1     -31.692   7.156  -0.041  1.00 20.00     0.010 C 
HETATM   13  C10 UNL     1     -32.917   9.113   0.931  1.00 20.00     0.010 C 
ENDBRANCH   9  11
ENDBRANCH   1   9
TORSDOF 3
