REMARK  3 active torsions:
REMARK  status: ('A' for Active; 'I' for Inactive)
REMARK    1  A    between atoms: C1_1  and  C7_7 
REMARK       I    between atoms: C1_1  and  N9_9 
REMARK    2  A    between atoms: C7_7  and  C8_8 
REMARK    3  A    between atoms: N9_9  and  O11_11 
ROOT
HETATM    1  C1  UNL     1     -33.001   7.145   3.793  1.00 20.00     0.247 C 
HETATM    2  C5  UNL     1     -32.683   5.379   2.064  1.00 20.00     0.189 C 
HETATM    3  N9  UNL     1     -32.508   6.725   2.581  1.00 20.00    -0.231 N 
HETATM    4  O10 UNL     1     -32.841   8.294   4.214  1.00 20.00    -0.271 OA
ENDROOT
BRANCH   1   5
HETATM    5  C7  UNL     1     -33.758   6.103   4.635  1.00 20.00     0.079 C 
HETATM    6  C2  UNL     1     -35.232   6.060   4.220  1.00 20.00     0.020 C 
BRANCH   5   7
HETATM    7  C8  UNL     1     -33.537   6.367   6.149  1.00 20.00    -0.010 C 
HETATM    8  C3  UNL     1     -33.772   5.099   6.975  1.00 20.00     0.010 C 
HETATM    9  C4  UNL     1     -34.390   7.511   6.704  1.00 20.00     0.010 C 
ENDBRANCH   5   7
ENDBRANCH   1   5
BRANCH   3  10
HETATM   10  O11 UNL     1     -31.780   7.552   1.707  1.00 20.00    -0.281 OA
HETATM   11  C6  UNL     1     -32.684   8.205   0.820  1.00 20.00     0.238 C 
ENDBRANCH   3  10
TORSDOF 3
