REMARK  1 active torsions:
REMARK  status: ('A' for Active; 'I' for Inactive)
REMARK    1  A    between atoms: C10_10  and  N11_11 
ROOT
HETATM    1  C1  UNL     1     -34.009   8.352   7.426  1.00 20.00     0.015 C 
HETATM    2  C2  UNL     1     -34.195   7.530   6.571  1.00 20.00    -0.076 C 
HETATM    3  C8  UNL     1     -34.300   5.114   6.124  1.00 20.00     0.063 C 
HETATM    4  C9  UNL     1     -35.820   6.703   4.917  1.00 20.00     0.063 C 
HETATM    5  C10 UNL     1     -34.424   6.517   5.520  1.00 20.00     0.214 C 
ENDROOT
BRANCH   5   6
HETATM    6  N11 UNL     1     -33.420   6.686   4.469  1.00 20.00     0.110 N 
HETATM    7  C6  UNL     1     -33.519   8.030   3.879  1.00 20.00     0.282 C 
HETATM    8  C4  UNL     1     -32.423   8.265   2.844  1.00 20.00     0.108 C 
HETATM    9  C3  UNL     1     -32.413   7.154   1.822  1.00 20.00     0.130 C 
HETATM   10  C5  UNL     1     -32.494   5.750   2.372  1.00 20.00     0.108 C 
HETATM   11  O12 UNL     1     -32.236   7.373   0.625  1.00 20.00    -0.298 OA
HETATM   12  C7  UNL     1     -33.586   5.654   3.434  1.00 20.00     0.282 C 
ENDBRANCH   5   6
TORSDOF 1
