REMARK  2 active torsions:
REMARK  status: ('A' for Active; 'I' for Inactive)
REMARK    1  A    between atoms: C7_7  and  N9_9 
REMARK    2  A    between atoms: C8_8  and  N9_9 
ROOT
HETATM    1  C1  UNL     1     -33.561   3.425   4.446  1.00 20.00     0.015 C 
HETATM    2  C2  UNL     1     -33.930   4.529   4.742  1.00 20.00    -0.076 C 
HETATM    3  C5  UNL     1     -35.566   6.288   4.217  1.00 20.00     0.063 C 
HETATM    4  C6  UNL     1     -34.810   5.913   6.579  1.00 20.00     0.063 C 
HETATM    5  C8  UNL     1     -34.385   5.886   5.107  1.00 20.00     0.212 C 
ENDROOT
BRANCH   5   6
HETATM    6  N9  UNL     1     -33.293   6.819   4.910  1.00 20.00     0.108 N 
HETATM    7  H24 UNL     1     -32.417   6.391   5.219  1.00 20.00     0.318 HD
BRANCH   6   8
HETATM    8  C7  UNL     1     -33.166   7.193   3.505  1.00 20.00     0.214 C 
HETATM    9  C3  UNL     1     -32.878   5.946   2.681  1.00 20.00     0.042 C 
HETATM   10  C4  UNL     1     -32.057   8.226   3.369  1.00 20.00     0.042 C 
ENDBRANCH   6   8
ENDBRANCH   5   6
TORSDOF 2
