REMARK  4 active torsions:
REMARK  status: ('A' for Active; 'I' for Inactive)
REMARK    1  A    between atoms: C4_4  and  C6_6 
REMARK    2  A    between atoms: C6_6  and  C8_8 
REMARK    3  A    between atoms: C7_7  and  C8_8 
REMARK    4  A    between atoms: C8_8  and  N9_9 
ROOT
HETATM    1  C1  UNL     1     -32.717   8.311   2.111  1.00 20.00     0.158 C 
HETATM    2  N9  UNL     1     -32.365   7.309   2.606  1.00 20.00    -0.270 NA
HETATM    3  S10 UNL     1     -33.162   9.682   1.433  1.00 20.00    -0.055 SA
ENDROOT
BRANCH   2   4
HETATM    4  C8  UNL     1     -33.450   6.469   3.131  1.00 20.00     0.109 C 
BRANCH   4   5
HETATM    5  C6  UNL     1     -33.717   6.867   4.587  1.00 20.00     0.032 C 
BRANCH   5   6
HETATM    6  C4  UNL     1     -34.848   6.062   5.215  1.00 20.00    -0.013 A 
HETATM    7  C2  UNL     1     -34.554   4.767   5.921  1.00 20.00     0.005 A 
HETATM    8  C3  UNL     1     -34.974   5.975   6.711  1.00 20.00     0.005 A 
ENDBRANCH   5   6
ENDBRANCH   4   5
BRANCH   4   9
HETATM    9  C7  UNL     1     -33.023   4.999   3.035  1.00 20.00     0.023 C 
HETATM   10  C5  UNL     1     -32.718   4.578   1.627  1.00 20.00     0.007 C 
ENDBRANCH   4   9
ENDBRANCH   2   4
TORSDOF 4
