REMARK  3 active torsions:
REMARK  status: ('A' for Active; 'I' for Inactive)
REMARK    1  A    between atoms: C2_2  and  C6_6 
REMARK    2  A    between atoms: C2_2  and  C7_7 
REMARK    3  A    between atoms: C7_7  and  C8_8 
ROOT
HETATM    1  C1  UNL     1     -32.324   7.986   1.056  1.00 20.00     0.066 C 
HETATM    2  C6  UNL     1     -31.719   6.871   1.793  1.00 20.00     0.202 C 
HETATM    3  N9  UNL     1     -32.799   8.868   0.471  1.00 20.00    -0.197 NA
ENDROOT
BRANCH   2   4
HETATM    4  C2  UNL     1     -32.674   6.256   2.799  1.00 20.00     0.143 C 
HETATM    5  O10 UNL     1     -32.976   5.062   2.783  1.00 20.00    -0.297 OA
BRANCH   4   6
HETATM    6  C7  UNL     1     -33.224   7.201   3.871  1.00 20.00     0.055 C 
HETATM    7  C3  UNL     1     -32.025   7.815   4.594  1.00 20.00     0.018 C 
BRANCH   6   8
HETATM    8  C8  UNL     1     -34.203   6.460   4.815  1.00 20.00    -0.012 C 
HETATM    9  C4  UNL     1     -35.579   6.293   4.156  1.00 20.00     0.010 C 
HETATM   10  C5  UNL     1     -34.380   7.184   6.154  1.00 20.00     0.010 C 
ENDBRANCH   6   8
ENDBRANCH   4   6
ENDBRANCH   2   4
TORSDOF 3
