REMARK  3 active torsions:
REMARK  status: ('A' for Active; 'I' for Inactive)
REMARK    1  A    between atoms: C4_4  and  C6_6 
REMARK    2  A    between atoms: C6_6  and  C7_7 
REMARK    3  A    between atoms: C7_7  and  N8_8 
ROOT
HETATM    1  C1  UNL     1     -32.326   7.951   1.411  1.00 20.00     0.158 C 
HETATM    2  N8  UNL     1     -31.959   7.352   2.351  1.00 20.00    -0.271 NA
HETATM    3  S9  UNL     1     -32.794   8.781   0.135  1.00 20.00    -0.055 SA
ENDROOT
BRANCH   2   4
HETATM    4  C7  UNL     1     -32.931   6.389   2.883  1.00 20.00     0.106 C 
HETATM    5  C5  UNL     1     -32.318   4.998   2.789  1.00 20.00     0.034 C 
BRANCH   4   6
HETATM    6  C6  UNL     1     -33.258   6.753   4.333  1.00 20.00     0.031 C 
BRANCH   6   7
HETATM    7  C4  UNL     1     -34.575   6.149   4.803  1.00 20.00    -0.013 A 
HETATM    8  C2  UNL     1     -34.600   4.786   5.438  1.00 20.00     0.005 A 
HETATM    9  C3  UNL     1     -34.862   6.009   6.272  1.00 20.00     0.005 A 
ENDBRANCH   6   7
ENDBRANCH   4   6
ENDBRANCH   2   4
TORSDOF 3
