REMARK  3 active torsions:
REMARK  status: ('A' for Active; 'I' for Inactive)
REMARK    1  A    between atoms: C4_4  and  C8_8 
REMARK    2  A    between atoms: C8_8  and  N10_10 
REMARK    3  A    between atoms: C9_9  and  N10_10 
ROOT
HETATM    1  C1  UNL     1     -33.332   7.647   5.883  1.00 20.00     0.015 C 
HETATM    2  C2  UNL     1     -33.803   6.900   5.069  1.00 20.00    -0.076 C 
HETATM    3  C6  UNL     1     -33.739   4.596   4.212  1.00 20.00     0.063 C 
HETATM    4  C7  UNL     1     -35.896   5.875   4.275  1.00 20.00     0.063 C 
HETATM    5  C9  UNL     1     -34.381   5.980   4.068  1.00 20.00     0.212 C 
ENDROOT
BRANCH   5   6
HETATM    6  N10 UNL     1     -34.116   6.500   2.741  1.00 20.00     0.115 N 
HETATM    7  H23 UNL     1     -34.513   5.870   2.041  1.00 20.00     0.319 HD
BRANCH   6   8
HETATM    8  C8  UNL     1     -32.683   6.630   2.501  1.00 20.00     0.365 C 
BRANCH   8   9
HETATM    9  C4  UNL     1     -32.417   7.579   1.416  1.00 20.00    -0.077 C 
HETATM   10  C3  UNL     1     -32.194   8.356   0.528  1.00 20.00    -0.109 C 
HETATM   11  C5  UNL     1     -31.922   9.301  -0.554  1.00 20.00     0.112 C 
ENDBRANCH   8   9
ENDBRANCH   6   8
ENDBRANCH   5   6
TORSDOF 3
