REMARK  3 active torsions:
REMARK  status: ('A' for Active; 'I' for Inactive)
REMARK    1  A    between atoms: C7_7  and  C8_8 
REMARK    2  A    between atoms: C8_8  and  N11_11 
REMARK    3  A    between atoms: C9_9  and  N11_11 
ROOT
HETATM    1  C1  UNL     1     -33.867   7.934   6.366  1.00 20.00     0.015 C 
HETATM    2  C2  UNL     1     -34.058   6.996   5.640  1.00 20.00    -0.076 C 
HETATM    3  C5  UNL     1     -34.237   4.544   5.563  1.00 20.00     0.063 C 
HETATM    4  C6  UNL     1     -35.663   5.976   4.077  1.00 20.00     0.063 C 
HETATM    5  C9  UNL     1     -34.292   5.841   4.749  1.00 20.00     0.213 C 
ENDROOT
BRANCH   5   6
HETATM    6  N11 UNL     1     -33.262   5.815   3.729  1.00 20.00     0.122 N 
HETATM    7  H25 UNL     1     -32.410   5.404   4.114  1.00 20.00     0.319 HD
BRANCH   6   8
HETATM    8  C8  UNL     1     -32.963   7.160   3.247  1.00 20.00     0.327 C 
HETATM    9  C3  UNL     1     -32.053   7.849   4.173  1.00 20.00     0.095 C 
HETATM   10  N10 UNL     1     -31.338   8.396   4.906  1.00 20.00    -0.195 NA
BRANCH   8  11
HETATM   11  C7  UNL     1     -32.424   7.131   1.811  1.00 20.00     0.046 C 
HETATM   12  C4  UNL     1     -32.180   8.506   1.196  1.00 20.00     0.008 C 
ENDBRANCH   8  11
ENDBRANCH   6   8
ENDBRANCH   5   6
TORSDOF 3
