REMARK  1 active torsions:
REMARK  status: ('A' for Active; 'I' for Inactive)
REMARK    1  A    between atoms: C7_7  and  N9_9 
ROOT
HETATM    1  C1  UNL     1     -32.174   7.971   2.097  1.00 20.00     0.089 C 
HETATM    2  C7  UNL     1     -31.960   7.777   3.530  1.00 20.00     0.396 C 
HETATM    3  N8  UNL     1     -32.341   8.126   0.959  1.00 20.00    -0.195 NA
ENDROOT
BRANCH   2   4
HETATM    4  N9  UNL     1     -33.177   7.271   4.177  1.00 20.00     0.107 N 
HETATM    5  C2  UNL     1     -33.091   7.543   5.624  1.00 20.00     0.284 C 
HETATM    6  C3  UNL     1     -34.392   7.268   6.371  1.00 20.00     0.104 C 
HETATM    7  S10 UNL     1     -34.836   5.519   6.280  1.00 20.00    -0.165 SA
HETATM    8  C4  UNL     1     -34.752   5.353   4.478  1.00 20.00     0.109 C 
HETATM    9  C5  UNL     1     -33.405   5.830   3.903  1.00 20.00     0.229 C 
HETATM   10  C6  UNL     1     -33.417   5.513   2.397  1.00 20.00     0.043 C 
ENDBRANCH   2   4
TORSDOF 1
