REMARK  2 active torsions:
REMARK  status: ('A' for Active; 'I' for Inactive)
REMARK    1  A    between atoms: C4_4  and  C5_5 
REMARK    2  A    between atoms: C5_5  and  N6_6 
ROOT
HETATM    1  C1  UNL     1     -33.877   4.211   4.066  1.00 20.00     0.012 C 
HETATM    2  C2  UNL     1     -34.177   4.566   5.173  1.00 20.00    -0.116 C 
HETATM    3  C4  UNL     1     -34.545   4.996   6.530  1.00 20.00     0.115 C 
ENDROOT
BRANCH   3   4
HETATM    4  C5  UNL     1     -34.694   6.509   6.626  1.00 20.00     0.162 C 
BRANCH   4   5
HETATM    5  N6  UNL     1     -33.436   7.156   6.245  1.00 20.00    -0.275 NA
HETATM    6  C3  UNL     1     -33.318   7.366   5.095  1.00 20.00     0.157 C 
HETATM    7  S7  UNL     1     -33.131   7.663   3.542  1.00 20.00    -0.055 SA
ENDBRANCH   4   5
ENDBRANCH   3   4
TORSDOF 2
