REMARK  1 active torsions:
REMARK  status: ('A' for Active; 'I' for Inactive)
REMARK    1  A    between atoms: C5_5  and  C8_8 
ROOT
HETATM    1  C1  UNL     1     -34.684   5.884   6.864  1.00 20.00     0.046 C 
HETATM    2  C2  UNL     1     -33.462   6.872   4.916  1.00 20.00     0.057 C 
HETATM    3  C3  UNL     1     -35.356   4.929   5.889  1.00 20.00     0.170 C 
HETATM    4  C4  UNL     1     -34.305   7.178   6.154  1.00 20.00     0.087 C 
HETATM    5  C5  UNL     1     -34.129   5.823   4.002  1.00 20.00     0.058 C 
HETATM    6  C6  UNL     1     -35.305   6.396   3.236  1.00 20.00     0.046 C 
HETATM    7  O9  UNL     1     -34.530   4.666   4.757  1.00 20.00    -0.380 OA
HETATM    8 CL10 UNL     1     -33.406   8.249   7.264  1.00 20.00    -0.125 Cl
ENDROOT
BRANCH   5   9
HETATM    9  C8  UNL     1     -33.089   5.315   2.989  1.00 20.00     0.033 C 
HETATM   10  C7  UNL     1     -32.565   6.425   2.144  1.00 20.00     0.008 C 
ENDBRANCH   5   9
TORSDOF 1
