REMARK  0 active torsions:
REMARK  status: ('A' for Active; 'I' for Inactive)
ROOT
HETATM    1  C1  UNL     1     -32.490   6.797   2.094  1.00 20.00     0.088 C 
HETATM    2  C2  UNL     1     -33.896   5.562   3.609  1.00 20.00    -0.066 C 
HETATM    3  C3  UNL     1     -32.911   5.588   2.701  1.00 20.00     0.096 C 
HETATM    4  C4  UNL     1     -34.370   4.300   4.274  1.00 20.00     0.061 C 
HETATM    5  C5  UNL     1     -34.616   6.795   4.080  1.00 20.00     0.066 C 
HETATM    6  C6  UNL     1     -34.348   4.484   5.788  1.00 20.00     0.172 C 
HETATM    7  C7  UNL     1     -34.618   6.870   5.613  1.00 20.00     0.121 C 
HETATM    8  C8  UNL     1     -33.270   7.284   6.202  1.00 20.00     0.040 C 
HETATM    9  N9  UNL     1     -32.140   7.784   1.593  1.00 20.00    -0.192 NA
HETATM   10  O10 UNL     1     -35.090   5.641   6.185  1.00 20.00    -0.386 OA
ENDROOT
TORSDOF 0
