REMARK  3 active torsions:
REMARK  status: ('A' for Active; 'I' for Inactive)
REMARK    1  A    between atoms: C4_4  and  N8_8 
REMARK    2  A    between atoms: C6_6  and  C7_7 
REMARK    3  A    between atoms: C6_6  and  N8_8 
ROOT
HETATM    1  C1  UNL     1     -34.256   4.489   4.995  1.00 20.00     0.064 C 
HETATM    2  C2  UNL     1     -33.928   5.402   6.159  1.00 20.00     0.170 C 
HETATM    3  C3  UNL     1     -35.092   6.646   4.565  1.00 20.00     0.203 C 
HETATM    4  C4  UNL     1     -34.460   5.462   3.857  1.00 20.00     0.248 C 
HETATM    5  O9  UNL     1     -34.584   6.652   5.909  1.00 20.00    -0.389 OA
ENDROOT
BRANCH   4   6
HETATM    6  N8  UNL     1     -33.209   5.829   3.238  1.00 20.00     0.092 N 
HETATM    7  C5  UNL     1     -32.539   4.646   2.701  1.00 20.00     0.310 C 
BRANCH   6   8
HETATM    8  C6  UNL     1     -33.432   6.815   2.182  1.00 20.00     0.287 C 
BRANCH   8   9
HETATM    9  C7  UNL     1     -32.194   7.645   1.886  1.00 20.00     0.144 C 
HETATM   10 CL10 UNL     1     -32.505   8.837   0.600  1.00 20.00    -0.129 Cl
ENDBRANCH   8   9
ENDBRANCH   6   8
ENDBRANCH   4   6
TORSDOF 3
