REMARK  0 active torsions:
REMARK  status: ('A' for Active; 'I' for Inactive)
ROOT
HETATM    1  C1  UNL     1     -32.824   6.117   2.569  1.00 20.00     0.046 C 
HETATM    2  C2  UNL     1     -33.392   7.155   4.774  1.00 20.00     0.057 C 
HETATM    3  C3  UNL     1     -33.400   4.784   3.039  1.00 20.00     0.170 C 
HETATM    4  C4  UNL     1     -32.287   6.917   3.744  1.00 20.00     0.087 C 
HETATM    5  C5  UNL     1     -34.266   5.898   5.007  1.00 20.00     0.055 C 
HETATM    6  C6  UNL     1     -35.682   6.082   4.440  1.00 20.00     0.045 C 
HETATM    7  C7  UNL     1     -34.383   5.621   6.512  1.00 20.00     0.045 C 
HETATM    8  O8  UNL     1     -33.647   4.735   4.443  1.00 20.00    -0.381 OA
HETATM    9 CL9  UNL     1     -31.609   8.470   3.189  1.00 20.00    -0.125 Cl
ENDROOT
TORSDOF 0
