REMARK  2 active torsions:
REMARK  status: ('A' for Active; 'I' for Inactive)
REMARK    1  A    between atoms: C5_5  and  C8_8 
REMARK    2  A    between atoms: C5_5  and  C9_9 
ROOT
HETATM    1  C1  UNL     1     -34.165   7.157   6.587  1.00 20.00     0.046 C 
HETATM    2  C2  UNL     1     -34.953   6.378   4.329  1.00 20.00     0.058 C 
HETATM    3  C3  UNL     1     -32.789   7.342   5.965  1.00 20.00     0.170 C 
HETATM    4  C4  UNL     1     -34.995   6.119   5.838  1.00 20.00     0.087 C 
HETATM    5  C5  UNL     1     -33.559   6.728   3.760  1.00 20.00     0.061 C 
HETATM    6  O10 UNL     1     -32.892   7.691   4.588  1.00 20.00    -0.380 OA
HETATM    7 CL11 UNL     1     -34.455   4.463   6.237  1.00 20.00    -0.125 Cl
ENDROOT
BRANCH   5   8
HETATM    8  C8  UNL     1     -32.665   5.501   3.534  1.00 20.00     0.033 C 
HETATM    9  C6  UNL     1     -33.284   4.547   2.571  1.00 20.00     0.008 C 
ENDBRANCH   5   8
BRANCH   5  10
HETATM   10  C9  UNL     1     -33.749   7.416   2.396  1.00 20.00     0.033 C 
HETATM   11  C7  UNL     1     -32.440   7.784   1.786  1.00 20.00     0.008 C 
ENDBRANCH   5  10
TORSDOF 2
