REMARK  1 active torsions:
REMARK  status: ('A' for Active; 'I' for Inactive)
REMARK    1  A    between atoms: C4_4  and  S9_9 
ROOT
HETATM    1  C1  UNL     1     -32.963   5.957   3.307  1.00 20.00     0.041 C 
HETATM    2  C2  UNL     1     -32.764   7.577   5.210  1.00 20.00     0.052 C 
HETATM    3  C3  UNL     1     -34.291   5.452   3.865  1.00 20.00     0.170 C 
HETATM    4  C4  UNL     1     -32.738   7.414   3.686  1.00 20.00     0.049 C 
HETATM    5  C5  UNL     1     -33.870   6.725   5.880  1.00 20.00     0.054 C 
HETATM    6  C6  UNL     1     -34.665   7.593   6.866  1.00 20.00     0.045 C 
HETATM    7  C7  UNL     1     -33.279   5.538   6.659  1.00 20.00     0.045 C 
HETATM    8  O8  UNL     1     -34.819   6.268   4.909  1.00 20.00    -0.381 OA
ENDROOT
BRANCH   4   9
HETATM    9  S9  UNL     1     -31.159   8.022   3.007  1.00 20.00    -0.177 SA
HETATM   10  H23 UNL     1     -31.271   9.262   3.501  1.00 20.00     0.102 HD
ENDBRANCH   4   9
TORSDOF 1
