REMARK  0 active torsions:
REMARK  status: ('A' for Active; 'I' for Inactive)
ROOT
HETATM    1  C1  UNL     1     -33.816   6.311   5.485  1.00 20.00     0.085 C 
HETATM    2  C2  UNL     1     -33.899   5.286   3.225  1.00 20.00     0.067 C 
HETATM    3  C3  UNL     1     -34.076   7.781   3.485  1.00 20.00     0.078 C 
HETATM    4  C4  UNL     1     -32.458   5.503   2.775  1.00 20.00     0.171 C 
HETATM    5  C5  UNL     1     -34.382   6.422   4.131  1.00 20.00     0.130 C 
HETATM    6  C6  UNL     1     -32.642   7.908   2.916  1.00 20.00     0.056 C 
HETATM    7  C7  UNL     1     -31.579   8.149   3.997  1.00 20.00     0.045 C 
HETATM    8  C8  UNL     1     -32.601   9.105   1.950  1.00 20.00     0.045 C 
HETATM    9  N9  UNL     1     -33.370   6.224   6.552  1.00 20.00    -0.195 NA
HETATM   10  O10 UNL     1     -32.306   6.760   2.123  1.00 20.00    -0.381 OA
HETATM   11 CL11 UNL     1     -36.162   6.268   4.361  1.00 20.00    -0.103 Cl
ENDROOT
TORSDOF 0
