REMARK  2 active torsions:
REMARK  status: ('A' for Active; 'I' for Inactive)
REMARK    1  A    between atoms: C5_5  and  C8_8 
REMARK    2  A    between atoms: C8_8  and  C9_9 
ROOT
HETATM    1  C1  UNL     1     -34.026   5.235   3.346  1.00 20.00     0.046 C 
HETATM    2  C2  UNL     1     -33.355   7.269   4.641  1.00 20.00     0.057 C 
HETATM    3  C3  UNL     1     -32.827   5.419   2.421  1.00 20.00     0.170 C 
HETATM    4  C4  UNL     1     -33.729   5.788   4.730  1.00 20.00     0.087 C 
HETATM    5  C5  UNL     1     -32.414   7.572   3.450  1.00 20.00     0.058 C 
HETATM    6  C6  UNL     1     -31.208   8.387   3.938  1.00 20.00     0.046 C 
HETATM    7  O10 UNL     1     -31.872   6.361   2.907  1.00 20.00    -0.380 OA
HETATM    8 CL11 UNL     1     -35.131   5.565   5.810  1.00 20.00    -0.125 Cl
ENDROOT
BRANCH   5   9
HETATM    9  C8  UNL     1     -33.128   8.380   2.355  1.00 20.00     0.037 C 
BRANCH   9  10
HETATM   10  C9  UNL     1     -32.179   8.702   1.210  1.00 20.00    -0.002 C 
HETATM   11  C7  UNL     1     -32.892   9.480   0.116  1.00 20.00     0.005 C 
ENDBRANCH   9  10
ENDBRANCH   5   9
TORSDOF 2
