REMARK  0 active torsions:
REMARK  status: ('A' for Active; 'I' for Inactive)
ROOT
HETATM    1  C1  UNL     1     -32.346   5.813   2.948  1.00 20.00     0.046 C 
HETATM    2  C2  UNL     1     -33.279   6.937   4.982  1.00 20.00     0.057 C 
HETATM    3  C3  UNL     1     -33.412   4.740   3.120  1.00 20.00     0.170 C 
HETATM    4  C4  UNL     1     -32.826   7.136   3.536  1.00 20.00     0.087 C 
HETATM    5  C5  UNL     1     -34.298   5.787   5.113  1.00 20.00     0.055 C 
HETATM    6  C6  UNL     1     -34.474   5.438   6.598  1.00 20.00     0.045 C 
HETATM    7  C7  UNL     1     -35.673   6.162   4.540  1.00 20.00     0.045 C 
HETATM    8  O8  UNL     1     -33.793   4.597   4.487  1.00 20.00    -0.381 OA
HETATM    9 CL9  UNL     1     -31.520   8.352   3.461  1.00 20.00    -0.125 Cl
ENDROOT
TORSDOF 0
