REMARK  1 active torsions:
REMARK  status: ('A' for Active; 'I' for Inactive)
REMARK    1  A    between atoms: C6_6  and  C8_8 
ROOT
HETATM    1  C3  UNL     1     -32.659   5.957   1.531  1.00 20.00     0.046 C 
HETATM    2  C4  UNL     1     -32.152   7.483   3.498  1.00 20.00     0.058 C 
HETATM    3  C5  UNL     1     -32.721   4.978   2.693  1.00 20.00     0.170 C 
HETATM    4  C7  UNL     1     -32.035   7.276   1.985  1.00 20.00     0.087 C 
HETATM    5  C8  UNL     1     -33.388   6.811   4.143  1.00 20.00     0.062 C 
HETATM    6  C9  UNL     1     -34.676   7.582   3.819  1.00 20.00     0.046 C 
HETATM    7  O10 UNL     1     -33.598   5.458   3.707  1.00 20.00    -0.380 OA
HETATM    8 CL11 UNL     1     -32.744   8.644   1.078  1.00 20.00    -0.125 Cl
ENDROOT
BRANCH   5   9
HETATM    9  C6  UNL     1     -33.205   6.771   5.648  1.00 20.00     0.020 A 
HETATM   10  C1  UNL     1     -34.118   7.561   6.544  1.00 20.00     0.008 A 
HETATM   11  C2  UNL     1     -34.208   6.061   6.514  1.00 20.00     0.008 A 
ENDBRANCH   5   9
TORSDOF 1
