REMARK  1 active torsions:
REMARK  status: ('A' for Active; 'I' for Inactive)
REMARK    1  A    between atoms: C6_6  and  C7_7 
ROOT
HETATM    1  C3  UNL     1     -32.080   6.161   2.562  1.00 20.00     0.046 C 
HETATM    2  C4  UNL     1     -33.073   7.171   4.636  1.00 20.00     0.052 C 
HETATM    3  C5  UNL     1     -33.409   5.440   2.361  1.00 20.00     0.169 C 
HETATM    4  C7  UNL     1     -34.359   6.394   4.320  1.00 20.00     0.126 C 
HETATM    5  C8  UNL     1     -32.241   7.441   3.381  1.00 20.00     0.086 C 
HETATM    6  O9  UNL     1     -34.042   5.189   3.615  1.00 20.00    -0.385 OA
HETATM    7 CL10 UNL     1     -33.011   8.721   2.389  1.00 20.00    -0.125 Cl
ENDROOT
BRANCH   4   8
HETATM    8  C6  UNL     1     -35.093   6.026   5.577  1.00 20.00     0.015 A 
HETATM    9  C1  UNL     1     -34.419   5.193   6.632  1.00 20.00     0.007 A 
HETATM   10  C2  UNL     1     -34.703   6.647   6.890  1.00 20.00     0.007 A 
ENDBRANCH   4   8
TORSDOF 1
