REMARK  1 active torsions:
REMARK  status: ('A' for Active; 'I' for Inactive)
REMARK    1  A    between atoms: C5_5  and  C9_9 
ROOT
HETATM    1  C1  UNL     1     -32.357   6.255   2.173  1.00 20.00     0.046 C 
HETATM    2  C2  UNL     1     -34.157   7.433   3.452  1.00 20.00     0.058 C 
HETATM    3  C3  UNL     1     -32.766   4.973   2.883  1.00 20.00     0.170 C 
HETATM    4  C4  UNL     1     -32.685   7.463   3.042  1.00 20.00     0.087 C 
HETATM    5  C5  UNL     1     -34.560   6.081   4.076  1.00 20.00     0.061 C 
HETATM    6  C6  UNL     1     -36.095   5.998   4.135  1.00 20.00     0.046 C 
HETATM    7  O10 UNL     1     -34.147   4.987   3.238  1.00 20.00    -0.380 OA
HETATM    8 CL11 UNL     1     -32.322   8.973   2.160  1.00 20.00    -0.125 Cl
ENDROOT
BRANCH   5   9
HETATM    9  C9  UNL     1     -34.016   5.913   5.480  1.00 20.00     0.012 C 
HETATM   10  C7  UNL     1     -34.520   7.036   6.378  1.00 20.00     0.012 C 
HETATM   11  C8  UNL     1     -34.409   4.551   6.039  1.00 20.00     0.012 C 
ENDBRANCH   5   9
TORSDOF 1
