REMARK  2 active torsions:
REMARK  status: ('A' for Active; 'I' for Inactive)
REMARK    1  A    between atoms: C4_4  and  O10_10 
REMARK    2  A    between atoms: C5_5  and  C8_8 
ROOT
HETATM    1  C1  UNL     1     -34.450   5.063   6.344  1.00 20.00     0.058 C 
HETATM    2  C2  UNL     1     -33.836   5.485   3.946  1.00 20.00     0.069 C 
HETATM    3  C3  UNL     1     -34.161   6.533   6.612  1.00 20.00     0.171 C 
HETATM    4  C4  UNL     1     -34.850   4.839   4.891  1.00 20.00     0.123 C 
HETATM    5  C5  UNL     1     -33.445   6.930   4.335  1.00 20.00     0.059 C 
HETATM    6  C6  UNL     1     -34.493   7.950   3.937  1.00 20.00     0.046 C 
HETATM    7  O9  UNL     1     -33.151   7.030   5.738  1.00 20.00    -0.380 OA
ENDROOT
BRANCH   5   8
HETATM    8  C8  UNL     1     -32.132   7.290   3.615  1.00 20.00     0.033 C 
HETATM    9  C7  UNL     1     -32.284   7.209   2.134  1.00 20.00     0.008 C 
ENDBRANCH   5   8
BRANCH   4  10
HETATM   10  O10 UNL     1     -36.144   5.378   4.647  1.00 20.00    -0.395 OA
HETATM   11  H26 UNL     1     -36.755   4.916   5.242  1.00 20.00     0.210 HD
ENDBRANCH   4  10
TORSDOF 2
