REMARK  0 active torsions:
REMARK  status: ('A' for Active; 'I' for Inactive)
ROOT
HETATM    1  C1  UNL     1     -35.698   5.189   5.056  1.00 20.00     0.000 C 
HETATM    2  C2  UNL     1     -34.757   4.905   6.232  1.00 20.00     0.000 C 
HETATM    3  C3  UNL     1     -35.922   6.660   4.726  1.00 20.00     0.003 C 
HETATM    4  C4  UNL     1     -34.156   6.128   6.913  1.00 20.00     0.003 C 
HETATM    5  C5  UNL     1     -34.728   7.413   4.127  1.00 20.00     0.038 C 
HETATM    6  C6  UNL     1     -33.152   6.947   6.093  1.00 20.00     0.038 C 
HETATM    7  C7  UNL     1     -31.631   6.443   2.177  1.00 20.00     0.046 C 
HETATM    8  C8  UNL     1     -32.234   8.021   4.038  1.00 20.00     0.058 C 
HETATM    9  C9  UNL     1     -32.770   5.560   2.661  1.00 20.00     0.170 C 
HETATM   10  C10 UNL     1     -31.840   7.903   2.563  1.00 20.00     0.087 C 
HETATM   11  C11 UNL     1     -33.297   6.999   4.549  1.00 20.00     0.062 C 
HETATM   12  O12 UNL     1     -32.953   5.690   4.068  1.00 20.00    -0.380 OA
HETATM   13 CL13 UNL     1     -33.037   8.683   1.490  1.00 20.00    -0.125 Cl
ENDROOT
TORSDOF 0
