REMARK  0 active torsions:
REMARK  status: ('A' for Active; 'I' for Inactive)
ROOT
HETATM    1  C1  UNL     1     -32.701   8.364   1.746  1.00 20.00     0.088 C 
HETATM    2  C2  UNL     1     -32.749   6.456   3.215  1.00 20.00    -0.065 C 
HETATM    3  C3  UNL     1     -32.613   6.970   1.985  1.00 20.00     0.096 C 
HETATM    4  C4  UNL     1     -32.662   4.985   3.509  1.00 20.00     0.061 C 
HETATM    5  C5  UNL     1     -33.028   7.293   4.434  1.00 20.00     0.072 C 
HETATM    6  C6  UNL     1     -33.902   4.546   4.279  1.00 20.00     0.173 C 
HETATM    7  C7  UNL     1     -34.254   6.753   5.201  1.00 20.00     0.057 C 
HETATM    8  C8  UNL     1     -35.573   7.043   4.467  1.00 20.00     0.046 C 
HETATM    9  C9  UNL     1     -34.315   7.418   6.583  1.00 20.00     0.046 C 
HETATM   10  N10 UNL     1     -32.773   9.504   1.543  1.00 20.00    -0.192 NA
HETATM   11  O11 UNL     1     -34.103   5.342   5.450  1.00 20.00    -0.380 OA
ENDROOT
TORSDOF 0
