REMARK  2 active torsions:
REMARK  status: ('A' for Active; 'I' for Inactive)
REMARK    1  A    between atoms: C4_4  and  S10_10 
REMARK    2  A    between atoms: C5_5  and  C8_8 
ROOT
HETATM    1  C1  UNL     1     -32.958   4.840   2.852  1.00 20.00     0.041 C 
HETATM    2  C2  UNL     1     -33.361   6.842   4.303  1.00 20.00     0.052 C 
HETATM    3  C3  UNL     1     -33.798   4.032   3.832  1.00 20.00     0.170 C 
HETATM    4  C4  UNL     1     -33.387   6.306   2.869  1.00 20.00     0.049 C 
HETATM    5  C5  UNL     1     -34.157   5.942   5.270  1.00 20.00     0.058 C 
HETATM    6  C6  UNL     1     -35.674   6.062   5.058  1.00 20.00     0.046 C 
HETATM    7  O9  UNL     1     -33.732   4.576   5.148  1.00 20.00    -0.381 OA
ENDROOT
BRANCH   5   8
HETATM    8  C8  UNL     1     -33.841   6.352   6.716  1.00 20.00     0.033 C 
HETATM    9  C7  UNL     1     -34.212   7.773   6.971  1.00 20.00     0.008 C 
ENDBRANCH   5   8
BRANCH   4  10
HETATM   10  S10 UNL     1     -32.289   7.300   1.804  1.00 20.00    -0.177 SA
HETATM   11  H26 UNL     1     -32.904   8.468   2.031  1.00 20.00     0.102 HD
ENDBRANCH   4  10
TORSDOF 2
