REMARK  2 active torsions:
REMARK  status: ('A' for Active; 'I' for Inactive)
REMARK    1  A    between atoms: C5_5  and  C8_8 
REMARK    2  A    between atoms: C5_5  and  O10_10 
ROOT
HETATM    1  C1  UNL     1     -33.717   4.703   4.237  1.00 20.00     0.064 C 
HETATM    2  C2  UNL     1     -33.008   7.086   4.638  1.00 20.00     0.069 C 
HETATM    3  C3  UNL     1     -34.782   4.833   5.330  1.00 20.00     0.171 C 
HETATM    4  C4  UNL     1     -33.569   6.751   6.031  1.00 20.00     0.120 C 
HETATM    5  C5  UNL     1     -33.426   6.052   3.576  1.00 20.00     0.062 C 
HETATM    6  C6  UNL     1     -33.712   8.001   6.888  1.00 20.00     0.039 C 
HETATM    7  O9  UNL     1     -34.850   6.138   5.907  1.00 20.00    -0.386 OA
ENDROOT
BRANCH   5   8
HETATM    8  C8  UNL     1     -32.364   5.927   2.485  1.00 20.00     0.033 C 
HETATM    9  C7  UNL     1     -32.083   7.244   1.843  1.00 20.00     0.008 C 
ENDBRANCH   5   8
BRANCH   5  10
HETATM   10  O10 UNL     1     -34.630   6.522   2.958  1.00 20.00    -0.390 OA
HETATM   11  H26 UNL     1     -34.412   7.374   2.552  1.00 20.00     0.210 HD
ENDBRANCH   5  10
TORSDOF 2
