REMARK  1 active torsions:
REMARK  status: ('A' for Active; 'I' for Inactive)
REMARK    1  A    between atoms: C5_5  and  C7_7 
ROOT
HETATM    1  C1  UNL     1     -34.556   5.695   6.298  1.00 20.00     0.046 C 
HETATM    2  C2  UNL     1     -33.172   7.038   4.693  1.00 20.00     0.052 C 
HETATM    3  C3  UNL     1     -34.899   4.778   5.129  1.00 20.00     0.169 C 
HETATM    4  C4  UNL     1     -34.233   7.098   5.790  1.00 20.00     0.086 C 
HETATM    5  C5  UNL     1     -33.597   6.050   3.602  1.00 20.00     0.122 C 
HETATM    6  O8  UNL     1     -33.840   4.759   4.172  1.00 20.00    -0.386 OA
HETATM    7 CL9  UNL     1     -33.677   8.130   7.134  1.00 20.00    -0.125 Cl
ENDROOT
BRANCH   5   8
HETATM    8  C7  UNL     1     -32.508   5.895   2.549  1.00 20.00     0.027 C 
HETATM    9  C6  UNL     1     -32.220   7.186   1.852  1.00 20.00     0.007 C 
ENDBRANCH   5   8
TORSDOF 1
