REMARK  2 active torsions:
REMARK  status: ('A' for Active; 'I' for Inactive)
REMARK    1  A    between atoms: C6_6  and  C8_8 
REMARK    2  A    between atoms: C7_7  and  O11_11 
ROOT
HETATM    1  C3  UNL     1     -33.771   6.207   7.046  1.00 20.00     0.058 C 
HETATM    2  C4  UNL     1     -33.683   7.017   4.685  1.00 20.00     0.069 C 
HETATM    3  C5  UNL     1     -34.517   4.983   6.542  1.00 20.00     0.171 C 
HETATM    4  C7  UNL     1     -34.008   7.398   6.127  1.00 20.00     0.123 C 
HETATM    5  C8  UNL     1     -34.393   5.723   4.238  1.00 20.00     0.063 C 
HETATM    6  C9  UNL     1     -35.901   5.943   4.030  1.00 20.00     0.046 C 
HETATM    7  O10 UNL     1     -34.166   4.675   5.194  1.00 20.00    -0.380 OA
ENDROOT
BRANCH   5   8
HETATM    8  C6  UNL     1     -33.789   5.252   2.929  1.00 20.00     0.020 A 
HETATM    9  C1  UNL     1     -32.760   6.092   2.224  1.00 20.00     0.008 A 
HETATM   10  C2  UNL     1     -32.356   4.799   2.876  1.00 20.00     0.008 A 
ENDBRANCH   5   8
BRANCH   4  11
HETATM   11  O11 UNL     1     -33.175   8.484   6.516  1.00 20.00    -0.395 OA
HETATM   12  H27 UNL     1     -33.363   9.213   5.903  1.00 20.00     0.210 HD
ENDBRANCH   4  11
TORSDOF 2
