REMARK  3 active torsions:
REMARK  status: ('A' for Active; 'I' for Inactive)
REMARK    1  A    between atoms: C1_1  and  C7_7 
REMARK    2  A    between atoms: C1_1  and  C9_9 
REMARK    3  A    between atoms: C8_8  and  C9_9 
ROOT
HETATM    1  C1  UNL     1     -32.867   7.181   3.674  1.00 20.00     0.141 C 
HETATM    2  O10 UNL     1     -32.112   7.676   4.508  1.00 20.00    -0.297 OA
ENDROOT
BRANCH   1   3
HETATM    3  C7  UNL     1     -34.272   6.815   4.028  1.00 20.00     0.116 C 
HETATM    4  C3  UNL     1     -34.525   5.318   3.919  1.00 20.00     0.024 C 
HETATM    5  C2  UNL     1     -34.094   4.683   5.236  1.00 20.00     0.012 C 
HETATM    6  C6  UNL     1     -34.702   5.524   6.344  1.00 20.00     0.075 C 
HETATM    7  S11 UNL     1     -34.543   7.236   5.771  1.00 20.00    -0.157 SA
ENDBRANCH   1   3
BRANCH   1   8
HETATM    8  C9  UNL     1     -32.445   6.904   2.242  1.00 20.00     0.084 C 
BRANCH   8   9
HETATM    9  C8  UNL     1     -32.043   8.164   1.498  1.00 20.00    -0.007 A 
HETATM   10  C4  UNL     1     -32.021   8.182  -0.006  1.00 20.00     0.005 A 
HETATM   11  C5  UNL     1     -33.072   8.957   0.740  1.00 20.00     0.005 A 
ENDBRANCH   8   9
ENDBRANCH   1   8
TORSDOF 3
