REMARK  0 active torsions:
REMARK  status: ('A' for Active; 'I' for Inactive)
ROOT
HETATM    1  C1  UNL     1     -33.081   7.206   3.652  1.00 20.00     0.066 C 
HETATM    2  C2  UNL     1     -34.761   5.388   4.178  1.00 20.00     0.071 C 
HETATM    3  C3  UNL     1     -33.077   7.537   5.139  1.00 20.00     0.171 C 
HETATM    4  C4  UNL     1     -33.090   5.036   2.214  1.00 20.00     0.207 A 
HETATM    5  C5  UNL     1     -34.724   5.855   5.639  1.00 20.00     0.120 C 
HETATM    6  C6  UNL     1     -33.514   5.787   3.451  1.00 20.00     0.086 A 
HETATM    7  C7  UNL     1     -33.864   4.967   6.536  1.00 20.00     0.039 C 
HETATM    8  O8  UNL     1     -34.342   7.235   5.733  1.00 20.00    -0.386 OA
HETATM    9  O9  UNL     1     -32.456   4.822   3.485  1.00 20.00    -0.375 OA
ENDROOT
TORSDOF 0
