REMARK  0 active torsions:
REMARK  status: ('A' for Active; 'I' for Inactive)
ROOT
HETATM    1  C1  UNL     1     -34.695   5.083   4.947  1.00 20.00     0.066 C 
HETATM    2  C2  UNL     1     -33.881   7.455   4.597  1.00 20.00     0.071 C 
HETATM    3  C3  UNL     1     -33.579   4.646   4.004  1.00 20.00     0.171 C 
HETATM    4  C4  UNL     1     -34.923   6.799   6.897  1.00 20.00     0.207 A 
HETATM    5  C5  UNL     1     -32.807   6.867   3.674  1.00 20.00     0.120 C 
HETATM    6  C6  UNL     1     -34.347   6.405   5.561  1.00 20.00     0.086 A 
HETATM    7  C7  UNL     1     -32.430   7.850   2.575  1.00 20.00     0.039 C 
HETATM    8  O8  UNL     1     -33.301   5.674   3.046  1.00 20.00    -0.386 OA
HETATM    9  O9  UNL     1     -33.576   6.318   6.766  1.00 20.00    -0.375 OA
ENDROOT
TORSDOF 0
