REMARK  3 active torsions:
REMARK  status: ('A' for Active; 'I' for Inactive)
REMARK    1  A    between atoms: C1_1  and  C7_7 
REMARK    2  A    between atoms: C1_1  and  C9_9 
REMARK    3  A    between atoms: C8_8  and  C9_9 
ROOT
HETATM    1  C1  UNL     1     -32.681   7.665   4.234  1.00 20.00     0.141 C 
HETATM    2  O10 UNL     1     -32.069   8.172   5.173  1.00 20.00    -0.297 OA
ENDROOT
BRANCH   1   3
HETATM    3  C7  UNL     1     -34.044   7.087   4.427  1.00 20.00     0.116 C 
HETATM    4  C3  UNL     1     -34.513   7.087   5.882  1.00 20.00     0.024 C 
HETATM    5  C2  UNL     1     -33.933   5.848   6.551  1.00 20.00     0.012 C 
HETATM    6  C6  UNL     1     -34.239   4.680   5.632  1.00 20.00     0.075 C 
HETATM    7  S11 UNL     1     -34.019   5.328   3.952  1.00 20.00    -0.157 SA
ENDBRANCH   1   3
BRANCH   1   8
HETATM    8  C9  UNL     1     -32.114   7.587   2.829  1.00 20.00     0.084 C 
BRANCH   8   9
HETATM    9  C8  UNL     1     -32.989   8.288   1.806  1.00 20.00    -0.007 A 
HETATM   10  C4  UNL     1     -32.780   9.745   1.502  1.00 20.00     0.005 A 
HETATM   11  C5  UNL     1     -32.417   8.705   0.479  1.00 20.00     0.005 A 
ENDBRANCH   8   9
ENDBRANCH   1   8
TORSDOF 3
