REMARK  2 active torsions:
REMARK  status: ('A' for Active; 'I' for Inactive)
REMARK    1  A    between atoms: C3_3  and  C7_7 
REMARK    2  A    between atoms: C3_3  and  C10_10 
ROOT
HETATM    1  C1  UNL     1     -32.437   9.304   0.091  1.00 20.00     0.012 C 
HETATM    2  C2  UNL     1     -32.438   8.851   1.203  1.00 20.00    -0.110 C 
HETATM    3  C10 UNL     1     -32.435   8.302   2.564  1.00 20.00     0.171 C 
ENDROOT
BRANCH   3   4
HETATM    4  C3  UNL     1     -33.252   7.031   2.680  1.00 20.00     0.144 C 
HETATM    5  O11 UNL     1     -33.827   6.511   1.725  1.00 20.00    -0.297 OA
BRANCH   4   6
HETATM    6  C7  UNL     1     -33.328   6.421   4.046  1.00 20.00     0.087 C 
HETATM    7  C6  UNL     1     -33.576   4.911   3.959  1.00 20.00     0.046 C 
HETATM    8  C8  UNL     1     -34.898   4.765   4.712  1.00 20.00     0.122 C 
HETATM    9  C4  UNL     1     -34.703   5.006   6.209  1.00 20.00     0.034 C 
HETATM   10  O12 UNL     1     -35.580   5.977   4.318  1.00 20.00    -0.380 OA
HETATM   11  C5  UNL     1     -34.496   6.522   6.266  1.00 20.00     0.035 C 
HETATM   12  C9  UNL     1     -34.575   6.909   4.790  1.00 20.00     0.133 C 
ENDBRANCH   4   6
ENDBRANCH   3   4
TORSDOF 2
