REMARK  3 active torsions:
REMARK  status: ('A' for Active; 'I' for Inactive)
REMARK    1  A    between atoms: C3_3  and  C5_5 
REMARK    2  A    between atoms: C3_3  and  O6_6 
REMARK    3  A    between atoms: C4_4  and  C5_5 
ROOT
HETATM    1  C1  UNL     1     -33.529   4.475   3.838  1.00 20.00     0.013 C 
HETATM    2  C5  UNL     1     -34.113   5.887   3.784  1.00 20.00     0.019 C 
ENDROOT
BRANCH   2   3
HETATM    3  C3  UNL     1     -35.206   6.054   4.849  1.00 20.00     0.172 C 
BRANCH   3   4
HETATM    4  O6  UNL     1     -34.842   5.400   6.057  1.00 20.00    -0.396 OA
HETATM    5  C2  UNL     1     -33.989   6.211   6.853  1.00 20.00     0.201 C 
ENDBRANCH   3   4
ENDBRANCH   2   3
BRANCH   2   6
HETATM    6  C4  UNL     1     -33.027   6.972   3.866  1.00 20.00     0.121 C 
HETATM    7 CL7  UNL     1     -32.201   7.272   2.318  1.00 20.00    -0.130 Cl
ENDBRANCH   2   6
TORSDOF 3
