REMARK  4 active torsions:
REMARK  status: ('A' for Active; 'I' for Inactive)
REMARK    1  A    between atoms: C4_4  and  C6_6 
REMARK    2  A    between atoms: C4_4  and  O8_8 
REMARK    3  A    between atoms: C5_5  and  C6_6 
REMARK    4  A    between atoms: C7_7  and  O8_8 
ROOT
HETATM    1  C4  UNL     1     -33.529   5.495   4.000  1.00 20.00     0.173 C 
ENDROOT
BRANCH   1   2
HETATM    2  C6  UNL     1     -34.859   5.101   4.656  1.00 20.00     0.019 C 
HETATM    3  C1  UNL     1     -36.008   5.915   4.060  1.00 20.00     0.013 C 
BRANCH   2   4
HETATM    4  C5  UNL     1     -34.817   5.186   6.191  1.00 20.00     0.121 C 
HETATM    5 CL9  UNL     1     -34.615   6.844   6.807  1.00 20.00    -0.130 Cl
ENDBRANCH   2   4
ENDBRANCH   1   2
BRANCH   1   6
HETATM    6  O8  UNL     1     -33.258   6.877   4.190  1.00 20.00    -0.386 OA
BRANCH   6   7
HETATM    7  C7  UNL     1     -32.028   7.255   3.586  1.00 20.00     0.113 C 
HETATM    8  C2  UNL     1     -32.244   7.453   2.093  1.00 20.00     0.039 C 
HETATM    9  C3  UNL     1     -31.508   8.518   4.256  1.00 20.00     0.039 C 
ENDBRANCH   6   7
ENDBRANCH   1   6
TORSDOF 4
