REMARK  0 active torsions:
REMARK  status: ('A' for Active; 'I' for Inactive)
ROOT
HETATM    1  C1  UNL     1     -32.401   7.214   2.474  1.00 20.00     0.088 C 
HETATM    2  C2  UNL     1     -33.685   5.973   4.090  1.00 20.00    -0.046 C 
HETATM    3  C3  UNL     1     -32.760   6.005   3.120  1.00 20.00     0.098 C 
HETATM    4  C4  UNL     1     -34.084   4.703   4.792  1.00 20.00     0.039 C 
HETATM    5  C5  UNL     1     -34.387   7.205   4.587  1.00 20.00     0.202 C 
HETATM    6  C6  UNL     1     -34.047   4.915   6.305  1.00 20.00     0.030 C 
HETATM    7  C7  UNL     1     -34.789   6.190   6.698  1.00 20.00     0.168 C 
HETATM    8  N8  UNL     1     -32.102   8.200   1.940  1.00 20.00    -0.192 NA
HETATM    9  O9  UNL     1     -34.244   7.317   6.006  1.00 20.00    -0.387 OA
ENDROOT
TORSDOF 0
