REMARK  0 active torsions:
REMARK  status: ('A' for Active; 'I' for Inactive)
ROOT
HETATM    1  C1  UNL     1     -33.426   5.620   2.834  1.00 20.00     0.087 C 
HETATM    2  C2  UNL     1     -33.917   7.425   6.174  1.00 20.00     0.029 C 
HETATM    3  C3  UNL     1     -33.350   7.139   4.785  1.00 20.00     0.045 C 
HETATM    4  C4  UNL     1     -34.095   6.132   6.957  1.00 20.00     0.167 C 
HETATM    5  C5  UNL     1     -34.335   4.826   4.990  1.00 20.00     0.208 C 
HETATM    6  C6  UNL     1     -34.126   6.028   4.062  1.00 20.00     0.146 C 
HETATM    7  N7  UNL     1     -32.874   5.297   1.866  1.00 20.00    -0.195 NA
HETATM    8  O8  UNL     1     -34.917   5.215   6.237  1.00 20.00    -0.388 OA
HETATM    9 CL9  UNL     1     -35.732   6.651   3.540  1.00 20.00    -0.101 Cl
ENDROOT
TORSDOF 0
