REMARK  4 active torsions:
REMARK  status: ('A' for Active; 'I' for Inactive)
REMARK    1  A    between atoms: C5_5  and  C7_7 
REMARK    2  A    between atoms: C5_5  and  O9_9 
REMARK    3  A    between atoms: C6_6  and  C7_7 
REMARK    4  A    between atoms: C8_8  and  O9_9 
ROOT
HETATM    1  C5  UNL     1     -33.124   6.210   3.373  1.00 20.00     0.174 C 
ENDROOT
BRANCH   1   2
HETATM    2  C7  UNL     1     -32.562   7.524   2.815  1.00 20.00     0.019 C 
HETATM    3  C1  UNL     1     -31.879   8.325   3.925  1.00 20.00     0.013 C 
BRANCH   2   4
HETATM    4  C6  UNL     1     -33.614   8.352   2.059  1.00 20.00     0.121 C 
HETATM    5 CL10 UNL     1     -32.945   9.798   1.263  1.00 20.00    -0.130 Cl
ENDBRANCH   2   4
ENDBRANCH   1   2
BRANCH   1   6
HETATM    6  O9  UNL     1     -33.690   6.406   4.662  1.00 20.00    -0.381 OA
BRANCH   6   7
HETATM    7  C8  UNL     1     -34.596   5.364   4.998  1.00 20.00     0.050 C 
HETATM    8  C2  UNL     1     -34.141   4.082   4.303  1.00 20.00     0.045 C 
HETATM    9  C3  UNL     1     -34.561   5.195   6.515  1.00 20.00     0.045 C 
HETATM   10  C4  UNL     1     -35.995   5.767   4.535  1.00 20.00     0.045 C 
ENDBRANCH   6   7
ENDBRANCH   1   6
TORSDOF 4
