REMARK  1 active torsions:
REMARK  status: ('A' for Active; 'I' for Inactive)
REMARK    1  A    between atoms: C1_1  and  C5_5 
ROOT
HETATM    1  C2  UNL     1     -33.216   7.401   5.847  1.00 20.00     0.022 C 
HETATM    2  C3  UNL     1     -34.274   6.939   6.834  1.00 20.00     0.075 C 
HETATM    3  C4  UNL     1     -33.977   5.423   4.635  1.00 20.00     0.085 C 
HETATM    4  C5  UNL     1     -33.658   6.903   4.476  1.00 20.00     0.057 C 
HETATM    5  S7  UNL     1     -34.736   5.276   6.278  1.00 20.00    -0.168 SA
ENDROOT
BRANCH   4   6
HETATM    6  C1  UNL     1     -32.576   7.095   3.461  1.00 20.00     0.236 C 
HETATM    7  O6  UNL     1     -32.408   6.347   2.504  1.00 20.00    -0.306 OA
ENDBRANCH   4   6
TORSDOF 1
