REMARK  4 active torsions:
REMARK  status: ('A' for Active; 'I' for Inactive)
REMARK    1  A    between atoms: C5_5  and  C7_7 
REMARK    2  A    between atoms: C5_5  and  S9_9 
REMARK    3  A    between atoms: C6_6  and  C7_7 
REMARK    4  A    between atoms: C8_8  and  S9_9 
ROOT
HETATM    1  C5  UNL     1     -32.944   6.491   3.049  1.00 20.00     0.080 C 
ENDROOT
BRANCH   1   2
HETATM    2  C7  UNL     1     -32.453   7.737   2.289  1.00 20.00     0.004 C 
HETATM    3  C1  UNL     1     -31.473   8.519   3.173  1.00 20.00     0.012 C 
BRANCH   2   4
HETATM    4  C6  UNL     1     -31.844   7.450   0.905  1.00 20.00     0.119 C 
HETATM    5 CL10 UNL     1     -31.893   8.845  -0.200  1.00 20.00    -0.130 Cl
ENDBRANCH   2   4
ENDBRANCH   1   2
BRANCH   1   6
HETATM    6  S9  UNL     1     -33.333   6.817   4.796  1.00 20.00    -0.160 SA
BRANCH   6   7
HETATM    7  C8  UNL     1     -34.394   5.385   5.097  1.00 20.00    -0.003 C 
HETATM    8  C2  UNL     1     -33.939   4.238   4.191  1.00 20.00     0.026 C 
HETATM    9  C3  UNL     1     -34.259   4.986   6.569  1.00 20.00     0.026 C 
HETATM   10  C4  UNL     1     -35.841   5.772   4.781  1.00 20.00     0.026 C 
ENDBRANCH   6   7
ENDBRANCH   1   6
TORSDOF 4
