REMARK  1 active torsions:
REMARK  status: ('A' for Active; 'I' for Inactive)
REMARK    1  A    between atoms: C1_1  and  C5_5 
ROOT
HETATM    1  C2  UNL     1     -35.187   5.701   4.403  1.00 20.00     0.022 C 
HETATM    2  C3  UNL     1     -34.525   4.507   5.075  1.00 20.00     0.075 C 
HETATM    3  C4  UNL     1     -34.080   6.889   6.243  1.00 20.00     0.085 C 
HETATM    4  C5  UNL     1     -34.379   6.945   4.752  1.00 20.00     0.057 C 
HETATM    5  S7  UNL     1     -33.908   5.129   6.660  1.00 20.00    -0.168 SA
ENDROOT
BRANCH   4   6
HETATM    6  C1  UNL     1     -33.115   7.042   3.946  1.00 20.00     0.236 C 
HETATM    7  O6  UNL     1     -32.089   7.572   4.359  1.00 20.00    -0.306 OA
ENDBRANCH   4   6
TORSDOF 1
