REMARK  3 active torsions:
REMARK  status: ('A' for Active; 'I' for Inactive)
REMARK    1  A    between atoms: C1_1  and  C3_3 
REMARK       I    between atoms: C1_1  and  N9_9 
REMARK    2  A    between atoms: C7_7  and  C8_8 
REMARK    3  A    between atoms: C8_8  and  N9_9 
ROOT
HETATM    1  C1  UNL     1     -33.069   5.978   3.188  1.00 20.00     0.222 C 
HETATM    2  N9  UNL     1     -32.722   7.315   3.142  1.00 20.00    -0.361 N 
HETATM    3  O10 UNL     1     -32.625   5.087   2.474  1.00 20.00    -0.273 OA
HETATM    4  H25 UNL     1     -33.168   7.953   3.795  1.00 20.00     0.162 HD
ENDROOT
BRANCH   1   5
HETATM    5  C3  UNL     1     -34.067   5.655   4.213  1.00 20.00     0.082 A 
HETATM    6  C2  UNL     1     -35.158   6.647   4.519  1.00 20.00     0.019 A 
HETATM    7  C4  UNL     1     -34.056   6.424   5.520  1.00 20.00    -0.005 A 
HETATM    8  C5  UNL     1     -34.338   5.721   6.803  1.00 20.00     0.011 C 
ENDBRANCH   1   5
BRANCH   2   9
HETATM    9  C8  UNL     1     -31.756   7.850   2.209  1.00 20.00     0.122 C 
BRANCH   9  10
HETATM   10  C7  UNL     1     -32.398   8.299   0.902  1.00 20.00     0.015 C 
HETATM   11  C6  UNL     1     -33.427   9.403   1.101  1.00 20.00     0.006 C 
ENDBRANCH   9  10
ENDBRANCH   2   9
TORSDOF 3
