REMARK  3 active torsions:
REMARK  status: ('A' for Active; 'I' for Inactive)
REMARK    1  A    between atoms: C2_2  and  C5_5 
REMARK    2  A    between atoms: C5_5  and  N7_7 
REMARK    3  A    between atoms: C6_6  and  N7_7 
ROOT
HETATM    1  C1  UNL     1     -33.819   6.776   5.524  1.00 20.00     0.052 A 
HETATM    2  C2  UNL     1     -33.651   7.338   4.139  1.00 20.00     0.055 A 
HETATM    3  C3  UNL     1     -34.377   6.027   4.340  1.00 20.00     0.119 A 
HETATM    4 CL8  UNL     1     -33.617   4.506   3.891  1.00 20.00    -0.101 Cl
HETATM    5 CL9  UNL     1     -36.128   6.020   4.123  1.00 20.00    -0.101 Cl
ENDROOT
BRANCH   2   6
HETATM    6  C5  UNL     1     -32.293   7.423   3.531  1.00 20.00     0.277 C 
BRANCH   6   7
HETATM    7  N7  UNL     1     -32.371   7.525   2.100  1.00 20.00     0.083 N 
HETATM    8  H20 UNL     1     -31.477   7.253   1.675  1.00 20.00     0.315 HD
BRANCH   7   9
HETATM    9  C6  UNL     1     -32.686   8.889   1.671  1.00 20.00     0.265 C 
HETATM   10  C4  UNL     1     -32.802   8.972   0.187  1.00 20.00     0.037 C 
ENDBRANCH   7   9
ENDBRANCH   6   7
ENDBRANCH   2   6
TORSDOF 3
