REMARK  3 active torsions:
REMARK  status: ('A' for Active; 'I' for Inactive)
REMARK    1  A    between atoms: C2_2  and  C5_5 
REMARK    2  A    between atoms: C5_5  and  N7_7 
REMARK    3  A    between atoms: C6_6  and  N7_7 
ROOT
HETATM    1  C1  UNL     1     -34.951   5.506   6.609  1.00 20.00     0.052 A 
HETATM    2  C2  UNL     1     -33.665   6.125   6.134  1.00 20.00     0.055 A 
HETATM    3  C3  UNL     1     -34.541   5.365   5.164  1.00 20.00     0.119 A 
HETATM    4 CL8  UNL     1     -33.978   3.785   4.620  1.00 20.00    -0.101 Cl
HETATM    5 CL9  UNL     1     -35.483   6.221   3.951  1.00 20.00    -0.101 Cl
ENDROOT
BRANCH   2   6
HETATM    6  C5  UNL     1     -33.522   7.609   6.101  1.00 20.00     0.277 C 
BRANCH   6   7
HETATM    7  N7  UNL     1     -32.455   8.007   5.225  1.00 20.00     0.083 N 
HETATM    8  H20 UNL     1     -31.566   7.606   5.543  1.00 20.00     0.315 HD
BRANCH   7   9
HETATM    9  C6  UNL     1     -32.692   7.569   3.849  1.00 20.00     0.265 C 
HETATM   10  C4  UNL     1     -31.598   8.022   2.944  1.00 20.00     0.037 C 
ENDBRANCH   7   9
ENDBRANCH   6   7
ENDBRANCH   2   6
TORSDOF 3
