REMARK  3 active torsions:
REMARK  status: ('A' for Active; 'I' for Inactive)
REMARK    1  A    between atoms: C5_5  and  S11_11 
REMARK    2  A    between atoms: C8_8  and  C9_9 
REMARK    3  A    between atoms: C8_8  and  S11_11 
ROOT
HETATM    1  C1  UNL     1     -34.244   5.415   4.931  1.00 20.00     0.128 C 
HETATM    2  C2  UNL     1     -34.695   6.185   6.146  1.00 20.00     0.079 C 
HETATM    3  C3  UNL     1     -33.283   6.204   4.078  1.00 20.00     0.093 C 
HETATM    4  C4  UNL     1     -33.731   7.367   6.142  1.00 20.00     0.023 C 
HETATM    5  C5  UNL     1     -33.450   7.606   4.661  1.00 20.00     0.054 C 
HETATM    6  O10 UNL     1     -34.614   4.277   4.668  1.00 20.00    -0.298 OA
ENDROOT
BRANCH   5   7
HETATM    7  S11 UNL     1     -31.987   8.639   4.388  1.00 20.00    -0.164 SA
BRANCH   7   8
HETATM    8  C8  UNL     1     -31.614   8.105   2.704  1.00 20.00     0.078 C 
BRANCH   8   9
HETATM    9  C9  UNL     1     -32.699   8.414   1.659  1.00 20.00    -0.013 C 
HETATM   10  C6  UNL     1     -32.988   9.912   1.532  1.00 20.00     0.010 C 
HETATM   11  C7  UNL     1     -32.391   7.808   0.289  1.00 20.00     0.010 C 
ENDBRANCH   8   9
ENDBRANCH   7   8
ENDBRANCH   5   7
TORSDOF 3
