REMARK  0 active torsions:
REMARK  status: ('A' for Active; 'I' for Inactive)
ROOT
HETATM    1  C1  UNL     1     -32.271   7.315   2.259  1.00 20.00     0.003 C 
HETATM    2  C2  UNL     1     -32.942   5.963   2.534  1.00 20.00     0.037 C 
HETATM    3  C3  UNL     1     -32.363   8.119   3.566  1.00 20.00     0.017 C 
HETATM    4  C4  UNL     1     -34.955   5.321   5.689  1.00 20.00     0.280 C 
HETATM    5  C5  UNL     1     -34.234   6.186   6.728  1.00 20.00     0.104 C 
HETATM    6  C6  UNL     1     -33.764   6.211   3.796  1.00 20.00     0.234 C 
HETATM    7  C7  UNL     1     -32.818   7.096   4.601  1.00 20.00     0.080 C 
HETATM    8  N8  UNL     1     -34.139   4.998   4.512  1.00 20.00     0.089 N 
HETATM    9  S9  UNL     1     -33.663   7.777   6.045  1.00 20.00    -0.160 SA
HETATM   10  H22 UNL     1     -33.299   4.502   4.811  1.00 20.00     0.316 HD
ENDROOT
TORSDOF 0
