REMARK  4 active torsions:
REMARK  status: ('A' for Active; 'I' for Inactive)
REMARK    1  A    between atoms: C1_1  and  C6_6 
REMARK       I    between atoms: C1_1  and  N10_10 
REMARK    2  A    between atoms: C7_7  and  C8_8 
REMARK    3  A    between atoms: C7_7  and  C9_9 
REMARK    4  A    between atoms: C8_8  and  N10_10 
ROOT
HETATM    1  C1  UNL     1     -33.799   6.204   4.632  1.00 20.00     0.218 C 
HETATM    2  C5  UNL     1     -32.701   4.851   2.812  1.00 20.00     0.152 C 
HETATM    3  N10 UNL     1     -33.039   6.133   3.442  1.00 20.00    -0.356 N 
HETATM    4  O11 UNL     1     -34.657   5.379   4.958  1.00 20.00    -0.273 OA
ENDROOT
BRANCH   3   5
HETATM    5  C8  UNL     1     -32.553   7.310   2.779  1.00 20.00     0.125 C 
BRANCH   5   6
HETATM    6  C7  UNL     1     -33.085   7.439   1.353  1.00 20.00     0.024 C 
BRANCH   6   7
HETATM    7  C9  UNL     1     -32.576   8.669   0.576  1.00 20.00    -0.021 C 
HETATM    8  C3  UNL     1     -32.986   9.949   1.310  1.00 20.00     0.009 C 
HETATM    9  C4  UNL     1     -33.098   8.710  -0.861  1.00 20.00     0.009 C 
ENDBRANCH   6   7
ENDBRANCH   5   6
ENDBRANCH   3   5
BRANCH   1  10
HETATM   10  C6  UNL     1     -33.496   7.397   5.528  1.00 20.00     0.098 C 
HETATM   11  C2  UNL     1     -33.742   7.102   6.999  1.00 20.00     0.014 C 
ENDBRANCH   1  10
TORSDOF 4
