REMARK  1 active torsions:
REMARK  status: ('A' for Active; 'I' for Inactive)
REMARK       I    between atoms: C1_1  and  N9_9 
REMARK    1  A    between atoms: C6_6  and  N9_9 
ROOT
HETATM    1  C2  UNL     1     -34.006   4.989   6.769  1.00 20.00     0.002 C 
HETATM    2  C3  UNL     1     -35.339   5.036   6.023  1.00 20.00     0.002 C 
HETATM    3  C4  UNL     1     -33.048   5.881   5.984  1.00 20.00     0.031 C 
HETATM    4  C5  UNL     1     -35.123   5.955   4.824  1.00 20.00     0.031 C 
HETATM    5  C6  UNL     1     -33.948   6.857   5.218  1.00 20.00     0.029 C 
HETATM    6  C8  UNL     1     -34.400   8.026   6.100  1.00 20.00     0.038 C 
ENDROOT
BRANCH   5   7
HETATM    7  N9  UNL     1     -33.275   7.375   4.048  1.00 20.00    -0.353 N 
HETATM    8  C1  UNL     1     -32.820   6.569   3.027  1.00 20.00     0.214 C 
HETATM    9  C7  UNL     1     -32.157   7.318   1.919  1.00 20.00     0.117 C 
HETATM   10  O10 UNL     1     -32.913   5.349   2.962  1.00 20.00    -0.274 OA
HETATM   11  H25 UNL     1     -33.132   8.375   3.976  1.00 20.00     0.163 HD
ENDBRANCH   5   7
TORSDOF 1
