REMARK  2 active torsions:
REMARK  status: ('A' for Active; 'I' for Inactive)
REMARK    1  A    between atoms: C1_1  and  C3_3 
REMARK       I    between atoms: C1_1  and  N9_9 
REMARK    2  A    between atoms: C8_8  and  N9_9 
ROOT
HETATM    1  C1  UNL     1     -33.165   7.310   4.687  1.00 20.00     0.222 C 
HETATM    2  N9  UNL     1     -32.710   7.120   5.978  1.00 20.00    -0.357 N 
HETATM    3  O10 UNL     1     -34.325   7.215   4.303  1.00 20.00    -0.273 OA
HETATM    4  H25 UNL     1     -31.717   7.229   6.161  1.00 20.00     0.162 HD
ENDROOT
BRANCH   1   5
HETATM    5  C3  UNL     1     -32.112   7.658   3.727  1.00 20.00     0.082 A 
HETATM    6  C2  UNL     1     -32.491   8.034   2.317  1.00 20.00     0.019 A 
HETATM    7  C4  UNL     1     -31.774   6.740   2.577  1.00 20.00    -0.005 A 
HETATM    8  C5  UNL     1     -32.477   5.443   2.364  1.00 20.00     0.011 C 
ENDBRANCH   1   5
BRANCH   2   9
HETATM    9  C8  UNL     1     -33.579   6.773   7.079  1.00 20.00     0.076 C 
HETATM   10  C6  UNL     1     -34.248   5.438   6.785  1.00 20.00     0.032 C 
HETATM   11  C7  UNL     1     -34.600   7.884   7.270  1.00 20.00     0.032 C 
ENDBRANCH   2   9
TORSDOF 2
