REMARK  4 active torsions:
REMARK  status: ('A' for Active; 'I' for Inactive)
REMARK    1  A    between atoms: C1_1  and  C7_7 
REMARK    2  A    between atoms: C1_1  and  O10_10 
REMARK    3  A    between atoms: C4_4  and  C7_7 
REMARK    4  A    between atoms: C8_8  and  O10_10 
ROOT
HETATM    1  C1  UNL     1     -32.507   7.694   3.701  1.00 20.00     0.259 C 
HETATM    2  O9  UNL     1     -31.684   7.982   4.558  1.00 20.00    -0.265 OA
ENDROOT
BRANCH   1   3
HETATM    3  C7  UNL     1     -32.272   7.758   2.210  1.00 20.00     0.115 C 
BRANCH   3   4
HETATM    4  C4  UNL     1     -33.243   8.697   1.517  1.00 20.00    -0.005 A 
HETATM    5  C2  UNL     1     -32.903  10.152   1.352  1.00 20.00     0.005 A 
HETATM    6  C3  UNL     1     -32.925   9.245   0.154  1.00 20.00     0.005 A 
ENDBRANCH   3   4
ENDBRANCH   1   3
BRANCH   1   7
HETATM    7  O10 UNL     1     -33.784   7.264   3.929  1.00 20.00    -0.317 OA
BRANCH   7   8
HETATM    8  C8  UNL     1     -33.979   6.528   5.141  1.00 20.00     0.123 C 
HETATM    9  C5  UNL     1     -34.303   7.497   6.268  1.00 20.00     0.040 C 
HETATM   10  C6  UNL     1     -35.088   5.508   4.935  1.00 20.00     0.040 C 
ENDBRANCH   7   8
ENDBRANCH   1   7
TORSDOF 4
