REMARK  3 active torsions:
REMARK  status: ('A' for Active; 'I' for Inactive)
REMARK    1  A    between atoms: C1_1  and  C7_7 
REMARK       I    between atoms: C1_1  and  N9_9 
REMARK    2  A    between atoms: C4_4  and  C8_8 
REMARK    3  A    between atoms: C8_8  and  N9_9 
ROOT
HETATM    1  C1  UNL     1     -33.834   6.245   4.215  1.00 20.00     0.219 C 
HETATM    2  C6  UNL     1     -32.223   8.109   4.661  1.00 20.00     0.152 C 
HETATM    3  N9  UNL     1     -32.845   7.132   3.776  1.00 20.00    -0.356 N 
HETATM    4  O10 UNL     1     -34.002   5.122   3.733  1.00 20.00    -0.273 OA
ENDROOT
BRANCH   3   5
HETATM    5  C8  UNL     1     -32.362   7.145   2.397  1.00 20.00     0.130 C 
BRANCH   5   6
HETATM    6  C4  UNL     1     -33.164   8.078   1.555  1.00 20.00     0.004 A 
HETATM    7  C2  UNL     1     -32.903   9.558   1.603  1.00 20.00     0.007 A 
HETATM    8  C3  UNL     1     -32.532   8.769   0.378  1.00 20.00     0.007 A 
ENDBRANCH   5   6
ENDBRANCH   3   5
BRANCH   1   9
HETATM    9  C7  UNL     1     -34.724   6.739   5.347  1.00 20.00     0.098 C 
HETATM   10  C5  UNL     1     -34.180   6.381   6.720  1.00 20.00     0.014 C 
ENDBRANCH   1   9
TORSDOF 3
