REMARK  3 active torsions:
REMARK  status: ('A' for Active; 'I' for Inactive)
REMARK    1  A    between atoms: C5_5  and  C9_9 
REMARK    2  A    between atoms: C6_6  and  C10_10 
REMARK    3  A    between atoms: C6_6  and  O11_11 
ROOT
HETATM    1  C1  UNL     1     -33.449   4.701   3.553  1.00 20.00     0.003 C 
HETATM    2  C2  UNL     1     -33.105   5.796   2.549  1.00 20.00     0.005 C 
HETATM    3  C3  UNL     1     -34.308   5.235   4.699  1.00 20.00     0.038 C 
HETATM    4  C4  UNL     1     -33.284   7.538   4.374  1.00 20.00     0.042 C 
HETATM    5  C5  UNL     1     -32.422   6.991   3.224  1.00 20.00    -0.012 C 
HETATM    6  C6  UNL     1     -33.687   6.458   5.392  1.00 20.00     0.058 C 
ENDROOT
BRANCH   6   7
HETATM    7  C10 UNL     1     -34.646   7.026   6.440  1.00 20.00     0.033 C 
HETATM    8  C8  UNL     1     -34.065   8.216   7.128  1.00 20.00     0.008 C 
ENDBRANCH   6   7
BRANCH   6   9
HETATM    9  O11 UNL     1     -32.510   6.013   6.076  1.00 20.00    -0.390 OA
HETATM   10  H31 UNL     1     -32.135   6.795   6.504  1.00 20.00     0.210 HD
ENDBRANCH   6   9
BRANCH   5  11
HETATM   11  C9  UNL     1     -32.125   8.089   2.203  1.00 20.00     0.000 C 
HETATM   12  C7  UNL     1     -33.375   8.617   1.581  1.00 20.00     0.005 C 
ENDBRANCH   5  11
TORSDOF 3
