REMARK  1 active torsions:
REMARK  status: ('A' for Active; 'I' for Inactive)
REMARK    1  A    between atoms: C6_6  and  C9_9 
ROOT
HETATM    1  C1  UNL     1     -35.403   6.020   4.352  1.00 20.00     0.085 C 
HETATM    2  C2  UNL     1     -33.137   4.813   2.699  1.00 20.00     0.003 C 
HETATM    3  C3  UNL     1     -33.056   6.223   2.110  1.00 20.00     0.005 C 
HETATM    4  C4  UNL     1     -33.263   4.785   4.228  1.00 20.00     0.041 C 
HETATM    5  C5  UNL     1     -33.284   7.323   4.395  1.00 20.00     0.045 C 
HETATM    6  C6  UNL     1     -32.451   7.221   3.098  1.00 20.00    -0.012 C 
HETATM    7  C7  UNL     1     -33.993   6.010   4.788  1.00 20.00     0.125 C 
HETATM    8  N10 UNL     1     -36.512   6.028   4.010  1.00 20.00    -0.195 NA
HETATM    9 CL11 UNL     1     -34.060   5.887   6.582  1.00 20.00    -0.103 Cl
ENDROOT
BRANCH   6  10
HETATM   10  C9  UNL     1     -32.278   8.597   2.457  1.00 20.00     0.000 C 
HETATM   11  C8  UNL     1     -31.424   8.531   1.233  1.00 20.00     0.005 C 
ENDBRANCH   6  10
TORSDOF 1
