REMARK  3 active torsions:
REMARK  status: ('A' for Active; 'I' for Inactive)
REMARK    1  A    between atoms: C5_5  and  C8_8 
REMARK    2  A    between atoms: C6_6  and  C9_9 
REMARK    3  A    between atoms: C9_9  and  C10_10 
ROOT
HETATM    1  C1  UNL     1     -32.425   8.358   4.807  1.00 20.00     0.001 C 
HETATM    2  C2  UNL     1     -33.350   7.341   5.470  1.00 20.00     0.005 C 
HETATM    3  C3  UNL     1     -31.481   7.695   3.807  1.00 20.00     0.005 C 
HETATM    4  C4  UNL     1     -33.173   5.853   3.434  1.00 20.00     0.009 C 
HETATM    5  C5  UNL     1     -34.128   6.518   4.437  1.00 20.00    -0.014 C 
HETATM    6  C6  UNL     1     -32.215   6.847   2.759  1.00 20.00    -0.013 C 
ENDROOT
BRANCH   6   7
HETATM    7  C9  UNL     1     -32.938   7.720   1.730  1.00 20.00     0.020 C 
BRANCH   7   8
HETATM    8  C10 UNL     1     -32.012   8.696   1.019  1.00 20.00     0.115 C 
HETATM    9 CL11 UNL     1     -32.882   9.717  -0.148  1.00 20.00    -0.130 Cl
ENDBRANCH   7   8
ENDBRANCH   6   7
BRANCH   5  10
HETATM   10  C8  UNL     1     -34.995   5.467   5.131  1.00 20.00     0.000 C 
HETATM   11  C7  UNL     1     -34.167   4.496   5.905  1.00 20.00     0.005 C 
ENDBRANCH   5  10
TORSDOF 3
