REMARK  0 active torsions:
REMARK  status: ('A' for Active; 'I' for Inactive)
ROOT
HETATM    1  C1  UNL     1     -32.809   5.142   3.018  1.00 20.00     0.066 C 
HETATM    2  C2  UNL     1     -32.905   7.179   4.517  1.00 20.00     0.077 C 
HETATM    3  C3  UNL     1     -34.037   4.625   3.754  1.00 20.00     0.171 C 
HETATM    4  C4  UNL     1     -32.004   7.434   2.089  1.00 20.00     0.207 A 
HETATM    5  C5  UNL     1     -32.742   6.632   3.131  1.00 20.00     0.087 A 
HETATM    6  C6  UNL     1     -34.102   6.528   5.242  1.00 20.00     0.056 C 
HETATM    7  C7  UNL     1     -33.982   6.801   6.749  1.00 20.00     0.045 C 
HETATM    8  C8  UNL     1     -35.447   7.091   4.759  1.00 20.00     0.045 C 
HETATM    9  O9  UNL     1     -33.438   7.350   2.106  1.00 20.00    -0.375 OA
HETATM   10  O10 UNL     1     -34.061   5.096   5.102  1.00 20.00    -0.381 OA
ENDROOT
TORSDOF 0
