REMARK  4 active torsions:
REMARK  status: ('A' for Active; 'I' for Inactive)
REMARK    1  A    between atoms: C1_1  and  C6_6 
REMARK    2  A    between atoms: C1_1  and  C11_11 
REMARK    3  A    between atoms: C7_7  and  C12_12 
REMARK    4  A    between atoms: C11_11  and  C13_13 
ROOT
HETATM    1  C2  UNL     1     -34.954   4.822   5.568  1.00 20.00     0.001 C 
HETATM    2  C3  UNL     1     -34.422   5.017   4.152  1.00 20.00     0.012 C 
HETATM    3  C4  UNL     1     -33.919   5.205   6.624  1.00 20.00     0.005 C 
HETATM    4  C5  UNL     1     -32.866   6.831   4.971  1.00 20.00     0.016 C 
HETATM    5  C6  UNL     1     -33.931   6.452   3.930  1.00 20.00     0.056 C 
HETATM    6  C7  UNL     1     -33.320   6.590   6.410  1.00 20.00    -0.014 C 
ENDROOT
BRANCH   5   7
HETATM    7  C1  UNL     1     -33.382   6.620   2.514  1.00 20.00     0.131 C 
HETATM    8  O14 UNL     1     -32.870   5.674   1.918  1.00 20.00    -0.298 OA
BRANCH   7   9
HETATM    9  C11 UNL     1     -33.550   7.997   1.891  1.00 20.00     0.082 C 
BRANCH   9  10
HETATM   10  C13 UNL     1     -32.428   8.377   0.913  1.00 20.00    -0.016 C 
HETATM   11  C9  UNL     1     -31.063   8.387   1.605  1.00 20.00     0.010 C 
HETATM   12  C10 UNL     1     -32.707   9.753   0.304  1.00 20.00     0.010 C 
ENDBRANCH   9  10
ENDBRANCH   7   9
ENDBRANCH   5   7
BRANCH   6  13
HETATM   13  C12 UNL     1     -34.310   7.681   6.785  1.00 20.00     0.000 C 
HETATM   14  C8  UNL     1     -33.723   9.043   6.606  1.00 20.00     0.005 C 
ENDBRANCH   6  13
TORSDOF 4
