REMARK  1 active torsions:
REMARK  status: ('A' for Active; 'I' for Inactive)
REMARK    1  A    between atoms: C8_8  and  C10_10 
ROOT
HETATM    1  C1  UNL     1     -32.250   7.949   1.189  1.00 20.00     0.088 C 
HETATM    2  C2  UNL     1     -32.787   6.775   3.223  1.00 20.00    -0.070 C 
HETATM    3  C3  UNL     1     -32.465   7.912   2.589  1.00 20.00     0.096 C 
HETATM    4  C4  UNL     1     -32.942   5.463   2.499  1.00 20.00     0.035 C 
HETATM    5  C5  UNL     1     -33.041   6.720   4.707  1.00 20.00     0.039 C 
HETATM    6  C6  UNL     1     -34.304   4.838   2.801  1.00 20.00     0.005 C 
HETATM    7  C7  UNL     1     -34.562   4.731   4.305  1.00 20.00     0.005 C 
HETATM    8  C8  UNL     1     -34.415   6.094   5.003  1.00 20.00    -0.011 C 
HETATM    9  N11 UNL     1     -32.072   7.986   0.043  1.00 20.00    -0.192 NA
ENDROOT
BRANCH   8  10
HETATM   10  C10 UNL     1     -34.629   5.954   6.509  1.00 20.00     0.000 C 
HETATM   11  C9  UNL     1     -34.536   7.272   7.204  1.00 20.00     0.005 C 
ENDBRANCH   8  10
TORSDOF 1
