REMARK  3 active torsions:
REMARK  status: ('A' for Active; 'I' for Inactive)
REMARK    1  A    between atoms: C1_1  and  C9_9 
REMARK    2  A    between atoms: C6_6  and  C9_9 
REMARK    3  A    between atoms: C7_7  and  C10_10 
ROOT
HETATM    1  C2  UNL     1     -32.773   4.821   2.742  1.00 20.00     0.001 C 
HETATM    2  C3  UNL     1     -33.884   5.218   3.709  1.00 20.00     0.005 C 
HETATM    3  C4  UNL     1     -32.355   5.990   1.854  1.00 20.00     0.005 C 
HETATM    4  C5  UNL     1     -33.075   7.611   3.654  1.00 20.00     0.009 C 
HETATM    5  C6  UNL     1     -33.491   6.437   4.552  1.00 20.00    -0.008 C 
HETATM    6  C7  UNL     1     -31.952   7.215   2.685  1.00 20.00    -0.014 C 
ENDROOT
BRANCH   5   7
HETATM    7  C9  UNL     1     -34.637   6.845   5.477  1.00 20.00     0.074 C 
BRANCH   7   8
HETATM    8  C1  UNL     1     -34.734   5.962   6.691  1.00 20.00     0.231 C 
HETATM    9  O11 UNL     1     -33.982   5.027   6.946  1.00 20.00    -0.307 OA
ENDBRANCH   7   8
ENDBRANCH   5   7
BRANCH   6  10
HETATM   10  C10 UNL     1     -31.587   8.386   1.775  1.00 20.00     0.000 C 
HETATM   11  C8  UNL     1     -32.744   8.810   0.930  1.00 20.00     0.005 C 
ENDBRANCH   6  10
TORSDOF 3
