REMARK  3 active torsions:
REMARK  status: ('A' for Active; 'I' for Inactive)
REMARK    1  A    between atoms: C5_5  and  C8_8 
REMARK    2  A    between atoms: C6_6  and  C9_9 
REMARK    3  A    between atoms: C9_9  and  C10_10 
ROOT
HETATM    1  C1  UNL     1     -32.915   4.852   2.465  1.00 20.00     0.001 C 
HETATM    2  C2  UNL     1     -33.685   4.676   3.771  1.00 20.00     0.005 C 
HETATM    3  C3  UNL     1     -31.838   5.928   2.586  1.00 20.00     0.005 C 
HETATM    4  C4  UNL     1     -33.191   7.077   4.388  1.00 20.00     0.009 C 
HETATM    5  C5  UNL     1     -34.280   6.000   4.267  1.00 20.00    -0.014 C 
HETATM    6  C6  UNL     1     -32.384   7.270   3.094  1.00 20.00    -0.013 C 
ENDROOT
BRANCH   6   7
HETATM    7  C9  UNL     1     -33.200   7.993   2.019  1.00 20.00     0.020 C 
BRANCH   7   8
HETATM    8  C10 UNL     1     -32.374   8.380   0.802  1.00 20.00     0.115 C 
HETATM    9 CL11 UNL     1     -33.340   9.244  -0.417  1.00 20.00    -0.130 Cl
ENDBRANCH   7   8
ENDBRANCH   6   7
BRANCH   5  10
HETATM   10  C8  UNL     1     -34.987   5.801   5.608  1.00 20.00     0.000 C 
HETATM   11  C7  UNL     1     -34.041   5.340   6.667  1.00 20.00     0.005 C 
ENDBRANCH   5  10
TORSDOF 3
