REMARK  3 active torsions:
REMARK  status: ('A' for Active; 'I' for Inactive)
REMARK    1  A    between atoms: C5_5  and  C9_9 
REMARK    2  A    between atoms: C6_6  and  C10_10 
REMARK    3  A    between atoms: C10_10  and  O11_11 
ROOT
HETATM    1  C1  UNL     1     -33.278   4.822   3.483  1.00 20.00     0.001 C 
HETATM    2  C2  UNL     1     -32.500   5.711   2.517  1.00 20.00     0.005 C 
HETATM    3  C3  UNL     1     -34.548   5.508   3.983  1.00 20.00     0.007 C 
HETATM    4  C4  UNL     1     -33.466   7.766   3.629  1.00 20.00     0.011 C 
HETATM    5  C5  UNL     1     -32.184   7.082   3.129  1.00 20.00    -0.014 C 
HETATM    6  C6  UNL     1     -34.283   6.892   4.593  1.00 20.00     0.014 C 
ENDROOT
BRANCH   6   7
HETATM    7  C10 UNL     1     -33.617   6.787   5.967  1.00 20.00     0.118 C 
HETATM    8  C8  UNL     1     -33.392   8.156   6.583  1.00 20.00     0.040 C 
BRANCH   7   9
HETATM    9  O11 UNL     1     -34.446   6.010   6.821  1.00 20.00    -0.396 OA
HETATM   10  H31 UNL     1     -33.997   5.963   7.681  1.00 20.00     0.210 HD
ENDBRANCH   7   9
ENDBRANCH   6   7
BRANCH   5  11
HETATM   11  C9  UNL     1     -31.463   7.969   2.115  1.00 20.00     0.000 C 
HETATM   12  C7  UNL     1     -32.309   8.229   0.912  1.00 20.00     0.005 C 
ENDBRANCH   5  11
TORSDOF 3
