REMARK  3 active torsions:
REMARK  status: ('A' for Active; 'I' for Inactive)
REMARK    1  A    between atoms: C1_1  and  C9_9 
REMARK    2  A    between atoms: C6_6  and  C9_9 
REMARK    3  A    between atoms: C7_7  and  C10_10 
ROOT
HETATM    1  C2  UNL     1     -33.404   4.486   3.541  1.00 20.00     0.001 C 
HETATM    2  C3  UNL     1     -32.736   5.643   2.803  1.00 20.00     0.005 C 
HETATM    3  C4  UNL     1     -34.782   4.875   4.071  1.00 20.00     0.005 C 
HETATM    4  C5  UNL     1     -34.049   7.292   4.199  1.00 20.00     0.009 C 
HETATM    5  C6  UNL     1     -32.659   6.906   3.670  1.00 20.00    -0.008 C 
HETATM    6  C7  UNL     1     -34.757   6.144   4.935  1.00 20.00    -0.014 C 
ENDROOT
BRANCH   5   7
HETATM    7  C9  UNL     1     -32.046   8.062   2.880  1.00 20.00     0.074 C 
BRANCH   7   8
HETATM    8  C1  UNL     1     -32.870   8.433   1.678  1.00 20.00     0.231 C 
HETATM    9  O11 UNL     1     -32.485   8.382   0.515  1.00 20.00    -0.307 OA
ENDBRANCH   7   8
ENDBRANCH   5   7
BRANCH   6  10
HETATM   10  C10 UNL     1     -34.136   5.882   6.309  1.00 20.00     0.000 C 
HETATM   11  C8  UNL     1     -34.166   7.102   7.166  1.00 20.00     0.005 C 
ENDBRANCH   6  10
TORSDOF 3
