REMARK  3 active torsions:
REMARK  status: ('A' for Active; 'I' for Inactive)
REMARK    1  A    between atoms: C1_1  and  C6_6 
REMARK    2  A    between atoms: C1_1  and  C10_10 
REMARK    3  A    between atoms: C7_7  and  C11_11 
ROOT
HETATM    1  C2  UNL     1     -32.973   4.641   2.451  1.00 20.00     0.001 C 
HETATM    2  C3  UNL     1     -32.892   6.025   1.812  1.00 20.00     0.012 C 
HETATM    3  C4  UNL     1     -33.932   4.625   3.639  1.00 20.00     0.005 C 
HETATM    4  C5  UNL     1     -33.492   7.084   4.025  1.00 20.00     0.016 C 
HETATM    5  C6  UNL     1     -32.528   7.086   2.843  1.00 20.00     0.055 C 
HETATM    6  C7  UNL     1     -33.569   5.696   4.677  1.00 20.00    -0.014 C 
ENDROOT
BRANCH   5   7
HETATM    7  C1  UNL     1     -32.634   8.439   2.165  1.00 20.00     0.130 C 
HETATM    8  O12 UNL     1     -32.928   9.448   2.805  1.00 20.00    -0.298 OA
BRANCH   7   9
HETATM    9  C10 UNL     1     -32.357   8.462   0.673  1.00 20.00     0.074 C 
HETATM   10  C8  UNL     1     -32.513   9.847   0.071  1.00 20.00     0.013 C 
ENDBRANCH   7   9
ENDBRANCH   5   7
BRANCH   6  11
HETATM   11  C11 UNL     1     -34.574   5.695   5.828  1.00 20.00     0.000 C 
HETATM   12  C9  UNL     1     -34.220   6.703   6.871  1.00 20.00     0.005 C 
ENDBRANCH   6  11
TORSDOF 3
