REMARK  2 active torsions:
REMARK  status: ('A' for Active; 'I' for Inactive)
REMARK    1  A    between atoms: C8_8  and  C12_12 
REMARK    2  A    between atoms: C11_11  and  N13_13 
ROOT
HETATM    1  C1  UNL     1     -33.400  10.128  -0.048  1.00 20.00     0.013 C 
HETATM    2  C2  UNL     1     -32.851   9.117   0.294  1.00 20.00    -0.087 C 
HETATM    3  C11 UNL     1     -32.178   7.883   0.706  1.00 20.00     0.364 C 
ENDROOT
BRANCH   3   4
HETATM    4  N13 UNL     1     -32.555   7.521   2.073  1.00 20.00     0.099 N 
HETATM    5  C6  UNL     1     -31.784   8.317   3.037  1.00 20.00     0.273 C 
HETATM    6  C3  UNL     1     -31.828   7.845   4.493  1.00 20.00     0.031 C 
HETATM    7  C4  UNL     1     -33.224   7.581   5.054  1.00 20.00     0.007 C 
HETATM    8  C8  UNL     1     -34.105   6.615   4.238  1.00 20.00    -0.010 C 
HETATM    9  C5  UNL     1     -33.297   5.551   3.472  1.00 20.00     0.035 C 
HETATM   10  C7  UNL     1     -32.456   6.076   2.288  1.00 20.00     0.274 C 
BRANCH   8  11
HETATM   11  C12 UNL     1     -35.129   5.946   5.160  1.00 20.00    -0.019 C 
HETATM   12  C9  UNL     1     -36.311   5.424   4.351  1.00 20.00     0.010 C 
HETATM   13  C10 UNL     1     -34.473   4.819   5.951  1.00 20.00     0.010 C 
ENDBRANCH   8  11
ENDBRANCH   3   4
TORSDOF 2
