REMARK  3 active torsions:
REMARK  status: ('A' for Active; 'I' for Inactive)
REMARK    1  A    between atoms: C4_4  and  C6_6 
REMARK    2  A    between atoms: C5_5  and  C6_6 
REMARK    3  A    between atoms: C5_5  and  O8_8 
ROOT
HETATM    1  C1  UNL     1     -33.028   5.911   3.295  1.00 20.00     0.066 C 
HETATM    2  C6  UNL     1     -33.211   7.293   3.789  1.00 20.00     0.116 C 
HETATM    3  N7  UNL     1     -32.887   4.827   2.907  1.00 20.00    -0.197 NA
ENDROOT
BRANCH   2   4
HETATM    4  C4  UNL     1     -32.118   8.221   3.232  1.00 20.00     0.017 C 
HETATM    5  C2  UNL     1     -32.099   8.275   1.709  1.00 20.00     0.006 C 
ENDBRANCH   2   4
BRANCH   2   6
HETATM    6  C5  UNL     1     -33.181   7.303   5.322  1.00 20.00     0.186 C 
BRANCH   6   7
HETATM    7  O8  UNL     1     -34.458   6.929   5.827  1.00 20.00    -0.395 OA
HETATM    8  C3  UNL     1     -34.638   5.520   5.790  1.00 20.00     0.201 C 
ENDBRANCH   6   7
ENDBRANCH   2   6
TORSDOF 3
