REMARK  3 active torsions:
REMARK  status: ('A' for Active; 'I' for Inactive)
REMARK    1  A    between atoms: C4_4  and  C5_5 
REMARK    2  A    between atoms: C4_4  and  C6_6 
REMARK    3  A    between atoms: C5_5  and  C7_7 
ROOT
HETATM    1  C5  UNL     1     -33.361   6.857   4.410  1.00 20.00     0.009 C 
ENDROOT
BRANCH   1   2
HETATM    2  C4  UNL     1     -33.406   7.037   2.887  1.00 20.00     0.016 C 
BRANCH   2   3
HETATM    3  C6  UNL     1     -32.396   8.086   2.435  1.00 20.00     0.114 C 
HETATM    4 CL8  UNL     1     -32.468   8.299   0.671  1.00 20.00    -0.130 Cl
ENDBRANCH   2   3
ENDBRANCH   1   2
BRANCH   1   5
HETATM    5  C7  UNL     1     -34.300   5.766   4.990  1.00 20.00    -0.051 C 
HETATM    6  C1  UNL     1     -35.776   6.100   4.715  1.00 20.00     0.014 C 
HETATM    7  C2  UNL     1     -33.976   4.383   4.404  1.00 20.00     0.014 C 
HETATM    8  C3  UNL     1     -34.088   5.713   6.515  1.00 20.00     0.014 C 
ENDBRANCH   1   5
TORSDOF 3
