REMARK  3 active torsions:
REMARK  status: ('A' for Active; 'I' for Inactive)
REMARK    1  A    between atoms: C6_6  and  C10_10 
REMARK    2  A    between atoms: C7_7  and  N11_11 
REMARK    3  A    between atoms: C9_9  and  N11_11 
ROOT
HETATM    1  C1  UNL     1     -33.894   6.718   7.006  1.00 20.00     0.013 C 
HETATM    2  C2  UNL     1     -34.070   5.893   6.152  1.00 20.00    -0.087 C 
HETATM    3  C9  UNL     1     -34.286   4.883   5.113  1.00 20.00     0.362 C 
ENDROOT
BRANCH   3   4
HETATM    4  N11 UNL     1     -34.283   5.494   3.794  1.00 20.00     0.098 N 
HETATM    5  H28 UNL     1     -34.749   4.878   3.132  1.00 20.00     0.317 HD
BRANCH   4   6
HETATM    6  C7  UNL     1     -32.932   5.728   3.342  1.00 20.00     0.222 C 
HETATM    7  C4  UNL     1     -32.347   6.988   3.979  1.00 20.00     0.036 C 
HETATM    8  C3  UNL     1     -32.682   8.089   2.984  1.00 20.00     0.007 C 
HETATM    9  C6  UNL     1     -32.414   7.419   1.639  1.00 20.00    -0.013 C 
HETATM   10  C5  UNL     1     -32.896   5.973   1.827  1.00 20.00     0.040 C 
BRANCH   9  11
HETATM   11  C10 UNL     1     -33.086   8.129   0.476  1.00 20.00     0.000 C 
HETATM   12  C8  UNL     1     -32.604   9.538   0.326  1.00 20.00     0.005 C 
ENDBRANCH   9  11
ENDBRANCH   4   6
ENDBRANCH   3   4
TORSDOF 3
