REMARK  1 active torsions:
REMARK  status: ('A' for Active; 'I' for Inactive)
REMARK    1  A    between atoms: C8_8  and  N10_10 
ROOT
HETATM    1  C1  UNL     1     -32.710   7.499   2.146  1.00 20.00     0.177 C 
HETATM    2  N9  UNL     1     -32.039   7.481   1.199  1.00 20.00    -0.172 NA
HETATM    3  N10 UNL     1     -33.489   7.522   3.241  1.00 20.00    -0.324 N 
HETATM    4  H22 UNL     1     -34.411   7.979   3.209  1.00 20.00     0.172 HD
ENDROOT
BRANCH   3   5
HETATM    5  C8  UNL     1     -33.401   6.523   4.329  1.00 20.00     0.096 C 
HETATM    6  C5  UNL     1     -33.873   7.123   5.666  1.00 20.00     0.031 C 
HETATM    7  C6  UNL     1     -35.050   6.209   6.057  1.00 20.00    -0.012 C 
HETATM    8  C2  UNL     1     -34.504   4.821   6.435  1.00 20.00     0.005 C 
HETATM    9  C4  UNL     1     -35.696   5.932   4.702  1.00 20.00     0.011 C 
HETATM   10  C3  UNL     1     -34.076   4.237   5.080  1.00 20.00     0.007 C 
HETATM   11  C7  UNL     1     -34.405   5.374   4.096  1.00 20.00     0.009 C 
ENDBRANCH   3   5
TORSDOF 1
