REMARK  3 active torsions:
REMARK  status: ('A' for Active; 'I' for Inactive)
REMARK    1  A    between atoms: C6_6  and  C10_10 
REMARK    2  A    between atoms: C7_7  and  N11_11 
REMARK    3  A    between atoms: C9_9  and  N11_11 
ROOT
HETATM    1  C1  UNL     1     -33.204   9.757  -0.222  1.00 20.00     0.013 C 
HETATM    2  C2  UNL     1     -32.580   9.095   0.561  1.00 20.00    -0.087 C 
HETATM    3  C9  UNL     1     -31.815   8.287   1.514  1.00 20.00     0.362 C 
ENDROOT
BRANCH   3   4
HETATM    4  N11 UNL     1     -32.610   8.002   2.703  1.00 20.00     0.098 N 
HETATM    5  H28 UNL     1     -32.592   8.817   3.318  1.00 20.00     0.317 HD
BRANCH   4   6
HETATM    6  C7  UNL     1     -32.089   6.840   3.420  1.00 20.00     0.222 C 
HETATM    7  C4  UNL     1     -32.537   5.539   2.756  1.00 20.00     0.036 C 
HETATM    8  C3  UNL     1     -33.942   5.260   3.296  1.00 20.00     0.007 C 
HETATM    9  C6  UNL     1     -34.082   6.096   4.579  1.00 20.00    -0.013 C 
HETATM   10  C5  UNL     1     -32.695   6.705   4.817  1.00 20.00     0.040 C 
BRANCH   9  11
HETATM   11  C10 UNL     1     -34.576   5.285   5.767  1.00 20.00     0.000 C 
HETATM   12  C8  UNL     1     -34.680   6.119   7.004  1.00 20.00     0.005 C 
ENDBRANCH   9  11
ENDBRANCH   4   6
ENDBRANCH   3   4
TORSDOF 3
