REMARK  4 active torsions:
REMARK  status: ('A' for Active; 'I' for Inactive)
REMARK    1  A    between atoms: C7_7  and  C10_10 
REMARK    2  A    between atoms: C8_8  and  N11_11 
REMARK    3  A    between atoms: C9_9  and  N11_11 
REMARK    4  A    between atoms: C10_10  and  N11_11 
ROOT
HETATM    1  C1  UNL     1     -34.762   5.034   6.362  1.00 20.00     0.013 C 
HETATM    2  C2  UNL     1     -34.630   5.237   5.186  1.00 20.00    -0.087 C 
HETATM    3  C9  UNL     1     -34.474   5.483   3.751  1.00 20.00     0.365 C 
ENDROOT
BRANCH   3   4
HETATM    4  N11 UNL     1     -33.219   6.184   3.480  1.00 20.00     0.104 N 
BRANCH   4   5
HETATM    5  C8  UNL     1     -33.193   7.472   4.174  1.00 20.00     0.224 A 
HETATM    6  C5  UNL     1     -32.853   7.541   5.637  1.00 20.00     0.038 A 
HETATM    7  C6  UNL     1     -31.889   8.074   4.617  1.00 20.00     0.038 A 
ENDBRANCH   4   5
BRANCH   4   8
HETATM    8  C10 UNL     1     -33.040   6.375   2.041  1.00 20.00     0.278 C 
BRANCH   8   9
HETATM    9  C7  UNL     1     -32.020   7.426   1.761  1.00 20.00     0.014 A 
HETATM   10  C3  UNL     1     -31.978   8.101   0.418  1.00 20.00     0.007 A 
HETATM   11  C4  UNL     1     -32.433   8.865   1.630  1.00 20.00     0.007 A 
ENDBRANCH   8   9
ENDBRANCH   4   8
ENDBRANCH   3   4
TORSDOF 4
