REMARK  0 active torsions:
REMARK  status: ('A' for Active; 'I' for Inactive)
ROOT
HETATM    1  C1  UNL     1     -33.749   4.507   2.837  1.00 20.00     0.004 C 
HETATM    2  C2  UNL     1     -32.687   5.573   2.585  1.00 20.00     0.040 C 
HETATM    3  C3  UNL     1     -33.855   4.164   4.325  1.00 20.00     0.009 C 
HETATM    4  C4  UNL     1     -33.077   6.503   4.933  1.00 20.00     0.049 C 
HETATM    5  C5  UNL     1     -32.393   8.115   3.014  1.00 20.00     0.207 A 
HETATM    6  C6  UNL     1     -32.906   6.767   3.464  1.00 20.00     0.083 A 
HETATM    7  C7  UNL     1     -34.122   5.398   5.220  1.00 20.00    -0.045 C 
HETATM    8  C8  UNL     1     -34.005   4.975   6.697  1.00 20.00     0.015 C 
HETATM    9  C9  UNL     1     -35.550   5.934   4.995  1.00 20.00     0.015 C 
HETATM   10  O10 UNL     1     -33.782   7.762   2.920  1.00 20.00    -0.375 OA
ENDROOT
TORSDOF 0
