REMARK  5 active torsions:
REMARK  status: ('A' for Active; 'I' for Inactive)
REMARK    1  A    between atoms: C4_4  and  C5_5 
REMARK    2  A    between atoms: C5_5  and  C7_7 
REMARK    3  A    between atoms: C6_6  and  C7_7 
REMARK    4  A    between atoms: C6_6  and  O10_10 
REMARK    5  A    between atoms: C7_7  and  N8_8 
ROOT
HETATM    1  C1  UNL     1     -34.037   5.239   4.024  1.00 20.00     0.332 C 
HETATM    2  N8  UNL     1     -33.299   5.977   3.493  1.00 20.00    -0.240 NA
HETATM    3  O9  UNL     1     -34.774   4.491   4.554  1.00 20.00    -0.260 OA
ENDROOT
BRANCH   2   4
HETATM    4  C7  UNL     1     -33.521   7.391   3.825  1.00 20.00     0.136 C 
BRANCH   4   5
HETATM    5  C5  UNL     1     -32.500   8.250   3.068  1.00 20.00     0.029 C 
BRANCH   5   6
HETATM    6  C4  UNL     1     -32.603   8.070   1.550  1.00 20.00    -0.002 C 
HETATM    7  C2  UNL     1     -31.568   8.912   0.820  1.00 20.00     0.005 C 
ENDBRANCH   5   6
ENDBRANCH   4   5
BRANCH   4   8
HETATM    8  C6  UNL     1     -33.409   7.547   5.341  1.00 20.00     0.194 C 
BRANCH   8   9
HETATM    9  O10 UNL     1     -34.604   7.121   5.983  1.00 20.00    -0.394 OA
HETATM   10  C3  UNL     1     -34.523   7.277   7.393  1.00 20.00     0.201 C 
ENDBRANCH   8   9
ENDBRANCH   4   8
ENDBRANCH   2   4
TORSDOF 5
