REMARK  0 active torsions:
REMARK  status: ('A' for Active; 'I' for Inactive)
ROOT
HETATM    1  C1  UNL     1     -32.223   8.031   1.377  1.00 20.00     0.064 C 
HETATM    2  C2  UNL     1     -33.286   5.942   2.147  1.00 20.00     0.020 C 
HETATM    3  C3  UNL     1     -32.929   7.876   3.736  1.00 20.00     0.020 C 
HETATM    4  C4  UNL     1     -33.526   5.010   3.336  1.00 20.00     0.010 C 
HETATM    5  C5  UNL     1     -33.169   6.944   4.924  1.00 20.00     0.010 C 
HETATM    6  C6  UNL     1     -32.380   7.119   2.523  1.00 20.00     0.093 C 
HETATM    7  C7  UNL     1     -34.071   5.736   4.586  1.00 20.00    -0.048 C 
HETATM    8  C8  UNL     1     -34.064   4.758   5.775  1.00 20.00     0.015 C 
HETATM    9  C9  UNL     1     -35.525   6.193   4.357  1.00 20.00     0.015 C 
HETATM   10  N10 UNL     1     -32.100   8.750   0.475  1.00 20.00    -0.197 NA
ENDROOT
TORSDOF 0
