REMARK  0 active torsions:
REMARK  status: ('A' for Active; 'I' for Inactive)
ROOT
HETATM    1  C1  UNL     1     -33.416   5.389   2.349  1.00 20.00     0.035 C 
HETATM    2  C2  UNL     1     -33.663   4.723   3.704  1.00 20.00     0.011 C 
HETATM    3  C3  UNL     1     -33.802   6.913   4.965  1.00 20.00     0.043 C 
HETATM    4  C4  UNL     1     -33.036   6.827   2.458  1.00 20.00     0.151 A 
HETATM    5  C5  UNL     1     -33.269   7.586   3.737  1.00 20.00     0.151 A 
HETATM    6  C6  UNL     1     -34.524   5.578   4.665  1.00 20.00    -0.045 C 
HETATM    7  C7  UNL     1     -34.710   4.806   5.985  1.00 20.00     0.015 C 
HETATM    8  C8  UNL     1     -35.918   5.848   4.068  1.00 20.00     0.015 C 
HETATM    9  O9  UNL     1     -31.961   7.117   3.353  1.00 20.00    -0.375 OA
ENDROOT
TORSDOF 0
