REMARK  2 active torsions:
REMARK  status: ('A' for Active; 'I' for Inactive)
REMARK    1  A    between atoms: C8_8  and  C10_10 
REMARK    2  A    between atoms: C9_9  and  O11_11 
ROOT
HETATM    1  C1  UNL     1     -32.336   8.764   0.470  1.00 20.00     0.012 C 
HETATM    2  C2  UNL     1     -32.339   7.781   1.159  1.00 20.00    -0.117 C 
HETATM    3  C10 UNL     1     -32.331   6.574   1.986  1.00 20.00     0.097 C 
ENDROOT
BRANCH   3   4
HETATM    4  C8  UNL     1     -33.156   6.784   3.262  1.00 20.00    -0.001 C 
HETATM    5  C5  UNL     1     -32.338   7.627   4.252  1.00 20.00     0.005 C 
HETATM    6  C3  UNL     1     -32.803   7.655   5.705  1.00 20.00     0.000 C 
HETATM    7  C4  UNL     1     -34.314   7.640   5.909  1.00 20.00     0.002 C 
HETATM    8  C6  UNL     1     -34.885   6.226   5.933  1.00 20.00     0.032 C 
HETATM    9  C9  UNL     1     -34.942   5.516   4.582  1.00 20.00     0.118 C 
HETATM   10  C7  UNL     1     -33.613   5.432   3.826  1.00 20.00     0.037 C 
BRANCH   9  11
HETATM   11  O11 UNL     1     -35.390   4.176   4.807  1.00 20.00    -0.396 OA
HETATM   12  H27 UNL     1     -36.266   4.249   5.211  1.00 20.00     0.210 HD
ENDBRANCH   9  11
ENDBRANCH   3   4
TORSDOF 2
