REMARK  1 active torsions:
REMARK  status: ('A' for Active; 'I' for Inactive)
REMARK    1  A    between atoms: C7_7  and  C9_9 
ROOT
HETATM    1  C1  UNL     1     -32.145   7.435   1.605  1.00 20.00     0.012 C 
HETATM    2  C2  UNL     1     -32.258   7.458   2.800  1.00 20.00    -0.117 C 
HETATM    3  C9  UNL     1     -32.383   7.484   4.260  1.00 20.00     0.097 C 
ENDROOT
BRANCH   3   4
HETATM    4  C7  UNL     1     -33.835   7.720   4.681  1.00 20.00    -0.002 C 
HETATM    5  C4  UNL     1     -33.967   7.848   6.205  1.00 20.00     0.005 C 
HETATM    6  C3  UNL     1     -33.907   6.504   6.927  1.00 20.00     0.002 C 
HETATM    7  C5  UNL     1     -34.959   5.538   6.387  1.00 20.00     0.020 C 
HETATM    8  C8  UNL     1     -34.869   5.337   4.874  1.00 20.00     0.082 C 
HETATM    9  C6  UNL     1     -34.810   6.670   4.118  1.00 20.00     0.025 C 
HETATM   10 CL10 UNL     1     -33.479   4.290   4.459  1.00 20.00    -0.125 Cl
ENDBRANCH   3   4
TORSDOF 1
