REMARK  3 active torsions:
REMARK  status: ('A' for Active; 'I' for Inactive)
REMARK    1  A    between atoms: C4_4  and  C5_5 
REMARK    2  A    between atoms: C5_5  and  C6_6 
REMARK    3  A    between atoms: C6_6  and  C7_7 
ROOT
HETATM    1  C1  UNL     1     -33.289   6.955   5.264  1.00 20.00     0.033 C 
HETATM    2  C2  UNL     1     -34.303   7.052   6.384  1.00 20.00     0.168 C 
HETATM    3  C3  UNL     1     -34.639   5.037   5.264  1.00 20.00     0.172 C 
HETATM    4  C4  UNL     1     -33.983   6.013   4.304  1.00 20.00     0.011 C 
HETATM    5  O8  UNL     1     -34.986   5.791   6.437  1.00 20.00    -0.391 OA
ENDROOT
BRANCH   4   6
HETATM    6  C5  UNL     1     -33.056   5.354   3.300  1.00 20.00     0.008 C 
BRANCH   6   7
HETATM    7  C6  UNL     1     -32.313   6.390   2.453  1.00 20.00     0.015 C 
BRANCH   7   8
HETATM    8  C7  UNL     1     -33.285   7.238   1.643  1.00 20.00     0.114 C 
HETATM    9 CL9  UNL     1     -32.402   8.444   0.679  1.00 20.00    -0.130 Cl
ENDBRANCH   7   8
ENDBRANCH   6   7
ENDBRANCH   4   6
TORSDOF 3
