REMARK  1 active torsions:
REMARK  status: ('A' for Active; 'I' for Inactive)
REMARK    1  A    between atoms: C4_4  and  C8_8 
ROOT
HETATM    1  C1  UNL     1     -33.168   7.375   4.959  1.00 20.00     0.006 C 
HETATM    2  C2  UNL     1     -33.931   7.597   6.259  1.00 20.00     0.020 C 
HETATM    3  C3  UNL     1     -35.336   6.222   4.890  1.00 20.00     0.025 C 
HETATM    4  C4  UNL     1     -34.204   6.771   4.002  1.00 20.00    -0.010 C 
HETATM    5  C5  UNL     1     -34.875   6.404   6.334  1.00 20.00     0.082 C 
HETATM    6 CL9  UNL     1     -34.012   4.946   6.905  1.00 20.00    -0.125 Cl
ENDROOT
BRANCH   4   7
HETATM    7  C8  UNL     1     -33.600   5.711   3.091  1.00 20.00    -0.019 C 
HETATM    8  C6  UNL     1     -32.505   6.314   2.211  1.00 20.00     0.010 C 
HETATM    9  C7  UNL     1     -33.044   4.546   3.911  1.00 20.00     0.010 C 
ENDBRANCH   4   7
TORSDOF 1
