REMARK  2 active torsions:
REMARK  status: ('A' for Active; 'I' for Inactive)
REMARK    1  A    between atoms: C6_6  and  C7_7 
REMARK    2  A    between atoms: C8_8  and  O9_9 
ROOT
HETATM    1  C3  UNL     1     -33.667   7.276   5.393  1.00 20.00     0.007 C 
HETATM    2  C4  UNL     1     -34.502   6.248   6.165  1.00 20.00     0.032 C 
HETATM    3  C5  UNL     1     -33.447   5.191   4.248  1.00 20.00     0.036 C 
HETATM    4  C7  UNL     1     -33.503   6.696   3.990  1.00 20.00    -0.008 C 
HETATM    5  C8  UNL     1     -34.527   4.984   5.303  1.00 20.00     0.118 C 
ENDROOT
BRANCH   4   6
HETATM    6  C6  UNL     1     -32.277   7.224   3.264  1.00 20.00    -0.010 A 
HETATM    7  C1  UNL     1     -32.171   7.102   1.769  1.00 20.00     0.005 A 
HETATM    8  C2  UNL     1     -32.379   8.451   2.401  1.00 20.00     0.005 A 
ENDBRANCH   4   6
BRANCH   5   9
HETATM    9  O9  UNL     1     -35.790   4.869   4.653  1.00 20.00    -0.396 OA
HETATM   10  H23 UNL     1     -36.458   4.821   5.354  1.00 20.00     0.210 HD
ENDBRANCH   5   9
TORSDOF 2
