REMARK  4 active torsions:
REMARK  status: ('A' for Active; 'I' for Inactive)
REMARK    1  A    between atoms: C5_5  and  C8_8 
REMARK    2  A    between atoms: C6_6  and  C9_9 
REMARK    3  A    between atoms: C9_9  and  C10_10 
REMARK    4  A    between atoms: C10_10  and  C11_11 
ROOT
HETATM    1  C1  UNL     1     -33.411   4.173   4.191  1.00 20.00     0.001 C 
HETATM    2  C2  UNL     1     -34.685   4.746   4.807  1.00 20.00     0.005 C 
HETATM    3  C3  UNL     1     -32.875   5.061   3.072  1.00 20.00     0.005 C 
HETATM    4  C4  UNL     1     -33.947   7.077   4.159  1.00 20.00     0.009 C 
HETATM    5  C5  UNL     1     -34.523   6.198   5.280  1.00 20.00    -0.014 C 
HETATM    6  C6  UNL     1     -32.661   6.506   3.542  1.00 20.00    -0.014 C 
ENDROOT
BRANCH   6   7
HETATM    7  C9  UNL     1     -32.187   7.382   2.383  1.00 20.00     0.005 C 
BRANCH   7   8
HETATM    8  C10 UNL     1     -33.227   7.430   1.269  1.00 20.00     0.015 C 
BRANCH   8   9
HETATM    9  C11 UNL     1     -32.760   8.331   0.134  1.00 20.00     0.114 C 
HETATM   10 CL12 UNL     1     -32.512   9.991   0.722  1.00 20.00    -0.130 Cl
ENDBRANCH   8   9
ENDBRANCH   7   8
ENDBRANCH   6   7
BRANCH   5  11
HETATM   11  C8  UNL     1     -33.685   6.286   6.558  1.00 20.00     0.000 C 
HETATM   12  C7  UNL     1     -33.582   7.691   7.053  1.00 20.00     0.005 C 
ENDBRANCH   5  11
TORSDOF 4
