REMARK  3 active torsions:
REMARK  status: ('A' for Active; 'I' for Inactive)
REMARK    1  A    between atoms: C5_5  and  C9_9 
REMARK    2  A    between atoms: C9_9  and  C11_11 
REMARK    3  A    between atoms: C10_10  and  C11_11 
ROOT
HETATM    1  C1  UNL     1     -32.980   5.867   7.094  1.00 20.00     0.002 C 
HETATM    2  C2  UNL     1     -33.230   7.305   6.645  1.00 20.00     0.005 C 
HETATM    3  C3  UNL     1     -34.213   4.995   6.873  1.00 20.00     0.020 C 
HETATM    4  C4  UNL     1     -34.873   6.457   4.903  1.00 20.00     0.024 C 
HETATM    5  C5  UNL     1     -33.696   7.408   5.187  1.00 20.00    -0.013 C 
HETATM    6  C6  UNL     1     -34.719   5.026   5.431  1.00 20.00     0.082 C 
HETATM    7 CL12 UNL     1     -33.658   4.050   4.371  1.00 20.00    -0.125 Cl
ENDROOT
BRANCH   5   8
HETATM    8  C9  UNL     1     -32.531   7.236   4.210  1.00 20.00     0.009 C 
BRANCH   8   9
HETATM    9  C11 UNL     1     -32.805   7.823   2.811  1.00 20.00    -0.019 C 
HETATM   10  C8  UNL     1     -31.889   7.206   1.749  1.00 20.00     0.010 C 
BRANCH   9  11
HETATM   11  C10 UNL     1     -32.644   9.356   2.878  1.00 20.00    -0.000 C 
HETATM   12  C7  UNL     1     -32.949  10.065   1.566  1.00 20.00     0.005 C 
ENDBRANCH   9  11
ENDBRANCH   8   9
ENDBRANCH   5   8
TORSDOF 3
