REMARK  3 active torsions:
REMARK  status: ('A' for Active; 'I' for Inactive)
REMARK    1  A    between atoms: C4_4  and  C7_7 
REMARK    2  A    between atoms: C7_7  and  C9_9 
REMARK    3  A    between atoms: C8_8  and  C9_9 
ROOT
HETATM    1  C1  UNL     1     -32.727   7.594   4.773  1.00 20.00     0.006 C 
HETATM    2  C2  UNL     1     -33.216   7.072   6.127  1.00 20.00     0.020 C 
HETATM    3  C3  UNL     1     -34.090   5.609   4.458  1.00 20.00     0.024 C 
HETATM    4  C4  UNL     1     -33.490   6.797   3.704  1.00 20.00    -0.013 C 
HETATM    5  C5  UNL     1     -34.441   6.228   5.802  1.00 20.00     0.082 C 
HETATM    6 CL10 UNL     1     -34.768   5.007   7.040  1.00 20.00    -0.125 Cl
ENDROOT
BRANCH   4   7
HETATM    7  C7  UNL     1     -32.618   6.377   2.532  1.00 20.00     0.005 C 
BRANCH   7   8
HETATM    8  C9  UNL     1     -32.048   7.589   1.798  1.00 20.00     0.000 C 
BRANCH   8   9
HETATM    9  C8  UNL     1     -33.162   8.496   1.277  1.00 20.00    -0.005 C 
HETATM   10  C6  UNL     1     -32.600   9.722   0.575  1.00 20.00     0.005 C 
ENDBRANCH   8   9
ENDBRANCH   7   8
ENDBRANCH   4   7
TORSDOF 3
