REMARK  2 active torsions:
REMARK  status: ('A' for Active; 'I' for Inactive)
REMARK    1  A    between atoms: C7_7  and  C10_10 
REMARK    2  A    between atoms: C9_9  and  C10_10 
ROOT
HETATM    1  C2  UNL     1     -33.101   7.130   6.457  1.00 20.00     0.006 C 
HETATM    2  C3  UNL     1     -34.372   6.419   6.903  1.00 20.00     0.020 C 
HETATM    3  C5  UNL     1     -34.668   6.917   4.578  1.00 20.00     0.025 C 
HETATM    4  C7  UNL     1     -33.443   7.705   5.077  1.00 20.00    -0.011 C 
HETATM    5  C8  UNL     1     -34.926   5.825   5.614  1.00 20.00     0.082 C 
HETATM    6 CL12 UNL     1     -34.053   4.327   5.179  1.00 20.00    -0.125 Cl
ENDROOT
BRANCH   4   7
HETATM    7  C10 UNL     1     -32.265   7.639   4.115  1.00 20.00     0.036 C 
BRANCH   7   8
HETATM    8  C9  UNL     1     -32.713   7.707   2.668  1.00 20.00     0.121 C 
HETATM    9  C4  UNL     1     -31.603   8.095   1.707  1.00 20.00     0.034 C 
HETATM   10  C1  UNL     1     -32.387   8.703   0.572  1.00 20.00     0.029 C 
HETATM   11  C6  UNL     1     -33.489   9.434   1.309  1.00 20.00     0.168 C 
HETATM   12  O11 UNL     1     -33.737   8.705   2.520  1.00 20.00    -0.386 OA
ENDBRANCH   7   8
ENDBRANCH   4   7
TORSDOF 2
