REMARK  2 active torsions:
REMARK  status: ('A' for Active; 'I' for Inactive)
REMARK    1  A    between atoms: C7_7  and  C9_9 
REMARK    2  A    between atoms: C8_8  and  O10_10 
ROOT
HETATM    1  C1  UNL     1     -32.405   8.710   0.463  1.00 20.00     0.012 C 
HETATM    2  C2  UNL     1     -32.486   8.388   1.617  1.00 20.00    -0.117 C 
HETATM    3  C9  UNL     1     -32.576   8.003   3.028  1.00 20.00     0.097 C 
ENDROOT
BRANCH   3   4
HETATM    4  C7  UNL     1     -33.513   6.812   3.212  1.00 20.00    -0.001 C 
HETATM    5  C4  UNL     1     -32.810   5.504   2.822  1.00 20.00     0.005 C 
HETATM    6  C3  UNL     1     -33.708   4.289   3.047  1.00 20.00     0.003 C 
HETATM    7  C5  UNL     1     -34.224   4.230   4.481  1.00 20.00     0.032 C 
HETATM    8  C8  UNL     1     -34.925   5.528   4.877  1.00 20.00     0.118 C 
HETATM    9  C6  UNL     1     -34.027   6.745   4.656  1.00 20.00     0.037 C 
BRANCH   8  10
HETATM   10  O10 UNL     1     -35.311   5.462   6.246  1.00 20.00    -0.396 OA
HETATM   11  H24 UNL     1     -35.913   4.706   6.329  1.00 20.00     0.210 HD
ENDBRANCH   8  10
ENDBRANCH   3   4
TORSDOF 2
