REMARK  1 active torsions:
REMARK  status: ('A' for Active; 'I' for Inactive)
REMARK    1  A    between atoms: C8_8  and  C9_9 
ROOT
HETATM    1  C1  UNL     1     -33.655   4.818   3.551  1.00 20.00     0.002 C 
HETATM    2  C2  UNL     1     -33.336   5.957   2.585  1.00 20.00     0.005 C 
HETATM    3  C3  UNL     1     -34.386   5.320   4.794  1.00 20.00     0.020 C 
HETATM    4  C5  UNL     1     -33.289   7.583   4.521  1.00 20.00     0.025 C 
HETATM    5  C8  UNL     1     -32.548   7.080   3.273  1.00 20.00    -0.007 C 
HETATM    6  C10 UNL     1     -33.599   6.435   5.483  1.00 20.00     0.082 C 
HETATM    7 CL12 UNL     1     -34.520   7.049   6.885  1.00 20.00    -0.125 Cl
ENDROOT
BRANCH   5   8
HETATM    8  C9  UNL     1     -32.288   8.220   2.308  1.00 20.00     0.015 C 
HETATM    9  C4  UNL     1     -33.540   8.826   1.712  1.00 20.00     0.033 C 
HETATM   10  C6  UNL     1     -32.987   9.533   0.492  1.00 20.00     0.168 C 
HETATM   11  O11 UNL     1     -31.857   8.769   0.046  1.00 20.00    -0.391 OA
HETATM   12  C7  UNL     1     -31.532   7.804   1.058  1.00 20.00     0.172 C 
ENDBRANCH   5   8
TORSDOF 1
