REMARK  1 active torsions:
REMARK  status: ('A' for Active; 'I' for Inactive)
REMARK    1  A    between atoms: C4_4  and  C9_9 
ROOT
HETATM    1  C1  UNL     1     -33.746   5.360   3.396  1.00 20.00     0.006 C 
HETATM    2  C2  UNL     1     -32.784   5.771   2.279  1.00 20.00     0.016 C 
HETATM    3  C3  UNL     1     -32.442   7.163   4.255  1.00 20.00     0.021 C 
HETATM    4  C4  UNL     1     -33.858   6.589   4.294  1.00 20.00    -0.006 C 
HETATM    5  C5  UNL     1     -32.018   6.986   2.802  1.00 20.00     0.058 C 
HETATM    6 BR10 UNL     1     -32.498   8.578   1.770  1.00 20.00    -0.091 Br
ENDROOT
BRANCH   4   7
HETATM    7  C9  UNL     1     -34.330   6.261   5.701  1.00 20.00    -0.048 C 
HETATM    8  C6  UNL     1     -35.740   5.640   5.653  1.00 20.00     0.015 C 
HETATM    9  C7  UNL     1     -34.378   7.542   6.554  1.00 20.00     0.015 C 
HETATM   10  C8  UNL     1     -33.365   5.257   6.360  1.00 20.00     0.015 C 
ENDBRANCH   4   7
TORSDOF 1
