REMARK  1 active torsions:
REMARK  status: ('A' for Active; 'I' for Inactive)
REMARK    1  A    between atoms: C7_7  and  C8_8 
ROOT
HETATM    1  C1  UNL     1     -32.193   8.705   1.807  1.00 20.00     0.012 C 
HETATM    2  C2  UNL     1     -32.317   7.548   2.103  1.00 20.00    -0.117 C 
HETATM    3  C8  UNL     1     -32.466   6.132   2.462  1.00 20.00     0.098 C 
ENDROOT
BRANCH   3   4
HETATM    4  C7  UNL     1     -33.543   5.940   3.516  1.00 20.00     0.004 C 
HETATM    5  C5  UNL     1     -33.230   6.667   4.826  1.00 20.00     0.083 C 
HETATM    6  C3  UNL     1     -34.005   5.846   5.825  1.00 20.00     0.127 C 
HETATM    7  C4  UNL     1     -34.495   4.548   5.240  1.00 20.00     0.079 C 
HETATM    8  O9  UNL     1     -34.214   6.197   6.979  1.00 20.00    -0.298 OA
HETATM    9  C6  UNL     1     -33.709   4.479   3.936  1.00 20.00     0.013 C 
ENDBRANCH   3   4
TORSDOF 1
