REMARK  1 active torsions:
REMARK  status: ('A' for Active; 'I' for Inactive)
REMARK    1  A    between atoms: C6_6  and  C8_8 
ROOT
HETATM    1  C1  UNL     1     -32.320   8.080   1.344  1.00 20.00     0.064 C 
HETATM    2  C2  UNL     1     -31.449   7.667   3.636  1.00 20.00     0.019 C 
HETATM    3  C3  UNL     1     -32.551   7.699   4.688  1.00 20.00     0.006 C 
HETATM    4  C4  UNL     1     -33.430   6.451   2.852  1.00 20.00     0.024 C 
HETATM    5  C5  UNL     1     -32.100   7.062   2.383  1.00 20.00     0.093 C 
HETATM    6  C6  UNL     1     -33.352   6.439   4.380  1.00 20.00    -0.014 C 
HETATM    7  N9  UNL     1     -32.494   8.882   0.525  1.00 20.00    -0.197 NA
ENDROOT
BRANCH   6   8
HETATM    8  C8  UNL     1     -34.714   6.417   5.050  1.00 20.00     0.000 C 
HETATM    9  C7  UNL     1     -34.605   6.445   6.543  1.00 20.00     0.005 C 
ENDBRANCH   6   8
TORSDOF 1
