REMARK  1 active torsions:
REMARK  status: ('A' for Active; 'I' for Inactive)
REMARK    1  A    between atoms: C8_8  and  C9_9 
ROOT
HETATM    1  C1  UNL     1     -32.265   8.033   1.304  1.00 20.00     0.012 C 
HETATM    2  C2  UNL     1     -32.350   7.704   2.455  1.00 20.00    -0.117 C 
HETATM    3  C9  UNL     1     -32.442   7.302   3.862  1.00 20.00     0.098 C 
ENDROOT
BRANCH   3   4
HETATM    4  C8  UNL     1     -33.903   7.186   4.306  1.00 20.00     0.004 C 
HETATM    5  C5  UNL     1     -34.533   5.885   3.800  1.00 20.00     0.083 C 
HETATM    6  C3  UNL     1     -34.056   4.691   4.598  1.00 20.00     0.127 C 
HETATM    7  C4  UNL     1     -34.146   4.805   6.103  1.00 20.00     0.078 C 
HETATM    8  O10 UNL     1     -33.708   3.646   4.050  1.00 20.00    -0.298 OA
HETATM    9  C6  UNL     1     -33.507   6.100   6.582  1.00 20.00     0.008 C 
HETATM   10  C7  UNL     1     -34.050   7.315   5.830  1.00 20.00     0.006 C 
ENDBRANCH   3   4
TORSDOF 1
