REMARK  1 active torsions:
REMARK  status: ('A' for Active; 'I' for Inactive)
REMARK    1  A    between atoms: C6_6  and  C7_7 
ROOT
HETATM    1  C3  UNL     1     -33.717   7.315   4.858  1.00 20.00     0.006 C 
HETATM    2  C4  UNL     1     -32.406   7.627   4.133  1.00 20.00     0.020 C 
HETATM    3  C5  UNL     1     -33.166   5.550   3.264  1.00 20.00     0.025 C 
HETATM    4  C7  UNL     1     -34.265   6.027   4.221  1.00 20.00    -0.009 C 
HETATM    5  C8  UNL     1     -32.457   6.829   2.836  1.00 20.00     0.082 C 
HETATM    6 CL9  UNL     1     -33.396   7.699   1.591  1.00 20.00    -0.125 Cl
ENDROOT
BRANCH   4   7
HETATM    7  C6  UNL     1     -34.647   4.971   5.247  1.00 20.00    -0.010 A 
HETATM    8  C1  UNL     1     -33.788   4.747   6.460  1.00 20.00     0.005 A 
HETATM    9  C2  UNL     1     -35.143   5.381   6.606  1.00 20.00     0.005 A 
ENDBRANCH   4   7
TORSDOF 1
