REMARK  4 active torsions:
REMARK  status: ('A' for Active; 'I' for Inactive)
REMARK    1  A    between atoms: C5_5  and  C6_6 
REMARK    2  A    between atoms: C6_6  and  C7_7 
REMARK    3  A    between atoms: C7_7  and  C9_9 
REMARK    4  A    between atoms: C8_8  and  C9_9 
ROOT
HETATM    1  C1  UNL     1     -32.691   8.984  -0.565  1.00 20.00     0.012 C 
HETATM    2  C2  UNL     1     -32.504   8.457   0.497  1.00 20.00    -0.117 C 
HETATM    3  C5  UNL     1     -32.272   7.809   1.796  1.00 20.00     0.093 C 
ENDROOT
BRANCH   3   4
HETATM    4  C6  UNL     1     -33.489   7.906   2.719  1.00 20.00     0.014 C 
BRANCH   4   5
HETATM    5  C7  UNL     1     -33.254   7.245   4.084  1.00 20.00     0.021 C 
BRANCH   5   6
HETATM    6  C9  UNL     1     -34.498   7.250   4.989  1.00 20.00     0.085 C 
HETATM    7 CL10 UNL     1     -33.939   7.212   6.700  1.00 20.00    -0.125 Cl
BRANCH   6   8
HETATM    8  C8  UNL     1     -35.528   6.126   4.710  1.00 20.00    -0.004 C 
HETATM    9  C3  UNL     1     -36.449   6.472   3.533  1.00 20.00     0.011 C 
HETATM   10  C4  UNL     1     -34.899   4.747   4.486  1.00 20.00     0.011 C 
ENDBRANCH   6   8
ENDBRANCH   5   6
ENDBRANCH   4   5
ENDBRANCH   3   4
TORSDOF 4
