REMARK  2 active torsions:
REMARK  status: ('A' for Active; 'I' for Inactive)
REMARK    1  A    between atoms: C4_4  and  C10_10 
REMARK    2  A    between atoms: C8_8  and  C10_10 
ROOT
HETATM    1  C5  UNL     1     -33.418   5.042   4.231  1.00 20.00     0.006 C 
HETATM    2  C6  UNL     1     -34.651   5.086   5.123  1.00 20.00     0.016 C 
HETATM    3  C7  UNL     1     -34.025   7.371   4.520  1.00 20.00     0.020 C 
HETATM    4  C8  UNL     1     -33.493   6.370   3.483  1.00 20.00    -0.009 C 
HETATM    5  C9  UNL     1     -34.708   6.531   5.601  1.00 20.00     0.058 C 
HETATM    6 BR12 UNL     1     -33.741   6.706   7.294  1.00 20.00    -0.091 Br
ENDROOT
BRANCH   4   7
HETATM    7  C10 UNL     1     -32.164   6.786   2.875  1.00 20.00     0.043 C 
BRANCH   7   8
HETATM    8  C4  UNL     1     -32.342   7.807   1.782  1.00 20.00    -0.051 A 
HETATM    9  C1  UNL     1     -31.893   7.624   0.442  1.00 20.00     0.014 A 
HETATM   10  C2  UNL     1     -32.180   8.711  -0.354  1.00 20.00     0.050 A 
HETATM   11  S11 UNL     1     -32.988   9.946   0.514  1.00 20.00    -0.113 SA
HETATM   12  C3  UNL     1     -32.955   9.028   1.959  1.00 20.00     0.056 A 
ENDBRANCH   7   8
ENDBRANCH   4   7
TORSDOF 2
