REMARK  1 active torsions:
REMARK  status: ('A' for Active; 'I' for Inactive)
REMARK    1  A    between atoms: C8_8  and  C10_10 
ROOT
HETATM    1  C1  UNL     1     -32.359   8.150   1.535  1.00 20.00     0.012 C 
HETATM    2  C2  UNL     1     -32.470   7.753   2.662  1.00 20.00    -0.117 C 
HETATM    3  C10 UNL     1     -32.588   7.264   4.036  1.00 20.00     0.097 C 
ENDROOT
BRANCH   3   4
HETATM    4  C8  UNL     1     -34.005   7.473   4.564  1.00 20.00    -0.002 C 
HETATM    5  C5  UNL     1     -34.062   7.598   6.095  1.00 20.00     0.005 C 
HETATM    6  C3  UNL     1     -33.648   6.378   6.911  1.00 20.00     0.000 C 
HETATM    7  C4  UNL     1     -34.467   5.116   6.643  1.00 20.00     0.001 C 
HETATM    8  C6  UNL     1     -34.085   4.432   5.335  1.00 20.00     0.020 C 
HETATM    9  C9  UNL     1     -34.781   4.981   4.089  1.00 20.00     0.082 C 
HETATM   10  C7  UNL     1     -35.049   6.488   4.015  1.00 20.00     0.025 C 
HETATM   11 CL11 UNL     1     -33.887   4.424   2.632  1.00 20.00    -0.125 Cl
ENDBRANCH   3   4
TORSDOF 1
