REMARK  1 active torsions:
REMARK  status: ('A' for Active; 'I' for Inactive)
REMARK    1  A    between atoms: C8_8  and  C10_10 
ROOT
HETATM    1  C1  UNL     1     -32.750   8.516   0.558  1.00 20.00     0.012 C 
HETATM    2  C2  UNL     1     -32.379   8.285   1.676  1.00 20.00    -0.117 C 
HETATM    3  C10 UNL     1     -31.909   8.009   3.033  1.00 20.00     0.097 C 
ENDROOT
BRANCH   3   4
HETATM    4  C8  UNL     1     -33.032   7.399   3.884  1.00 20.00    -0.002 C 
HETATM    5  C5  UNL     1     -32.734   7.640   5.372  1.00 20.00     0.005 C 
HETATM    6  C3  UNL     1     -33.965   7.479   6.255  1.00 20.00     0.000 C 
HETATM    7  C4  UNL     1     -34.277   6.058   6.706  1.00 20.00     0.001 C 
HETATM    8  C6  UNL     1     -33.948   4.909   5.757  1.00 20.00     0.016 C 
HETATM    9  C9  UNL     1     -34.214   5.080   4.268  1.00 20.00     0.058 C 
HETATM   10  C7  UNL     1     -33.186   5.917   3.510  1.00 20.00     0.021 C 
HETATM   11 BR11 UNL     1     -36.038   5.656   3.898  1.00 20.00    -0.091 Br
ENDBRANCH   3   4
TORSDOF 1
