REMARK  2 active torsions:
REMARK  status: ('A' for Active; 'I' for Inactive)
REMARK    1  A    between atoms: C4_4  and  C10_10 
REMARK    2  A    between atoms: C8_8  and  C10_10 
ROOT
HETATM    1  C5  UNL     1     -34.759   6.453   3.232  1.00 20.00     0.006 C 
HETATM    2  C6  UNL     1     -35.761   5.954   4.276  1.00 20.00     0.020 C 
HETATM    3  C7  UNL     1     -33.980   6.955   5.489  1.00 20.00     0.025 C 
HETATM    4  C8  UNL     1     -33.557   7.003   4.016  1.00 20.00    -0.009 C 
HETATM    5  C9  UNL     1     -34.961   5.792   5.562  1.00 20.00     0.082 C 
HETATM    6 CL12 UNL     1     -34.102   4.226   5.583  1.00 20.00    -0.125 Cl
ENDROOT
BRANCH   4   7
HETATM    7  C10 UNL     1     -33.141   8.396   3.571  1.00 20.00     0.043 C 
BRANCH   7   8
HETATM    8  C4  UNL     1     -32.742   8.425   2.119  1.00 20.00    -0.051 A 
HETATM    9  C1  UNL     1     -32.129   7.331   1.442  1.00 20.00     0.014 A 
HETATM   10  C2  UNL     1     -31.868   7.621   0.121  1.00 20.00     0.050 A 
HETATM   11  S11 UNL     1     -32.361   9.207  -0.299  1.00 20.00    -0.113 SA
HETATM   12  C3  UNL     1     -32.926   9.509   1.289  1.00 20.00     0.056 A 
ENDBRANCH   7   8
ENDBRANCH   4   7
TORSDOF 2
