REMARK  1 active torsions:
REMARK  status: ('A' for Active; 'I' for Inactive)
REMARK    1  A    between atoms: C4_4  and  C9_9 
ROOT
HETATM    1  C1  UNL     1     -33.685   6.753   5.204  1.00 20.00     0.052 A 
HETATM    2  C2  UNL     1     -33.250   5.572   3.186  1.00 20.00     0.123 A 
HETATM    3  C3  UNL     1     -34.107   4.423   4.982  1.00 20.00     0.158 A 
HETATM    4  C4  UNL     1     -33.235   6.766   3.889  1.00 20.00    -0.034 A 
HETATM    5  C5  UNL     1     -34.131   5.563   5.769  1.00 20.00     0.134 A 
HETATM    6  N11 UNL     1     -33.676   4.397   3.700  1.00 20.00    -0.269 NA
HETATM    7  F12 UNL     1     -34.570   5.522   7.031  1.00 20.00    -0.205 F 
ENDROOT
BRANCH   4   8
HETATM    8  C9  UNL     1     -32.743   8.044   3.246  1.00 20.00     0.021 C 
HETATM    9  C6  UNL     1     -31.276   7.993   2.764  1.00 20.00     0.011 C 
HETATM   10  C7  UNL     1     -31.326   8.235   1.257  1.00 20.00     0.021 C 
HETATM   11  C10 UNL     1     -32.561   9.105   1.087  1.00 20.00     0.083 C 
HETATM   12  C8  UNL     1     -33.574   8.442   2.011  1.00 20.00     0.029 C 
HETATM   13 CL13 UNL     1     -33.116   9.161  -0.592  1.00 20.00    -0.125 Cl
ENDBRANCH   4   8
TORSDOF 1
