REMARK  3 active torsions:
REMARK  status: ('A' for Active; 'I' for Inactive)
REMARK    1  A    between atoms: C3_3  and  C5_5 
REMARK    2  A    between atoms: C5_5  and  C6_6 
REMARK    3  A    between atoms: C6_6  and  C7_7 
ROOT
HETATM    1  C5  UNL     1     -33.399   7.216   5.325  1.00 20.00     0.006 C 
ENDROOT
BRANCH   1   2
HETATM    2  C3  UNL     1     -33.714   5.758   5.474  1.00 20.00    -0.014 A 
HETATM    3  C1  UNL     1     -34.932   5.320   6.238  1.00 20.00     0.005 A 
HETATM    4  C2  UNL     1     -34.884   5.159   4.745  1.00 20.00     0.005 A 
ENDBRANCH   1   2
BRANCH   1   5
HETATM    5  C6  UNL     1     -32.445   7.472   4.153  1.00 20.00     0.015 C 
BRANCH   5   6
HETATM    6  C7  UNL     1     -33.013   7.027   2.804  1.00 20.00     0.053 C 
HETATM    7  C4  UNL     1     -32.307   7.714   1.643  1.00 20.00     0.022 C 
HETATM    8 BR8  UNL     1     -32.790   5.091   2.583  1.00 20.00    -0.092 Br
ENDBRANCH   5   6
ENDBRANCH   1   5
TORSDOF 3
