REMARK  2 active torsions:
REMARK  status: ('A' for Active; 'I' for Inactive)
REMARK    1  A    between atoms: C2_2  and  C10_10 
REMARK    2  A    between atoms: C7_7  and  C10_10 
ROOT
HETATM    1  C1  UNL     1     -32.326   8.669   1.052  1.00 20.00    -0.111 C 
HETATM    2  C2  UNL     1     -32.243   7.679   1.725  1.00 20.00    -0.107 C 
HETATM    3  C9  UNL     1     -32.426   9.875   0.232  1.00 20.00     0.112 C 
ENDROOT
BRANCH   2   4
HETATM    4  C10 UNL     1     -32.133   6.467   2.542  1.00 20.00     0.098 C 
BRANCH   4   5
HETATM    5  C7  UNL     1     -33.282   6.377   3.544  1.00 20.00    -0.002 C 
HETATM    6  C4  UNL     1     -33.486   4.926   4.004  1.00 20.00     0.005 C 
HETATM    7  C3  UNL     1     -34.596   4.816   5.048  1.00 20.00     0.002 C 
HETATM    8  C5  UNL     1     -34.344   5.740   6.237  1.00 20.00     0.020 C 
HETATM    9  C8  UNL     1     -34.147   7.185   5.780  1.00 20.00     0.082 C 
HETATM   10  C6  UNL     1     -33.028   7.301   4.745  1.00 20.00     0.025 C 
HETATM   11 CL11 UNL     1     -33.781   8.222   7.189  1.00 20.00    -0.125 Cl
ENDBRANCH   4   5
ENDBRANCH   2   4
TORSDOF 2
