REMARK  1 active torsions:
REMARK  status: ('A' for Active; 'I' for Inactive)
REMARK    1  A    between atoms: C7_7  and  C8_8 
ROOT
HETATM    1  C1  UNL     1     -33.693   4.235   3.959  1.00 20.00     0.002 C 
HETATM    2  C2  UNL     1     -33.192   5.381   3.086  1.00 20.00     0.005 C 
HETATM    3  C5  UNL     1     -34.894   4.651   4.807  1.00 20.00     0.016 C 
HETATM    4  C6  UNL     1     -34.060   7.059   4.768  1.00 20.00     0.020 C 
HETATM    5  C8  UNL     1     -32.854   6.621   3.921  1.00 20.00    -0.009 C 
HETATM    6  C9  UNL     1     -34.660   5.931   5.604  1.00 20.00     0.058 C 
HETATM    7 BR10 UNL     1     -33.516   5.558   7.153  1.00 20.00    -0.091 Br
ENDROOT
BRANCH   5   8
HETATM    8  C7  UNL     1     -32.388   7.765   3.020  1.00 20.00    -0.010 A 
HETATM    9  C3  UNL     1     -31.985   7.493   1.597  1.00 20.00     0.005 A 
HETATM   10  C4  UNL     1     -33.257   8.238   1.888  1.00 20.00     0.005 A 
ENDBRANCH   5   8
TORSDOF 1
