REMARK  1 active torsions:
REMARK  status: ('A' for Active; 'I' for Inactive)
REMARK    1  A    between atoms: C5_5  and  C8_8 
ROOT
HETATM    1  C1  UNL     1     -33.789   4.777   4.089  1.00 20.00     0.007 C 
HETATM    2  C2  UNL     1     -33.200   5.445   2.844  1.00 20.00     0.041 C 
HETATM    3  C3  UNL     1     -33.881   7.151   4.496  1.00 20.00     0.045 C 
HETATM    4  C4  UNL     1     -32.684   7.972   2.287  1.00 20.00     0.207 A 
HETATM    5  C5  UNL     1     -34.697   5.861   4.684  1.00 20.00    -0.012 C 
HETATM    6  C6  UNL     1     -33.102   6.885   3.243  1.00 20.00     0.083 A 
HETATM    7  O9  UNL     1     -31.772   7.420   3.244  1.00 20.00    -0.375 OA
ENDROOT
BRANCH   5   8
HETATM    8  C8  UNL     1     -35.070   5.595   6.132  1.00 20.00     0.000 C 
HETATM    9  C7  UNL     1     -33.864   5.495   7.012  1.00 20.00     0.005 C 
ENDBRANCH   5   8
TORSDOF 1
