REMARK  2 active torsions:
REMARK  status: ('A' for Active; 'I' for Inactive)
REMARK    1  A    between atoms: C7_7  and  C10_10 
REMARK    2  A    between atoms: C9_9  and  C10_10 
ROOT
HETATM    1  C1  UNL     1     -32.252   9.313  -0.154  1.00 20.00     0.012 C 
HETATM    2  C2  UNL     1     -32.298   8.467   0.696  1.00 20.00    -0.117 C 
HETATM    3  C9  UNL     1     -32.351   7.428   1.733  1.00 20.00     0.093 C 
ENDROOT
BRANCH   3   4
HETATM    4  C10 UNL     1     -32.826   8.023   3.045  1.00 20.00     0.017 C 
BRANCH   4   5
HETATM    5  C7  UNL     1     -32.876   6.955   4.137  1.00 20.00    -0.012 C 
HETATM    6  C4  UNL     1     -32.912   7.607   5.526  1.00 20.00     0.005 C 
HETATM    7  C3  UNL     1     -33.024   6.568   6.639  1.00 20.00     0.002 C 
HETATM    8  C5  UNL     1     -34.226   5.648   6.433  1.00 20.00     0.020 C 
HETATM    9  C8  UNL     1     -34.248   4.994   5.049  1.00 20.00     0.082 C 
HETATM   10  C6  UNL     1     -34.089   6.033   3.934  1.00 20.00     0.024 C 
HETATM   11 CL11 UNL     1     -32.968   3.746   4.928  1.00 20.00    -0.125 Cl
ENDBRANCH   4   5
ENDBRANCH   3   4
TORSDOF 2
