REMARK  4 active torsions:
REMARK  status: ('A' for Active; 'I' for Inactive)
REMARK    1  A    between atoms: C1_1  and  C6_6 
REMARK    2  A    between atoms: C1_1  and  C8_8 
REMARK    3  A    between atoms: C7_7  and  C9_9 
REMARK    4  A    between atoms: C8_8  and  C9_9 
ROOT
HETATM    1  C1  UNL     1     -32.484   7.751   2.727  1.00 20.00     0.131 C 
HETATM    2  O10 UNL     1     -32.538   6.532   2.569  1.00 20.00    -0.298 OA
ENDROOT
BRANCH   1   3
HETATM    3  C6  UNL     1     -32.017   8.658   1.618  1.00 20.00     0.055 A 
HETATM    4  C2  UNL     1     -32.713   8.576   0.308  1.00 20.00     0.013 A 
HETATM    5  C3  UNL     1     -32.915   9.765   1.198  1.00 20.00     0.013 A 
ENDBRANCH   1   3
BRANCH   1   6
HETATM    6  C8  UNL     1     -32.876   8.432   4.026  1.00 20.00     0.079 C 
BRANCH   6   7
HETATM    7  C9  UNL     1     -33.302   7.438   5.102  1.00 20.00     0.012 C 
BRANCH   7   8
HETATM    8  C7  UNL     1     -34.521   6.638   4.672  1.00 20.00    -0.014 A 
HETATM    9  C4  UNL     1     -34.353   5.344   3.925  1.00 20.00     0.005 A 
HETATM   10  C5  UNL     1     -34.847   5.334   5.345  1.00 20.00     0.005 A 
ENDBRANCH   7   8
ENDBRANCH   6   7
ENDBRANCH   1   6
TORSDOF 4
