REMARK  2 active torsions:
REMARK  status: ('A' for Active; 'I' for Inactive)
REMARK    1  A    between atoms: C6_6  and  C7_7 
REMARK    2  A    between atoms: C8_8  and  O9_9 
ROOT
HETATM    1  C1  UNL     1     -33.987   5.688   6.677  1.00 20.00     0.003 C 
HETATM    2  C2  UNL     1     -34.003   6.998   5.892  1.00 20.00     0.007 C 
HETATM    3  C5  UNL     1     -34.587   4.620   5.758  1.00 20.00     0.032 C 
HETATM    4  C7  UNL     1     -34.162   6.594   4.424  1.00 20.00     0.018 C 
HETATM    5  C8  UNL     1     -35.067   5.363   4.515  1.00 20.00     0.122 C 
ENDROOT
BRANCH   4   6
HETATM    6  C6  UNL     1     -32.817   6.278   3.774  1.00 20.00    -0.008 A 
HETATM    7  C3  UNL     1     -32.647   6.402   2.285  1.00 20.00     0.005 A 
HETATM    8  C4  UNL     1     -31.974   7.384   3.203  1.00 20.00     0.005 A 
ENDBRANCH   4   6
BRANCH   5   9
HETATM    9  O9  UNL     1     -36.417   5.769   4.724  1.00 20.00    -0.395 OA
HETATM   10  H23 UNL     1     -36.938   4.962   4.872  1.00 20.00     0.210 HD
ENDBRANCH   5   9
TORSDOF 2
