REMARK  3 active torsions:
REMARK  status: ('A' for Active; 'I' for Inactive)
REMARK    1  A    between atoms: C4_4  and  C7_7 
REMARK    2  A    between atoms: C7_7  and  C9_9 
REMARK    3  A    between atoms: C8_8  and  C9_9 
ROOT
HETATM    1  C1  UNL     1     -32.865   7.337   5.039  1.00 20.00     0.006 C 
HETATM    2  C2  UNL     1     -33.770   7.344   6.273  1.00 20.00     0.020 C 
HETATM    3  C3  UNL     1     -35.038   6.351   4.526  1.00 20.00     0.024 C 
HETATM    4  C4  UNL     1     -33.644   6.599   3.938  1.00 20.00    -0.013 C 
HETATM    5  C5  UNL     1     -34.803   6.251   6.028  1.00 20.00     0.082 C 
HETATM    6 CL10 UNL     1     -34.149   4.649   6.470  1.00 20.00    -0.125 Cl
ENDROOT
BRANCH   4   7
HETATM    7  C7  UNL     1     -33.689   7.364   2.625  1.00 20.00     0.005 C 
BRANCH   7   8
HETATM    8  C9  UNL     1     -32.379   7.225   1.851  1.00 20.00     0.000 C 
BRANCH   8   9
HETATM    9  C8  UNL     1     -32.416   8.023   0.548  1.00 20.00    -0.005 C 
HETATM   10  C6  UNL     1     -32.671   9.500   0.806  1.00 20.00     0.005 C 
ENDBRANCH   8   9
ENDBRANCH   7   8
ENDBRANCH   4   7
TORSDOF 3
