REMARK  2 active torsions:
REMARK  status: ('A' for Active; 'I' for Inactive)
REMARK    1  A    between atoms: C8_8  and  C10_10 
REMARK    2  A    between atoms: C9_9  and  C10_10 
ROOT
HETATM    1  C1  UNL     1     -32.750   8.078   1.080  1.00 20.00     0.012 C 
HETATM    2  C2  UNL     1     -32.345   7.533   2.069  1.00 20.00    -0.117 C 
HETATM    3  C9  UNL     1     -31.846   6.869   3.281  1.00 20.00     0.093 C 
ENDROOT
BRANCH   3   4
HETATM    4  C10 UNL     1     -32.707   5.663   3.609  1.00 20.00     0.017 C 
BRANCH   4   5
HETATM    5  C8  UNL     1     -34.162   6.082   3.841  1.00 20.00    -0.007 C 
HETATM    6  C5  UNL     1     -34.242   7.417   4.586  1.00 20.00     0.082 C 
HETATM    7  C3  UNL     1     -33.915   7.254   6.054  1.00 20.00     0.127 C 
HETATM    8  C4  UNL     1     -34.652   6.160   6.792  1.00 20.00     0.078 C 
HETATM    9  O11 UNL     1     -33.165   8.034   6.639  1.00 20.00    -0.298 OA
HETATM   10  C6  UNL     1     -34.552   4.842   6.038  1.00 20.00     0.008 C 
HETATM   11  C7  UNL     1     -34.961   4.992   4.573  1.00 20.00     0.005 C 
ENDBRANCH   4   5
ENDBRANCH   3   4
TORSDOF 2
