REMARK  2 active torsions:
REMARK  status: ('A' for Active; 'I' for Inactive)
REMARK    1  A    between atoms: C5_5  and  C8_8 
REMARK    2  A    between atoms: C8_8  and  C9_9 
ROOT
HETATM    1  C1  UNL     1     -33.493   6.655   6.042  1.00 20.00     0.002 C 
HETATM    2  C2  UNL     1     -33.264   7.262   4.666  1.00 20.00     0.005 C 
HETATM    3  C3  UNL     1     -34.741   5.772   6.108  1.00 20.00     0.020 C 
HETATM    4  C4  UNL     1     -33.992   4.944   3.824  1.00 20.00     0.024 C 
HETATM    5  C5  UNL     1     -33.092   6.176   3.593  1.00 20.00    -0.013 C 
HETATM    6  C6  UNL     1     -35.176   5.178   4.763  1.00 20.00     0.082 C 
HETATM    7 CL10 UNL     1     -36.405   6.222   3.978  1.00 20.00    -0.125 Cl
ENDROOT
BRANCH   5   8
HETATM    8  C8  UNL     1     -33.273   6.767   2.194  1.00 20.00     0.004 C 
BRANCH   8   9
HETATM    9  C9  UNL     1     -32.274   7.890   1.936  1.00 20.00    -0.004 C 
HETATM   10  C7  UNL     1     -32.436   8.460   0.536  1.00 20.00     0.005 C 
ENDBRANCH   8   9
ENDBRANCH   5   8
TORSDOF 2
