REMARK  3 active torsions:
REMARK  status: ('A' for Active; 'I' for Inactive)
REMARK    1  A    between atoms: C1_1  and  C4_4 
REMARK    2  A    between atoms: C1_1  and  C5_5 
REMARK    3  A    between atoms: C5_5  and  C6_6 
ROOT
HETATM    1  C1  UNL     1     -32.923   6.417   3.501  1.00 20.00     0.139 C 
HETATM    2  O7  UNL     1     -33.190   5.327   3.010  1.00 20.00    -0.297 OA
ENDROOT
BRANCH   1   3
HETATM    3  C4  UNL     1     -31.934   7.313   2.834  1.00 20.00     0.056 A 
HETATM    4  C2  UNL     1     -32.158   7.685   1.406  1.00 20.00     0.013 A 
HETATM    5  C3  UNL     1     -32.353   8.703   2.489  1.00 20.00     0.013 A 
ENDBRANCH   1   3
BRANCH   1   6
HETATM    6  C5  UNL     1     -33.530   6.959   4.776  1.00 20.00     0.196 C 
BRANCH   6   7
HETATM    7  C6  UNL     1     -33.934   5.869   5.740  1.00 20.00     0.394 C 
HETATM    8  F8  UNL     1     -34.483   6.378   6.863  1.00 20.00    -0.171 F 
HETATM    9  F9  UNL     1     -32.879   5.106   6.095  1.00 20.00    -0.171 F 
HETATM   10  F10 UNL     1     -34.852   5.055   5.171  1.00 20.00    -0.171 F 
ENDBRANCH   6   7
ENDBRANCH   1   6
TORSDOF 3
