REMARK  2 active torsions:
REMARK  status: ('A' for Active; 'I' for Inactive)
REMARK    1  A    between atoms: C6_6  and  C9_9 
REMARK    2  A    between atoms: C8_8  and  C9_9 
ROOT
HETATM    1  C1  UNL     1     -32.258   8.777  -0.529  1.00 20.00     0.012 C 
HETATM    2  C2  UNL     1     -32.637   8.445   0.561  1.00 20.00    -0.117 C 
HETATM    3  C8  UNL     1     -33.103   8.041   1.894  1.00 20.00     0.093 C 
ENDROOT
BRANCH   3   4
HETATM    4  C9  UNL     1     -32.239   6.918   2.440  1.00 20.00     0.017 C 
BRANCH   4   5
HETATM    5  C6  UNL     1     -32.711   6.489   3.821  1.00 20.00    -0.012 C 
HETATM    6  C3  UNL     1     -32.709   7.638   4.842  1.00 20.00     0.006 C 
HETATM    7  C4  UNL     1     -34.088   7.622   5.507  1.00 20.00     0.020 C 
HETATM    8  C7  UNL     1     -34.663   6.241   5.219  1.00 20.00     0.082 C 
HETATM    9  C5  UNL     1     -34.148   5.955   3.814  1.00 20.00     0.024 C 
HETATM   10 CL10 UNL     1     -34.046   5.040   6.388  1.00 20.00    -0.125 Cl
ENDBRANCH   4   5
ENDBRANCH   3   4
TORSDOF 2
