REMARK  2 active torsions:
REMARK  status: ('A' for Active; 'I' for Inactive)
REMARK    1  A    between atoms: C6_6  and  C7_7 
REMARK    2  A    between atoms: C8_8  and  O9_9 
ROOT
HETATM    1  C3  UNL     1     -34.587   4.839   5.578  1.00 20.00     0.007 C 
HETATM    2  C4  UNL     1     -33.809   5.765   6.507  1.00 20.00     0.032 C 
HETATM    3  C5  UNL     1     -34.601   6.983   4.529  1.00 20.00     0.036 C 
HETATM    4  C7  UNL     1     -34.475   5.492   4.202  1.00 20.00    -0.008 C 
HETATM    5  C8  UNL     1     -33.937   7.162   5.896  1.00 20.00     0.118 C 
ENDROOT
BRANCH   4   6
HETATM    6  C6  UNL     1     -33.157   5.161   3.505  1.00 20.00    -0.010 A 
HETATM    7  C1  UNL     1     -33.001   3.866   2.756  1.00 20.00     0.005 A 
HETATM    8  C2  UNL     1     -33.072   5.166   2.004  1.00 20.00     0.005 A 
ENDBRANCH   4   6
BRANCH   5   9
HETATM    9  O9  UNL     1     -32.650   7.743   5.729  1.00 20.00    -0.396 OA
HETATM   10  H23 UNL     1     -32.252   7.793   6.612  1.00 20.00     0.210 HD
ENDBRANCH   5   9
TORSDOF 2
