REMARK  4 active torsions:
REMARK  status: ('A' for Active; 'I' for Inactive)
REMARK    1  A    between atoms: C5_5  and  C8_8 
REMARK    2  A    between atoms: C6_6  and  C7_7 
REMARK    3  A    between atoms: C6_6  and  C8_8 
REMARK    4  A    between atoms: C7_7  and  C9_9 
ROOT
HETATM    1  C6  UNL     1     -32.961   7.398   3.129  1.00 20.00     0.021 C 
ENDROOT
BRANCH   1   2
HETATM    2  C7  UNL     1     -33.364   6.131   3.901  1.00 20.00     0.010 C 
BRANCH   2   3
HETATM    3  C9  UNL     1     -34.280   6.357   5.135  1.00 20.00    -0.051 C 
HETATM    4  C2  UNL     1     -34.515   4.993   5.814  1.00 20.00     0.014 C 
HETATM    5  C3  UNL     1     -35.642   6.936   4.719  1.00 20.00     0.014 C 
HETATM    6  C4  UNL     1     -33.619   7.299   6.156  1.00 20.00     0.014 C 
ENDBRANCH   2   3
ENDBRANCH   1   2
BRANCH   1   7
HETATM    7  C8  UNL     1     -32.009   7.114   1.952  1.00 20.00     0.082 C 
HETATM    8 CL10 UNL     1     -32.792   6.027   0.762  1.00 20.00    -0.125 Cl
BRANCH   7   9
HETATM    9  C5  UNL     1     -31.581   8.425   1.274  1.00 20.00     0.016 C 
HETATM   10  C1  UNL     1     -32.748   9.237   0.724  1.00 20.00     0.006 C 
ENDBRANCH   7   9
ENDBRANCH   1   7
TORSDOF 4
