REMARK  1 active torsions:
REMARK  status: ('A' for Active; 'I' for Inactive)
REMARK    1  A    between atoms: C7_7  and  C9_9 
ROOT
HETATM    1  C1  UNL     1     -32.165   7.920   1.146  1.00 20.00     0.012 C 
HETATM    2  C2  UNL     1     -32.011   7.768   2.327  1.00 20.00    -0.117 C 
HETATM    3  C9  UNL     1     -31.811   7.585   3.767  1.00 20.00     0.097 C 
ENDROOT
BRANCH   3   4
HETATM    4  C7  UNL     1     -33.119   7.203   4.457  1.00 20.00    -0.002 C 
HETATM    5  C4  UNL     1     -33.057   7.535   5.954  1.00 20.00     0.005 C 
HETATM    6  C3  UNL     1     -34.327   7.109   6.686  1.00 20.00     0.002 C 
HETATM    7  C5  UNL     1     -34.635   5.629   6.464  1.00 20.00     0.020 C 
HETATM    8  C8  UNL     1     -34.682   5.243   4.984  1.00 20.00     0.082 C 
HETATM    9  C6  UNL     1     -33.428   5.712   4.241  1.00 20.00     0.025 C 
HETATM   10 CL10 UNL     1     -36.154   5.912   4.210  1.00 20.00    -0.125 Cl
ENDBRANCH   3   4
TORSDOF 1
