REMARK  5 active torsions:
REMARK  status: ('A' for Active; 'I' for Inactive)
REMARK    1  A    between atoms: C2_2  and  C8_8 
REMARK    2  A    between atoms: C3_3  and  C9_9 
REMARK    3  A    between atoms: C3_3  and  C11_11 
REMARK    4  A    between atoms: C8_8  and  C10_10 
REMARK    5  A    between atoms: C9_9  and  C10_10 
ROOT
HETATM    1  C1  UNL     1     -32.721   8.932  -0.428  1.00 20.00    -0.111 C 
HETATM    2  C2  UNL     1     -32.280   8.469   0.588  1.00 20.00    -0.107 C 
HETATM    3  C4  UNL     1     -33.264   9.493  -1.664  1.00 20.00     0.112 C 
ENDROOT
BRANCH   2   4
HETATM    4  C8  UNL     1     -31.742   7.895   1.829  1.00 20.00     0.094 C 
BRANCH   4   5
HETATM    5  C10 UNL     1     -32.704   8.054   3.011  1.00 20.00     0.020 C 
BRANCH   5   6
HETATM    6  C9  UNL     1     -32.208   7.418   4.313  1.00 20.00     0.080 C 
BRANCH   6   7
HETATM    7  C3  UNL     1     -33.199   7.546   5.465  1.00 20.00     0.134 C 
HETATM    8  O12 UNL     1     -33.522   8.656   5.895  1.00 20.00    -0.297 OA
BRANCH   7   9
HETATM    9  C11 UNL     1     -33.792   6.252   6.058  1.00 20.00     0.009 C 
HETATM   10  C5  UNL     1     -32.678   5.354   6.612  1.00 20.00     0.022 C 
HETATM   11  C6  UNL     1     -34.541   5.478   4.959  1.00 20.00     0.022 C 
HETATM   12  C7  UNL     1     -34.785   6.619   7.168  1.00 20.00     0.022 C 
ENDBRANCH   7   9
ENDBRANCH   6   7
ENDBRANCH   5   6
ENDBRANCH   4   5
ENDBRANCH   2   4
TORSDOF 5
