REMARK  1 active torsions:
REMARK  status: ('A' for Active; 'I' for Inactive)
REMARK    1  A    between atoms: C8_8  and  C9_9 
ROOT
HETATM    1  C1  UNL     1     -32.772   5.342   2.162  1.00 20.00     0.006 C 
HETATM    2  C2  UNL     1     -32.371   6.122   0.906  1.00 20.00     0.020 C 
HETATM    3  C5  UNL     1     -33.160   7.716   2.495  1.00 20.00     0.025 C 
HETATM    4  C8  UNL     1     -33.047   6.391   3.250  1.00 20.00    -0.009 C 
HETATM    5  C10 UNL     1     -32.129   7.546   1.390  1.00 20.00     0.082 C 
HETATM    6 CL12 UNL     1     -32.321   8.740   0.099  1.00 20.00    -0.125 Cl
ENDROOT
BRANCH   4   7
HETATM    7  C9  UNL     1     -34.284   6.076   4.095  1.00 20.00    -0.006 C 
HETATM    8  C3  UNL     1     -34.546   7.167   5.142  1.00 20.00     0.031 C 
HETATM    9  C6  UNL     1     -33.584   7.073   6.321  1.00 20.00     0.168 C 
HETATM   10  O11 UNL     1     -33.623   5.771   6.904  1.00 20.00    -0.391 OA
HETATM   11  C7  UNL     1     -33.223   4.755   5.985  1.00 20.00     0.168 C 
HETATM   12  C4  UNL     1     -34.163   4.711   4.785  1.00 20.00     0.031 C 
ENDBRANCH   4   7
TORSDOF 1
