REMARK  6 active torsions:
REMARK  status: ('A' for Active; 'I' for Inactive)
REMARK    1  A    between atoms: C3_3  and  C10_10 
REMARK    2  A    between atoms: C6_6  and  C11_11 
REMARK    3  A    between atoms: C7_7  and  C8_8 
REMARK    4  A    between atoms: C7_7  and  C9_9 
REMARK    5  A    between atoms: C8_8  and  C10_10 
REMARK    6  A    between atoms: C9_9  and  C11_11 
ROOT
HETATM    1  C7  UNL     1     -32.038   7.646   3.633  1.00 20.00     0.002 C 
ENDROOT
BRANCH   1   2
HETATM    2  C8  UNL     1     -33.042   7.029   4.616  1.00 20.00     0.020 C 
BRANCH   2   3
HETATM    3  C10 UNL     1     -33.963   5.948   4.031  1.00 20.00     0.086 C 
HETATM    4 CL12 UNL     1     -33.029   4.658   3.221  1.00 20.00    -0.125 Cl
BRANCH   3   5
HETATM    5  C3  UNL     1     -34.880   5.330   5.044  1.00 20.00     0.004 A 
HETATM    6  C1  UNL     1     -34.316   4.617   6.242  1.00 20.00     0.006 A 
HETATM    7  C2  UNL     1     -35.015   5.937   6.413  1.00 20.00     0.006 A 
ENDBRANCH   3   5
ENDBRANCH   2   3
ENDBRANCH   1   2
BRANCH   1   8
HETATM    8  C9  UNL     1     -32.762   8.372   2.493  1.00 20.00     0.004 C 
BRANCH   8   9
HETATM    9  C11 UNL     1     -31.810   9.094   1.518  1.00 20.00    -0.019 C 
HETATM   10  C5  UNL     1     -30.917   8.067   0.815  1.00 20.00     0.010 C 
BRANCH   9  11
HETATM   11  C6  UNL     1     -32.519  10.010   0.501  1.00 20.00    -0.000 C 
HETATM   12  C4  UNL     1     -33.494   9.310  -0.436  1.00 20.00     0.005 C 
ENDBRANCH   9  11
ENDBRANCH   8   9
ENDBRANCH   1   8
TORSDOF 6
