REMARK  1 active torsions:
REMARK  status: ('A' for Active; 'I' for Inactive)
REMARK    1  A    between atoms: C6_6  and  C7_7 
ROOT
HETATM    1  C1  UNL     1     -34.082   4.187   5.149  1.00 20.00     0.002 C 
HETATM    2  C2  UNL     1     -34.469   4.938   3.871  1.00 20.00     0.006 C 
HETATM    3  C5  UNL     1     -34.115   5.213   6.283  1.00 20.00     0.020 C 
HETATM    4  C7  UNL     1     -34.321   6.428   4.204  1.00 20.00     0.008 C 
HETATM    5  C8  UNL     1     -34.766   6.449   5.671  1.00 20.00     0.086 C 
HETATM    6 CL9  UNL     1     -34.376   7.930   6.557  1.00 20.00    -0.125 Cl
ENDROOT
BRANCH   4   7
HETATM    7  C6  UNL     1     -32.914   6.906   3.950  1.00 20.00    -0.009 A 
HETATM    8  C3  UNL     1     -32.499   7.339   2.571  1.00 20.00     0.005 A 
HETATM    9  C4  UNL     1     -32.649   8.358   3.665  1.00 20.00     0.005 A 
ENDBRANCH   4   7
TORSDOF 1
