REMARK  3 active torsions:
REMARK  status: ('A' for Active; 'I' for Inactive)
REMARK    1  A    between atoms: C6_6  and  C9_9 
REMARK    2  A    between atoms: C7_7  and  O10_10 
REMARK    3  A    between atoms: C8_8  and  C9_9 
ROOT
HETATM    1  C1  UNL     1     -32.069   8.789   1.293  1.00 20.00     0.012 C 
HETATM    2  C2  UNL     1     -32.289   7.691   1.726  1.00 20.00    -0.117 C 
HETATM    3  C8  UNL     1     -32.557   6.345   2.251  1.00 20.00     0.093 C 
ENDROOT
BRANCH   3   4
HETATM    4  C9  UNL     1     -32.420   6.329   3.765  1.00 20.00     0.017 C 
BRANCH   4   5
HETATM    5  C6  UNL     1     -33.404   7.300   4.416  1.00 20.00    -0.011 C 
HETATM    6  C3  UNL     1     -33.261   7.342   5.935  1.00 20.00     0.007 C 
HETATM    7  C4  UNL     1     -34.056   6.140   6.432  1.00 20.00     0.032 C 
HETATM    8  C7  UNL     1     -35.154   5.913   5.391  1.00 20.00     0.118 C 
HETATM    9  C5  UNL     1     -34.860   6.866   4.230  1.00 20.00     0.036 C 
BRANCH   8  10
HETATM   10  O10 UNL     1     -35.111   4.562   4.950  1.00 20.00    -0.396 OA
HETATM   11  H24 UNL     1     -35.256   4.010   5.734  1.00 20.00     0.210 HD
ENDBRANCH   8  10
ENDBRANCH   4   5
ENDBRANCH   3   4
TORSDOF 3
