REMARK  1 active torsions:
REMARK  status: ('A' for Active; 'I' for Inactive)
REMARK    1  A    between atoms: C4_4  and  C7_7 
ROOT
HETATM    1  C1  UNL     1     -33.185   4.402   5.524  1.00 20.00     0.006 C 
HETATM    2  C2  UNL     1     -34.054   4.857   6.690  1.00 20.00     0.020 C 
HETATM    3  C3  UNL     1     -35.205   5.531   4.699  1.00 20.00     0.024 C 
HETATM    4  C4  UNL     1     -34.082   4.560   4.289  1.00 20.00    -0.013 C 
HETATM    5  C5  UNL     1     -34.866   6.008   6.110  1.00 20.00     0.082 C 
HETATM    6 CL8  UNL     1     -33.890   7.505   6.048  1.00 20.00    -0.125 Cl
ENDROOT
BRANCH   4   7
HETATM    7  C7  UNL     1     -33.305   5.036   3.069  1.00 20.00     0.000 C 
HETATM    8  C6  UNL     1     -32.651   6.360   3.307  1.00 20.00     0.005 C 
ENDBRANCH   4   7
TORSDOF 1
