REMARK  1 active torsions:
REMARK  status: ('A' for Active; 'I' for Inactive)
REMARK    1  A    between atoms: C9_9  and  C10_10 
ROOT
HETATM    1  C1  UNL     1     -32.993   9.702   0.519  1.00 20.00     0.012 C 
HETATM    2  C2  UNL     1     -32.635   8.625   0.911  1.00 20.00    -0.117 C 
HETATM    3  C10 UNL     1     -32.185   7.313   1.376  1.00 20.00     0.098 C 
ENDROOT
BRANCH   3   4
HETATM    4  C9  UNL     1     -33.088   6.797   2.503  1.00 20.00     0.004 C 
HETATM    5  C5  UNL     1     -32.730   7.492   3.822  1.00 20.00     0.083 C 
HETATM    6  C3  UNL     1     -33.703   7.242   4.964  1.00 20.00     0.127 C 
HETATM    7  C4  UNL     1     -35.021   6.563   4.666  1.00 20.00     0.078 C 
HETATM    8  O11 UNL     1     -33.429   7.611   6.108  1.00 20.00    -0.298 OA
HETATM    9  C6  UNL     1     -34.886   5.080   4.334  1.00 20.00     0.007 C 
HETATM   10  C7  UNL     1     -33.512   4.611   3.860  1.00 20.00     0.001 C 
HETATM   11  C8  UNL     1     -32.996   5.263   2.577  1.00 20.00     0.006 C 
ENDBRANCH   3   4
TORSDOF 1
