REMARK  1 active torsions:
REMARK  status: ('A' for Active; 'I' for Inactive)
REMARK    1  A    between atoms: C8_8  and  C10_10 
ROOT
HETATM    1  C1  UNL     1     -31.830   8.166  -0.195  1.00 20.00     0.012 C 
HETATM    2  C2  UNL     1     -32.289   8.298   0.906  1.00 20.00    -0.117 C 
HETATM    3  C10 UNL     1     -32.853   8.477   2.243  1.00 20.00     0.097 C 
ENDROOT
BRANCH   3   4
HETATM    4  C8  UNL     1     -32.689   7.200   3.078  1.00 20.00    -0.002 C 
HETATM    5  C5  UNL     1     -32.885   5.969   2.178  1.00 20.00     0.005 C 
HETATM    6  C3  UNL     1     -32.400   4.676   2.827  1.00 20.00     0.000 C 
HETATM    7  C4  UNL     1     -33.434   3.955   3.684  1.00 20.00     0.001 C 
HETATM    8  C6  UNL     1     -34.323   4.818   4.576  1.00 20.00     0.016 C 
HETATM    9  C9  UNL     1     -33.626   6.029   5.191  1.00 20.00     0.058 C 
HETATM   10  C7  UNL     1     -33.640   7.261   4.284  1.00 20.00     0.021 C 
HETATM   11 BR11 UNL     1     -34.611   6.512   6.838  1.00 20.00    -0.091 Br
ENDBRANCH   3   4
TORSDOF 1
