REMARK  3 active torsions:
REMARK  status: ('A' for Active; 'I' for Inactive)
REMARK    1  A    between atoms: C1_1  and  C3_3 
REMARK    2  A    between atoms: C2_2  and  C7_7 
REMARK    3  A    between atoms: C7_7  and  C8_8 
ROOT
HETATM    1  C1  UNL     1     -33.000   7.925   1.847  1.00 20.00     0.005 C 
HETATM    2  C2  UNL     1     -33.106   7.005   2.612  1.00 20.00    -0.090 C 
ENDROOT
BRANCH   2   3
HETATM    3  C7  UNL     1     -33.231   5.875   3.554  1.00 20.00     0.065 C 
HETATM    4  C4  UNL     1     -33.509   4.584   2.780  1.00 20.00     0.024 C 
BRANCH   3   5
HETATM    5  C8  UNL     1     -34.292   6.128   4.656  1.00 20.00    -0.007 C 
HETATM    6  C5  UNL     1     -34.475   4.959   5.630  1.00 20.00     0.011 C 
HETATM    7  C6  UNL     1     -33.996   7.414   5.439  1.00 20.00     0.011 C 
ENDBRANCH   3   5
ENDBRANCH   2   3
BRANCH   1   8
HETATM    8  C3  UNL     1     -32.868   9.103   0.863  1.00 20.00     0.258 C 
HETATM    9  O9  UNL     1     -32.749   8.792  -0.358  1.00 20.00    -0.637 OA
HETATM   10  O10 UNL     1     -32.891  10.259   1.377  1.00 20.00    -0.637 OA
ENDBRANCH   1   8
TORSDOF 3
