REMARK  1 active torsions:
REMARK  status: ('A' for Active; 'I' for Inactive)
REMARK    1  A    between atoms: C4_4  and  S6_6 
ROOT
HETATM    1  C1  UNL     1     -34.023   6.922   5.018  1.00 20.00     0.043 C 
HETATM    2  C2  UNL     1     -34.827   6.537   6.243  1.00 20.00     0.168 C 
HETATM    3  C3  UNL     1     -34.358   4.595   5.040  1.00 20.00     0.182 C 
HETATM    4  C4  UNL     1     -34.331   5.774   4.084  1.00 20.00     0.070 C 
HETATM    5  O5  UNL     1     -34.832   5.103   6.298  1.00 20.00    -0.390 OA
ENDROOT
BRANCH   4   6
HETATM    6  S6  UNL     1     -33.116   5.589   2.757  1.00 20.00    -0.175 SA
HETATM    7  H14 UNL     1     -33.708   4.532   2.185  1.00 20.00     0.102 HD
ENDBRANCH   4   6
TORSDOF 1
