REMARK  0 active torsions:
REMARK  status: ('A' for Active; 'I' for Inactive)
ROOT
HETATM    1  C1  UNL     1     -32.470   6.631   2.285  1.00 20.00     0.088 C 
HETATM    2  C2  UNL     1     -33.674   5.364   3.943  1.00 20.00    -0.044 C 
HETATM    3  C3  UNL     1     -32.797   5.412   2.936  1.00 20.00     0.098 C 
HETATM    4  C4  UNL     1     -34.082   4.141   4.687  1.00 20.00     0.063 C 
HETATM    5  C5  UNL     1     -34.345   6.542   4.565  1.00 20.00     0.202 C 
HETATM    6  C6  UNL     1     -34.489   4.750   6.013  1.00 20.00     0.172 C 
HETATM    7  N7  UNL     1     -32.200   7.625   1.751  1.00 20.00    -0.192 NA
HETATM    8  O8  UNL     1     -35.079   6.017   5.687  1.00 20.00    -0.387 OA
ENDROOT
TORSDOF 0
