REMARK  3 active torsions:
REMARK  status: ('A' for Active; 'I' for Inactive)
REMARK    1  A    between atoms: C7_7  and  C9_9 
REMARK    2  A    between atoms: C8_8  and  C9_9 
REMARK    3  A    between atoms: C8_8  and  N10_10 
ROOT
HETATM    1  C1  UNL     1     -34.044   4.537   4.955  1.00 20.00     0.052 C 
HETATM    2  C2  UNL     1     -33.164   4.812   3.748  1.00 20.00     0.274 C 
HETATM    3  C3  UNL     1     -33.447   6.888   4.793  1.00 20.00     0.292 C 
HETATM    4  C4  UNL     1     -33.925   5.817   5.776  1.00 20.00     0.112 C 
HETATM    5  N10 UNL     1     -33.462   6.220   3.487  1.00 20.00     0.090 N 
HETATM    6 CL11 UNL     1     -35.468   6.242   6.545  1.00 20.00    -0.123 Cl
ENDROOT
BRANCH   5   7
HETATM    7  C8  UNL     1     -32.538   6.822   2.538  1.00 20.00     0.276 C 
BRANCH   7   8
HETATM    8  C9  UNL     1     -33.111   8.054   1.822  1.00 20.00     0.009 C 
HETATM    9  C6  UNL     1     -32.995   9.302   2.704  1.00 20.00     0.011 C 
BRANCH   8  10
HETATM   10  C7  UNL     1     -32.477   8.328   0.445  1.00 20.00     0.001 C 
HETATM   11  C5  UNL     1     -33.072   9.532  -0.272  1.00 20.00     0.005 C 
ENDBRANCH   8  10
ENDBRANCH   7   8
ENDBRANCH   5   7
TORSDOF 3
