REMARK  3 active torsions:
REMARK  status: ('A' for Active; 'I' for Inactive)
REMARK    1  A    between atoms: C6_6  and  C7_7 
REMARK    2  A    between atoms: C7_7  and  C8_8 
REMARK    3  A    between atoms: C8_8  and  N9_9 
ROOT
HETATM    1  C1  UNL     1     -34.588   5.016   4.256  1.00 20.00     0.052 C 
HETATM    2  C2  UNL     1     -33.871   5.436   2.985  1.00 20.00     0.274 C 
HETATM    3  C3  UNL     1     -33.508   7.180   4.504  1.00 20.00     0.292 C 
HETATM    4  C4  UNL     1     -34.618   6.299   5.082  1.00 20.00     0.112 C 
HETATM    5  N9  UNL     1     -32.840   6.328   3.514  1.00 20.00     0.089 N 
HETATM    6 CL10 UNL     1     -34.389   5.965   6.811  1.00 20.00    -0.123 Cl
ENDROOT
BRANCH   5   7
HETATM    7  C8  UNL     1     -32.173   7.094   2.473  1.00 20.00     0.272 C 
BRANCH   7   8
HETATM    8  C7  UNL     1     -33.150   7.920   1.642  1.00 20.00     0.030 C 
BRANCH   8   9
HETATM    9  C6  UNL     1     -32.456   8.706   0.528  1.00 20.00    -0.003 C 
HETATM   10  C5  UNL     1     -33.459   9.471  -0.320  1.00 20.00     0.005 C 
ENDBRANCH   8   9
ENDBRANCH   7   8
ENDBRANCH   5   7
TORSDOF 3
