REMARK  3 active torsions:
REMARK  status: ('A' for Active; 'I' for Inactive)
REMARK    1  A    between atoms: C1_1  and  C7_7 
REMARK       I    between atoms: C1_1  and  N8_8 
REMARK    2  A    between atoms: C5_5  and  C6_6 
REMARK    3  A    between atoms: C5_5  and  N8_8 
ROOT
HETATM    1  C1  UNL     1     -33.120   6.771   4.551  1.00 20.00     0.222 C 
HETATM    2  C4  UNL     1     -32.611   5.458   2.528  1.00 20.00     0.152 C 
HETATM    3  N8  UNL     1     -32.683   6.739   3.223  1.00 20.00    -0.355 N 
HETATM    4  O9  UNL     1     -32.733   7.620   5.362  1.00 20.00    -0.273 OA
ENDROOT
BRANCH   1   5
HETATM    5  C7  UNL     1     -34.143   5.718   4.991  1.00 20.00     0.070 C 
HETATM    6  C2  UNL     1     -35.419   5.849   4.160  1.00 20.00     0.019 C 
HETATM    7  C3  UNL     1     -34.478   5.871   6.477  1.00 20.00     0.019 C 
ENDBRANCH   1   5
BRANCH   3   8
HETATM    8  C5  UNL     1     -32.308   7.895   2.411  1.00 20.00     0.140 C 
BRANCH   8   9
HETATM    9  C6  UNL     1     -33.167   8.036   1.165  1.00 20.00     0.134 C 
HETATM   10 CL10 UNL     1     -32.678   9.450   0.199  1.00 20.00    -0.129 Cl
ENDBRANCH   8   9
ENDBRANCH   3   8
TORSDOF 3
