REMARK  1 active torsions:
REMARK  status: ('A' for Active; 'I' for Inactive)
REMARK    1  A    between atoms: C1_1  and  C8_8 
REMARK       I    between atoms: C1_1  and  N10_10 
ROOT
HETATM    1  C1  UNL     1     -32.697   7.475   3.881  1.00 20.00     0.224 C 
HETATM    2  C2  UNL     1     -33.930   6.182   7.005  1.00 20.00     0.021 C 
HETATM    3  C5  UNL     1     -34.954   5.135   6.565  1.00 20.00     0.023 C 
HETATM    4  C6  UNL     1     -33.894   7.367   6.045  1.00 20.00     0.126 C 
HETATM    5  C7  UNL     1     -34.712   5.951   4.184  1.00 20.00     0.145 C 
HETATM    6  C9  UNL     1     -34.784   4.727   5.099  1.00 20.00     0.100 C 
HETATM    7  N10 UNL     1     -33.721   6.926   4.660  1.00 20.00    -0.350 N 
HETATM    8  O11 UNL     1     -31.901   8.325   4.269  1.00 20.00    -0.273 OA
HETATM    9 CL12 UNL     1     -33.312   3.724   4.895  1.00 20.00    -0.123 Cl
ENDROOT
BRANCH   1  10
HETATM   10  C8  UNL     1     -32.568   6.985   2.475  1.00 20.00     0.078 A 
HETATM   11  C3  UNL     1     -33.400   7.629   1.418  1.00 20.00     0.015 A 
HETATM   12  C4  UNL     1     -31.923   7.878   1.470  1.00 20.00     0.015 A 
ENDBRANCH   1  10
TORSDOF 1
