REMARK  3 active torsions:
REMARK  status: ('A' for Active; 'I' for Inactive)
REMARK    1  A    between atoms: C6_6  and  C7_7 
REMARK    2  A    between atoms: C7_7  and  C8_8 
REMARK    3  A    between atoms: C8_8  and  N9_9 
ROOT
HETATM    1  C1  UNL     1     -33.636   7.362   6.221  1.00 20.00     0.052 C 
HETATM    2  C2  UNL     1     -32.607   7.627   5.122  1.00 20.00     0.274 C 
HETATM    3  C3  UNL     1     -34.353   6.444   4.120  1.00 20.00     0.292 C 
HETATM    4  C4  UNL     1     -34.633   6.376   5.615  1.00 20.00     0.112 C 
HETATM    5  N9  UNL     1     -32.902   6.637   4.086  1.00 20.00     0.089 N 
HETATM    6 CL10 UNL     1     -34.340   4.722   6.234  1.00 20.00    -0.123 Cl
ENDROOT
BRANCH   5   7
HETATM    7  C8  UNL     1     -32.420   7.037   2.773  1.00 20.00     0.272 C 
BRANCH   7   8
HETATM    8  C7  UNL     1     -33.097   8.307   2.267  1.00 20.00     0.030 C 
BRANCH   8   9
HETATM    9  C6  UNL     1     -32.612   8.717   0.875  1.00 20.00    -0.003 C 
HETATM   10  C5  UNL     1     -33.346   9.950   0.372  1.00 20.00     0.005 C 
ENDBRANCH   8   9
ENDBRANCH   7   8
ENDBRANCH   5   7
TORSDOF 3
