REMARK  1 active torsions:
REMARK  status: ('A' for Active; 'I' for Inactive)
REMARK    1  A    between atoms: C8_8  and  N9_9 
ROOT
HETATM    1  C1  UNL     1     -33.750   4.274   4.167  1.00 20.00     0.050 C 
HETATM    2  C2  UNL     1     -35.214   6.226   4.753  1.00 20.00     0.050 C 
HETATM    3  C3  UNL     1     -32.648   5.268   3.786  1.00 20.00     0.274 C 
HETATM    4  C4  UNL     1     -34.064   7.155   4.353  1.00 20.00     0.274 C 
HETATM    5  C5  UNL     1     -34.727   4.845   5.195  1.00 20.00     0.085 C 
HETATM    6  N9  UNL     1     -33.220   6.539   3.321  1.00 20.00     0.092 N 
HETATM    7 CL10 UNL     1     -33.950   4.943   6.807  1.00 20.00    -0.125 Cl
ENDROOT
BRANCH   6   8
HETATM    8  C8  UNL     1     -32.158   7.458   2.911  1.00 20.00     0.215 C 
HETATM    9  C6  UNL     1     -31.543   8.093   4.150  1.00 20.00     0.042 C 
HETATM   10  C7  UNL     1     -32.746   8.504   1.975  1.00 20.00     0.042 C 
ENDBRANCH   6   8
TORSDOF 1
