REMARK  2 active torsions:
REMARK  status: ('A' for Active; 'I' for Inactive)
REMARK    1  A    between atoms: C6_6  and  C8_8 
REMARK    2  A    between atoms: C8_8  and  N9_9 
ROOT
HETATM    1  C3  UNL     1     -33.049   7.191   4.633  1.00 20.00     0.052 C 
HETATM    2  C4  UNL     1     -31.999   7.442   3.552  1.00 20.00     0.274 C 
HETATM    3  C5  UNL     1     -33.182   5.564   2.859  1.00 20.00     0.292 C 
HETATM    4  C7  UNL     1     -33.934   6.082   4.077  1.00 20.00     0.112 C 
HETATM    5  N9  UNL     1     -32.448   6.731   2.345  1.00 20.00     0.090 N 
HETATM    6 CL10 UNL     1     -34.244   4.800   5.261  1.00 20.00    -0.123 Cl
ENDROOT
BRANCH   5   7
HETATM    7  C8  UNL     1     -33.294   7.582   1.508  1.00 20.00     0.277 C 
BRANCH   7   8
HETATM    8  C6  UNL     1     -32.474   8.537   0.709  1.00 20.00     0.014 A 
HETATM    9  C1  UNL     1     -33.139   9.504  -0.231  1.00 20.00     0.007 A 
HETATM   10  C2  UNL     1     -32.494  10.005   1.031  1.00 20.00     0.007 A 
ENDBRANCH   7   8
ENDBRANCH   5   7
TORSDOF 2
