REMARK  3 active torsions:
REMARK  status: ('A' for Active; 'I' for Inactive)
REMARK    1  A    between atoms: C4_4  and  C7_7 
REMARK    2  A    between atoms: C8_8  and  C9_9 
REMARK    3  A    between atoms: C8_8  and  N10_10 
ROOT
HETATM    1  C1  UNL     1     -32.970   7.699   5.646  1.00 20.00     0.032 C 
HETATM    2  C2  UNL     1     -34.305   7.348   4.997  1.00 20.00     0.038 C 
HETATM    3  C3  UNL     1     -31.979   7.824   4.495  1.00 20.00     0.273 C 
HETATM    4  C4  UNL     1     -33.951   6.921   3.574  1.00 20.00     0.236 C 
HETATM    5  N10 UNL     1     -32.813   7.803   3.295  1.00 20.00     0.094 N 
ENDROOT
BRANCH   5   6
HETATM    6  C8  UNL     1     -32.064   7.499   2.088  1.00 20.00     0.277 C 
BRANCH   6   7
HETATM    7  C9  UNL     1     -32.783   8.002   0.830  1.00 20.00     0.006 C 
HETATM    8  C5  UNL     1     -32.994   9.517   0.848  1.00 20.00     0.011 C 
HETATM    9  C6  UNL     1     -32.065   7.574  -0.451  1.00 20.00     0.011 C 
ENDBRANCH   6   7
ENDBRANCH   5   6
BRANCH   4  10
HETATM   10  C7  UNL     1     -33.672   5.416   3.494  1.00 20.00     0.150 C 
HETATM   11 CL11 UNL     1     -33.843   4.849   1.823  1.00 20.00    -0.128 Cl
ENDBRANCH   4  10
TORSDOF 3
