REMARK  2 active torsions:
REMARK  status: ('A' for Active; 'I' for Inactive)
REMARK    1  A    between atoms: C6_6  and  C7_7 
REMARK    2  A    between atoms: C6_6  and  N8_8 
ROOT
HETATM    1  C1  UNL     1     -35.029   6.347   4.550  1.00 20.00     0.050 C 
HETATM    2  C2  UNL     1     -33.343   7.419   6.069  1.00 20.00     0.050 C 
HETATM    3  C3  UNL     1     -34.022   6.484   3.403  1.00 20.00     0.274 C 
HETATM    4  C4  UNL     1     -32.392   7.521   4.872  1.00 20.00     0.274 C 
HETATM    5  C5  UNL     1     -34.353   6.280   5.920  1.00 20.00     0.085 C 
HETATM    6  N8  UNL     1     -33.137   7.639   3.612  1.00 20.00     0.093 N 
HETATM    7 CL11 UNL     1     -33.546   4.696   6.143  1.00 20.00    -0.125 Cl
ENDROOT
BRANCH   6   8
HETATM    8  C6  UNL     1     -32.217   7.789   2.484  1.00 20.00     0.343 C 
BRANCH   8   9
HETATM    9  C7  UNL     1     -32.903   8.484   1.327  1.00 20.00     0.381 C 
HETATM   10  F9  UNL     1     -32.203   8.279   0.183  1.00 20.00    -0.213 F 
HETATM   11  F10 UNL     1     -32.897   9.824   1.547  1.00 20.00    -0.213 F 
ENDBRANCH   8   9
ENDBRANCH   6   8
TORSDOF 2
