REMARK  4 active torsions:
REMARK  status: ('A' for Active; 'I' for Inactive)
REMARK    1  A    between atoms: C4_4  and  C7_7 
REMARK    2  A    between atoms: C8_8  and  C10_10 
REMARK    3  A    between atoms: C9_9  and  C10_10 
REMARK    4  A    between atoms: C9_9  and  N11_11 
ROOT
HETATM    1  C1  UNL     1     -31.366   7.826   2.859  1.00 20.00     0.035 C 
HETATM    2  C2  UNL     1     -32.238   7.533   4.063  1.00 20.00     0.235 C 
HETATM    3  C3  UNL     1     -32.768   5.994   2.229  1.00 20.00     0.240 C 
HETATM    4  C4  UNL     1     -32.172   7.288   1.683  1.00 20.00     0.027 C 
HETATM    5  N11 UNL     1     -32.870   6.199   3.731  1.00 20.00    -0.070 N 
HETATM    6  H33 UNL     1     -32.285   5.474   4.173  1.00 20.00     0.279 HD
ENDROOT
BRANCH   5   7
HETATM    7  C9  UNL     1     -34.251   6.034   4.281  1.00 20.00     0.239 C 
BRANCH   7   8
HETATM    8  C10 UNL     1     -34.237   5.610   5.756  1.00 20.00     0.007 C 
HETATM    9  C6  UNL     1     -35.579   4.998   6.176  1.00 20.00     0.011 C 
BRANCH   8  10
HETATM   10  C8  UNL     1     -33.846   6.728   6.742  1.00 20.00     0.001 C 
HETATM   11  C5  UNL     1     -34.803   7.912   6.734  1.00 20.00     0.005 C 
ENDBRANCH   8  10
ENDBRANCH   7   8
ENDBRANCH   5   7
BRANCH   4  12
HETATM   12  C7  UNL     1     -33.253   8.266   1.221  1.00 20.00     0.121 C 
HETATM   13 CL12 UNL     1     -32.543   9.537   0.205  1.00 20.00    -0.130 Cl
ENDBRANCH   4  12
TORSDOF 4
