REMARK  3 active torsions:
REMARK  status: ('A' for Active; 'I' for Inactive)
REMARK    1  A    between atoms: C4_4  and  C6_6 
REMARK    2  A    between atoms: C7_7  and  C8_8 
REMARK    3  A    between atoms: C8_8  and  N9_9 
ROOT
HETATM    1  C1  UNL     1     -33.360   4.242   3.512  1.00 20.00     0.032 C 
HETATM    2  C2  UNL     1     -33.918   5.091   4.649  1.00 20.00     0.038 C 
HETATM    3  C3  UNL     1     -32.676   5.227   2.579  1.00 20.00     0.273 C 
HETATM    4  C4  UNL     1     -33.515   6.529   4.315  1.00 20.00     0.236 C 
HETATM    5  N9  UNL     1     -32.333   6.344   3.462  1.00 20.00     0.094 N 
ENDROOT
BRANCH   5   6
HETATM    6  C8  UNL     1     -31.979   7.536   2.701  1.00 20.00     0.272 C 
BRANCH   6   7
HETATM    7  C7  UNL     1     -33.123   8.024   1.821  1.00 20.00     0.026 C 
HETATM    8  C5  UNL     1     -32.754   9.256   1.006  1.00 20.00     0.007 C 
ENDBRANCH   6   7
ENDBRANCH   5   6
BRANCH   4   9
HETATM    9  C6  UNL     1     -33.234   7.343   5.572  1.00 20.00     0.150 C 
HETATM   10 CL10 UNL     1     -34.681   7.415   6.594  1.00 20.00    -0.128 Cl
ENDBRANCH   4   9
TORSDOF 3
