REMARK  2 active torsions:
REMARK  status: ('A' for Active; 'I' for Inactive)
REMARK    1  A    between atoms: C3_3  and  C6_6 
REMARK    2  A    between atoms: C5_5  and  C6_6 
ROOT
HETATM    1  C6  UNL     1     -34.130   6.401   4.330  1.00 20.00     0.086 C 
HETATM    2 CL7  UNL     1     -33.571   4.939   3.461  1.00 20.00    -0.125 Cl
ENDROOT
BRANCH   1   3
HETATM    3  C3  UNL     1     -34.729   5.972   5.638  1.00 20.00     0.004 A 
HETATM    4  C1  UNL     1     -33.874   5.312   6.683  1.00 20.00     0.006 A 
HETATM    5  C2  UNL     1     -34.387   6.707   6.904  1.00 20.00     0.006 A 
ENDBRANCH   1   3
BRANCH   1   6
HETATM    6  C5  UNL     1     -32.980   7.393   4.536  1.00 20.00     0.016 C 
HETATM    7  C4  UNL     1     -32.322   7.840   3.238  1.00 20.00     0.006 C 
ENDBRANCH   1   6
TORSDOF 2
