REMARK  3 active torsions:
REMARK  status: ('A' for Active; 'I' for Inactive)
REMARK    1  A    between atoms: C7_7  and  C8_8 
REMARK    2  A    between atoms: C7_7  and  C9_9 
REMARK    3  A    between atoms: C8_8  and  N10_10 
ROOT
HETATM    1  C1  UNL     1     -34.715   5.398   4.885  1.00 20.00     0.052 C 
HETATM    2  C2  UNL     1     -34.149   6.066   3.632  1.00 20.00     0.274 C 
HETATM    3  C3  UNL     1     -33.342   7.285   5.452  1.00 20.00     0.292 C 
HETATM    4  C4  UNL     1     -33.976   6.040   6.056  1.00 20.00     0.112 C 
HETATM    5  N10 UNL     1     -32.994   6.831   4.104  1.00 20.00     0.089 N 
HETATM    6 CL11 UNL     1     -32.717   4.937   6.688  1.00 20.00    -0.123 Cl
ENDROOT
BRANCH   5   7
HETATM    7  C8  UNL     1     -32.646   7.928   3.215  1.00 20.00     0.272 C 
BRANCH   7   8
HETATM    8  C7  UNL     1     -32.303   7.452   1.806  1.00 20.00     0.034 C 
BRANCH   8   9
HETATM    9  C9  UNL     1     -31.896   8.566   0.821  1.00 20.00    -0.021 C 
HETATM   10  C5  UNL     1     -33.044   9.569   0.674  1.00 20.00     0.009 C 
HETATM   11  C6  UNL     1     -31.510   8.019  -0.554  1.00 20.00     0.009 C 
ENDBRANCH   8   9
ENDBRANCH   7   8
ENDBRANCH   5   7
TORSDOF 3
