REMARK  2 active torsions:
REMARK  status: ('A' for Active; 'I' for Inactive)
REMARK    1  A    between atoms: C3_3  and  C6_6 
REMARK    2  A    between atoms: C5_5  and  C6_6 
ROOT
HETATM    1  C6  UNL     1     -34.046   6.426   4.008  1.00 20.00     0.086 C 
HETATM    2 CL7  UNL     1     -34.120   4.647   4.182  1.00 20.00    -0.125 Cl
ENDROOT
BRANCH   1   3
HETATM    3  C3  UNL     1     -32.677   6.796   3.515  1.00 20.00     0.004 A 
HETATM    4  C1  UNL     1     -32.305   6.576   2.075  1.00 20.00     0.006 A 
HETATM    5  C2  UNL     1     -32.496   7.973   2.597  1.00 20.00     0.006 A 
ENDBRANCH   1   3
BRANCH   1   6
HETATM    6  C5  UNL     1     -34.375   7.123   5.333  1.00 20.00     0.016 C 
HETATM    7  C4  UNL     1     -33.394   6.795   6.451  1.00 20.00     0.006 C 
ENDBRANCH   1   6
TORSDOF 2
