REMARK  3 active torsions:
REMARK  status: ('A' for Active; 'I' for Inactive)
REMARK    1  A    between atoms: C1_1  and  C4_4 
REMARK       I    between atoms: C1_1  and  N7_7 
REMARK    2  A    between atoms: C5_5  and  C6_6 
REMARK    3  A    between atoms: C5_5  and  N7_7 
ROOT
HETATM    1  C1  UNL     1     -33.526   5.627   3.995  1.00 20.00     0.219 C 
HETATM    2  C3  UNL     1     -32.612   7.776   4.897  1.00 20.00     0.152 C 
HETATM    3  N7  UNL     1     -32.817   6.820   3.816  1.00 20.00    -0.355 N 
HETATM    4  O8  UNL     1     -33.295   4.597   3.355  1.00 20.00    -0.273 OA
ENDROOT
BRANCH   3   5
HETATM    5  C5  UNL     1     -32.229   7.197   2.533  1.00 20.00     0.140 C 
BRANCH   5   6
HETATM    6  C6  UNL     1     -33.184   8.002   1.667  1.00 20.00     0.134 C 
HETATM    7 CL9  UNL     1     -32.437   8.439   0.111  1.00 20.00    -0.129 Cl
ENDBRANCH   5   6
ENDBRANCH   3   5
BRANCH   1   8
HETATM    8  C4  UNL     1     -34.629   5.652   5.043  1.00 20.00     0.098 C 
HETATM    9  C2  UNL     1     -34.137   5.247   6.423  1.00 20.00     0.014 C 
ENDBRANCH   1   8
TORSDOF 3
