REMARK  1 active torsions:
REMARK  status: ('A' for Active; 'I' for Inactive)
REMARK    1  A    between atoms: C4_4  and  C9_9 
ROOT
HETATM    1  C1  UNL     1     -31.863   7.350   3.161  1.00 20.00    -0.003 A 
HETATM    2  C2  UNL     1     -32.666   7.350   4.355  1.00 20.00     0.004 A 
HETATM    3  C3  UNL     1     -32.246   6.345   2.361  1.00 20.00    -0.022 A 
HETATM    4  C4  UNL     1     -33.551   6.343   4.299  1.00 20.00    -0.069 A 
HETATM    5  C5  UNL     1     -33.372   5.590   3.008  1.00 20.00     0.062 A 
ENDROOT
BRANCH   4   6
HETATM    6  C9  UNL     1     -34.590   5.958   5.318  1.00 20.00    -0.028 C 
HETATM    7  C6  UNL     1     -34.322   4.523   5.790  1.00 20.00     0.019 C 
HETATM    8  C7  UNL     1     -35.987   6.040   4.685  1.00 20.00     0.019 C 
HETATM    9  C8  UNL     1     -34.518   6.917   6.515  1.00 20.00     0.019 C 
ENDBRANCH   4   6
TORSDOF 1
