REMARK  2 active torsions:
REMARK  status: ('A' for Active; 'I' for Inactive)
REMARK    1  A    between atoms: C3_3  and  C10_10 
REMARK    2  A    between atoms: C4_4  and  C10_10 
ROOT
HETATM    1  C5  UNL     1     -32.209   6.459   2.253  1.00 20.00     0.000 C 
HETATM    2  C6  UNL     1     -33.324   5.422   2.180  1.00 20.00     0.001 C 
HETATM    3  C7  UNL     1     -32.630   7.673   3.072  1.00 20.00     0.001 C 
HETATM    4  C8  UNL     1     -33.799   5.005   3.572  1.00 20.00     0.017 C 
HETATM    5  C9  UNL     1     -33.103   7.277   4.471  1.00 20.00     0.017 C 
HETATM    6  C10 UNL     1     -34.201   6.201   4.453  1.00 20.00    -0.006 C 
ENDROOT
BRANCH   6   7
HETATM    7  C3  UNL     1     -35.494   6.793   3.948  1.00 20.00    -0.023 C 
HETATM    8  C1  UNL     1     -36.643   6.115   3.856  1.00 20.00     0.008 C 
ENDBRANCH   6   7
BRANCH   6   9
HETATM    9  C4  UNL     1     -34.385   5.718   5.868  1.00 20.00    -0.023 C 
HETATM   10  C2  UNL     1     -34.737   6.507   6.889  1.00 20.00     0.008 C 
ENDBRANCH   6   9
TORSDOF 2
