REMARK  0 active torsions:
REMARK  status: ('A' for Active; 'I' for Inactive)
ROOT
HETATM    1  C1  UNL     1     -34.106   4.793   3.947  1.00 20.00     0.009 A 
HETATM    2  C2  UNL     1     -33.515   5.461   2.872  1.00 20.00     0.019 A 
HETATM    3  C3  UNL     1     -33.039   7.399   4.273  1.00 20.00     0.026 A 
HETATM    4  C4  UNL     1     -34.145   5.453   5.153  1.00 20.00    -0.051 A 
HETATM    5  C5  UNL     1     -33.628   6.716   5.311  1.00 20.00    -0.050 A 
HETATM    6  C6  UNL     1     -32.985   6.756   3.034  1.00 20.00     0.011 A 
HETATM    7  C7  UNL     1     -34.583   5.349   6.583  1.00 20.00     0.043 A 
HETATM    8  C8  UNL     1     -33.994   6.789   6.763  1.00 20.00     0.043 A 
HETATM    9 BR9  UNL     1     -32.190   7.631   1.557  1.00 20.00    -0.051 Br
ENDROOT
TORSDOF 0
