REMARK  0 active torsions:
REMARK  status: ('A' for Active; 'I' for Inactive)
ROOT
HETATM    1  C1  UNL     1     -34.152   6.258   5.669  1.00 20.00     0.119 C 
HETATM    2  C2  UNL     1     -33.142   7.186   3.599  1.00 20.00     0.063 A 
HETATM    3  C3  UNL     1     -32.903   5.274   2.531  1.00 20.00     0.137 A 
HETATM    4  C4  UNL     1     -33.597   6.131   4.358  1.00 20.00     0.137 A 
HETATM    5  C5  UNL     1     -32.692   6.629   2.413  1.00 20.00     0.031 A 
HETATM    6  N6  UNL     1     -34.602   6.360   6.734  1.00 20.00    -0.190 NA
HETATM    7  N7  UNL     1     -33.452   4.970   3.712  1.00 20.00    -0.249 NA
HETATM    8 BR8  UNL     1     -31.946   7.537   0.950  1.00 20.00    -0.050 Br
ENDROOT
TORSDOF 0
