REMARK  0 active torsions:
REMARK  status: ('A' for Active; 'I' for Inactive)
ROOT
HETATM    1  C1  UNL     1     -33.140   7.839   4.405  1.00 20.00     0.017 A 
HETATM    2  C2  UNL     1     -32.555   8.438   3.290  1.00 20.00     0.025 A 
HETATM    3  C3  UNL     1     -33.607   4.363   3.207  1.00 20.00     0.031 A 
HETATM    4  C4  UNL     1     -32.660   6.335   2.102  1.00 20.00     0.036 A 
HETATM    5  C5  UNL     1     -34.186   3.825   4.347  1.00 20.00     0.119 A 
HETATM    6  C6  UNL     1     -33.491   6.479   4.377  1.00 20.00     0.010 A 
HETATM    7  C7  UNL     1     -33.250   5.716   3.215  1.00 20.00    -0.020 A 
HETATM    8  C8  UNL     1     -32.315   7.688   2.141  1.00 20.00     0.034 A 
HETATM    9  C9  UNL     1     -34.080   5.829   5.464  1.00 20.00     0.113 A 
HETATM   10  N10 UNL     1     -34.432   4.523   5.475  1.00 20.00    -0.253 NA
HETATM   11 CL11 UNL     1     -31.591   8.430   0.766  1.00 20.00    -0.084 Cl
HETATM   12 BR12 UNL     1     -34.472   6.725   7.111  1.00 20.00    -0.028 Br
ENDROOT
TORSDOF 0
