REMARK  0 active torsions:
REMARK  status: ('A' for Active; 'I' for Inactive)
ROOT
HETATM    1  C1  UNL     1     -32.473   7.617   4.561  1.00 20.00     0.036 A 
HETATM    2  C2  UNL     1     -33.284   7.515   5.617  1.00 20.00     0.007 A 
HETATM    3  C3  UNL     1     -32.909   6.765   3.446  1.00 20.00     0.086 A 
HETATM    4  C4  UNL     1     -34.459   6.602   5.520  1.00 20.00     0.172 A 
HETATM    5  N5  UNL     1     -32.329   6.647   2.306  1.00 20.00    -0.293 NA
HETATM    6  S6  UNL     1     -34.368   5.889   3.852  1.00 20.00    -0.086 SA
HETATM    7 CL7  UNL     1     -34.368   5.338   6.760  1.00 20.00    -0.109 Cl
HETATM    8  H11 UNL     1     -32.855   5.987   1.721  1.00 20.00     0.187 HD
ENDROOT
TORSDOF 0
