REMARK  1 active torsions:
REMARK  status: ('A' for Active; 'I' for Inactive)
REMARK    1  A    between atoms: C6_6  and  C7_7 
ROOT
HETATM    1  C3  UNL     1     -34.012   5.294   6.722  1.00 20.00     0.296 C 
HETATM    2  C4  UNL     1     -33.653   6.769   6.840  1.00 20.00     0.197 C 
HETATM    3  C5  UNL     1     -34.379   7.183   4.641  1.00 20.00     0.203 C 
HETATM    4  C7  UNL     1     -34.819   5.725   4.467  1.00 20.00     0.248 C 
HETATM    5  N8  UNL     1     -35.104   5.093   5.765  1.00 20.00     0.092 N 
HETATM    6  O9  UNL     1     -33.292   7.290   5.562  1.00 20.00    -0.387 OA
HETATM    7  H22 UNL     1     -35.229   4.085   5.623  1.00 20.00     0.316 HD
ENDROOT
BRANCH   4   8
HETATM    8  C6  UNL     1     -33.823   4.922   3.671  1.00 20.00     0.021 A 
HETATM    9  C1  UNL     1     -33.446   5.348   2.279  1.00 20.00     0.007 A 
HETATM   10  C2  UNL     1     -32.451   5.475   3.398  1.00 20.00     0.007 A 
ENDBRANCH   4   8
TORSDOF 1
