REMARK  0 active torsions:
REMARK  status: ('A' for Active; 'I' for Inactive)
ROOT
HETATM    1  C1  UNL     1     -33.655   5.441   3.073  1.00 20.00     0.105 C 
HETATM    2  C2  UNL     1     -33.543   7.042   4.481  1.00 20.00     0.260 C 
HETATM    3  C3  UNL     1     -32.641   6.580   3.309  1.00 20.00     0.128 C 
HETATM    4  C4  UNL     1     -34.050   5.577   4.561  1.00 20.00     0.276 C 
HETATM    5  F5  UNL     1     -32.899   7.503   5.576  1.00 20.00    -0.241 F 
HETATM    6  F6  UNL     1     -33.374   4.777   5.417  1.00 20.00    -0.203 F 
HETATM    7  F7  UNL     1     -35.364   5.426   4.837  1.00 20.00    -0.203 F 
HETATM    8 CL8  UNL     1     -32.313   7.720   1.978  1.00 20.00    -0.122 Cl
ENDROOT
TORSDOF 0
