REMARK  1 active torsions:
REMARK  status: ('A' for Active; 'I' for Inactive)
REMARK    1  A    between atoms: C2_2  and  C3_3 
ROOT
HETATM    1  C1  UNL     1     -33.597   4.507   3.943  1.00 20.00     0.058 C 
HETATM    2  C2  UNL     1     -34.010   5.877   4.481  1.00 20.00     0.189 C 
HETATM    3 CL6  UNL     1     -32.908   7.129   3.812  1.00 20.00    -0.094 Cl
HETATM    4 CL7  UNL     1     -35.666   6.241   3.865  1.00 20.00    -0.094 Cl
ENDROOT
BRANCH   2   5
HETATM    5  C3  UNL     1     -34.034   5.942   6.014  1.00 20.00     0.354 C 
HETATM    6  F4  UNL     1     -32.794   5.667   6.502  1.00 20.00    -0.184 F 
HETATM    7  F5  UNL     1     -34.857   4.979   6.508  1.00 20.00    -0.184 F 
HETATM    8 CL8  UNL     1     -34.551   7.516   6.664  1.00 20.00    -0.045 Cl
ENDBRANCH   2   5
TORSDOF 1
