REMARK  1 active torsions:
REMARK  status: ('A' for Active; 'I' for Inactive)
REMARK    1  A    between atoms: C1_1  and  C4_4 
ROOT
HETATM    1  C2  UNL     1     -33.430   7.865   5.044  1.00 20.00     0.013 C 
HETATM    2  C3  UNL     1     -34.408   7.210   6.037  1.00 20.00     0.010 C 
HETATM    3  C4  UNL     1     -33.015   6.444   4.586  1.00 20.00     0.062 C 
HETATM    4  C5  UNL     1     -34.398   5.941   5.136  1.00 20.00    -0.037 C 
HETATM    5  C7  UNL     1     -34.307   4.632   5.916  1.00 20.00     0.015 C 
HETATM    6  C8  UNL     1     -35.551   5.905   4.130  1.00 20.00     0.015 C 
ENDROOT
BRANCH   3   7
HETATM    7  C1  UNL     1     -32.694   6.231   3.104  1.00 20.00     0.128 C 
HETATM    8  C6  UNL     1     -32.451   4.813   2.661  1.00 20.00     0.091 C 
HETATM    9  O9  UNL     1     -32.639   7.171   2.313  1.00 20.00    -0.298 OA
ENDBRANCH   3   7
TORSDOF 1
