REMARK  0 active torsions:
REMARK  status: ('A' for Active; 'I' for Inactive)
ROOT
HETATM    1  C1  UNL     1     -33.572   6.939   6.680  1.00 20.00    -0.021 C 
HETATM    2  C2  UNL     1     -34.276   4.644   5.967  1.00 20.00    -0.021 C 
HETATM    3  C3  UNL     1     -32.917   7.674   5.771  1.00 20.00    -0.023 C 
HETATM    4  C4  UNL     1     -33.957   4.280   4.718  1.00 20.00    -0.023 C 
HETATM    5  C5  UNL     1     -34.663   6.091   6.089  1.00 20.00     0.035 C 
HETATM    6  C6  UNL     1     -33.465   7.443   4.414  1.00 20.00     0.033 A 
HETATM    7  C7  UNL     1     -34.083   5.427   3.788  1.00 20.00     0.033 A 
HETATM    8  C8  UNL     1     -34.713   6.561   4.622  1.00 20.00     0.015 A 
HETATM    9  C9  UNL     1     -32.814   6.299   3.592  1.00 20.00     0.098 A 
HETATM   10 CL10 UNL     1     -32.326   6.677   1.893  1.00 20.00    -0.124 Cl
ENDROOT
TORSDOF 0
