REMARK  0 active torsions:
REMARK  status: ('A' for Active; 'I' for Inactive)
ROOT
HETATM    1  C1  UNL     1     -34.411   7.140   7.095  1.00 20.00     0.006 C 
HETATM    2  C2  UNL     1     -33.349   7.532   6.062  1.00 20.00     0.011 C 
HETATM    3  C3  UNL     1     -35.718   5.451   5.542  1.00 20.00     0.010 C 
HETATM    4  C4  UNL     1     -35.341   6.062   4.197  1.00 20.00     0.069 C 
HETATM    5  C5  UNL     1     -32.953   4.547   2.466  1.00 20.00     0.197 C 
HETATM    6  C6  UNL     1     -32.285   5.895   2.478  1.00 20.00     0.197 C 
HETATM    7  C7  UNL     1     -34.526   5.744   6.455  1.00 20.00    -0.005 C 
HETATM    8  C8  UNL     1     -33.331   6.078   5.531  1.00 20.00     0.052 C 
HETATM    9  C9  UNL     1     -33.837   5.825   4.112  1.00 20.00     0.168 C 
HETATM   10  O10 UNL     1     -33.563   4.463   3.753  1.00 20.00    -0.353 OA
HETATM   11  O11 UNL     1     -33.218   6.714   3.180  1.00 20.00    -0.353 OA
ENDROOT
TORSDOF 0
