REMARK  0 active torsions:
REMARK  status: ('A' for Active; 'I' for Inactive)
ROOT
HETATM    1  C1  UNL     1     -34.885   5.402   6.371  1.00 20.00    -0.021 C 
HETATM    2  C2  UNL     1     -34.019   6.404   6.662  1.00 20.00    -0.021 C 
HETATM    3  C3  UNL     1     -34.028   4.166   4.186  1.00 20.00    -0.021 C 
HETATM    4  C4  UNL     1     -33.280   4.787   3.241  1.00 20.00    -0.021 C 
HETATM    5  C5  UNL     1     -32.501   7.665   4.748  1.00 20.00    -0.015 C 
HETATM    6  C6  UNL     1     -32.558   7.339   3.431  1.00 20.00    -0.079 C 
HETATM    7  C7  UNL     1     -34.983   5.112   4.877  1.00 20.00     0.036 C 
HETATM    8  C8  UNL     1     -33.204   6.584   5.454  1.00 20.00     0.036 C 
HETATM    9  C9  UNL     1     -33.600   6.260   3.128  1.00 20.00     0.042 C 
HETATM   10  C10 UNL     1     -34.342   6.395   4.428  1.00 20.00     0.020 C 
HETATM   11  C11 UNL     1     -31.813   7.996   2.325  1.00 20.00     0.044 C 
ENDROOT
TORSDOF 0
