REMARK  0 active torsions:
REMARK  status: ('A' for Active; 'I' for Inactive)
ROOT
HETATM    1  C1  UNL     1     -32.625   5.717   2.352  1.00 20.00    -0.023 C 
HETATM    2  C2  UNL     1     -32.443   7.045   2.417  1.00 20.00    -0.080 C 
HETATM    3  C3  UNL     1     -34.362   5.519   5.174  1.00 20.00     0.127 C 
HETATM    4  C4  UNL     1     -32.621   4.746   3.493  1.00 20.00     0.035 C 
HETATM    5  C5  UNL     1     -32.516   7.902   1.174  1.00 20.00     0.034 C 
HETATM    6  C6  UNL     1     -34.020   4.541   4.066  1.00 20.00     0.082 C 
HETATM    7  C7  UNL     1     -34.334   7.004   4.868  1.00 20.00     0.079 C 
HETATM    8  C8  UNL     1     -32.240   9.312   1.677  1.00 20.00     0.005 C 
HETATM    9  C9  UNL     1     -32.914   7.559   4.969  1.00 20.00     0.016 C 
HETATM   10  C10 UNL     1     -32.727   9.288   3.117  1.00 20.00     0.009 C 
HETATM   11  C11 UNL     1     -32.247   7.924   3.634  1.00 20.00     0.014 C 
HETATM   12  O12 UNL     1     -34.671   5.115   6.297  1.00 20.00    -0.298 OA
ENDROOT
TORSDOF 0
