REMARK  0 active torsions:
REMARK  status: ('A' for Active; 'I' for Inactive)
ROOT
HETATM    1  C1  UNL     1     -32.539   7.029   2.650  1.00 20.00     0.131 C 
HETATM    2  C2  UNL     1     -32.545   5.472   2.579  1.00 20.00     0.083 C 
HETATM    3  C3  UNL     1     -33.654   8.490   4.730  1.00 20.00     0.013 C 
HETATM    4  C4  UNL     1     -34.179   7.735   6.018  1.00 20.00     0.006 C 
HETATM    5  C5  UNL     1     -33.941   4.121   4.617  1.00 20.00     0.006 C 
HETATM    6  C6  UNL     1     -34.523   4.930   5.883  1.00 20.00     0.005 C 
HETATM    7  C7  UNL     1     -32.653   7.523   4.093  1.00 20.00     0.060 C 
HETATM    8  C8  UNL     1     -33.587   5.247   3.639  1.00 20.00    -0.002 C 
HETATM    9  C9  UNL     1     -34.421   6.380   5.412  1.00 20.00    -0.009 C 
HETATM   10  C10 UNL     1     -33.120   6.227   4.676  1.00 20.00     0.005 C 
HETATM   11  O11 UNL     1     -32.388   7.762   1.683  1.00 20.00    -0.298 OA
ENDROOT
TORSDOF 0
