REMARK  1 active torsions:
REMARK  status: ('A' for Active; 'I' for Inactive)
REMARK    1  A    between atoms: C1_1  and  C3_3 
ROOT
HETATM    1  C1  UNL     1     -33.716   7.058   4.631  1.00 20.00     0.043 C 
HETATM    2  C2  UNL     1     -33.177   6.361   3.624  1.00 20.00     0.183 C 
HETATM    3  F4  UNL     1     -33.464   5.048   3.482  1.00 20.00    -0.193 F 
HETATM    4 CL5  UNL     1     -32.113   7.105   2.491  1.00 20.00    -0.052 Cl
ENDROOT
BRANCH   1   5
HETATM    5  C3  UNL     1     -34.652   6.479   5.641  1.00 20.00     0.145 C 
HETATM    6 CL6  UNL     1     -34.290   4.757   5.884  1.00 20.00    -0.126 Cl
ENDBRANCH   1   5
TORSDOF 1
