REMARK  0 active torsions:
REMARK  status: ('A' for Active; 'I' for Inactive)
ROOT
HETATM    1  C1  UNL     1     -32.749   8.033   4.866  1.00 20.00     0.131 C 
HETATM    2  C2  UNL     1     -33.578   7.556   6.045  1.00 20.00     0.079 C 
HETATM    3  C3  UNL     1     -33.728   6.031   6.048  1.00 20.00     0.016 C 
HETATM    4  C4  UNL     1     -33.401   5.561   2.155  1.00 20.00     0.006 C 
HETATM    5  C5  UNL     1     -32.529   6.556   1.376  1.00 20.00     0.005 C 
HETATM    6  C6  UNL     1     -33.174   7.487   3.520  1.00 20.00     0.064 C 
HETATM    7  C7  UNL     1     -33.197   5.959   3.612  1.00 20.00     0.005 C 
HETATM    8  C8  UNL     1     -32.231   7.725   2.338  1.00 20.00    -0.007 C 
HETATM    9  C9  UNL     1     -34.176   5.428   4.685  1.00 20.00    -0.043 C 
HETATM   10  C10 UNL     1     -32.429   9.083   1.680  1.00 20.00     0.011 C 
HETATM   11  C11 UNL     1     -34.073   3.893   4.768  1.00 20.00     0.015 C 
HETATM   12  C12 UNL     1     -35.648   5.787   4.407  1.00 20.00     0.015 C 
HETATM   13  O13 UNL     1     -31.865   8.876   4.997  1.00 20.00    -0.298 OA
ENDROOT
TORSDOF 0
