REMARK  0 active torsions:
REMARK  status: ('A' for Active; 'I' for Inactive)
ROOT
HETATM    1  C1  UNL     1     -34.713   7.567   4.380  1.00 20.00    -0.019 A 
HETATM    2  C2  UNL     1     -35.217   6.425   3.881  1.00 20.00    -0.019 A 
HETATM    3  C3  UNL     1     -32.144   7.185   2.652  1.00 20.00    -0.023 C 
HETATM    4  C4  UNL     1     -32.647   6.051   2.136  1.00 20.00    -0.086 C 
HETATM    5  C5  UNL     1     -32.151   7.497   4.117  1.00 20.00     0.042 C 
HETATM    6  C6  UNL     1     -33.260   4.990   3.014  1.00 20.00     0.048 C 
HETATM    7  C7  UNL     1     -34.354   6.317   7.118  1.00 20.00     0.001 C 
HETATM    8  C8  UNL     1     -34.924   5.016   6.549  1.00 20.00     0.001 C 
HETATM    9  C9  UNL     1     -33.163   6.885   6.348  1.00 20.00     0.015 C 
HETATM   10  C10 UNL     1     -34.213   4.497   5.300  1.00 20.00     0.015 C 
HETATM   11  C11 UNL     1     -33.393   6.924   4.825  1.00 20.00    -0.009 A 
HETATM   12  C12 UNL     1     -33.982   5.589   4.238  1.00 20.00    -0.008 A 
HETATM   13  C13 UNL     1     -32.596   5.757   0.667  1.00 20.00     0.043 C 
ENDROOT
TORSDOF 0
