REMARK  1 active torsions:
REMARK  status: ('A' for Active; 'I' for Inactive)
REMARK    1  A    between atoms: C2_2  and  C6_6 
ROOT
HETATM    1  C1  UNL     1     -32.618   7.654   3.556  1.00 20.00     0.071 C 
HETATM    2  C2  UNL     1     -33.164   6.489   3.951  1.00 20.00     0.003 C 
HETATM    3 BR7  UNL     1     -31.574   7.982   2.053  1.00 20.00    -0.062 Br
HETATM    4 BR8  UNL     1     -32.913   4.907   2.934  1.00 20.00    -0.054 Br
ENDROOT
BRANCH   2   5
HETATM    5  C6  UNL     1     -34.022   6.317   5.226  1.00 20.00    -0.017 C 
HETATM    6  C3  UNL     1     -33.419   5.300   6.229  1.00 20.00     0.020 C 
HETATM    7  C4  UNL     1     -34.147   7.658   5.984  1.00 20.00     0.020 C 
HETATM    8  C5  UNL     1     -35.432   5.799   4.869  1.00 20.00     0.020 C 
ENDBRANCH   2   5
TORSDOF 1
