REMARK  0 active torsions:
REMARK  status: ('A' for Active; 'I' for Inactive)
ROOT
HETATM    1  C1  UNL     1     -33.539   5.386   2.750  1.00 20.00    -0.018 C 
HETATM    2  C2  UNL     1     -32.896   7.836   5.768  1.00 20.00    -0.018 C 
HETATM    3  C3  UNL     1     -33.263   6.701   2.505  1.00 20.00    -0.078 C 
HETATM    4  C4  UNL     1     -33.931   6.949   5.828  1.00 20.00    -0.078 C 
HETATM    5  C5  UNL     1     -32.067   7.449   1.940  1.00 20.00     0.035 C 
HETATM    6  C6  UNL     1     -34.199   5.679   6.619  1.00 20.00     0.035 C 
HETATM    7  C7  UNL     1     -31.725   8.498   3.125  1.00 20.00     0.013 C 
HETATM    8  C8  UNL     1     -34.483   4.596   5.448  1.00 20.00     0.013 C 
HETATM    9  C9  UNL     1     -33.806   5.272   4.251  1.00 20.00     0.017 C 
HETATM   10  C10 UNL     1     -32.392   7.817   4.324  1.00 20.00     0.017 C 
HETATM   11  C11 UNL     1     -33.711   7.552   3.619  1.00 20.00     0.030 C 
HETATM   12  C12 UNL     1     -34.437   6.634   4.483  1.00 20.00     0.030 C 
ENDROOT
TORSDOF 0
