REMARK  0 active torsions:
REMARK  status: ('A' for Active; 'I' for Inactive)
ROOT
HETATM    1  C1  UNL     1     -33.552   5.564   3.159  1.00 20.00    -0.080 C 
HETATM    2  C2  UNL     1     -33.204   4.348   2.720  1.00 20.00     0.015 C 
HETATM    3  C3  UNL     1     -33.087   6.854   2.544  1.00 20.00     0.043 C 
HETATM    4  C4  UNL     1     -34.295   6.158   6.775  1.00 20.00     0.002 C 
HETATM    5  C5  UNL     1     -33.982   7.527   6.178  1.00 20.00     0.006 C 
HETATM    6  C6  UNL     1     -33.922   5.167   5.682  1.00 20.00     0.014 C 
HETATM    7  C7  UNL     1     -34.126   7.370   4.657  1.00 20.00     0.006 C 
HETATM    8  C8  UNL     1     -34.377   5.859   4.391  1.00 20.00    -0.017 C 
HETATM    9  C9  UNL     1     -32.911   7.773   3.770  1.00 20.00    -0.040 C 
HETATM   10  C10 UNL     1     -35.866   5.590   4.111  1.00 20.00     0.020 C 
HETATM   11  C11 UNL     1     -33.002   9.249   3.359  1.00 20.00     0.015 C 
HETATM   12  C12 UNL     1     -31.522   7.536   4.398  1.00 20.00     0.015 C 
ENDROOT
TORSDOF 0
