REMARK  0 active torsions:
REMARK  status: ('A' for Active; 'I' for Inactive)
ROOT
HETATM    1  C1  UNL     1     -34.258   4.398   5.567  1.00 20.00     0.123 C 
HETATM    2  C2  UNL     1     -32.454   5.751   3.024  1.00 20.00     0.123 C 
HETATM    3  C3  UNL     1     -33.095   7.582   5.817  1.00 20.00     0.123 C 
HETATM    4  C4  UNL     1     -34.918   5.772   5.437  1.00 20.00     0.296 C 
HETATM    5  C5  UNL     1     -33.946   5.472   3.223  1.00 20.00     0.296 C 
HETATM    6  C6  UNL     1     -33.671   7.589   4.399  1.00 20.00     0.296 C 
HETATM    7  N7  UNL     1     -34.535   6.422   4.177  1.00 20.00     0.133 N 
HETATM    8  S8  UNL     1     -34.193   3.797   3.869  1.00 20.00    -0.130 SA
HETATM    9  S9  UNL     1     -32.334   7.542   3.176  1.00 20.00    -0.130 SA
HETATM   10  S10 UNL     1     -34.411   6.847   6.804  1.00 20.00    -0.130 SA
ENDROOT
TORSDOF 0
