REMARK  2 active torsions:
REMARK  status: ('A' for Active; 'I' for Inactive)
REMARK    1  A    between atoms: C1_1  and  C2_2 
REMARK    2  A    between atoms: C1_1  and  C3_3 
ROOT
HETATM    1  C1  UNL     1     -34.141   5.588   4.551  1.00 20.00     0.386 C 
HETATM    2  F4  UNL     1     -34.133   4.223   4.510  1.00 20.00    -0.191 F 
HETATM    3  F5  UNL     1     -35.407   5.960   4.204  1.00 20.00    -0.191 F 
ENDROOT
BRANCH   1   4
HETATM    4  C2  UNL     1     -33.197   6.082   3.462  1.00 20.00     0.390 C 
HETATM    5  F6  UNL     1     -33.141   5.137   2.484  1.00 20.00    -0.181 F 
HETATM    6  F7  UNL     1     -31.935   6.200   3.942  1.00 20.00    -0.181 F 
HETATM    7 CL9  UNL     1     -33.699   7.616   2.734  1.00 20.00    -0.042 Cl
ENDBRANCH   1   4
BRANCH   1   8
HETATM    8  C3  UNL     1     -33.880   6.038   5.990  1.00 20.00     0.328 C 
HETATM    9  F8  UNL     1     -35.055   6.102   6.669  1.00 20.00    -0.200 F 
HETATM   10 CL10 UNL     1     -33.092   7.634   6.070  1.00 20.00    -0.059 Cl
HETATM   11 CL11 UNL     1     -32.836   4.848   6.825  1.00 20.00    -0.059 Cl
ENDBRANCH   1   8
TORSDOF 2
