REMARK  0 active torsions:
REMARK  status: ('A' for Active; 'I' for Inactive)
ROOT
HETATM    1  C1  UNL     1     -34.531   6.740   6.628  1.00 20.00    -0.021 C 
HETATM    2  C2  UNL     1     -34.393   4.431   5.405  1.00 20.00    -0.021 C 
HETATM    3  C3  UNL     1     -33.532   7.539   6.191  1.00 20.00    -0.025 C 
HETATM    4  C4  UNL     1     -33.837   4.269   4.184  1.00 20.00    -0.025 C 
HETATM    5  C5  UNL     1     -32.478   7.474   3.601  1.00 20.00     0.009 C 
HETATM    6  C6  UNL     1     -32.731   6.204   2.720  1.00 20.00     0.009 C 
HETATM    7  C7  UNL     1     -35.030   5.785   5.562  1.00 20.00     0.035 C 
HETATM    8  C8  UNL     1     -33.059   6.990   4.902  1.00 20.00     0.013 C 
HETATM    9  C9  UNL     1     -33.987   5.491   3.303  1.00 20.00     0.013 C 
HETATM   10  C10 UNL     1     -34.411   6.472   4.369  1.00 20.00     0.012 C 
ENDROOT
TORSDOF 0
