REMARK  1 active torsions:
REMARK  status: ('A' for Active; 'I' for Inactive)
REMARK    1  A    between atoms: C2_2  and  C3_3 
ROOT
HETATM    1  C1  UNL     1     -32.904   7.303   3.914  1.00 20.00     0.105 C 
HETATM    2  C2  UNL     1     -33.882   6.721   4.617  1.00 20.00     0.036 C 
HETATM    3 CL4  UNL     1     -32.390   6.822   2.352  1.00 20.00    -0.096 Cl
HETATM    4 CL5  UNL     1     -34.254   7.352   6.195  1.00 20.00    -0.087 Cl
ENDROOT
BRANCH   2   5
HETATM    5  C3  UNL     1     -34.691   5.528   4.213  1.00 20.00     0.166 C 
HETATM    6 CL6  UNL     1     -33.910   4.030   4.772  1.00 20.00    -0.125 Cl
ENDBRANCH   2   5
TORSDOF 1
