REMARK  1 active torsions:
REMARK  status: ('A' for Active; 'I' for Inactive)
REMARK    1  A    between atoms: C4_4  and  C5_5 
ROOT
HETATM    1  C1  UNL     1     -33.214   6.569   4.022  1.00 20.00     0.069 C 
HETATM    2  C2  UNL     1     -35.566   6.036   4.466  1.00 20.00     0.032 C 
HETATM    3  C3  UNL     1     -33.847   4.222   4.437  1.00 20.00     0.032 C 
HETATM    4  C5  UNL     1     -34.106   5.690   4.815  1.00 20.00     0.054 C 
HETATM    5  N6  UNL     1     -32.516   7.257   3.402  1.00 20.00    -0.196 NA
ENDROOT
BRANCH   4   6
HETATM    6  C4  UNL     1     -33.899   5.934   6.325  1.00 20.00     0.138 C 
HETATM    7 CL7  UNL     1     -34.235   7.612   6.836  1.00 20.00    -0.129 Cl
ENDBRANCH   4   6
TORSDOF 1
