REMARK  1 active torsions:
REMARK  status: ('A' for Active; 'I' for Inactive)
REMARK    1  A    between atoms: C1_1  and  C4_4 
ROOT
HETATM    1  C3  UNL     1     -34.108   7.862   6.140  1.00 20.00     0.018 A 
HETATM    2  C4  UNL     1     -33.325   7.037   5.153  1.00 20.00     0.017 A 
HETATM    3  C5  UNL     1     -34.753   6.655   5.502  1.00 20.00    -0.040 A 
HETATM    4  C8  UNL     1     -34.949   5.429   6.355  1.00 20.00     0.015 C 
HETATM    5  C9  UNL     1     -35.871   6.897   4.520  1.00 20.00     0.015 C 
ENDROOT
BRANCH   2   6
HETATM    6  C1  UNL     1     -32.997   7.610   3.855  1.00 20.00    -0.019 C 
HETATM    7  C2  UNL     1     -32.692   6.956   2.719  1.00 20.00    -0.091 C 
HETATM    8  C6  UNL     1     -32.375   7.702   1.453  1.00 20.00     0.042 C 
HETATM    9  C7  UNL     1     -32.640   5.459   2.605  1.00 20.00     0.042 C 
ENDBRANCH   2   6
TORSDOF 1
