REMARK  0 active torsions:
REMARK  status: ('A' for Active; 'I' for Inactive)
ROOT
HETATM    1  C1  UNL     1     -33.594   6.902   4.946  1.00 20.00     0.014 C 
HETATM    2  C2  UNL     1     -33.957   4.576   4.013  1.00 20.00     0.014 C 
HETATM    3  C3  UNL     1     -32.986   7.186   3.598  1.00 20.00    -0.004 A 
HETATM    4  C4  UNL     1     -33.307   5.133   2.775  1.00 20.00    -0.004 A 
HETATM    5  C5  UNL     1     -33.528   6.550   2.362  1.00 20.00    -0.001 A 
HETATM    6  C6  UNL     1     -32.190   6.109   2.940  1.00 20.00    -0.001 A 
HETATM    7  C7  UNL     1     -34.543   5.679   4.928  1.00 20.00    -0.046 C 
HETATM    8  C8  UNL     1     -35.944   6.096   4.433  1.00 20.00     0.015 C 
HETATM    9  C9  UNL     1     -34.696   5.130   6.357  1.00 20.00     0.015 C 
ENDROOT
TORSDOF 0
