REMARK  2 active torsions:
REMARK  status: ('A' for Active; 'I' for Inactive)
REMARK    1  A    between atoms: C2_2  and  C3_3 
REMARK    2  A    between atoms: C2_2  and  C4_4 
ROOT
HETATM    1  C2  UNL     1     -33.295   6.217   4.909  1.00 20.00     0.244 C 
HETATM    2 CL9  UNL     1     -33.789   7.607   5.944  1.00 20.00    -0.111 Cl
ENDROOT
BRANCH   1   3
HETATM    3  C3  UNL     1     -33.019   6.690   3.466  1.00 20.00     0.200 C 
HETATM    4  C1  UNL     1     -34.247   7.253   2.753  1.00 20.00     0.072 C 
HETATM    5  F5  UNL     1     -32.073   7.672   3.498  1.00 20.00    -0.224 F 
HETATM    6 CL10 UNL     1     -32.380   5.351   2.457  1.00 20.00    -0.081 Cl
ENDBRANCH   1   3
BRANCH   1   7
HETATM    7  C4  UNL     1     -34.388   5.160   5.033  1.00 20.00     0.408 C 
HETATM    8  F6  UNL     1     -34.631   4.841   6.323  1.00 20.00    -0.169 F 
HETATM    9  F7  UNL     1     -35.549   5.597   4.492  1.00 20.00    -0.169 F 
HETATM   10  F8  UNL     1     -34.064   4.022   4.383  1.00 20.00    -0.169 F 
ENDBRANCH   1   7
TORSDOF 2
