REMARK  0 active torsions:
REMARK  status: ('A' for Active; 'I' for Inactive)
ROOT
HETATM    1  C1  UNL     1     -33.111   7.726   5.636  1.00 20.00     0.003 C 
HETATM    2  C2  UNL     1     -32.885   7.599   4.323  1.00 20.00     0.050 C 
HETATM    3  C3  UNL     1     -33.488   6.697   6.575  1.00 20.00    -0.004 C 
HETATM    4  C4  UNL     1     -34.268   5.636   6.329  1.00 20.00    -0.021 C 
HETATM    5  C5  UNL     1     -33.074   6.353   3.548  1.00 20.00     0.154 C 
HETATM    6  C6  UNL     1     -34.296   4.194   4.232  1.00 20.00     0.022 A 
HETATM    7  C7  UNL     1     -34.926   5.269   5.077  1.00 20.00     0.020 A 
HETATM    8  C8  UNL     1     -34.342   5.615   3.735  1.00 20.00     0.068 A 
HETATM    9  O9  UNL     1     -32.267   6.007   2.694  1.00 20.00    -0.293 OA
ENDROOT
TORSDOF 0
