REMARK  1 active torsions:
REMARK  status: ('A' for Active; 'I' for Inactive)
REMARK    1  A    between atoms: C7_7  and  O9_9 
ROOT
HETATM    1  C1  UNL     1     -34.764   4.677   4.489  1.00 20.00    -0.019 A 
HETATM    2  C2  UNL     1     -33.993   5.526   3.782  1.00 20.00    -0.080 A 
HETATM    3  C3  UNL     1     -34.747   5.780   6.848  1.00 20.00     0.012 C 
HETATM    4  C4  UNL     1     -33.321   6.303   6.716  1.00 20.00     0.033 C 
HETATM    5  C5  UNL     1     -35.289   5.754   5.416  1.00 20.00     0.019 A 
HETATM    6  C6  UNL     1     -34.419   6.741   4.599  1.00 20.00     0.050 A 
HETATM    7  C7  UNL     1     -33.430   7.338   5.602  1.00 20.00     0.127 C 
HETATM    8  C8  UNL     1     -33.039   5.348   2.585  1.00 20.00     0.043 C 
ENDROOT
BRANCH   7   9
HETATM    9  O9  UNL     1     -32.178   7.583   4.986  1.00 20.00    -0.395 OA
HETATM   10  H21 UNL     1     -31.579   7.911   5.679  1.00 20.00     0.210 HD
ENDBRANCH   7   9
TORSDOF 1
