REMARK  1 active torsions:
REMARK  status: ('A' for Active; 'I' for Inactive)
REMARK    1  A    between atoms: C4_4  and  C6_6 
ROOT
HETATM    1  C1  UNL     1     -34.862   5.705   6.536  1.00 20.00     0.279 C 
HETATM    2  C2  UNL     1     -34.142   4.667   4.462  1.00 20.00     0.284 C 
HETATM    3  C3  UNL     1     -34.590   7.138   6.095  1.00 20.00     0.104 C 
HETATM    4  C4  UNL     1     -33.772   5.970   3.746  1.00 20.00     0.075 C 
HETATM    5  N7  UNL     1     -35.235   4.832   5.422  1.00 20.00     0.085 N 
HETATM    6  S8  UNL     1     -33.193   7.224   4.941  1.00 20.00    -0.161 SA
HETATM    7  H21 UNL     1     -35.485   3.915   5.794  1.00 20.00     0.315 HD
ENDROOT
BRANCH   4   8
HETATM    8  C6  UNL     1     -32.675   5.733   2.713  1.00 20.00     0.012 C 
HETATM    9  C5  UNL     1     -32.286   6.997   2.017  1.00 20.00     0.006 C 
ENDBRANCH   4   8
TORSDOF 1
