REMARK  0 active torsions:
REMARK  status: ('A' for Active; 'I' for Inactive)
ROOT
HETATM    1  C1  UNL     1     -33.394   5.312   2.837  1.00 20.00     0.004 C 
HETATM    2  C2  UNL     1     -32.505   6.550   2.934  1.00 20.00     0.005 C 
HETATM    3  C3  UNL     1     -33.840   4.836   4.221  1.00 20.00     0.042 C 
HETATM    4  C4  UNL     1     -32.682   7.551   5.308  1.00 20.00     0.013 A 
HETATM    5  C5  UNL     1     -33.060   7.601   3.848  1.00 20.00    -0.007 A 
HETATM    6  C6  UNL     1     -34.102   7.270   4.893  1.00 20.00     0.029 A 
HETATM    7  C7  UNL     1     -34.696   5.890   4.939  1.00 20.00     0.117 C 
HETATM    8 CL8  UNL     1     -34.924   5.420   6.652  1.00 20.00    -0.101 Cl
HETATM    9 CL9  UNL     1     -36.323   5.972   4.172  1.00 20.00    -0.101 Cl
ENDROOT
TORSDOF 0
