REMARK  0 active torsions:
REMARK  status: ('A' for Active; 'I' for Inactive)
ROOT
HETATM    1  C1  UNL     1     -32.834   5.942   3.071  1.00 20.00    -0.025 A 
HETATM    2  C2  UNL     1     -32.632   7.037   3.809  1.00 20.00    -0.025 A 
HETATM    3  C3  UNL     1     -34.177   3.960   3.934  1.00 20.00     0.009 C 
HETATM    4  C4  UNL     1     -33.524   7.223   6.173  1.00 20.00     0.009 C 
HETATM    5  C5  UNL     1     -34.141   4.236   5.434  1.00 20.00     0.005 C 
HETATM    6  C6  UNL     1     -34.683   6.398   6.723  1.00 20.00     0.005 C 
HETATM    7  C7  UNL     1     -34.190   5.342   3.281  1.00 20.00     0.013 A 
HETATM    8  C8  UNL     1     -33.804   7.365   4.674  1.00 20.00     0.013 A 
HETATM    9  C9  UNL     1     -35.054   5.453   5.590  1.00 20.00    -0.009 C 
HETATM   10  C10 UNL     1     -34.834   6.276   4.317  1.00 20.00     0.005 A 
ENDROOT
TORSDOF 0
