REMARK  0 active torsions:
REMARK  status: ('A' for Active; 'I' for Inactive)
ROOT
HETATM    1  C1  UNL     1     -33.705   5.201   3.242  1.00 20.00     0.004 C 
HETATM    2  C2  UNL     1     -34.532   4.823   4.262  1.00 20.00    -0.017 C 
HETATM    3  C3  UNL     1     -34.852   6.457   6.526  1.00 20.00    -0.021 C 
HETATM    4  C4  UNL     1     -34.110   7.603   6.662  1.00 20.00    -0.024 C 
HETATM    5  C5  UNL     1     -32.106   7.363   3.437  1.00 20.00    -0.019 C 
HETATM    6  C6  UNL     1     -32.997   6.388   3.625  1.00 20.00    -0.056 C 
HETATM    7  C7  UNL     1     -32.235   8.396   4.606  1.00 20.00     0.036 C 
HETATM    8  C8  UNL     1     -34.175   5.540   5.541  1.00 20.00     0.039 C 
HETATM    9  C9  UNL     1     -32.904   7.566   5.732  1.00 20.00     0.020 C 
HETATM   10  C10 UNL     1     -33.736   6.754   4.804  1.00 20.00     0.037 C 
ENDROOT
TORSDOF 0
