REMARK  0 active torsions:
REMARK  status: ('A' for Active; 'I' for Inactive)
ROOT
HETATM    1  C1  UNL     1     -33.782   5.884   3.994  1.00 20.00     0.196 C 
HETATM    2  C2  UNL     1     -34.072   7.325   4.355  1.00 20.00     0.092 C 
HETATM    3  C3  UNL     1     -33.682   7.676   5.790  1.00 20.00     0.019 C 
HETATM    4  C4  UNL     1     -34.455   6.901   6.860  1.00 20.00     0.087 C 
HETATM    5  O5  UNL     1     -32.980   5.544   3.134  1.00 20.00    -0.285 OA
HETATM    6  S6  UNL     1     -34.759   4.713   4.871  1.00 20.00    -0.020 SA
HETATM    7  S7  UNL     1     -34.093   5.123   6.766  1.00 20.00    -0.090 SA
ENDROOT
TORSDOF 0
