REMARK  1 active torsions:
REMARK  status: ('A' for Active; 'I' for Inactive)
REMARK    1  A    between atoms: C1_1  and  C2_2 
ROOT
HETATM    1  C1  UNL     1     -33.987   6.222   5.503  1.00 20.00     0.432 C 
HETATM    2  F3  UNL     1     -33.028   5.406   5.997  1.00 20.00    -0.167 F 
HETATM    3  F4  UNL     1     -35.146   5.524   5.505  1.00 20.00    -0.167 F 
HETATM    4  F5  UNL     1     -34.134   7.246   6.374  1.00 20.00    -0.167 F 
ENDROOT
BRANCH   1   5
HETATM    5  C2  UNL     1     -33.643   6.714   4.109  1.00 20.00     0.267 C 
HETATM    6 CL6  UNL     1     -33.467   5.343   2.988  1.00 20.00    -0.079 Cl
HETATM    7 CL7  UNL     1     -34.902   7.821   3.511  1.00 20.00    -0.079 Cl
HETATM    8 BR8  UNL     1     -31.947   7.685   4.164  1.00 20.00    -0.040 Br
ENDBRANCH   1   5
TORSDOF 1
