REMARK  3 active torsions:
REMARK  status: ('A' for Active; 'I' for Inactive)
REMARK    1  A    between atoms: C2_2  and  C5_5 
REMARK    2  A    between atoms: C4_4  and  C5_5 
REMARK    3  A    between atoms: C4_4  and  C6_6 
ROOT
HETATM    1  C4  UNL     1     -33.842   6.356   3.780  1.00 20.00     0.353 C 
HETATM    2  F7  UNL     1     -33.599   5.074   3.375  1.00 20.00    -0.233 F 
ENDROOT
BRANCH   1   3
HETATM    3  C5  UNL     1     -32.655   7.204   3.332  1.00 20.00     0.300 C 
HETATM    4  F8  UNL     1     -31.676   6.372   2.879  1.00 20.00    -0.198 F 
HETATM    5  F9  UNL     1     -32.139   7.811   4.440  1.00 20.00    -0.198 F 
BRANCH   3   6
HETATM    6  C2  UNL     1     -33.008   8.253   2.320  1.00 20.00     0.050 C 
HETATM    7  C1  UNL     1     -32.483   8.327   1.089  1.00 20.00    -0.029 C 
HETATM    8  C3  UNL     1     -32.844   9.381   0.095  1.00 20.00     0.036 C 
ENDBRANCH   3   6
ENDBRANCH   1   3
BRANCH   1   9
HETATM    9  C6  UNL     1     -34.069   6.314   5.276  1.00 20.00     0.424 C 
HETATM   10  F10 UNL     1     -35.055   5.457   5.611  1.00 20.00    -0.168 F 
HETATM   11  F11 UNL     1     -32.951   5.942   5.935  1.00 20.00    -0.168 F 
HETATM   12  F12 UNL     1     -34.427   7.536   5.731  1.00 20.00    -0.168 F 
ENDBRANCH   1   9
TORSDOF 3
