REMARK  0 active torsions:
REMARK  status: ('A' for Active; 'I' for Inactive)
ROOT
HETATM    1  C1  UNL     1     -33.424   7.191   6.381  1.00 20.00    -0.019 A 
HETATM    2  C2  UNL     1     -33.099   7.634   5.159  1.00 20.00    -0.086 A 
HETATM    3  C3  UNL     1     -34.276   4.598   4.935  1.00 20.00     0.132 C 
HETATM    4  C4  UNL     1     -33.938   7.041   4.061  1.00 20.00     0.046 A 
HETATM    5  C5  UNL     1     -34.165   4.730   6.464  1.00 20.00     0.088 C 
HETATM    6  C6  UNL     1     -34.542   6.224   6.304  1.00 20.00     0.027 A 
HETATM    7  C7  UNL     1     -34.831   6.032   4.782  1.00 20.00     0.067 A 
HETATM    8  C8  UNL     1     -32.029   8.618   4.840  1.00 20.00     0.043 C 
HETATM    9  O9  UNL     1     -34.013   3.711   4.151  1.00 20.00    -0.298 OA
ENDROOT
TORSDOF 0
