REMARK  0 active torsions:
REMARK  status: ('A' for Active; 'I' for Inactive)
ROOT
HETATM    1  C1  UNL     1     -32.502   5.979   2.643  1.00 20.00     0.135 C 
HETATM    2  C2  UNL     1     -33.873   5.503   3.052  1.00 20.00     0.080 C 
HETATM    3  C3  UNL     1     -33.997   5.335   4.562  1.00 20.00     0.016 C 
HETATM    4  C4  UNL     1     -31.048   7.982   3.368  1.00 20.00     0.023 A 
HETATM    5  C5  UNL     1     -32.613   7.360   5.326  1.00 20.00     0.014 C 
HETATM    6  C6  UNL     1     -32.379   8.122   4.053  1.00 20.00     0.003 A 
HETATM    7  C7  UNL     1     -32.297   7.457   2.690  1.00 20.00     0.021 A 
HETATM    8  C8  UNL     1     -33.977   6.632   5.419  1.00 20.00    -0.047 C 
HETATM    9  C9  UNL     1     -32.785   8.244   1.497  1.00 20.00     0.024 C 
HETATM   10  C10 UNL     1     -35.145   7.565   5.054  1.00 20.00     0.015 C 
HETATM   11  C11 UNL     1     -34.170   6.201   6.893  1.00 20.00     0.015 C 
HETATM   12  O12 UNL     1     -31.606   5.226   2.281  1.00 20.00    -0.297 OA
ENDROOT
TORSDOF 0
