REMARK  1 active torsions:
REMARK  status: ('A' for Active; 'I' for Inactive)
REMARK    1  A    between atoms: C5_5  and  O10_10 
ROOT
HETATM    1  C1  UNL     1     -33.768   7.244   5.668  1.00 20.00     0.001 C 
HETATM    2  C2  UNL     1     -32.738   7.437   4.830  1.00 20.00    -0.018 C 
HETATM    3  C3  UNL     1     -34.493   5.219   4.349  1.00 20.00     0.046 C 
HETATM    4  C4  UNL     1     -32.135   5.469   3.303  1.00 20.00     0.024 A 
HETATM    5  C5  UNL     1     -34.916   6.354   5.292  1.00 20.00     0.141 C 
HETATM    6  C6  UNL     1     -32.665   6.872   3.463  1.00 20.00    -0.018 A 
HETATM    7  C7  UNL     1     -33.629   5.702   3.192  1.00 20.00    -0.030 A 
HETATM    8  C8  UNL     1     -32.358   7.873   2.378  1.00 20.00     0.020 C 
HETATM    9  C9  UNL     1     -34.273   5.548   1.838  1.00 20.00     0.016 C 
ENDROOT
BRANCH   5  10
HETATM   10  O10 UNL     1     -35.448   5.780   6.483  1.00 20.00    -0.392 OA
HETATM   11  H24 UNL     1     -36.185   5.212   6.210  1.00 20.00     0.210 HD
ENDBRANCH   5  10
TORSDOF 1
