REMARK  0 active torsions:
REMARK  status: ('A' for Active; 'I' for Inactive)
ROOT
HETATM    1  C1  UNL     1     -33.904   7.475   6.175  1.00 20.00     0.006 C 
HETATM    2  C2  UNL     1     -33.423   7.309   4.718  1.00 20.00     0.009 C 
HETATM    3  C3  UNL     1     -33.197   4.829   5.069  1.00 20.00     0.014 C 
HETATM    4  C4  UNL     1     -35.308   5.705   4.275  1.00 20.00     0.014 C 
HETATM    5  C5  UNL     1     -34.607   6.255   6.700  1.00 20.00    -0.006 A 
HETATM    6  C6  UNL     1     -34.139   4.900   6.240  1.00 20.00    -0.005 A 
HETATM    7  C7  UNL     1     -35.443   5.441   5.749  1.00 20.00    -0.005 A 
HETATM    8  C8  UNL     1     -33.777   5.920   4.127  1.00 20.00    -0.043 C 
HETATM    9  C9  UNL     1     -33.295   5.778   2.692  1.00 20.00     0.015 C 
ENDROOT
TORSDOF 0
