REMARK  1 active torsions:
REMARK  status: ('A' for Active; 'I' for Inactive)
REMARK    1  A    between atoms: C8_8  and  O12_12 
ROOT
HETATM    1  C1  UNL     1     -32.923   6.020   2.735  1.00 20.00    -0.049 C 
HETATM    2  C2  UNL     1     -34.266   5.441   4.840  1.00 20.00     0.135 C 
HETATM    3  C3  UNL     1     -32.480   4.869   2.224  1.00 20.00     0.017 C 
HETATM    4  C4  UNL     1     -33.715   5.878   6.186  1.00 20.00     0.079 C 
HETATM    5  C5  UNL     1     -33.520   7.387   6.282  1.00 20.00     0.008 C 
HETATM    6  C6  UNL     1     -32.611   7.883   5.163  1.00 20.00     0.009 C 
HETATM    7  C7  UNL     1     -34.093   6.386   3.629  1.00 20.00     0.092 C 
HETATM    8  C8  UNL     1     -32.435   7.449   2.596  1.00 20.00     0.155 C 
HETATM    9  C9  UNL     1     -33.340   7.730   3.826  1.00 20.00     0.034 C 
HETATM   10  O11 UNL     1     -34.803   4.329   4.747  1.00 20.00    -0.297 OA
ENDROOT
BRANCH   8  11
HETATM   11  O12 UNL     1     -32.828   8.087   1.367  1.00 20.00    -0.386 OA
HETATM   12  C10 UNL     1     -32.338   9.413   1.308  1.00 20.00     0.202 C 
ENDBRANCH   8  11
TORSDOF 1
