REMARK  0 active torsions:
REMARK  status: ('A' for Active; 'I' for Inactive)
ROOT
HETATM    1  C1  UNL     1     -35.482   6.566   5.198  1.00 20.00    -0.020 A 
HETATM    2  C2  UNL     1     -35.464   5.926   4.015  1.00 20.00    -0.020 A 
HETATM    3  C3  UNL     1     -32.808   7.483   3.978  1.00 20.00     0.002 C 
HETATM    4  C4  UNL     1     -32.985   7.235   5.472  1.00 20.00     0.014 C 
HETATM    5  C5  UNL     1     -32.954   6.096   3.363  1.00 20.00     0.014 C 
HETATM    6  C6  UNL     1     -34.064   6.141   5.575  1.00 20.00    -0.016 A 
HETATM    7  C7  UNL     1     -34.043   5.396   4.196  1.00 20.00    -0.016 A 
HETATM    8  C8  UNL     1     -33.969   5.347   6.871  1.00 20.00     0.020 C 
HETATM    9  C9  UNL     1     -33.929   3.879   4.152  1.00 20.00     0.020 C 
ENDROOT
TORSDOF 0
