REMARK  2 active torsions:
REMARK  status: ('A' for Active; 'I' for Inactive)
REMARK    1  A    between atoms: C7_7  and  C10_10 
REMARK    2  A    between atoms: C8_8  and  C9_9 
ROOT
HETATM    1  C1  UNL     1     -32.404   7.823   3.241  1.00 20.00    -0.019 C 
HETATM    2  C3  UNL     1     -32.859   7.665   1.974  1.00 20.00    -0.087 C 
HETATM    3  C5  UNL     1     -33.861   6.505   1.871  1.00 20.00     0.039 C 
HETATM    4  C8  UNL     1     -33.220   6.941   4.116  1.00 20.00     0.021 C 
HETATM    5  C10 UNL     1     -33.375   5.780   3.099  1.00 20.00     0.005 C 
HETATM    6  C11 UNL     1     -32.466   8.445   0.774  1.00 20.00     0.043 C 
ENDROOT
BRANCH   4   7
HETATM    7  C9  UNL     1     -33.060   6.141   5.433  1.00 20.00     0.022 C 
HETATM    8  C4  UNL     1     -34.516   5.865   5.821  1.00 20.00    -0.082 C 
HETATM    9  C2  UNL     1     -35.030   5.029   4.897  1.00 20.00    -0.019 C 
HETATM   10  C12 UNL     1     -35.187   6.525   6.964  1.00 20.00     0.043 C 
HETATM   11  C7  UNL     1     -33.911   4.637   3.961  1.00 20.00     0.014 C 
HETATM   12  C6  UNL     1     -32.756   4.695   5.009  1.00 20.00     0.018 C 
ENDBRANCH   4   7
TORSDOF 2
