REMARK  3 active torsions:
REMARK  status: ('A' for Active; 'I' for Inactive)
REMARK    1  A    between atoms: C1_1  and  C3_3 
REMARK    2  A    between atoms: C1_1  and  C4_4 
REMARK    3  A    between atoms: C2_2  and  C3_3 
ROOT
HETATM    1  C1  UNL     1     -33.506   4.928   4.297  1.00 20.00     0.197 C 
ENDROOT
BRANCH   1   2
HETATM    2  C3  UNL     1     -33.406   5.814   3.061  1.00 20.00     0.264 C 
HETATM    3  F5  UNL     1     -34.569   6.496   2.902  1.00 20.00    -0.205 F 
HETATM    4  F6  UNL     1     -33.246   5.035   1.961  1.00 20.00    -0.205 F 
BRANCH   2   5
HETATM    5  C2  UNL     1     -32.252   6.798   3.157  1.00 20.00     0.193 C 
HETATM    6 CL10 UNL     1     -32.148   7.793   1.682  1.00 20.00    -0.124 Cl
ENDBRANCH   2   5
ENDBRANCH   1   2
BRANCH   1   7
HETATM    7  C4  UNL     1     -34.168   5.633   5.464  1.00 20.00     0.393 C 
HETATM    8  F7  UNL     1     -34.217   4.842   6.557  1.00 20.00    -0.171 F 
HETATM    9  F8  UNL     1     -33.477   6.746   5.795  1.00 20.00    -0.171 F 
HETATM   10  F9  UNL     1     -35.429   6.010   5.163  1.00 20.00    -0.171 F 
ENDBRANCH   1   7
TORSDOF 3
