REMARK  0 active torsions:
REMARK  status: ('A' for Active; 'I' for Inactive)
ROOT
HETATM    1  C1  UNL     1     -34.266   6.308   6.537  1.00 20.00    -0.025 C 
HETATM    2  C2  UNL     1     -34.208   4.997   6.257  1.00 20.00    -0.025 C 
HETATM    3  C3  UNL     1     -35.422   5.988   4.562  1.00 20.00     0.017 C 
HETATM    4  C4  UNL     1     -33.254   6.937   4.366  1.00 20.00     0.013 C 
HETATM    5  C5  UNL     1     -34.527   7.031   5.237  1.00 20.00     0.009 C 
HETATM    6  C6  UNL     1     -34.416   4.849   4.766  1.00 20.00     0.012 C 
HETATM    7  C7  UNL     1     -33.145   5.407   4.073  1.00 20.00    -0.010 C 
HETATM    8  C8  UNL     1     -33.098   5.105   2.580  1.00 20.00     0.010 C 
ENDROOT
TORSDOF 0
