REMARK  0 active torsions:
REMARK  status: ('A' for Active; 'I' for Inactive)
ROOT
HETATM    1  C1  UNL     1     -32.431   7.921   3.351  1.00 20.00     0.004 C 
HETATM    2  C2  UNL     1     -32.422   6.829   2.284  1.00 20.00     0.005 C 
HETATM    3  C3  UNL     1     -32.620   7.333   4.751  1.00 20.00     0.042 C 
HETATM    4  C4  UNL     1     -33.310   4.627   3.302  1.00 20.00     0.013 A 
HETATM    5  C5  UNL     1     -33.543   5.845   2.443  1.00 20.00    -0.007 A 
HETATM    6  C6  UNL     1     -34.278   5.687   3.755  1.00 20.00     0.029 A 
HETATM    7  C7  UNL     1     -33.974   6.621   4.893  1.00 20.00     0.117 C 
HETATM    8 CL8  UNL     1     -34.011   5.691   6.423  1.00 20.00    -0.101 Cl
HETATM    9 CL9  UNL     1     -35.295   7.844   4.962  1.00 20.00    -0.101 Cl
ENDROOT
TORSDOF 0
