REMARK  0 active torsions:
REMARK  status: ('A' for Active; 'I' for Inactive)
ROOT
HETATM    1  C1  UNL     1     -34.132   7.397   6.275  1.00 20.00     0.129 C 
HETATM    2  C2  UNL     1     -33.797   7.414   4.771  1.00 20.00     0.254 C 
HETATM    3  C3  UNL     1     -34.169   5.858   6.194  1.00 20.00     0.313 C 
HETATM    4  C4  UNL     1     -34.455   6.016   4.679  1.00 20.00     0.338 C 
HETATM    5  F5  UNL     1     -32.476   7.450   4.472  1.00 20.00    -0.243 F 
HETATM    6  F6  UNL     1     -33.008   5.234   6.499  1.00 20.00    -0.199 F 
HETATM    7  F7  UNL     1     -35.140   5.254   6.913  1.00 20.00    -0.199 F 
HETATM    8  F8  UNL     1     -33.836   5.128   3.870  1.00 20.00    -0.196 F 
HETATM    9  F9  UNL     1     -35.764   6.014   4.335  1.00 20.00    -0.196 F 
ENDROOT
TORSDOF 0
