REMARK  0 active torsions:
REMARK  status: ('A' for Active; 'I' for Inactive)
ROOT
HETATM    1  C1  UNL     1     -33.837   7.833   5.603  1.00 20.00    -0.018 C 
HETATM    2  C2  UNL     1     -33.661   4.566   3.544  1.00 20.00    -0.018 C 
HETATM    3  C3  UNL     1     -34.687   6.806   5.869  1.00 20.00    -0.078 C 
HETATM    4  C4  UNL     1     -33.555   5.760   2.931  1.00 20.00    -0.078 C 
HETATM    5  C5  UNL     1     -34.548   5.799   6.964  1.00 20.00     0.035 C 
HETATM    6  C6  UNL     1     -32.443   6.513   2.235  1.00 20.00     0.035 C 
HETATM    7  C7  UNL     1     -34.053   4.556   6.165  1.00 20.00     0.013 C 
HETATM    8  C8  UNL     1     -32.442   7.883   3.056  1.00 20.00     0.013 C 
HETATM    9  C9  UNL     1     -33.205   7.446   4.304  1.00 20.00     0.017 C 
HETATM   10  C10 UNL     1     -34.640   4.634   4.730  1.00 20.00     0.017 C 
HETATM   11  C11 UNL     1     -35.176   6.065   4.659  1.00 20.00     0.030 C 
HETATM   12  C12 UNL     1     -34.382   6.760   3.614  1.00 20.00     0.030 C 
ENDROOT
TORSDOF 0
