REMARK  0 active torsions:
REMARK  status: ('A' for Active; 'I' for Inactive)
ROOT
HETATM    1  C1  UNL     1     -34.118   6.837   5.814  1.00 20.00     0.132 C 
HETATM    2  C2  UNL     1     -34.218   5.459   6.404  1.00 20.00     0.079 C 
HETATM    3  C3  UNL     1     -33.813   4.581   5.232  1.00 20.00     0.017 C 
HETATM    4  C4  UNL     1     -33.376   5.074   2.767  1.00 20.00     0.011 C 
HETATM    5  C5  UNL     1     -32.197   6.011   2.999  1.00 20.00     0.010 C 
HETATM    6  C6  UNL     1     -34.117   6.829   4.296  1.00 20.00     0.071 C 
HETATM    7  C7  UNL     1     -34.292   5.324   3.968  1.00 20.00    -0.033 C 
HETATM    8  C8  UNL     1     -32.821   7.297   3.579  1.00 20.00    -0.037 C 
HETATM    9  C9  UNL     1     -35.745   4.963   3.643  1.00 20.00     0.016 C 
HETATM   10  C10 UNL     1     -31.806   8.019   4.475  1.00 20.00     0.015 C 
HETATM   11  C11 UNL     1     -33.204   8.250   2.428  1.00 20.00     0.015 C 
HETATM   12  O12 UNL     1     -34.094   7.857   6.493  1.00 20.00    -0.298 OA
ENDROOT
TORSDOF 0
