REMARK  3 active torsions:
REMARK  status: ('A' for Active; 'I' for Inactive)
REMARK    1  A    between atoms: C2_2  and  C8_8 
REMARK    2  A    between atoms: C6_6  and  C7_7 
REMARK    3  A    between atoms: C7_7  and  C8_8 
ROOT
HETATM    1  C5  UNL     1     -31.517   8.083   4.065  1.00 20.00     0.014 C 
HETATM    2  C8  UNL     1     -32.617   7.495   3.178  1.00 20.00     0.004 C 
ENDROOT
BRANCH   2   3
HETATM    3  C2  UNL     1     -32.120   7.411   1.755  1.00 20.00    -0.027 C 
HETATM    4  C1  UNL     1     -32.225   8.412   0.869  1.00 20.00    -0.035 C 
HETATM    5  C3  UNL     1     -32.847   9.733   1.178  1.00 20.00     0.036 C 
ENDBRANCH   2   3
BRANCH   2   6
HETATM    6  C7  UNL     1     -33.049   6.116   3.716  1.00 20.00     0.008 C 
BRANCH   6   7
HETATM    7  C6  UNL     1     -33.934   6.207   4.963  1.00 20.00    -0.004 C 
HETATM    8  C4  UNL     1     -34.277   4.827   5.503  1.00 20.00     0.005 C 
ENDBRANCH   6   7
ENDBRANCH   2   6
TORSDOF 3
