REMARK  1 active torsions:
REMARK  status: ('A' for Active; 'I' for Inactive)
REMARK    1  A    between atoms: C1_1  and  C4_4 
ROOT
HETATM    1  C1  UNL     1     -33.508   7.223   4.731  1.00 20.00     0.102 C 
HETATM    2  C2  UNL     1     -33.065   6.676   3.584  1.00 20.00    -0.015 C 
HETATM    3  C3  UNL     1     -33.058   5.208   3.270  1.00 20.00     0.055 C 
HETATM    4  I8  UNL     1     -32.313   7.925   2.082  1.00 20.00    -0.050 I 
ENDROOT
BRANCH   1   5
HETATM    5  C4  UNL     1     -34.070   6.474   5.890  1.00 20.00     0.408 C 
HETATM    6  F5  UNL     1     -34.432   7.297   6.905  1.00 20.00    -0.167 F 
HETATM    7  F6  UNL     1     -33.190   5.575   6.396  1.00 20.00    -0.167 F 
HETATM    8  F7  UNL     1     -35.181   5.777   5.539  1.00 20.00    -0.167 F 
ENDBRANCH   1   5
TORSDOF 1
