REMARK  0 active torsions:
REMARK  status: ('A' for Active; 'I' for Inactive)
ROOT
HETATM    1  C1  UNL     1     -34.801   5.184   5.621  1.00 20.00     0.006 C 
HETATM    2  C2  UNL     1     -33.854   5.399   4.439  1.00 20.00     0.009 C 
HETATM    3  C3  UNL     1     -34.453   6.090   6.774  1.00 20.00    -0.005 A 
HETATM    4  C4  UNL     1     -33.175   6.870   6.797  1.00 20.00    -0.000 A 
HETATM    5  C5  UNL     1     -34.521   7.565   6.568  1.00 20.00    -0.000 A 
HETATM    6  C6  UNL     1     -33.437   7.637   5.536  1.00 20.00     0.003 A 
HETATM    7  C7  UNL     1     -33.566   6.902   4.199  1.00 20.00    -0.043 C 
HETATM    8  C8  UNL     1     -32.243   7.034   3.420  1.00 20.00     0.015 C 
HETATM    9  C9  UNL     1     -34.687   7.534   3.353  1.00 20.00     0.015 C 
ENDROOT
TORSDOF 0
