REMARK  2 active torsions:
REMARK  status: ('A' for Active; 'I' for Inactive)
REMARK    1  A    between atoms: C7_7  and  C9_9 
REMARK    2  A    between atoms: C8_8  and  C10_10 
ROOT
HETATM    1  C1  UNL     1     -32.420   6.308   2.473  1.00 20.00    -0.030 C 
HETATM    2  C2  UNL     1     -32.752   7.333   3.291  1.00 20.00    -0.025 C 
HETATM    3  C5  UNL     1     -32.922   4.965   3.011  1.00 20.00     0.032 C 
HETATM    4  C9  UNL     1     -33.302   6.743   4.539  1.00 20.00     0.020 C 
HETATM    5  C10 UNL     1     -34.021   5.546   3.861  1.00 20.00     0.005 C 
ENDROOT
BRANCH   4   6
HETATM    6  C7  UNL     1     -34.333   7.098   5.640  1.00 20.00     0.016 C 
HETATM    7  C3  UNL     1     -33.960   6.122   6.755  1.00 20.00    -0.025 C 
HETATM    8  C4  UNL     1     -34.246   4.881   6.317  1.00 20.00    -0.025 C 
HETATM    9  C8  UNL     1     -34.924   5.013   4.974  1.00 20.00     0.013 C 
HETATM   10  C6  UNL     1     -35.631   6.375   5.250  1.00 20.00     0.018 C 
ENDBRANCH   4   6
TORSDOF 2
