REMARK  0 active torsions:
REMARK  status: ('A' for Active; 'I' for Inactive)
ROOT
HETATM    1  C1  UNL     1     -33.076   7.585   3.475  1.00 20.00    -0.020 C 
HETATM    2  C2  UNL     1     -32.232   7.488   4.555  1.00 20.00    -0.020 C 
HETATM    3  C3  UNL     1     -34.693   4.791   5.358  1.00 20.00     0.002 C 
HETATM    4  C4  UNL     1     -34.971   5.636   4.078  1.00 20.00     0.014 C 
HETATM    5  C5  UNL     1     -33.365   5.357   5.946  1.00 20.00     0.014 C 
HETATM    6  C6  UNL     1     -33.589   6.186   3.795  1.00 20.00    -0.016 C 
HETATM    7  C7  UNL     1     -33.326   6.723   5.293  1.00 20.00    -0.016 C 
HETATM    8  C8  UNL     1     -32.750   5.127   3.031  1.00 20.00     0.020 C 
HETATM    9  C9  UNL     1     -34.217   7.711   6.092  1.00 20.00     0.020 C 
ENDROOT
TORSDOF 0
