REMARK  0 active torsions:
REMARK  status: ('A' for Active; 'I' for Inactive)
ROOT
HETATM    1  C1  UNL     1     -34.414   5.181   6.139  1.00 20.00     0.147 A 
HETATM    2  C2  UNL     1     -33.886   7.251   6.156  1.00 20.00     0.214 A 
HETATM    3  C3  UNL     1     -33.867   5.431   4.903  1.00 20.00     0.057 A 
HETATM    4  C4  UNL     1     -33.597   4.695   3.720  1.00 20.00     0.033 A 
HETATM    5  C5  UNL     1     -33.027   5.319   2.670  1.00 20.00     0.023 A 
HETATM    6  C6  UNL     1     -32.938   7.431   3.844  1.00 20.00     0.117 A 
HETATM    7  C7  UNL     1     -32.680   6.738   2.719  1.00 20.00     0.027 A 
HETATM    8  N8  UNL     1     -34.422   6.316   6.911  1.00 20.00    -0.253 NA
HETATM    9  N9  UNL     1     -33.527   6.774   4.921  1.00 20.00    -0.314 N 
HETATM   10 BR10 UNL     1     -31.896   7.513   1.219  1.00 20.00    -0.050 Br
ENDROOT
TORSDOF 0
