REMARK  0 active torsions:
REMARK  status: ('A' for Active; 'I' for Inactive)
ROOT
HETATM    1  C1  UNL     1     -33.338   5.393   3.022  1.00 20.00    -0.080 C 
HETATM    2  C2  UNL     1     -33.011   4.821   1.856  1.00 20.00     0.015 C 
HETATM    3  C3  UNL     1     -33.943   4.638   4.177  1.00 20.00     0.043 C 
HETATM    4  C4  UNL     1     -31.833   8.031   4.977  1.00 20.00     0.002 C 
HETATM    5  C5  UNL     1     -32.864   7.230   5.749  1.00 20.00     0.006 C 
HETATM    6  C6  UNL     1     -31.771   7.296   3.646  1.00 20.00     0.014 C 
HETATM    7  C7  UNL     1     -33.977   6.995   4.718  1.00 20.00     0.006 C 
HETATM    8  C8  UNL     1     -33.229   6.872   3.352  1.00 20.00    -0.017 C 
HETATM    9  C9  UNL     1     -34.803   5.694   4.891  1.00 20.00    -0.040 C 
HETATM   10  C10 UNL     1     -33.845   7.787   2.285  1.00 20.00     0.020 C 
HETATM   11  C11 UNL     1     -36.178   5.823   4.198  1.00 20.00     0.015 C 
HETATM   12  C12 UNL     1     -35.059   5.312   6.355  1.00 20.00     0.015 C 
ENDROOT
TORSDOF 0
