REMARK  1 active torsions:
REMARK  status: ('A' for Active; 'I' for Inactive)
REMARK    1  A    between atoms: C2_2  and  C10_10 
ROOT
HETATM    1  C1  UNL     1     -33.935   4.610   4.770  1.00 20.00    -0.018 A 
HETATM    2  C2  UNL     1     -33.585   5.604   3.930  1.00 20.00    -0.075 A 
HETATM    3  C3  UNL     1     -34.433   7.437   6.855  1.00 20.00     0.001 C 
HETATM    4  C4  UNL     1     -34.461   5.917   6.958  1.00 20.00     0.009 C 
HETATM    5  C5  UNL     1     -33.844   7.690   5.472  1.00 20.00     0.010 C 
HETATM    6  C6  UNL     1     -34.895   5.469   5.563  1.00 20.00     0.016 A 
HETATM    7  C7  UNL     1     -34.497   6.617   4.602  1.00 20.00     0.022 A 
ENDROOT
BRANCH   2   8
HETATM    8  C10 UNL     1     -32.619   5.693   2.734  1.00 20.00     0.006 C 
HETATM    9  C8  UNL     1     -33.365   5.311   1.476  1.00 20.00     0.014 C 
HETATM   10  C9  UNL     1     -32.040   7.088   2.661  1.00 20.00     0.014 C 
ENDBRANCH   2   8
TORSDOF 1
