REMARK  0 active torsions:
REMARK  status: ('A' for Active; 'I' for Inactive)
ROOT
HETATM    1  C1  UNL     1     -34.214   7.502   6.486  1.00 20.00    -0.021 C 
HETATM    2  C2  UNL     1     -33.866   4.887   6.780  1.00 20.00    -0.021 C 
HETATM    3  C3  UNL     1     -33.757   7.828   5.251  1.00 20.00    -0.023 C 
HETATM    4  C4  UNL     1     -33.688   4.099   5.688  1.00 20.00    -0.023 C 
HETATM    5  C5  UNL     1     -34.778   6.082   6.549  1.00 20.00     0.035 C 
HETATM    6  C6  UNL     1     -33.565   6.557   4.566  1.00 20.00     0.033 C 
HETATM    7  C7  UNL     1     -34.448   4.615   4.489  1.00 20.00     0.033 C 
HETATM    8  C8  UNL     1     -34.989   5.911   5.067  1.00 20.00     0.015 C 
HETATM    9  C9  UNL     1     -33.852   5.646   3.394  1.00 20.00     0.098 C 
HETATM   10 CL10 UNL     1     -32.477   5.089   2.384  1.00 20.00    -0.124 Cl
ENDROOT
TORSDOF 0
