REMARK  1 active torsions:
REMARK  status: ('A' for Active; 'I' for Inactive)
REMARK    1  A    between atoms: C3_3  and  C9_9 
ROOT
HETATM    1  C1  UNL     1     -33.366   5.929   2.735  1.00 20.00     0.017 A 
HETATM    2  C2  UNL     1     -34.100   5.197   3.713  1.00 20.00     0.028 A 
HETATM    3  C3  UNL     1     -32.821   7.083   3.254  1.00 20.00    -0.012 A 
HETATM    4  C4  UNL     1     -34.087   5.819   4.942  1.00 20.00     0.051 A 
HETATM    5  S10 UNL     1     -33.194   7.280   4.914  1.00 20.00    -0.087 SA
HETATM    6 BR11 UNL     1     -34.952   5.150   6.495  1.00 20.00    -0.043 Br
ENDROOT
BRANCH   3   7
HETATM    7  C9  UNL     1     -31.980   8.128   2.550  1.00 20.00     0.026 C 
HETATM    8  C7  UNL     1     -32.611   9.524   2.580  1.00 20.00     0.010 C 
HETATM    9  C5  UNL     1     -33.431   9.600   1.302  1.00 20.00     0.001 C 
HETATM   10  C6  UNL     1     -32.611   8.833   0.275  1.00 20.00     0.001 C 
HETATM   11  C8  UNL     1     -31.718   7.867   1.059  1.00 20.00     0.010 C 
ENDBRANCH   3   7
TORSDOF 1
