REMARK  1 active torsions:
REMARK  status: ('A' for Active; 'I' for Inactive)
REMARK    1  A    between atoms: C4_4  and  C5_5 
ROOT
HETATM    1  C1  UNL     1     -32.571   6.824   2.225  1.00 20.00     0.059 C 
HETATM    2  C5  UNL     1     -32.876   5.571   2.911  1.00 20.00     0.132 C 
HETATM    3  N6  UNL     1     -32.312   7.810   1.670  1.00 20.00    -0.197 NA
ENDROOT
BRANCH   2   4
HETATM    4  C4  UNL     1     -34.079   5.889   3.773  1.00 20.00     0.046 C 
HETATM    5  C2  UNL     1     -33.836   6.789   4.990  1.00 20.00     0.175 C 
HETATM    6  O7  UNL     1     -34.454   5.824   5.875  1.00 20.00    -0.390 OA
HETATM    7  C3  UNL     1     -34.475   4.837   4.816  1.00 20.00     0.175 C 
ENDBRANCH   2   4
TORSDOF 1
