REMARK  0 active torsions:
REMARK  status: ('A' for Active; 'I' for Inactive)
ROOT
HETATM    1  C1  UNL     1     -32.607   6.820   3.285  1.00 20.00     0.136 C 
HETATM    2  C2  UNL     1     -32.995   6.592   4.731  1.00 20.00     0.088 C 
HETATM    3  C3  UNL     1     -32.200   5.611   2.487  1.00 20.00     0.152 C 
HETATM    4  C4  UNL     1     -33.962   4.307   4.153  1.00 20.00     0.083 C 
HETATM    5  C5  UNL     1     -34.206   5.650   4.878  1.00 20.00    -0.033 C 
HETATM    6  C6  UNL     1     -35.486   6.339   4.361  1.00 20.00     0.016 C 
HETATM    7  C7  UNL     1     -34.406   5.353   6.379  1.00 20.00     0.016 C 
HETATM    8  O8  UNL     1     -32.571   7.951   2.802  1.00 20.00    -0.297 OA
HETATM    9  S9  UNL     1     -33.593   4.469   2.375  1.00 20.00    -0.161 SA
ENDROOT
TORSDOF 0
