REMARK  0 active torsions:
REMARK  status: ('A' for Active; 'I' for Inactive)
ROOT
HETATM    1  C1  UNL     1     -34.104   6.040   4.398  1.00 20.00     0.014 C 
HETATM    2  C2  UNL     1     -33.795   5.440   3.060  1.00 20.00     0.085 C 
HETATM    3  C3  UNL     1     -33.829   7.452   6.180  1.00 20.00     0.034 C 
HETATM    4  C4  UNL     1     -34.907   6.405   6.418  1.00 20.00     0.149 C 
HETATM    5  C5  UNL     1     -32.388   5.852   2.621  1.00 20.00     0.277 C 
HETATM    6  C6  UNL     1     -32.301   7.737   4.147  1.00 20.00     0.282 C 
HETATM    7  C7  UNL     1     -33.707   7.458   4.670  1.00 20.00     0.063 C 
HETATM    8  C8  UNL     1     -32.815   8.104   1.791  1.00 20.00     0.309 C 
HETATM    9  N9  UNL     1     -34.764   5.418   5.325  1.00 20.00    -0.298 NA
HETATM   10  N10 UNL     1     -32.090   7.288   2.761  1.00 20.00     0.085 N 
ENDROOT
TORSDOF 0
