REMARK  1 active torsions:
REMARK  status: ('A' for Active; 'I' for Inactive)
REMARK    1  A    between atoms: C4_4  and  C8_8 
ROOT
HETATM    1  C5  UNL     1     -32.812   8.210   1.215  1.00 20.00     0.033 C 
HETATM    2  C6  UNL     1     -32.333   8.363   2.651  1.00 20.00     0.042 C 
HETATM    3  C7  UNL     1     -32.558   6.747   0.909  1.00 20.00     0.273 C 
HETATM    4  C8  UNL     1     -32.389   6.944   3.248  1.00 20.00     0.256 C 
HETATM    5  C9  UNL     1     -32.491   4.719   2.231  1.00 20.00     0.310 C 
HETATM    6  N10 UNL     1     -32.939   6.104   2.166  1.00 20.00     0.093 N 
ENDROOT
BRANCH   4   7
HETATM    7  C4  UNL     1     -33.214   6.876   4.516  1.00 20.00    -0.018 A 
HETATM    8  C1  UNL     1     -34.356   6.039   4.676  1.00 20.00     0.017 A 
HETATM    9  C2  UNL     1     -34.922   6.169   5.925  1.00 20.00     0.050 A 
HETATM   10  S11 UNL     1     -34.077   7.298   6.898  1.00 20.00    -0.113 SA
HETATM   11  C3  UNL     1     -32.951   7.615   5.648  1.00 20.00     0.058 A 
ENDBRANCH   4   7
TORSDOF 1
