REMARK  0 active torsions:
REMARK  status: ('A' for Active; 'I' for Inactive)
ROOT
HETATM    1  C1  UNL     1     -34.471   5.066   4.537  1.00 20.00     0.223 A 
HETATM    2  C2  UNL     1     -35.737   7.045   4.883  1.00 20.00     0.128 A 
HETATM    3  C3  UNL     1     -33.541   6.199   4.299  1.00 20.00     0.092 A 
HETATM    4  C4  UNL     1     -34.339   7.461   4.536  1.00 20.00     0.026 A 
HETATM    5  C5  UNL     1     -33.118   7.161   5.389  1.00 20.00    -0.029 A 
HETATM    6  C6  UNL     1     -33.279   6.776   6.837  1.00 20.00     0.016 C 
HETATM    7  C7  UNL     1     -31.885   7.991   5.129  1.00 20.00     0.016 C 
HETATM    8  N8  UNL     1     -35.711   5.598   4.842  1.00 20.00    -0.360 N 
HETATM    9  O9  UNL     1     -34.139   3.895   4.454  1.00 20.00    -0.273 OA
HETATM   10  H20 UNL     1     -36.529   5.025   5.022  1.00 20.00     0.162 HD
ENDROOT
TORSDOF 0
