REMARK  0 active torsions:
REMARK  status: ('A' for Active; 'I' for Inactive)
ROOT
HETATM    1  C1  UNL     1     -33.372   6.687   3.924  1.00 20.00     0.075 C 
HETATM    2  C2  UNL     1     -32.386   7.602   4.646  1.00 20.00     0.273 C 
HETATM    3  C3  UNL     1     -33.647   6.527   6.296  1.00 20.00     0.312 C 
HETATM    4  C4  UNL     1     -34.387   6.301   4.991  1.00 20.00     0.127 C 
HETATM    5  C5  UNL     1     -34.954   4.904   4.835  1.00 20.00     0.053 C 
HETATM    6  N6  UNL     1     -32.896   7.749   6.009  1.00 20.00     0.086 N 
HETATM    7  F7  UNL     1     -35.427   7.184   4.933  1.00 20.00    -0.241 F 
HETATM    8  H17 UNL     1     -32.133   7.874   6.672  1.00 20.00     0.316 HD
ENDROOT
TORSDOF 0
