REMARK  3 active torsions:
REMARK  status: ('A' for Active; 'I' for Inactive)
REMARK    1  A    between atoms: C5_5  and  C8_8 
REMARK    2  A    between atoms: C7_7  and  N9_9 
REMARK    3  A    between atoms: C8_8  and  N9_9 
ROOT
HETATM    1  C1  UNL     1     -32.702   7.938   1.394  1.00 20.00     0.013 C 
HETATM    2  C2  UNL     1     -32.281   7.525   2.440  1.00 20.00    -0.087 C 
HETATM    3  C7  UNL     1     -31.765   7.018   3.714  1.00 20.00     0.362 C 
ENDROOT
BRANCH   3   4
HETATM    4  N9  UNL     1     -32.239   7.840   4.828  1.00 20.00     0.094 N 
HETATM    5  H22 UNL     1     -31.619   7.684   5.631  1.00 20.00     0.317 HD
BRANCH   4   6
HETATM    6  C8  UNL     1     -33.597   7.524   5.180  1.00 20.00     0.275 C 
BRANCH   6   7
HETATM    7  C5  UNL     1     -33.662   6.304   6.032  1.00 20.00     0.018 A 
HETATM    8  C3  UNL     1     -34.990   5.793   6.527  1.00 20.00     0.011 A 
HETATM    9  C4  UNL     1     -34.205   4.988   5.524  1.00 20.00    -0.013 A 
HETATM   10  C6  UNL     1     -34.715   4.817   4.134  1.00 20.00     0.010 C 
ENDBRANCH   6   7
ENDBRANCH   4   6
ENDBRANCH   3   4
TORSDOF 3
