REMARK  1 active torsions:
REMARK  status: ('A' for Active; 'I' for Inactive)
REMARK    1  A    between atoms: C2_2  and  C3_3 
ROOT
HETATM    1  C1  UNL     1     -34.074   4.453   3.975  1.00 20.00     0.080 C 
HETATM    2  C2  UNL     1     -34.097   5.902   4.433  1.00 20.00     0.272 C 
HETATM    3  F4  UNL     1     -35.256   6.467   3.993  1.00 20.00    -0.216 F 
HETATM    4 CL8  UNL     1     -32.730   6.786   3.704  1.00 20.00    -0.073 Cl
ENDROOT
BRANCH   2   5
HETATM    5  C3  UNL     1     -34.056   6.029   5.942  1.00 20.00     0.437 C 
HETATM    6  F5  UNL     1     -32.935   5.471   6.451  1.00 20.00    -0.166 F 
HETATM    7  F6  UNL     1     -34.067   7.328   6.317  1.00 20.00    -0.166 F 
HETATM    8  F7  UNL     1     -35.117   5.429   6.523  1.00 20.00    -0.166 F 
ENDBRANCH   2   5
TORSDOF 1
