REMARK  0 active torsions:
REMARK  status: ('A' for Active; 'I' for Inactive)
ROOT
HETATM    1  C1  UNL     1     -33.907   7.522   5.906  1.00 20.00     0.034 A 
HETATM    2  C2  UNL     1     -33.704   4.634   3.905  1.00 20.00     0.027 A 
HETATM    3  C3  UNL     1     -34.657   6.474   6.614  1.00 20.00     0.118 A 
HETATM    4  C4  UNL     1     -32.720   7.250   3.686  1.00 20.00     0.124 A 
HETATM    5  C5  UNL     1     -33.519   6.832   4.838  1.00 20.00     0.011 A 
HETATM    6  C6  UNL     1     -33.990   5.486   4.889  1.00 20.00     0.066 A 
HETATM    7  C7  UNL     1     -32.880   5.069   2.717  1.00 20.00     0.178 A 
HETATM    8  N8  UNL     1     -34.710   5.307   6.039  1.00 20.00    -0.261 NA
HETATM    9  N9  UNL     1     -32.410   6.476   2.705  1.00 20.00    -0.297 NA
ENDROOT
TORSDOF 0
