REMARK  1 active torsions:
REMARK  status: ('A' for Active; 'I' for Inactive)
REMARK    1  A    between atoms: C3_3  and  C5_5 
ROOT
HETATM    1  C1  UNL     1     -33.874   5.307   4.169  1.00 20.00     0.022 A 
HETATM    2  C2  UNL     1     -33.400   5.595   2.856  1.00 20.00     0.028 A 
HETATM    3  C3  UNL     1     -33.508   6.277   5.076  1.00 20.00     0.048 A 
HETATM    4  C4  UNL     1     -32.690   6.774   2.810  1.00 20.00     0.052 A 
HETATM    5  S8  UNL     1     -32.596   7.529   4.345  1.00 20.00    -0.082 SA
HETATM    6 BR9  UNL     1     -31.900   7.493   1.239  1.00 20.00    -0.043 Br
ENDROOT
BRANCH   3   7
HETATM    7  C5  UNL     1     -33.803   6.342   6.523  1.00 20.00     0.393 C 
HETATM    8  F6  UNL     1     -34.554   5.278   6.925  1.00 20.00    -0.208 F 
HETATM    9  F7  UNL     1     -34.532   7.453   6.831  1.00 20.00    -0.208 F 
ENDBRANCH   3   7
TORSDOF 1
