REMARK  1 active torsions:
REMARK  status: ('A' for Active; 'I' for Inactive)
REMARK    1  A    between atoms: C3_3  and  C4_4 
ROOT
HETATM    1  C1  UNL     1     -33.661   5.584   4.011  1.00 20.00     0.067 A 
HETATM    2  C2  UNL     1     -33.572   6.786   4.665  1.00 20.00     0.080 A 
HETATM    3  C3  UNL     1     -32.843   6.980   2.680  1.00 20.00     0.208 A 
HETATM    4  C5  UNL     1     -34.213   4.365   4.638  1.00 20.00     0.062 C 
HETATM    5  C6  UNL     1     -33.940   7.096   6.056  1.00 20.00     0.067 C 
HETATM    6  C7  UNL     1     -34.281   4.541   6.174  1.00 20.00     0.006 C 
HETATM    7  C8  UNL     1     -34.805   5.935   6.600  1.00 20.00     0.007 C 
HETATM    8  N9  UNL     1     -33.198   5.710   2.734  1.00 20.00    -0.224 NA
HETATM    9  O11 UNL     1     -33.039   7.706   3.824  1.00 20.00    -0.292 OA
ENDROOT
BRANCH   3  10
HETATM   10  C4  UNL     1     -32.287   7.626   1.542  1.00 20.00     0.316 C 
HETATM   11  O10 UNL     1     -31.956   8.833   1.505  1.00 20.00    -0.298 OA
ENDBRANCH   3  10
TORSDOF 1
