REMARK  0 active torsions:
REMARK  status: ('A' for Active; 'I' for Inactive)
ROOT
HETATM    1  C1  UNL     1     -33.040   5.397   2.269  1.00 20.00     0.050 A 
HETATM    2  C2  UNL     1     -32.169   7.638   2.672  1.00 20.00     0.062 A 
HETATM    3  C3  UNL     1     -33.315   6.478   4.394  1.00 20.00     0.034 A 
HETATM    4  C4  UNL     1     -33.518   5.378   3.570  1.00 20.00    -0.040 A 
HETATM    5  C5  UNL     1     -32.362   6.536   1.822  1.00 20.00     0.118 A 
HETATM    6  C6  UNL     1     -32.650   7.617   3.981  1.00 20.00     0.028 A 
HETATM    7  C7  UNL     1     -33.911   6.191   5.689  1.00 20.00     0.161 A 
HETATM    8  C8  UNL     1     -34.263   4.273   4.248  1.00 20.00     0.047 A 
HETATM    9  C9  UNL     1     -34.529   4.813   5.664  1.00 20.00     0.088 A 
HETATM   10  O10 UNL     1     -33.920   6.936   6.652  1.00 20.00    -0.292 OA
HETATM   11  F11 UNL     1     -31.891   6.578   0.568  1.00 20.00    -0.206 F 
HETATM   12 BR12 UNL     1     -32.355   9.129   5.074  1.00 20.00    -0.050 Br
ENDROOT
TORSDOF 0
