REMARK  1 active torsions:
REMARK  status: ('A' for Active; 'I' for Inactive)
REMARK    1  A    between atoms: C9_9  and  S11_11 
ROOT
HETATM    1  C1  UNL     1     -33.375   5.154   2.197  1.00 20.00     0.015 A 
HETATM    2  C2  UNL     1     -34.416   4.710   4.369  1.00 20.00     0.016 A 
HETATM    3  C3  UNL     1     -32.694   6.021   1.347  1.00 20.00     0.025 A 
HETATM    4  C4  UNL     1     -34.752   5.144   5.644  1.00 20.00     0.039 A 
HETATM    5  C5  UNL     1     -32.719   7.703   3.077  1.00 20.00     0.056 A 
HETATM    6  C6  UNL     1     -33.730   5.563   3.493  1.00 20.00    -0.007 A 
HETATM    7  C7  UNL     1     -33.400   6.857   3.948  1.00 20.00     0.070 A 
HETATM    8  C8  UNL     1     -32.366   7.297   1.788  1.00 20.00     0.036 A 
HETATM    9  C9  UNL     1     -34.387   6.427   5.998  1.00 20.00     0.091 A 
HETATM   10  N10 UNL     1     -33.726   7.280   5.184  1.00 20.00    -0.242 NA
HETATM   11 CL12 UNL     1     -31.522   8.377   0.746  1.00 20.00    -0.084 Cl
ENDROOT
BRANCH   9  12
HETATM   12  S11 UNL     1     -34.796   7.037   7.624  1.00 20.00    -0.123 SA
HETATM   13  H18 UNL     1     -35.411   5.931   8.070  1.00 20.00     0.108 HD
ENDBRANCH   9  12
TORSDOF 1
