REMARK  0 active torsions:
REMARK  status: ('A' for Active; 'I' for Inactive)
ROOT
HETATM    1  C1  UNL     1     -33.257   5.866   3.286  1.00 20.00    -0.057 C 
HETATM    2  C2  UNL     1     -34.418   5.735   5.472  1.00 20.00    -0.057 C 
HETATM    3  C3  UNL     1     -32.525   5.107   2.457  1.00 20.00     0.016 C 
HETATM    4  C4  UNL     1     -34.654   4.869   6.468  1.00 20.00     0.016 C 
HETATM    5  C5  UNL     1     -34.463   5.330   4.019  1.00 20.00     0.070 C 
HETATM    6  C6  UNL     1     -32.924   7.313   3.575  1.00 20.00     0.306 C 
HETATM    7  C7  UNL     1     -34.063   7.185   5.721  1.00 20.00     0.306 C 
HETATM    8  C8  UNL     1     -32.489   8.963   5.283  1.00 20.00     0.310 C 
HETATM    9  N9  UNL     1     -32.817   7.561   5.025  1.00 20.00     0.091 N 
ENDROOT
TORSDOF 0
