REMARK  0 active torsions:
REMARK  status: ('A' for Active; 'I' for Inactive)
ROOT
HETATM    1  C1  UNL     1     -34.188   5.637   6.709  1.00 20.00    -0.002 C 
HETATM    2  C2  UNL     1     -34.353   4.820   5.527  1.00 20.00     0.009 C 
HETATM    3  C3  UNL     1     -33.803   6.879   6.364  1.00 20.00    -0.013 C 
HETATM    4  C4  UNL     1     -32.569   7.477   4.190  1.00 20.00     0.006 C 
HETATM    5  C5  UNL     1     -32.152   6.872   3.061  1.00 20.00     0.113 C 
HETATM    6  C6  UNL     1     -33.660   5.158   3.133  1.00 20.00     0.124 C 
HETATM    7  C7  UNL     1     -34.088   5.590   4.468  1.00 20.00    -0.029 C 
HETATM    8  C8  UNL     1     -33.819   7.007   4.867  1.00 20.00     0.066 C 
HETATM    9  N9  UNL     1     -32.747   5.780   2.449  1.00 20.00    -0.273 NA
ENDROOT
TORSDOF 0
