REMARK  0 active torsions:
REMARK  status: ('A' for Active; 'I' for Inactive)
ROOT
HETATM    1  C1  UNL     1     -33.351   6.629   6.626  1.00 20.00     0.011 C 
HETATM    2  C2  UNL     1     -34.012   7.584   5.631  1.00 20.00     0.017 C 
HETATM    3  C3  UNL     1     -34.143   5.348   6.845  1.00 20.00     0.074 C 
HETATM    4  C4  UNL     1     -35.043   5.669   4.259  1.00 20.00     0.089 C 
HETATM    5  C5  UNL     1     -34.284   6.990   4.251  1.00 20.00     0.067 C 
HETATM    6  S6  UNL     1     -34.299   4.388   5.315  1.00 20.00    -0.168 SA
HETATM    7 BR7  UNL     1     -32.606   6.809   3.248  1.00 20.00    -0.090 Br
ENDROOT
TORSDOF 0
