REMARK  0 active torsions:
REMARK  status: ('A' for Active; 'I' for Inactive)
ROOT
HETATM    1  C1  UNL     1     -32.812   6.896   3.502  1.00 20.00    -0.037 C 
HETATM    2  C2  UNL     1     -33.434   5.536   3.403  1.00 20.00     0.040 C 
HETATM    3  C3  UNL     1     -34.447   5.689   5.491  1.00 20.00     0.243 C 
HETATM    4  C4  UNL     1     -32.230   7.494   2.455  1.00 20.00    -0.022 C 
HETATM    5  C5  UNL     1     -32.930   7.543   4.847  1.00 20.00     0.049 C 
HETATM    6  C6  UNL     1     -34.273   7.192   5.459  1.00 20.00     0.110 C 
HETATM    7  C7  UNL     1     -33.212   4.711   2.154  1.00 20.00     0.071 C 
HETATM    8  C8  UNL     1     -32.134   6.889   1.096  1.00 20.00     0.036 C 
HETATM    9  N9  UNL     1     -34.170   5.001   4.329  1.00 20.00    -0.219 NA
HETATM   10  O10 UNL     1     -34.887   5.141   6.501  1.00 20.00    -0.271 OA
ENDROOT
TORSDOF 0
