REMARK  1 active torsions:
REMARK  status: ('A' for Active; 'I' for Inactive)
REMARK    1  A    between atoms: C4_4  and  C5_5 
ROOT
HETATM    1  C5  UNL     1     -33.497   6.236   4.192  1.00 20.00     0.039 C 
HETATM    2  C6  UNL     1     -34.070   4.840   4.385  1.00 20.00     0.060 C 
HETATM    3  C7  UNL     1     -34.337   4.506   5.840  1.00 20.00     0.008 C 
HETATM    4  C8  UNL     1     -34.979   5.703   6.511  1.00 20.00     0.022 C 
HETATM    5  C9  UNL     1     -34.020   6.877   6.448  1.00 20.00     0.149 C 
HETATM    6  N10 UNL     1     -33.504   7.143   5.108  1.00 20.00    -0.293 NA
ENDROOT
BRANCH   1   7
HETATM    7  C4  UNL     1     -32.924   6.579   2.851  1.00 20.00    -0.005 A 
HETATM    8  C1  UNL     1     -32.868   5.704   1.728  1.00 20.00     0.021 A 
HETATM    9  C2  UNL     1     -32.282   6.303   0.634  1.00 20.00     0.050 A 
HETATM   10  S11 UNL     1     -31.803   7.913   0.964  1.00 20.00    -0.113 SA
HETATM   11  C3  UNL     1     -32.379   7.813   2.573  1.00 20.00     0.063 A 
ENDBRANCH   1   7
TORSDOF 1
