REMARK  0 active torsions:
REMARK  status: ('A' for Active; 'I' for Inactive)
ROOT
HETATM    1  C1  UNL     1     -32.283   8.224   0.520  1.00 20.00     0.012 C 
HETATM    2  C2  UNL     1     -32.433   7.658   1.569  1.00 20.00    -0.113 C 
HETATM    3  C3  UNL     1     -33.496   5.723   2.678  1.00 20.00     0.047 C 
HETATM    4  C4  UNL     1     -33.246   7.904   3.889  1.00 20.00     0.047 C 
HETATM    5  C5  UNL     1     -33.795   5.058   4.024  1.00 20.00     0.273 C 
HETATM    6  C6  UNL     1     -33.554   7.167   5.194  1.00 20.00     0.273 C 
HETATM    7  C7  UNL     1     -32.618   6.966   2.854  1.00 20.00     0.067 C 
HETATM    8  C8  UNL     1     -34.748   5.342   6.217  1.00 20.00     0.309 C 
HETATM    9  N9  UNL     1     -34.422   6.006   4.955  1.00 20.00     0.084 N 
ENDROOT
TORSDOF 0
