REMARK  2 active torsions:
REMARK  status: ('A' for Active; 'I' for Inactive)
REMARK    1  A    between atoms: C1_1  and  C8_8 
REMARK    2  A    between atoms: C8_8  and  O9_9 
ROOT
HETATM    1  C1  UNL     1     -34.512   6.994   4.262  1.00 20.00     0.026 A 
HETATM    2  C2  UNL     1     -33.222   6.937   5.068  1.00 20.00    -0.034 A 
HETATM    3  C3  UNL     1     -33.256   6.437   3.607  1.00 20.00    -0.034 A 
HETATM    4  C4  UNL     1     -32.550   8.257   5.383  1.00 20.00     0.016 C 
HETATM    5  C5  UNL     1     -33.065   5.948   6.201  1.00 20.00     0.016 C 
HETATM    6  C6  UNL     1     -33.133   4.960   3.310  1.00 20.00     0.016 C 
HETATM    7  C7  UNL     1     -32.615   7.279   2.523  1.00 20.00     0.016 C 
ENDROOT
BRANCH   1   8
HETATM    8  C8  UNL     1     -35.709   6.163   4.575  1.00 20.00     0.170 C 
BRANCH   8   9
HETATM    9  O9  UNL     1     -35.303   4.844   4.940  1.00 20.00    -0.400 OA
HETATM   10  H25 UNL     1     -36.115   4.351   5.131  1.00 20.00     0.209 HD
ENDBRANCH   8   9
ENDBRANCH   1   8
TORSDOF 2
