REMARK  0 active torsions:
REMARK  status: ('A' for Active; 'I' for Inactive)
ROOT
HETATM    1  C1  UNL     1     -34.119   6.704   5.733  1.00 20.00     0.136 C 
HETATM    2  C2  UNL     1     -34.935   5.460   6.074  1.00 20.00     0.084 C 
HETATM    3  C3  UNL     1     -32.369   6.286   2.415  1.00 20.00     0.002 C 
HETATM    4  C4  UNL     1     -33.280   5.057   2.621  1.00 20.00     0.006 C 
HETATM    5  C5  UNL     1     -36.037   5.720   3.821  1.00 20.00     0.006 C 
HETATM    6  C6  UNL     1     -32.654   7.270   3.572  1.00 20.00     0.018 C 
HETATM    7  C7  UNL     1     -35.239   7.014   3.583  1.00 20.00     0.018 C 
HETATM    8  C8  UNL     1     -35.068   4.851   4.643  1.00 20.00    -0.002 C 
HETATM    9  C9  UNL     1     -33.696   5.189   4.071  1.00 20.00     0.006 C 
HETATM   10  C10 UNL     1     -33.877   6.705   4.240  1.00 20.00     0.024 C 
HETATM   11  O11 UNL     1     -33.754   7.557   6.523  1.00 20.00    -0.297 OA
ENDROOT
TORSDOF 0
