REMARK  0 active torsions:
REMARK  status: ('A' for Active; 'I' for Inactive)
ROOT
HETATM    1  C1  UNL     1     -35.120   6.596   4.282  1.00 20.00     0.136 C 
HETATM    2  C2  UNL     1     -35.023   7.832   5.145  1.00 20.00     0.084 C 
HETATM    3  C3  UNL     1     -32.467   6.006   2.750  1.00 20.00     0.002 C 
HETATM    4  C4  UNL     1     -32.384   7.225   3.692  1.00 20.00     0.006 C 
HETATM    5  C5  UNL     1     -34.206   6.234   6.912  1.00 20.00     0.006 C 
HETATM    6  C6  UNL     1     -33.343   4.939   3.445  1.00 20.00     0.018 C 
HETATM    7  C7  UNL     1     -34.297   5.018   5.944  1.00 20.00     0.018 C 
HETATM    8  C8  UNL     1     -33.797   7.422   5.986  1.00 20.00    -0.002 C 
HETATM    9  C9  UNL     1     -32.876   6.681   5.021  1.00 20.00     0.006 C 
HETATM   10  C10 UNL     1     -33.948   5.669   4.611  1.00 20.00     0.024 C 
HETATM   11  O11 UNL     1     -36.007   6.370   3.474  1.00 20.00    -0.297 OA
ENDROOT
TORSDOF 0
