REMARK  1 active torsions:
REMARK  status: ('A' for Active; 'I' for Inactive)
REMARK    1  A    between atoms: C3_3  and  C5_5 
ROOT
HETATM    1  C1  UNL     1     -34.124   7.393   5.726  1.00 20.00     0.221 A 
HETATM    2  C4  UNL     1     -34.739   7.267   4.320  1.00 20.00     0.138 A 
HETATM    3  C5  UNL     1     -33.388   6.609   3.918  1.00 20.00     0.060 A 
HETATM    4  C7  UNL     1     -32.499   7.418   2.990  1.00 20.00     0.044 C 
HETATM    5  N8  UNL     1     -32.983   6.781   5.312  1.00 20.00    -0.348 N 
HETATM    6  O9  UNL     1     -34.469   7.841   6.796  1.00 20.00    -0.273 OA
HETATM    7  H20 UNL     1     -32.136   6.569   5.822  1.00 20.00     0.163 HD
ENDROOT
BRANCH   3   8
HETATM    8  C3  UNL     1     -33.473   5.178   3.552  1.00 20.00    -0.065 C 
HETATM    9  C2  UNL     1     -33.111   4.734   2.339  1.00 20.00     0.016 C 
HETATM   10  C6  UNL     1     -33.987   4.253   4.615  1.00 20.00     0.045 C 
ENDBRANCH   3   8
TORSDOF 1
