REMARK  0 active torsions:
REMARK  status: ('A' for Active; 'I' for Inactive)
ROOT
HETATM    1  C1  UNL     1     -32.398   7.245   3.906  1.00 20.00     0.272 A 
HETATM    2  C2  UNL     1     -33.717   5.492   3.366  1.00 20.00     0.272 A 
HETATM    3  C3  UNL     1     -33.569   7.371   4.796  1.00 20.00     0.109 A 
HETATM    4  C4  UNL     1     -34.452   6.198   4.435  1.00 20.00     0.109 A 
HETATM    5  C5  UNL     1     -33.922   6.339   5.844  1.00 20.00    -0.021 A 
HETATM    6  C6  UNL     1     -32.864   5.389   6.346  1.00 20.00     0.016 C 
HETATM    7  C7  UNL     1     -34.906   6.752   6.910  1.00 20.00     0.016 C 
HETATM    8  O8  UNL     1     -31.452   8.016   3.909  1.00 20.00    -0.264 OA
HETATM    9  O9  UNL     1     -34.115   4.476   2.819  1.00 20.00    -0.264 OA
HETATM   10  O10 UNL     1     -32.549   6.154   3.089  1.00 20.00    -0.244 OA
ENDROOT
TORSDOF 0
