REMARK  0 active torsions:
REMARK  status: ('A' for Active; 'I' for Inactive)
ROOT
HETATM    1  C1  UNL     1     -34.730   5.016   6.484  1.00 20.00    -0.019 C 
HETATM    2  C2  UNL     1     -34.537   6.261   6.926  1.00 20.00     0.080 C 
HETATM    3  C3  UNL     1     -34.349   4.559   5.115  1.00 20.00     0.037 C 
HETATM    4 CL4  UNL     1     -33.825   7.491   5.970  1.00 20.00    -0.097 Cl
ENDROOT
TORSDOF 0
