REMARK  1 active torsions:
REMARK  status: ('A' for Active; 'I' for Inactive)
REMARK    1  A    between atoms: C7_7  and  N9_9 
ROOT
HETATM    1  C1  UNL     1     -33.470   4.466   3.628  1.00 20.00     0.031 C 
HETATM    2  C4  UNL     1     -34.132   5.105   4.844  1.00 20.00     0.019 C 
HETATM    3  C5  UNL     1     -33.191   5.502   2.538  1.00 20.00     0.273 C 
HETATM    4  C6  UNL     1     -33.047   7.286   4.177  1.00 20.00     0.288 C 
HETATM    5  C8  UNL     1     -33.312   6.300   5.313  1.00 20.00     0.086 C 
HETATM    6  N9  UNL     1     -32.380   6.616   3.050  1.00 20.00     0.094 N 
HETATM    7 BR10 UNL     1     -34.266   7.212   6.754  1.00 20.00    -0.089 Br
ENDROOT
BRANCH   6   8
HETATM    8  C7  UNL     1     -32.037   7.579   1.971  1.00 20.00     0.223 A 
HETATM    9  C2  UNL     1     -33.124   8.289   1.212  1.00 20.00     0.038 A 
HETATM   10  C3  UNL     1     -32.254   9.054   2.166  1.00 20.00     0.038 A 
ENDBRANCH   6   8
TORSDOF 1
