REMARK  1 active torsions:
REMARK  status: ('A' for Active; 'I' for Inactive)
REMARK    1  A    between atoms: C5_5  and  O7_7 
ROOT
HETATM    1  C1  UNL     1     -32.721   5.269   2.569  1.00 20.00     0.015 C 
HETATM    2  C2  UNL     1     -33.435   5.535   3.497  1.00 20.00    -0.075 C 
HETATM    3  C3  UNL     1     -34.117   4.964   5.853  1.00 20.00     0.221 A 
HETATM    4  C4  UNL     1     -33.787   6.978   5.530  1.00 20.00     0.221 A 
HETATM    5  C5  UNL     1     -34.295   5.854   4.614  1.00 20.00     0.162 A 
HETATM    6  O6  UNL     1     -33.721   6.089   6.668  1.00 20.00    -0.383 OA
ENDROOT
BRANCH   5   7
HETATM    7  O7  UNL     1     -35.645   5.997   4.131  1.00 20.00    -0.373 OA
HETATM    8  H13 UNL     1     -35.616   6.715   3.486  1.00 20.00     0.212 HD
ENDBRANCH   5   7
TORSDOF 1
