REMARK  2 active torsions:
REMARK  status: ('A' for Active; 'I' for Inactive)
REMARK    1  A    between atoms: C1_1  and  C7_7 
REMARK    2  A    between atoms: C2_2  and  C3_3 
ROOT
HETATM    1  C1  UNL     1     -33.524   6.866   4.805  1.00 20.00    -0.013 C 
HETATM    2  C3  UNL     1     -32.829   6.655   3.674  1.00 20.00    -0.028 C 
HETATM    3  C4  UNL     1     -32.396   7.668   2.662  1.00 20.00     0.051 C 
ENDROOT
BRANCH   1   4
HETATM    4  C7  UNL     1     -33.962   5.833   5.816  1.00 20.00     0.000 C 
HETATM    5  C5  UNL     1     -34.714   6.508   6.963  1.00 20.00     0.013 C 
HETATM    6  C6  UNL     1     -34.846   4.782   5.141  1.00 20.00     0.013 C 
ENDBRANCH   1   4
BRANCH   2   7
HETATM    7  C2  UNL     1     -32.456   5.239   3.399  1.00 20.00     0.265 C 
HETATM    8  O8  UNL     1     -32.816   4.637   2.394  1.00 20.00    -0.302 OA
ENDBRANCH   2   7
TORSDOF 2
