REMARK  1 active torsions:
REMARK  status: ('A' for Active; 'I' for Inactive)
REMARK    1  A    between atoms: C1_1  and  C5_5 
ROOT
HETATM    1  C2  UNL     1     -32.770   7.210   5.433  1.00 20.00     0.029 C 
HETATM    2  C3  UNL     1     -33.762   7.213   4.293  1.00 20.00     0.047 C 
HETATM    3  C4  UNL     1     -33.516   6.434   6.495  1.00 20.00     0.169 C 
HETATM    4  C5  UNL     1     -34.413   5.843   4.426  1.00 20.00     0.110 C 
HETATM    5  C6  UNL     1     -35.867   5.823   3.981  1.00 20.00     0.053 C 
HETATM    6  O8  UNL     1     -34.322   5.466   5.806  1.00 20.00    -0.373 OA
ENDROOT
BRANCH   4   7
HETATM    7  C1  UNL     1     -33.657   4.791   3.664  1.00 20.00     0.268 C 
HETATM    8  O7  UNL     1     -33.016   5.025   2.645  1.00 20.00    -0.304 OA
ENDBRANCH   4   7
TORSDOF 1
