REMARK  2 active torsions:
REMARK  status: ('A' for Active; 'I' for Inactive)
REMARK    1  A    between atoms: C3_3  and  C4_4 
REMARK    2  A    between atoms: C3_3  and  O6_6 
ROOT
HETATM    1  C1  UNL     1     -33.921   5.168   4.227  1.00 20.00     0.081 C 
HETATM    2  C4  UNL     1     -33.505   6.573   4.142  1.00 20.00     0.212 C 
HETATM    3  N5  UNL     1     -34.254   4.058   4.297  1.00 20.00    -0.196 NA
HETATM    4 CL7  UNL     1     -32.166   6.686   2.968  1.00 20.00    -0.107 Cl
ENDROOT
BRANCH   2   5
HETATM    5  C3  UNL     1     -33.088   7.134   5.497  1.00 20.00     0.202 C 
BRANCH   5   6
HETATM    6  O6  UNL     1     -34.224   7.504   6.270  1.00 20.00    -0.394 OA
HETATM    7  C2  UNL     1     -34.797   6.380   6.922  1.00 20.00     0.201 C 
ENDBRANCH   5   6
ENDBRANCH   2   5
TORSDOF 2
