REMARK  2 active torsions:
REMARK  status: ('A' for Active; 'I' for Inactive)
REMARK    1  A    between atoms: C3_3  and  C4_4 
REMARK    2  A    between atoms: C3_3  and  O6_6 
ROOT
HETATM    1  C1  UNL     1     -33.076   6.565   3.500  1.00 20.00     0.081 C 
HETATM    2  C4  UNL     1     -34.241   5.731   3.820  1.00 20.00     0.212 C 
HETATM    3  N5  UNL     1     -32.155   7.222   3.243  1.00 20.00    -0.196 NA
HETATM    4 CL7  UNL     1     -33.670   4.067   4.116  1.00 20.00    -0.107 Cl
ENDROOT
BRANCH   2   5
HETATM    5  C3  UNL     1     -35.016   6.259   5.023  1.00 20.00     0.202 C 
BRANCH   5   6
HETATM    6  O6  UNL     1     -34.390   5.877   6.243  1.00 20.00    -0.394 OA
HETATM    7  C2  UNL     1     -33.312   6.743   6.568  1.00 20.00     0.201 C 
ENDBRANCH   5   6
ENDBRANCH   2   5
TORSDOF 2
