REMARK  3 active torsions:
REMARK  status: ('A' for Active; 'I' for Inactive)
REMARK    1  A    between atoms: C6_6  and  C7_7 
REMARK    2  A    between atoms: C7_7  and  C8_8 
REMARK    3  A    between atoms: C8_8  and  C9_9 
ROOT
HETATM    1  C1  UNL     1     -33.003   5.027   3.195  1.00 20.00     0.069 C 
HETATM    2  C2  UNL     1     -34.782   5.737   5.593  1.00 20.00     0.002 C 
HETATM    3  C3  UNL     1     -33.398   6.259   5.978  1.00 20.00     0.002 C 
HETATM    4  C4  UNL     1     -35.004   6.149   4.138  1.00 20.00     0.024 C 
HETATM    5  C5  UNL     1     -32.848   6.963   4.738  1.00 20.00     0.024 C 
HETATM    6  C6  UNL     1     -33.597   6.332   3.557  1.00 20.00     0.049 C 
HETATM    7  N10 UNL     1     -32.537   4.003   2.911  1.00 20.00    -0.196 NA
ENDROOT
BRANCH   6   8
HETATM    8  C7  UNL     1     -33.599   7.243   2.330  1.00 20.00     0.026 C 
BRANCH   8   9
HETATM    9  C8  UNL     1     -32.187   7.446   1.789  1.00 20.00     0.017 C 
BRANCH   9  10
HETATM   10  C9  UNL     1     -32.204   8.327   0.547  1.00 20.00     0.114 C 
HETATM   11 CL11 UNL     1     -32.906   9.917   0.924  1.00 20.00    -0.130 Cl
ENDBRANCH   9  10
ENDBRANCH   8   9
ENDBRANCH   6   8
TORSDOF 3
