REMARK  2 active torsions:
REMARK  status: ('A' for Active; 'I' for Inactive)
REMARK    1  A    between atoms: C1_1  and  C2_2 
REMARK    2  A    between atoms: C3_3  and  C7_7 
ROOT
HETATM    1  C1  UNL     1     -32.971   7.570   3.578  1.00 20.00     0.061 C 
HETATM    2  C3  UNL     1     -33.452   6.318   3.677  1.00 20.00     0.022 C 
HETATM    3 CL9  UNL     1     -33.042   5.116   2.472  1.00 20.00    -0.088 Cl
ENDROOT
BRANCH   2   4
HETATM    4  C7  UNL     1     -34.376   5.812   4.803  1.00 20.00    -0.013 C 
HETATM    5  C4  UNL     1     -34.722   4.323   4.583  1.00 20.00     0.020 C 
HETATM    6  C5  UNL     1     -33.739   5.921   6.210  1.00 20.00     0.020 C 
HETATM    7  C6  UNL     1     -35.681   6.637   4.837  1.00 20.00     0.020 C 
ENDBRANCH   2   4
BRANCH   1   8
HETATM    8  C2  UNL     1     -32.083   8.069   2.500  1.00 20.00     0.260 C 
HETATM    9  O8  UNL     1     -32.127   7.606   1.366  1.00 20.00    -0.302 OA
ENDBRANCH   1   8
TORSDOF 2
