REMARK  3 active torsions:
REMARK  status: ('A' for Active; 'I' for Inactive)
REMARK    1  A    between atoms: C1_1  and  C5_5 
REMARK    2  A    between atoms: C3_3  and  C4_4 
REMARK    3  A    between atoms: C3_3  and  C5_5 
ROOT
HETATM    1  C2  UNL     1     -33.858   6.463   6.868  1.00 20.00     0.017 C 
HETATM    2  C5  UNL     1     -34.578   5.966   5.616  1.00 20.00     0.044 C 
ENDROOT
BRANCH   2   3
HETATM    3  C1  UNL     1     -34.152   4.528   5.378  1.00 20.00     0.235 C 
HETATM    4  O6  UNL     1     -34.135   3.972   4.284  1.00 20.00    -0.306 OA
ENDBRANCH   2   3
BRANCH   2   5
HETATM    5  C3  UNL     1     -34.287   6.884   4.420  1.00 20.00     0.026 C 
BRANCH   5   6
HETATM    6  C4  UNL     1     -32.799   6.939   4.084  1.00 20.00     0.115 C 
HETATM    7 CL7  UNL     1     -32.521   7.995   2.678  1.00 20.00    -0.130 Cl
ENDBRANCH   5   6
ENDBRANCH   2   5
TORSDOF 3
