REMARK  3 active torsions:
REMARK  status: ('A' for Active; 'I' for Inactive)
REMARK    1  A    between atoms: C3_3  and  C8_8 
REMARK    2  A    between atoms: C3_3  and  O10_10 
REMARK    3  A    between atoms: C6_6  and  C8_8 
ROOT
HETATM    1  C1  UNL     1     -32.497   5.835   2.514  1.00 20.00    -0.026 C 
HETATM    2  C2  UNL     1     -32.511   5.813   3.851  1.00 20.00    -0.025 C 
HETATM    3  C4  UNL     1     -33.514   7.853   3.203  1.00 20.00     0.017 C 
HETATM    4  C5  UNL     1     -32.905   7.169   1.969  1.00 20.00     0.004 C 
HETATM    5  C6  UNL     1     -32.920   7.134   4.425  1.00 20.00     0.018 C 
HETATM    6  C7  UNL     1     -31.716   7.934   1.399  1.00 20.00     0.014 C 
ENDROOT
BRANCH   5   7
HETATM    7  C8  UNL     1     -33.921   7.008   5.564  1.00 20.00     0.118 C 
BRANCH   7   8
HETATM    8  C3  UNL     1     -34.955   5.947   5.289  1.00 20.00     0.140 C 
HETATM    9  O9  UNL     1     -35.729   5.920   4.345  1.00 20.00    -0.650 OA
BRANCH   8  10
HETATM   10  O10 UNL     1     -34.912   4.997   6.258  1.00 20.00    -0.776 OA
HETATM   11  H22 UNL     1     -35.575   4.290   6.106  1.00 20.00     0.167 HD
ENDBRANCH   8  10
ENDBRANCH   7   8
ENDBRANCH   5   7
TORSDOF 3
