REMARK  2 active torsions:
REMARK  status: ('A' for Active; 'I' for Inactive)
REMARK    1  A    between atoms: C6_6  and  C7_7 
REMARK    2  A    between atoms: C7_7  and  C8_8 
ROOT
HETATM    1  C1  UNL     1     -32.441   7.383   3.183  1.00 20.00     0.059 C 
HETATM    2  C6  UNL     1     -33.479   7.805   4.139  1.00 20.00     0.129 C 
HETATM    3  N9  UNL     1     -31.622   7.054   2.429  1.00 20.00    -0.197 NA
ENDROOT
BRANCH   2   4
HETATM    4  C7  UNL     1     -33.671   6.779   5.283  1.00 20.00     0.002 C 
HETATM    5  C2  UNL     1     -34.246   7.497   6.521  1.00 20.00     0.011 C 
BRANCH   4   6
HETATM    6  C8  UNL     1     -34.517   5.522   4.846  1.00 20.00    -0.047 C 
HETATM    7  C3  UNL     1     -34.667   4.492   5.982  1.00 20.00     0.015 C 
HETATM    8  C4  UNL     1     -33.849   4.820   3.641  1.00 20.00     0.015 C 
HETATM    9  C5  UNL     1     -35.931   5.946   4.390  1.00 20.00     0.015 C 
ENDBRANCH   4   6
ENDBRANCH   2   4
TORSDOF 2
