REMARK  0 active torsions:
REMARK  status: ('A' for Active; 'I' for Inactive)
ROOT
HETATM    1  C1  UNL     1     -33.297   5.252   3.185  1.00 20.00     0.069 C 
HETATM    2  C2  UNL     1     -34.319   5.622   6.809  1.00 20.00     0.002 C 
HETATM    3  C3  UNL     1     -33.906   7.051   6.457  1.00 20.00     0.002 C 
HETATM    4  C4  UNL     1     -34.041   4.779   5.564  1.00 20.00     0.024 C 
HETATM    5  C5  UNL     1     -33.398   7.006   5.016  1.00 20.00     0.024 C 
HETATM    6  C6  UNL     1     -34.068   5.773   4.397  1.00 20.00     0.045 C 
HETATM    7  C7  UNL     1     -35.459   6.076   3.996  1.00 20.00     0.031 C 
HETATM    8  N8  UNL     1     -32.711   4.856   2.265  1.00 20.00    -0.196 NA
ENDROOT
TORSDOF 0
