REMARK  2 active torsions:
REMARK  status: ('A' for Active; 'I' for Inactive)
REMARK    1  A    between atoms: C3_3  and  C4_4 
REMARK    2  A    between atoms: C5_5  and  C6_6 
ROOT
HETATM    1  C1  UNL     1     -34.078   5.872   5.461  1.00 20.00     0.087 C 
HETATM    2  C2  UNL     1     -33.717   6.474   4.226  1.00 20.00     0.093 C 
HETATM    3  C3  UNL     1     -32.865   5.879   3.379  1.00 20.00     0.011 C 
HETATM    4  N7  UNL     1     -34.376   5.383   6.471  1.00 20.00    -0.192 NA
ENDROOT
BRANCH   3   5
HETATM    5  C4  UNL     1     -32.476   6.463   2.115  1.00 20.00    -0.002 C 
HETATM    6  C5  UNL     1     -32.226   7.772   1.957  1.00 20.00    -0.012 C 
BRANCH   6   7
HETATM    7  C6  UNL     1     -31.814   8.380   0.656  1.00 20.00     0.141 C 
HETATM    8 CL8  UNL     1     -33.001   9.604   0.158  1.00 20.00    -0.126 Cl
ENDBRANCH   6   7
ENDBRANCH   3   5
TORSDOF 2
