REMARK  0 active torsions:
REMARK  status: ('A' for Active; 'I' for Inactive)
ROOT
HETATM    1  C1  UNL     1     -34.566   4.861   4.703  1.00 20.00     0.068 C 
HETATM    2  C2  UNL     1     -31.622   8.289   4.744  1.00 20.00     0.009 A 
HETATM    3  C3  UNL     1     -31.458   8.566   3.385  1.00 20.00     0.019 A 
HETATM    4  C4  UNL     1     -33.503   7.365   2.845  1.00 20.00     0.028 A 
HETATM    5  C5  UNL     1     -32.734   7.562   5.136  1.00 20.00    -0.050 A 
HETATM    6  C6  UNL     1     -33.664   7.098   4.196  1.00 20.00    -0.033 A 
HETATM    7  C7  UNL     1     -32.391   8.108   2.443  1.00 20.00     0.011 A 
HETATM    8  C8  UNL     1     -33.102   7.119   6.516  1.00 20.00     0.041 C 
HETATM    9  C9  UNL     1     -34.584   6.753   6.327  1.00 20.00     0.028 C 
HETATM   10  C10 UNL     1     -34.757   6.308   4.858  1.00 20.00     0.126 C 
HETATM   11  N11 UNL     1     -34.415   3.717   4.581  1.00 20.00    -0.197 NA
HETATM   12 BR12 UNL     1     -32.136   8.495   0.609  1.00 20.00    -0.051 Br
ENDROOT
TORSDOF 0
