REMARK  3 active torsions:
REMARK  status: ('A' for Active; 'I' for Inactive)
REMARK    1  A    between atoms: C4_4  and  C7_7 
REMARK    2  A    between atoms: C7_7  and  C8_8 
REMARK    3  A    between atoms: C8_8  and  C9_9 
ROOT
HETATM    1  C1  UNL     1     -33.576   5.491   3.624  1.00 20.00     0.141 C 
HETATM    2  C2  UNL     1     -34.665   4.869   4.460  1.00 20.00     0.152 C 
HETATM    3  C3  UNL     1     -34.155   7.427   4.970  1.00 20.00     0.086 C 
HETATM    4  C4  UNL     1     -33.024   6.798   4.167  1.00 20.00     0.065 C 
HETATM    5  O10 UNL     1     -33.146   4.946   2.611  1.00 20.00    -0.297 OA
HETATM    6  S11 UNL     1     -34.962   6.041   5.803  1.00 20.00    -0.161 SA
ENDROOT
BRANCH   4   7
HETATM    7  C7  UNL     1     -32.539   7.721   3.061  1.00 20.00     0.013 C 
BRANCH   7   8
HETATM    8  C8  UNL     1     -33.663   8.050   2.076  1.00 20.00     0.005 C 
BRANCH   8   9
HETATM    9  C9  UNL     1     -33.243   9.041   0.974  1.00 20.00    -0.023 C 
HETATM   10  C5  UNL     1     -32.085   8.454   0.163  1.00 20.00     0.009 C 
HETATM   11  C6  UNL     1     -32.838  10.404   1.537  1.00 20.00     0.009 C 
ENDBRANCH   8   9
ENDBRANCH   7   8
ENDBRANCH   4   7
TORSDOF 3
