REMARK  4 active torsions:
REMARK  status: ('A' for Active; 'I' for Inactive)
REMARK    1  A    between atoms: C1_1  and  C6_6 
REMARK    2  A    between atoms: C1_1  and  C8_8 
REMARK    3  A    between atoms: C7_7  and  C8_8 
REMARK    4  A    between atoms: C7_7  and  C9_9 
ROOT
HETATM    1  C3  UNL     1     -33.123   4.437   3.170  1.00 20.00     0.018 C 
HETATM    2  C8  UNL     1     -34.132   5.570   3.347  1.00 20.00     0.051 C 
ENDROOT
BRANCH   2   3
HETATM    3  C1  UNL     1     -34.057   6.059   4.792  1.00 20.00     0.130 C 
HETATM    4  O10 UNL     1     -33.785   7.228   5.065  1.00 20.00    -0.298 OA
BRANCH   3   5
HETATM    5  C6  UNL     1     -34.300   5.011   5.866  1.00 20.00     0.074 C 
HETATM    6  C2  UNL     1     -34.894   5.599   7.133  1.00 20.00     0.013 C 
ENDBRANCH   3   5
ENDBRANCH   2   3
BRANCH   2   7
HETATM    7  C7  UNL     1     -33.856   6.706   2.347  1.00 20.00     0.015 C 
BRANCH   7   8
HETATM    8  C9  UNL     1     -32.362   7.005   2.099  1.00 20.00    -0.022 C 
HETATM    9  C4  UNL     1     -31.627   7.417   3.375  1.00 20.00     0.009 C 
HETATM   10  C5  UNL     1     -32.227   8.110   1.048  1.00 20.00     0.009 C 
ENDBRANCH   7   8
ENDBRANCH   2   7
TORSDOF 4
