REMARK  1 active torsions:
REMARK  status: ('A' for Active; 'I' for Inactive)
REMARK    1  A    between atoms: C4_4  and  O6_6 
ROOT
HETATM    1  C1  UNL     1     -34.013   7.327   6.035  1.00 20.00     0.038 C 
HETATM    2  C2  UNL     1     -32.860   7.302   5.036  1.00 20.00     0.081 C 
HETATM    3  C3  UNL     1     -34.517   5.834   4.151  1.00 20.00     0.110 C 
HETATM    4  C4  UNL     1     -35.010   6.275   5.531  1.00 20.00     0.124 C 
HETATM    5  C5  UNL     1     -33.546   6.920   3.744  1.00 20.00     0.246 C 
HETATM    6  F7  UNL     1     -32.675   6.499   2.811  1.00 20.00    -0.206 F 
HETATM    7  F8  UNL     1     -34.215   7.982   3.238  1.00 20.00    -0.206 F 
ENDROOT
BRANCH   4   8
HETATM    8  O6  UNL     1     -35.034   5.168   6.420  1.00 20.00    -0.395 OA
HETATM    9  H16 UNL     1     -35.676   4.537   6.059  1.00 20.00     0.210 HD
ENDBRANCH   4   8
TORSDOF 1
