REMARK  2 active torsions:
REMARK  status: ('A' for Active; 'I' for Inactive)
REMARK    1  A    between atoms: C5_5  and  C6_6 
REMARK    2  A    between atoms: C6_6  and  C7_7 
ROOT
HETATM    1  C1  UNL     1     -33.711   6.753   5.613  1.00 20.00     0.131 C 
HETATM    2  C2  UNL     1     -33.589   5.374   6.211  1.00 20.00     0.079 C 
HETATM    3  C3  UNL     1     -34.719   4.626   5.513  1.00 20.00     0.008 C 
HETATM    4  C4  UNL     1     -34.823   5.287   4.145  1.00 20.00     0.013 C 
HETATM    5  C5  UNL     1     -34.669   6.781   4.440  1.00 20.00     0.064 C 
HETATM    6  O8  UNL     1     -33.102   7.729   6.032  1.00 20.00    -0.298 OA
ENDROOT
BRANCH   5   7
HETATM    7  C6  UNL     1     -34.136   7.565   3.258  1.00 20.00     0.129 C 
BRANCH   7   8
HETATM    8  C7  UNL     1     -32.674   7.290   3.023  1.00 20.00     0.388 C 
HETATM    9  F9  UNL     1     -31.923   7.630   4.092  1.00 20.00    -0.171 F 
HETATM   10  F10 UNL     1     -32.236   8.013   1.969  1.00 20.00    -0.171 F 
HETATM   11  F11 UNL     1     -32.447   5.988   2.748  1.00 20.00    -0.171 F 
ENDBRANCH   7   8
ENDBRANCH   5   7
TORSDOF 2
