REMARK  2 active torsions:
REMARK  status: ('A' for Active; 'I' for Inactive)
REMARK    1  A    between atoms: C5_5  and  C6_6 
REMARK    2  A    between atoms: C6_6  and  C7_7 
ROOT
HETATM    1  C1  UNL     1     -34.042   5.034   4.604  1.00 20.00     0.131 C 
HETATM    2  C2  UNL     1     -33.759   4.533   5.998  1.00 20.00     0.079 C 
HETATM    3  C3  UNL     1     -34.683   5.404   6.840  1.00 20.00     0.008 C 
HETATM    4  C4  UNL     1     -34.760   6.721   6.080  1.00 20.00     0.013 C 
HETATM    5  C5  UNL     1     -34.874   6.300   4.613  1.00 20.00     0.064 C 
HETATM    6  O8  UNL     1     -33.640   4.478   3.590  1.00 20.00    -0.298 OA
ENDROOT
BRANCH   5   7
HETATM    7  C6  UNL     1     -34.361   7.353   3.653  1.00 20.00     0.129 C 
BRANCH   7   8
HETATM    8  C7  UNL     1     -32.857   7.396   3.628  1.00 20.00     0.388 C 
HETATM    9  F9  UNL     1     -32.344   7.688   4.842  1.00 20.00    -0.171 F 
HETATM   10  F10 UNL     1     -32.440   8.351   2.768  1.00 20.00    -0.171 F 
HETATM   11  F11 UNL     1     -32.329   6.222   3.221  1.00 20.00    -0.171 F 
ENDBRANCH   7   8
ENDBRANCH   5   7
TORSDOF 2
