REMARK  2 active torsions:
REMARK  status: ('A' for Active; 'I' for Inactive)
REMARK    1  A    between atoms: C6_6  and  C7_7 
REMARK    2  A    between atoms: C7_7  and  C8_8 
ROOT
HETATM    1  C1  UNL     1     -34.394   7.222   5.888  1.00 20.00     0.131 C 
HETATM    2  C2  UNL     1     -34.774   6.152   6.889  1.00 20.00     0.079 C 
HETATM    3  C3  UNL     1     -34.124   4.826   6.526  1.00 20.00     0.007 C 
HETATM    4  C4  UNL     1     -34.413   4.432   5.080  1.00 20.00     0.001 C 
HETATM    5  C5  UNL     1     -33.950   5.522   4.113  1.00 20.00     0.012 C 
HETATM    6  C6  UNL     1     -34.609   6.871   4.419  1.00 20.00     0.064 C 
HETATM    7  O9  UNL     1     -34.025   8.335   6.261  1.00 20.00    -0.298 OA
ENDROOT
BRANCH   6   8
HETATM    8  C7  UNL     1     -34.069   7.956   3.493  1.00 20.00     0.129 C 
BRANCH   8   9
HETATM    9  C8  UNL     1     -32.586   7.819   3.299  1.00 20.00     0.388 C 
HETATM   10  F10 UNL     1     -31.914   7.911   4.466  1.00 20.00    -0.171 F 
HETATM   11  F11 UNL     1     -32.145   8.811   2.494  1.00 20.00    -0.171 F 
HETATM   12  F12 UNL     1     -32.259   6.646   2.718  1.00 20.00    -0.171 F 
ENDBRANCH   8   9
ENDBRANCH   6   8
TORSDOF 2
