REMARK  1 active torsions:
REMARK  status: ('A' for Active; 'I' for Inactive)
REMARK    1  A    between atoms: C4_4  and  C6_6 
ROOT
HETATM    1  C1  UNL     1     -33.038   7.458   3.747  1.00 20.00     0.039 A 
HETATM    2  C2  UNL     1     -33.490   5.123   3.730  1.00 20.00     0.129 A 
HETATM    3  C3  UNL     1     -32.543   6.084   1.870  1.00 20.00     0.140 A 
HETATM    4  C4  UNL     1     -33.527   6.334   4.403  1.00 20.00    -0.000 A 
HETATM    5  C5  UNL     1     -32.535   7.339   2.456  1.00 20.00     0.052 A 
HETATM    6  N8  UNL     1     -33.009   4.969   2.476  1.00 20.00    -0.271 NA
HETATM    7 CL10 UNL     1     -31.924   8.703   1.616  1.00 20.00    -0.083 Cl
ENDROOT
BRANCH   4   8
HETATM    8  C6  UNL     1     -34.058   6.425   5.752  1.00 20.00     0.017 C 
HETATM    9  C7  UNL     1     -35.159   5.451   6.177  1.00 20.00     0.062 C 
HETATM   10  S9  UNL     1     -33.494   7.524   6.922  1.00 20.00    -0.084 SA
ENDBRANCH   4   8
TORSDOF 1
