REMARK  1 active torsions:
REMARK  status: ('A' for Active; 'I' for Inactive)
REMARK    1  A    between atoms: C3_3  and  C9_9 
ROOT
HETATM    1  C1  UNL     1     -33.317   8.266   5.436  1.00 20.00     0.017 A 
HETATM    2  C2  UNL     1     -34.004   7.671   6.533  1.00 20.00     0.032 A 
HETATM    3  C3  UNL     1     -33.169   7.392   4.382  1.00 20.00    -0.011 A 
HETATM    4  C4  UNL     1     -34.355   6.363   6.276  1.00 20.00     0.075 A 
HETATM    5  S11 UNL     1     -33.856   5.860   4.717  1.00 20.00    -0.082 SA
HETATM    6 CL12 UNL     1     -35.187   5.276   7.306  1.00 20.00    -0.076 Cl
ENDROOT
BRANCH   3   7
HETATM    7  C9  UNL     1     -32.504   7.633   3.047  1.00 20.00     0.033 C 
HETATM    8  C7  UNL     1     -33.144   8.759   2.227  1.00 20.00     0.088 C 
HETATM    9  C5  UNL     1     -32.727   8.388   0.826  1.00 20.00     0.127 C 
HETATM   10  C6  UNL     1     -32.152   6.997   0.747  1.00 20.00     0.079 C 
HETATM   11  O10 UNL     1     -32.840   9.134  -0.139  1.00 20.00    -0.298 OA
HETATM   12  C8  UNL     1     -32.527   6.422   2.108  1.00 20.00     0.018 C 
ENDBRANCH   3   7
TORSDOF 1
