REMARK  0 active torsions:
REMARK  status: ('A' for Active; 'I' for Inactive)
ROOT
HETATM    1  C1  UNL     1     -33.602   4.869   3.365  1.00 20.00     0.017 C 
HETATM    2  C2  UNL     1     -34.082   4.987   4.459  1.00 20.00    -0.090 C 
HETATM    3  C3  UNL     1     -34.655   5.121   5.752  1.00 20.00     0.059 C 
HETATM    4  C4  UNL     1     -34.300   6.112   6.581  1.00 20.00    -0.022 C 
HETATM    5  C5  UNL     1     -33.286   7.154   6.238  1.00 20.00     0.036 C 
ENDROOT
TORSDOF 0
