REMARK  2 active torsions:
REMARK  status: ('A' for Active; 'I' for Inactive)
REMARK    1  A    between atoms: C1_1  and  C3_3 
REMARK    2  A    between atoms: C2_2  and  C8_8 
ROOT
HETATM    1  C4  UNL     1     -33.722   7.172   6.059  1.00 20.00     0.011 C 
HETATM    2  C5  UNL     1     -33.454   7.674   4.637  1.00 20.00     0.010 C 
HETATM    3  C6  UNL     1     -34.000   5.678   6.189  1.00 20.00     0.074 C 
HETATM    4  C7  UNL     1     -34.100   5.532   3.420  1.00 20.00     0.082 C 
HETATM    5  C8  UNL     1     -32.996   6.567   3.683  1.00 20.00     0.017 C 
HETATM    6  S11 UNL     1     -35.091   5.067   4.880  1.00 20.00    -0.168 SA
ENDROOT
BRANCH   5   7
HETATM    7  C2  UNL     1     -32.523   7.160   2.389  1.00 20.00    -0.018 C 
HETATM    8  C1  UNL     1     -33.037   8.278   1.860  1.00 20.00     0.046 C 
BRANCH   8   9
HETATM    9  C3  UNL     1     -32.522   8.815   0.571  1.00 20.00     0.145 C 
HETATM   10  C9  UNL     1     -32.591  10.307   0.379  1.00 20.00     0.096 C 
HETATM   11  O10 UNL     1     -32.072   8.084  -0.309  1.00 20.00    -0.294 OA
ENDBRANCH   8   9
ENDBRANCH   5   7
TORSDOF 2
