REMARK  2 active torsions:
REMARK  status: ('A' for Active; 'I' for Inactive)
REMARK    1  A    between atoms: C6_6  and  O11_11 
REMARK    2  A    between atoms: C9_9  and  O11_11 
ROOT
HETATM    1  C1  UNL     1     -34.112   7.970   5.927  1.00 20.00     0.002 C 
HETATM    2  C2  UNL     1     -35.015   7.126   4.990  1.00 20.00     0.015 C 
HETATM    3  C3  UNL     1     -33.254   6.699   6.156  1.00 20.00     0.015 C 
HETATM    4  C4  UNL     1     -33.588   4.945   3.164  1.00 20.00     0.069 C 
HETATM    5  C5  UNL     1     -33.973   4.689   4.648  1.00 20.00     0.173 C 
HETATM    6  C6  UNL     1     -32.951   6.291   3.614  1.00 20.00     0.135 C 
HETATM    7  C7  UNL     1     -33.833   6.180   4.855  1.00 20.00     0.015 C 
HETATM    8  O10 UNL     1     -35.262   4.158   4.787  1.00 20.00    -0.234 OA
ENDROOT
BRANCH   6   9
HETATM    9  O11 UNL     1     -33.157   7.412   2.738  1.00 20.00    -0.385 OA
BRANCH   9  10
HETATM   10  C9  UNL     1     -32.259   7.370   1.645  1.00 20.00     0.163 C 
HETATM   11  C8  UNL     1     -32.513   8.567   0.752  1.00 20.00     0.033 C 
ENDBRANCH   9  10
ENDBRANCH   6   9
TORSDOF 2
