REMARK  2 active torsions:
REMARK  status: ('A' for Active; 'I' for Inactive)
REMARK    1  A    between atoms: C6_6  and  O11_11 
REMARK    2  A    between atoms: C9_9  and  O11_11 
ROOT
HETATM    1  C1  UNL     1     -34.630   6.697   6.308  1.00 20.00     0.002 C 
HETATM    2  C2  UNL     1     -34.780   7.407   4.938  1.00 20.00     0.015 C 
HETATM    3  C3  UNL     1     -33.163   6.378   5.925  1.00 20.00     0.015 C 
HETATM    4  C4  UNL     1     -32.423   5.847   2.888  1.00 20.00     0.069 C 
HETATM    5  C5  UNL     1     -33.802   5.468   3.497  1.00 20.00     0.173 C 
HETATM    6  C6  UNL     1     -32.569   7.249   3.551  1.00 20.00     0.135 C 
HETATM    7  C7  UNL     1     -33.580   6.602   4.482  1.00 20.00     0.015 C 
HETATM    8  O10 UNL     1     -33.824   4.169   4.021  1.00 20.00    -0.234 OA
ENDROOT
BRANCH   6   9
HETATM    9  O11 UNL     1     -33.062   8.287   2.680  1.00 20.00    -0.385 OA
BRANCH   9  10
HETATM   10  C9  UNL     1     -32.197   8.472   1.575  1.00 20.00     0.163 C 
HETATM   11  C8  UNL     1     -32.754   9.568   0.691  1.00 20.00     0.033 C 
ENDBRANCH   9  10
ENDBRANCH   6   9
TORSDOF 2
