REMARK  2 active torsions:
REMARK  status: ('A' for Active; 'I' for Inactive)
REMARK    1  A    between atoms: C6_6  and  C8_8 
REMARK    2  A    between atoms: C7_7  and  C9_9 
ROOT
HETATM    1  C1  UNL     1     -32.548   5.602   2.895  1.00 20.00     0.132 C 
HETATM    2  C2  UNL     1     -32.101   7.110   3.441  1.00 20.00     0.084 C 
HETATM    3  C6  UNL     1     -33.077   5.391   4.318  1.00 20.00     0.064 C 
HETATM    4  C7  UNL     1     -33.475   6.927   4.184  1.00 20.00     0.008 C 
HETATM    5  O10 UNL     1     -32.501   4.958   1.878  1.00 20.00    -0.298 OA
ENDROOT
BRANCH   3   6
HETATM    6  C8  UNL     1     -34.331   4.838   4.995  1.00 20.00    -0.003 C 
HETATM    7  C3  UNL     1     -34.000   4.958   6.506  1.00 20.00     0.006 C 
HETATM    8  C4  UNL     1     -33.868   6.494   6.678  1.00 20.00     0.005 C 
HETATM    9  C9  UNL     1     -34.437   7.053   5.362  1.00 20.00    -0.009 C 
HETATM   10  C5  UNL     1     -35.407   5.929   4.927  1.00 20.00     0.010 C 
ENDBRANCH   3   6
TORSDOF 2
