REMARK  2 active torsions:
REMARK  status: ('A' for Active; 'I' for Inactive)
REMARK    1  A    between atoms: C3_3  and  C6_6 
REMARK    2  A    between atoms: C6_6  and  C7_7 
ROOT
HETATM    1  C1  UNL     1     -32.810   6.464   3.495  1.00 20.00    -0.176 C 
HETATM    2  C2  UNL     1     -31.965   7.444   3.393  1.00 20.00     0.091 C 
HETATM    3  C3  UNL     1     -33.656   5.480   3.596  1.00 20.00     0.067 C 
ENDROOT
BRANCH   3   4
HETATM    4  C6  UNL     1     -34.997   5.567   4.266  1.00 20.00     0.021 C 
BRANCH   4   5
HETATM    5  C7  UNL     1     -34.905   5.934   5.759  1.00 20.00    -0.021 C 
HETATM    6  C4  UNL     1     -34.231   7.290   5.980  1.00 20.00     0.009 C 
HETATM    7  C5  UNL     1     -34.139   4.846   6.516  1.00 20.00     0.009 C 
ENDBRANCH   4   5
ENDBRANCH   3   4
TORSDOF 2
