REMARK  3 active torsions:
REMARK  status: ('A' for Active; 'I' for Inactive)
REMARK    1  A    between atoms: C1_1  and  C6_6 
REMARK    2  A    between atoms: C6_6  and  C7_7 
REMARK    3  A    between atoms: C6_6  and  O9_9 
ROOT
HETATM    1  C2  UNL     1     -32.879   4.406   5.316  1.00 20.00     0.054 C 
HETATM    2  C6  UNL     1     -34.018   5.187   4.649  1.00 20.00     0.113 C 
ENDROOT
BRANCH   2   3
HETATM    3  C1  UNL     1     -33.622   5.424   3.195  1.00 20.00     0.269 C 
HETATM    4  O8  UNL     1     -32.465   5.543   2.803  1.00 20.00    -0.304 OA
ENDBRANCH   2   3
BRANCH   2   5
HETATM    5  C7  UNL     1     -34.400   6.528   5.370  1.00 20.00    -0.014 C 
HETATM    6  C3  UNL     1     -35.595   7.206   4.658  1.00 20.00     0.018 C 
HETATM    7  C4  UNL     1     -33.221   7.528   5.323  1.00 20.00     0.018 C 
HETATM    8  C5  UNL     1     -34.780   6.318   6.849  1.00 20.00     0.018 C 
ENDBRANCH   2   5
BRANCH   2   9
HETATM    9  O9  UNL     1     -35.168   4.339   4.619  1.00 20.00    -0.382 OA
HETATM   10  H23 UNL     1     -34.895   3.524   4.173  1.00 20.00     0.211 HD
ENDBRANCH   2   9
TORSDOF 3
