REMARK  3 active torsions:
REMARK  status: ('A' for Active; 'I' for Inactive)
REMARK    1  A    between atoms: C4_4  and  O9_9 
REMARK    2  A    between atoms: C6_6  and  C7_7 
REMARK    3  A    between atoms: C6_6  and  N8_8 
ROOT
HETATM    1  C1  UNL     1     -33.710   7.194   4.930  1.00 20.00     0.064 C 
HETATM    2  C2  UNL     1     -32.385   7.260   4.183  1.00 20.00     0.275 C 
HETATM    3  C3  UNL     1     -33.407   5.325   3.411  1.00 20.00     0.304 C 
HETATM    4  C4  UNL     1     -34.339   5.879   4.484  1.00 20.00     0.150 C 
HETATM    5  N8  UNL     1     -32.568   6.448   2.972  1.00 20.00     0.092 N 
ENDROOT
BRANCH   5   6
HETATM    6  C6  UNL     1     -33.211   7.213   1.903  1.00 20.00     0.287 C 
BRANCH   6   7
HETATM    7  C7  UNL     1     -32.257   8.175   1.217  1.00 20.00     0.144 C 
HETATM    8 CL10 UNL     1     -33.076   9.091  -0.072  1.00 20.00    -0.129 Cl
ENDBRANCH   6   7
ENDBRANCH   5   6
BRANCH   4   9
HETATM    9  O9  UNL     1     -34.419   4.966   5.568  1.00 20.00    -0.389 OA
HETATM   10  C5  UNL     1     -35.531   5.247   6.407  1.00 20.00     0.202 C 
ENDBRANCH   4   9
TORSDOF 3
