REMARK  2 active torsions:
REMARK  status: ('A' for Active; 'I' for Inactive)
REMARK    1  A    between atoms: C1_1  and  C6_6 
REMARK    2  A    between atoms: C2_2  and  C7_7 
ROOT
HETATM    1  C1  UNL     1     -32.702   7.011   2.906  1.00 20.00    -0.015 C 
HETATM    2  C2  UNL     1     -33.622   6.951   3.882  1.00 20.00    -0.021 C 
ENDROOT
BRANCH   2   3
HETATM    3  C7  UNL     1     -34.305   5.710   4.439  1.00 20.00    -0.034 C 
HETATM    4  C3  UNL     1     -35.821   5.855   4.216  1.00 20.00     0.018 C 
HETATM    5  C4  UNL     1     -33.841   4.390   3.796  1.00 20.00     0.018 C 
HETATM    6  C5  UNL     1     -34.023   5.643   5.951  1.00 20.00     0.018 C 
ENDBRANCH   2   3
BRANCH   1   7
HETATM    7  C6  UNL     1     -32.084   8.287   2.434  1.00 20.00     0.141 C 
HETATM    8 CL8  UNL     1     -32.427   8.523   0.707  1.00 20.00    -0.126 Cl
ENDBRANCH   1   7
TORSDOF 2
