REMARK  0 active torsions:
REMARK  status: ('A' for Active; 'I' for Inactive)
ROOT
HETATM    1  C1  UNL     1     -32.856   5.809   2.494  1.00 20.00     0.109 C 
HETATM    2  C2  UNL     1     -32.268   6.993   3.267  1.00 20.00     0.226 C 
HETATM    3  C3  UNL     1     -33.553   6.602   5.306  1.00 20.00     0.230 C 
HETATM    4  C4  UNL     1     -34.334   5.372   4.795  1.00 20.00     0.076 C 
HETATM    5  C5  UNL     1     -31.875   8.101   2.286  1.00 20.00     0.043 C 
HETATM    6  C6  UNL     1     -34.336   7.356   6.388  1.00 20.00     0.043 C 
HETATM    7  C7  UNL     1     -35.698   5.686   4.176  1.00 20.00     0.023 C 
HETATM    8  N8  UNL     1     -33.218   7.553   4.236  1.00 20.00     0.093 N 
HETATM    9  S9  UNL     1     -33.312   4.438   3.596  1.00 20.00    -0.160 SA
HETATM   10  H24 UNL     1     -32.816   8.395   4.649  1.00 20.00     0.316 HD
ENDROOT
TORSDOF 0
