REMARK  3 active torsions:
REMARK  status: ('A' for Active; 'I' for Inactive)
REMARK    1  A    between atoms: C1_1  and  C5_5 
REMARK    2  A    between atoms: C2_2  and  C6_6 
REMARK    3  A    between atoms: C6_6  and  C7_7 
ROOT
HETATM    1  C1  UNL     1     -33.840   6.761   4.330  1.00 20.00    -0.026 C 
HETATM    2  C2  UNL     1     -33.336   5.933   3.401  1.00 20.00    -0.029 C 
ENDROOT
BRANCH   1   3
HETATM    3  C5  UNL     1     -34.665   6.358   5.482  1.00 20.00     0.008 A 
HETATM    4  C3  UNL     1     -34.125   5.323   6.416  1.00 20.00     0.009 A 
HETATM    5  C4  UNL     1     -34.215   6.755   6.852  1.00 20.00     0.009 A 
ENDBRANCH   1   3
BRANCH   2   6
HETATM    6  C6  UNL     1     -32.493   6.384   2.243  1.00 20.00     0.042 C 
BRANCH   6   7
HETATM    7  C7  UNL     1     -32.273   7.893   2.225  1.00 20.00     0.118 C 
HETATM    8 CL8  UNL     1     -31.298   8.399   0.823  1.00 20.00    -0.130 Cl
ENDBRANCH   6   7
ENDBRANCH   2   6
TORSDOF 3
