REMARK  2 active torsions:
REMARK  status: ('A' for Active; 'I' for Inactive)
REMARK    1  A    between atoms: C2_2  and  C4_4 
REMARK    2  A    between atoms: C4_4  and  C5_5 
ROOT
HETATM    1  C1  UNL     1     -32.390   6.893   3.519  1.00 20.00    -0.035 C 
HETATM    2  C2  UNL     1     -33.370   7.328   4.326  1.00 20.00    -0.030 C 
HETATM    3  C3  UNL     1     -32.453   6.832   2.048  1.00 20.00     0.036 C 
ENDROOT
BRANCH   2   4
HETATM    4  C4  UNL     1     -33.264   7.379   5.823  1.00 20.00     0.042 C 
BRANCH   4   5
HETATM    5  C5  UNL     1     -34.324   6.531   6.519  1.00 20.00     0.118 C 
HETATM    6 CL6  UNL     1     -34.180   4.810   6.083  1.00 20.00    -0.130 Cl
ENDBRANCH   4   5
ENDBRANCH   2   4
TORSDOF 2
