REMARK  3 active torsions:
REMARK  status: ('A' for Active; 'I' for Inactive)
REMARK    1  A    between atoms: C1_1  and  C3_3 
REMARK    2  A    between atoms: C2_2  and  C6_6 
REMARK    3  A    between atoms: C3_3  and  O10_10 
ROOT
HETATM    1  C1  UNL     1     -33.783   6.381   4.582  1.00 20.00     0.014 C 
HETATM    2  C2  UNL     1     -33.151   6.230   3.394  1.00 20.00    -0.067 C 
HETATM    3  C7  UNL     1     -33.691   7.581   5.481  1.00 20.00     0.056 C 
HETATM    4  C8  UNL     1     -33.278   5.037   2.506  1.00 20.00     0.044 C 
ENDROOT
BRANCH   1   5
HETATM    5  C3  UNL     1     -34.689   5.299   5.050  1.00 20.00     0.171 C 
HETATM    6  O9  UNL     1     -34.366   4.141   5.262  1.00 20.00    -0.646 OA
BRANCH   5   7
HETATM    7  O10 UNL     1     -35.941   5.790   5.203  1.00 20.00    -0.773 OA
HETATM    8  H22 UNL     1     -36.570   5.102   5.509  1.00 20.00     0.167 HD
ENDBRANCH   5   7
ENDBRANCH   1   5
BRANCH   2   9
HETATM    9  C6  UNL     1     -32.199   7.278   2.859  1.00 20.00     0.015 A 
HETATM   10  C4  UNL     1     -32.014   7.331   1.395  1.00 20.00     0.010 A 
HETATM   11  C5  UNL     1     -32.792   8.399   2.103  1.00 20.00     0.010 A 
ENDBRANCH   2   9
TORSDOF 3
