REMARK  0 active torsions:
REMARK  status: ('A' for Active; 'I' for Inactive)
ROOT
HETATM    1  C1  UNL     1     -32.615   7.038   3.468  1.00 20.00    -0.088 C 
HETATM    2  C2  UNL     1     -32.585   8.234   2.863  1.00 20.00     0.014 C 
HETATM    3  C3  UNL     1     -32.180   5.772   2.779  1.00 20.00     0.033 C 
HETATM    4  C4  UNL     1     -33.103   6.856   4.883  1.00 20.00     0.042 C 
HETATM    5  C5  UNL     1     -33.276   4.710   2.845  1.00 20.00     0.005 C 
HETATM    6  C6  UNL     1     -33.776   4.488   4.276  1.00 20.00     0.009 C 
HETATM    7  C7  UNL     1     -34.225   5.793   4.980  1.00 20.00    -0.044 C 
HETATM    8  C8  UNL     1     -34.503   5.491   6.464  1.00 20.00     0.015 C 
HETATM    9  C9  UNL     1     -35.528   6.325   4.350  1.00 20.00     0.015 C 
ENDROOT
TORSDOF 0
