REMARK  2 active torsions:
REMARK  status: ('A' for Active; 'I' for Inactive)
REMARK    1  A    between atoms: C2_2  and  C6_6 
REMARK    2  A    between atoms: C3_3  and  O7_7 
ROOT
HETATM    1  C1  UNL     1     -35.505   6.496   4.458  1.00 20.00     0.045 A 
HETATM    2  C2  UNL     1     -34.020   6.249   4.517  1.00 20.00     0.022 A 
HETATM    3  C3  UNL     1     -34.874   6.020   5.742  1.00 20.00     0.058 A 
HETATM    4  C4  UNL     1     -34.768   6.947   6.906  1.00 20.00     0.046 C 
ENDROOT
BRANCH   3   5
HETATM    5  O7  UNL     1     -35.151   4.658   6.109  1.00 20.00    -0.390 OA
HETATM    6  H19 UNL     1     -36.111   4.601   6.203  1.00 20.00     0.210 HD
ENDBRANCH   3   5
BRANCH   2   7
HETATM    7  C6  UNL     1     -33.421   5.113   3.762  1.00 20.00     0.003 C 
HETATM    8  C5  UNL     1     -33.159   5.441   2.314  1.00 20.00     0.005 C 
ENDBRANCH   2   7
TORSDOF 2
