REMARK  3 active torsions:
REMARK  status: ('A' for Active; 'I' for Inactive)
REMARK    1  A    between atoms: C6_6  and  C8_8 
REMARK    2  A    between atoms: C6_6  and  C9_9 
REMARK    3  A    between atoms: C9_9  and  O10_10 
ROOT
HETATM    1  C1  UNL     1     -32.392   6.392   1.755  1.00 20.00     0.000 C 
HETATM    2  C2  UNL     1     -32.346   5.156   2.647  1.00 20.00     0.001 C 
HETATM    3  C3  UNL     1     -32.727   7.652   2.546  1.00 20.00     0.001 C 
HETATM    4  C4  UNL     1     -33.636   4.989   3.448  1.00 20.00     0.011 C 
HETATM    5  C5  UNL     1     -34.018   7.489   3.348  1.00 20.00     0.011 C 
HETATM    6  C6  UNL     1     -34.019   6.245   4.265  1.00 20.00    -0.019 C 
ENDROOT
BRANCH   6   7
HETATM    7  C8  UNL     1     -33.046   6.441   5.444  1.00 20.00     0.007 C 
HETATM    8  C7  UNL     1     -33.402   7.647   6.241  1.00 20.00     0.006 C 
ENDBRANCH   6   7
BRANCH   6   9
HETATM    9  C9  UNL     1     -35.433   6.052   4.846  1.00 20.00     0.173 C 
BRANCH   9  10
HETATM   10  O10 UNL     1     -35.414   4.905   5.667  1.00 20.00    -0.400 OA
HETATM   11  H28 UNL     1     -36.311   4.791   6.029  1.00 20.00     0.209 HD
ENDBRANCH   9  10
ENDBRANCH   6   9
TORSDOF 3
