REMARK  3 active torsions:
REMARK  status: ('A' for Active; 'I' for Inactive)
REMARK    1  A    between atoms: C1_1  and  C6_6 
REMARK    2  A    between atoms: C2_2  and  C7_7 
REMARK    3  A    between atoms: C3_3  and  C7_7 
ROOT
HETATM    1  C1  UNL     1     -32.959   8.207   3.647  1.00 20.00    -0.026 C 
HETATM    2  C2  UNL     1     -33.052   7.184   4.510  1.00 20.00    -0.020 C 
ENDROOT
BRANCH   2   3
HETATM    3  C7  UNL     1     -34.018   7.140   5.653  1.00 20.00     0.140 C 
BRANCH   3   4
HETATM    4  C3  UNL     1     -34.903   5.913   5.471  1.00 20.00     0.176 C 
HETATM    5  O8  UNL     1     -35.614   5.913   4.426  1.00 20.00    -0.648 OA
HETATM    6  O9  UNL     1     -34.828   5.054   6.395  1.00 20.00    -0.648 OA
ENDBRANCH   3   4
ENDBRANCH   2   3
BRANCH   1   7
HETATM    7  C6  UNL     1     -32.018   8.296   2.516  1.00 20.00     0.008 A 
HETATM    8  C4  UNL     1     -32.406   7.664   1.218  1.00 20.00     0.009 A 
HETATM    9  C5  UNL     1     -32.388   9.157   1.350  1.00 20.00     0.009 A 
ENDBRANCH   1   7
TORSDOF 3
