REMARK  3 active torsions:
REMARK  status: ('A' for Active; 'I' for Inactive)
REMARK    1  A    between atoms: C4_4  and  C5_5 
REMARK    2  A    between atoms: C5_5  and  C6_6 
REMARK    3  A    between atoms: C6_6  and  N8_8 
ROOT
HETATM    1  C1  UNL     1     -32.377   7.057   1.926  1.00 20.00     0.177 C 
HETATM    2  N7  UNL     1     -32.251   7.917   1.158  1.00 20.00    -0.172 NA
HETATM    3  N8  UNL     1     -32.557   6.042   2.826  1.00 20.00    -0.329 N 
HETATM    4  H18 UNL     1     -31.872   5.986   3.615  1.00 20.00     0.171 HD
ENDROOT
BRANCH   3   5
HETATM    5  C6  UNL     1     -33.804   5.373   3.077  1.00 20.00     0.132 C 
BRANCH   5   6
HETATM    6  C5  UNL     1     -34.620   6.058   4.167  1.00 20.00     0.025 C 
BRANCH   6   7
HETATM    7  C4  UNL     1     -33.882   6.131   5.496  1.00 20.00    -0.013 A 
HETATM    8  C2  UNL     1     -33.005   7.311   5.812  1.00 20.00     0.005 A 
HETATM    9  C3  UNL     1     -34.306   7.124   6.543  1.00 20.00     0.005 A 
ENDBRANCH   6   7
ENDBRANCH   5   6
ENDBRANCH   3   5
TORSDOF 3
