REMARK  1 active torsions:
REMARK  status: ('A' for Active; 'I' for Inactive)
REMARK    1  A    between atoms: C1_1  and  C7_7 
ROOT
HETATM    1  C2  UNL     1     -34.200   6.064   7.027  1.00 20.00     0.002 C 
HETATM    2  C3  UNL     1     -33.034   6.761   6.343  1.00 20.00     0.010 C 
HETATM    3  C4  UNL     1     -34.716   4.877   6.210  1.00 20.00     0.009 C 
HETATM    4  C5  UNL     1     -33.246   8.768   4.712  1.00 20.00     0.026 A 
HETATM    5  C6  UNL     1     -34.660   6.644   4.365  1.00 20.00     0.019 C 
HETATM    6  C7  UNL     1     -32.281   7.795   4.094  1.00 20.00     0.096 A 
HETATM    7  C8  UNL     1     -33.423   7.288   4.973  1.00 20.00    -0.025 A 
HETATM    8  C9  UNL     1     -34.767   5.135   4.680  1.00 20.00    -0.047 C 
HETATM    9  C10 UNL     1     -33.634   4.361   3.975  1.00 20.00     0.015 C 
HETATM   10  C11 UNL     1     -36.104   4.607   4.123  1.00 20.00     0.015 C 
ENDROOT
BRANCH   6  11
HETATM   11  C1  UNL     1     -32.336   7.606   2.658  1.00 20.00     0.177 C 
HETATM   12  O12 UNL     1     -32.269   8.664   1.973  1.00 20.00    -0.648 OA
HETATM   13  O13 UNL     1     -32.444   6.404   2.285  1.00 20.00    -0.648 OA
ENDBRANCH   6  11
TORSDOF 1
