REMARK  0 active torsions:
REMARK  status: ('A' for Active; 'I' for Inactive)
ROOT
HETATM    1  C1  UNL     1     -34.412   4.590   4.846  1.00 20.00     0.290 C 
HETATM    2  C2  UNL     1     -34.486   5.884   6.805  1.00 20.00     0.344 C 
HETATM    3  C3  UNL     1     -34.405   5.965   4.159  1.00 20.00     0.029 C 
HETATM    4  C4  UNL     1     -35.778   6.332   3.584  1.00 20.00     0.028 C 
HETATM    5  C5  UNL     1     -33.329   6.048   3.079  1.00 20.00     0.028 C 
HETATM    6  N6  UNL     1     -35.097   4.739   6.133  1.00 20.00     0.093 N 
HETATM    7  S7  UNL     1     -34.017   7.096   5.539  1.00 20.00    -0.128 SA
HETATM    8  H18 UNL     1     -36.079   4.948   5.960  1.00 20.00     0.316 HD
ENDROOT
TORSDOF 0
