REMARK  4 active torsions:
REMARK  status: ('A' for Active; 'I' for Inactive)
REMARK    1  A    between atoms: C2_2  and  C8_8 
REMARK    2  A    between atoms: C2_2  and  C9_9 
REMARK    3  A    between atoms: C3_3  and  C8_8 
REMARK    4  A    between atoms: C3_3  and  C10_10 
ROOT
HETATM    1  C3  UNL     1     -33.337   6.529   4.559  1.00 20.00     0.138 C 
HETATM    2  O11 UNL     1     -33.126   7.474   5.324  1.00 20.00    -0.297 OA
ENDROOT
BRANCH   1   3
HETATM    3  C8  UNL     1     -32.604   6.425   3.223  1.00 20.00     0.112 C 
BRANCH   3   4
HETATM    4  C2  UNL     1     -32.254   7.790   2.689  1.00 20.00    -0.083 C 
HETATM    5  C1  UNL     1     -31.107   8.398   3.035  1.00 20.00     0.014 C 
BRANCH   4   6
HETATM    6  C9  UNL     1     -33.240   8.456   1.757  1.00 20.00     0.029 C 
HETATM    7  C4  UNL     1     -32.982   8.129   0.292  1.00 20.00     0.010 C 
ENDBRANCH   4   6
ENDBRANCH   3   4
ENDBRANCH   1   3
BRANCH   1   8
HETATM    8  C10 UNL     1     -34.328   5.406   4.929  1.00 20.00     0.010 C 
HETATM    9  C5  UNL     1     -33.861   4.092   4.289  1.00 20.00     0.022 C 
HETATM   10  C6  UNL     1     -34.424   5.257   6.453  1.00 20.00     0.022 C 
HETATM   11  C7  UNL     1     -35.725   5.752   4.385  1.00 20.00     0.022 C 
ENDBRANCH   1   8
TORSDOF 4
