REMARK  5 active torsions:
REMARK  status: ('A' for Active; 'I' for Inactive)
REMARK    1  A    between atoms: C4_4  and  C7_7 
REMARK    2  A    between atoms: C5_5  and  C9_9 
REMARK    3  A    between atoms: C6_6  and  C9_9 
REMARK    4  A    between atoms: C7_7  and  C9_9 
REMARK    5  A    between atoms: C8_8  and  C9_9 
ROOT
HETATM    1  C9  UNL     1     -33.701   6.247   5.332  1.00 20.00    -0.029 C 
ENDROOT
BRANCH   1   2
HETATM    2  C5  UNL     1     -33.090   4.854   4.967  1.00 20.00     0.006 C 
HETATM    3  C2  UNL     1     -33.547   4.240   3.649  1.00 20.00     0.006 C 
ENDBRANCH   1   2
BRANCH   1   4
HETATM    4  C6  UNL     1     -33.150   6.759   6.702  1.00 20.00     0.006 C 
HETATM    5  C3  UNL     1     -33.669   8.112   7.175  1.00 20.00     0.006 C 
ENDBRANCH   1   4
BRANCH   1   6
HETATM    6  C7  UNL     1     -33.312   7.220   4.169  1.00 20.00     0.010 C 
BRANCH   6   7
HETATM    7  C4  UNL     1     -31.812   7.417   3.924  1.00 20.00    -0.004 C 
HETATM    8  C1  UNL     1     -31.565   8.443   2.826  1.00 20.00     0.005 C 
ENDBRANCH   6   7
ENDBRANCH   1   6
BRANCH   1   9
HETATM    9  C8  UNL     1     -35.248   6.155   5.497  1.00 20.00     0.124 C 
HETATM   10 CL10 UNL     1     -36.155   6.134   3.963  1.00 20.00    -0.130 Cl
ENDBRANCH   1   9
TORSDOF 5
