REMARK  2 active torsions:
REMARK  status: ('A' for Active; 'I' for Inactive)
REMARK    1  A    between atoms: C1_1  and  C2_2 
REMARK    2  A    between atoms: C1_1  and  C3_3 
ROOT
HETATM    1  C1  UNL     1     -33.353   6.432   5.026  1.00 20.00     0.299 C 
HETATM    2  F4  UNL     1     -33.685   7.529   5.766  1.00 20.00    -0.238 F 
ENDROOT
BRANCH   1   3
HETATM    3  C2  UNL     1     -33.147   6.880   3.597  1.00 20.00     0.392 C 
HETATM    4  F5  UNL     1     -32.113   7.754   3.525  1.00 20.00    -0.211 F 
HETATM    5  F6  UNL     1     -32.810   5.810   2.834  1.00 20.00    -0.211 F 
ENDBRANCH   1   3
BRANCH   1   6
HETATM    6  C3  UNL     1     -34.466   5.419   5.170  1.00 20.00     0.392 C 
HETATM    7  F7  UNL     1     -34.576   5.026   6.462  1.00 20.00    -0.211 F 
HETATM    8  F8  UNL     1     -34.162   4.312   4.447  1.00 20.00    -0.211 F 
ENDBRANCH   1   6
TORSDOF 2
