REMARK  0 active torsions:
REMARK  status: ('A' for Active; 'I' for Inactive)
ROOT
HETATM    1  C1  UNL     1     -33.695   6.231   6.343  1.00 20.00    -0.021 C 
HETATM    2  C2  UNL     1     -34.170   4.977   6.265  1.00 20.00    -0.025 C 
HETATM    3  C3  UNL     1     -33.195   6.240   3.942  1.00 20.00    -0.076 C 
HETATM    4  C4  UNL     1     -32.231   6.799   3.208  1.00 20.00    -0.027 C 
HETATM    5  C5  UNL     1     -33.717   4.813   3.816  1.00 20.00     0.043 C 
HETATM    6  C6  UNL     1     -35.369   6.250   4.751  1.00 20.00     0.022 C 
HETATM    7  C7  UNL     1     -34.015   6.911   5.031  1.00 20.00     0.037 C 
HETATM    8  C8  UNL     1     -34.820   4.826   4.904  1.00 20.00     0.013 C 
HETATM    9  C9  UNL     1     -31.759   8.206   3.376  1.00 20.00     0.036 C 
ENDROOT
TORSDOF 0
