REMARK  3 active torsions:
REMARK  status: ('A' for Active; 'I' for Inactive)
REMARK    1  A    between atoms: C2_2  and  C6_6 
REMARK    2  A    between atoms: C6_6  and  C7_7 
REMARK    3  A    between atoms: C7_7  and  C8_8 
ROOT
HETATM    1  C6  UNL     1     -32.944   4.700   3.703  1.00 20.00     0.027 C 
ENDROOT
BRANCH   1   2
HETATM    2  C2  UNL     1     -34.397   4.881   4.035  1.00 20.00    -0.031 C 
HETATM    3  C1  UNL     1     -34.880   4.893   5.285  1.00 20.00    -0.035 C 
HETATM    4  C3  UNL     1     -34.035   4.729   6.504  1.00 20.00     0.035 C 
ENDBRANCH   1   2
BRANCH   1   5
HETATM    5  C7  UNL     1     -32.506   5.502   2.471  1.00 20.00     0.007 C 
BRANCH   5   6
HETATM    6  C8  UNL     1     -32.627   7.034   2.600  1.00 20.00    -0.022 C 
HETATM    7  C4  UNL     1     -31.760   7.524   3.763  1.00 20.00     0.009 C 
HETATM    8  C5  UNL     1     -32.224   7.760   1.316  1.00 20.00     0.009 C 
ENDBRANCH   5   6
ENDBRANCH   1   5
TORSDOF 3
