REMARK  1 active torsions:
REMARK  status: ('A' for Active; 'I' for Inactive)
REMARK    1  A    between atoms: C8_8  and  C9_9 
ROOT
HETATM    1  C1  UNL     1     -33.616   4.705   3.860  1.00 20.00     0.004 C 
HETATM    2  C2  UNL     1     -32.697   5.422   2.869  1.00 20.00     0.005 C 
HETATM    3  C5  UNL     1     -33.502   5.300   5.262  1.00 20.00     0.040 C 
HETATM    4  C6  UNL     1     -32.858   7.545   4.239  1.00 20.00     0.045 C 
HETATM    5  C7  UNL     1     -34.262   7.497   6.431  1.00 20.00     0.207 A 
HETATM    6  C9  UNL     1     -32.978   6.934   2.833  1.00 20.00    -0.008 C 
HETATM    7  C10 UNL     1     -33.698   6.786   5.225  1.00 20.00     0.083 A 
HETATM    8  O11 UNL     1     -35.069   7.205   5.279  1.00 20.00    -0.375 OA
ENDROOT
BRANCH   6   9
HETATM    9  C8  UNL     1     -32.056   7.629   1.865  1.00 20.00    -0.010 A 
HETATM   10  C3  UNL     1     -32.400   7.690   0.403  1.00 20.00     0.005 A 
HETATM   11  C4  UNL     1     -32.460   8.936   1.241  1.00 20.00     0.005 A 
ENDBRANCH   6   9
TORSDOF 1
