REMARK  1 active torsions:
REMARK  status: ('A' for Active; 'I' for Inactive)
REMARK    1  A    between atoms: C8_8  and  C9_9 
ROOT
HETATM    1  C1  UNL     1     -34.880   6.429   6.184  1.00 20.00     0.085 C 
HETATM    2  C2  UNL     1     -33.524   4.502   3.151  1.00 20.00     0.003 C 
HETATM    3  C3  UNL     1     -32.609   5.602   2.622  1.00 20.00     0.005 C 
HETATM    4  C6  UNL     1     -33.973   4.781   4.585  1.00 20.00     0.041 C 
HETATM    5  C7  UNL     1     -33.706   7.268   4.179  1.00 20.00     0.046 C 
HETATM    6  C9  UNL     1     -33.256   6.989   2.733  1.00 20.00    -0.008 C 
HETATM    7  C10 UNL     1     -34.611   6.168   4.759  1.00 20.00     0.125 C 
HETATM    8  N11 UNL     1     -35.091   6.635   7.306  1.00 20.00    -0.195 NA
HETATM    9 CL12 UNL     1     -36.216   6.207   3.945  1.00 20.00    -0.103 Cl
ENDROOT
BRANCH   6  10
HETATM   10  C8  UNL     1     -32.308   8.059   2.253  1.00 20.00    -0.010 A 
HETATM   11  C4  UNL     1     -32.217   8.390   0.789  1.00 20.00     0.005 A 
HETATM   12  C5  UNL     1     -32.842   9.369   1.743  1.00 20.00     0.005 A 
ENDBRANCH   6  10
TORSDOF 1
