REMARK  1 active torsions:
REMARK  status: ('A' for Active; 'I' for Inactive)
REMARK    1  A    between atoms: C9_9  and  C10_10 
ROOT
HETATM    1  C1  UNL     1     -33.667   6.750   5.805  1.00 20.00     0.064 C 
HETATM    2  C2  UNL     1     -33.193   4.907   2.480  1.00 20.00     0.002 C 
HETATM    3  C3  UNL     1     -33.852   5.323   3.797  1.00 20.00     0.019 C 
HETATM    4  C4  UNL     1     -32.426   6.040   1.794  1.00 20.00     0.005 C 
HETATM    5  C7  UNL     1     -33.004   7.702   3.619  1.00 20.00     0.024 C 
HETATM    6  C8  UNL     1     -33.072   6.438   4.494  1.00 20.00     0.093 C 
HETATM    7  C10 UNL     1     -33.034   7.411   2.105  1.00 20.00    -0.009 C 
HETATM    8  N11 UNL     1     -34.136   6.996   6.837  1.00 20.00    -0.197 NA
ENDROOT
BRANCH   7   9
HETATM    9  C9  UNL     1     -32.344   8.503   1.331  1.00 20.00    -0.010 A 
HETATM   10  C5  UNL     1     -32.766   8.816  -0.078  1.00 20.00     0.005 A 
HETATM   11  C6  UNL     1     -33.064   9.788   1.030  1.00 20.00     0.005 A 
ENDBRANCH   7   9
TORSDOF 1
