REMARK  1 active torsions:
REMARK  status: ('A' for Active; 'I' for Inactive)
REMARK    1  A    between atoms: C10_10  and  C11_11 
ROOT
HETATM    1  C1  UNL     1     -32.527   8.835   1.620  1.00 20.00     0.088 C 
HETATM    2  C2  UNL     1     -32.590   6.590   2.490  1.00 20.00    -0.070 C 
HETATM    3  C3  UNL     1     -32.359   7.435   1.475  1.00 20.00     0.096 C 
HETATM    4  C4  UNL     1     -32.418   5.100   2.355  1.00 20.00     0.035 C 
HETATM    5  C5  UNL     1     -33.062   7.058   3.842  1.00 20.00     0.039 C 
HETATM    6  C6  UNL     1     -33.692   4.368   2.776  1.00 20.00     0.005 C 
HETATM    7  C7  UNL     1     -34.163   4.797   4.167  1.00 20.00     0.005 C 
HETATM    8  C10 UNL     1     -34.347   6.322   4.257  1.00 20.00    -0.007 C 
HETATM    9  N12 UNL     1     -32.662   9.982   1.732  1.00 20.00    -0.192 NA
ENDROOT
BRANCH   8  10
HETATM   10  C11 UNL     1     -34.770   6.730   5.667  1.00 20.00    -0.010 A 
HETATM   11  C8  UNL     1     -33.806   6.585   6.800  1.00 20.00     0.005 A 
HETATM   12  C9  UNL     1     -34.175   7.951   6.293  1.00 20.00     0.005 A 
ENDBRANCH   8  10
TORSDOF 1
