REMARK  2 active torsions:
REMARK  status: ('A' for Active; 'I' for Inactive)
REMARK    1  A    between atoms: C3_3  and  C6_6 
REMARK    2  A    between atoms: C3_3  and  O8_8 
ROOT
HETATM    1  C1  UNL     1     -32.069   7.927   2.334  1.00 20.00     0.013 C 
HETATM    2  C2  UNL     1     -32.557   6.902   2.725  1.00 20.00    -0.103 C 
HETATM    3  C4  UNL     1     -33.798   4.883   2.057  1.00 20.00     0.034 C 
HETATM    4  C6  UNL     1     -33.149   5.641   3.210  1.00 20.00     0.159 C 
ENDROOT
BRANCH   4   5
HETATM    5  C3  UNL     1     -34.175   5.904   4.299  1.00 20.00     0.273 C 
HETATM    6  O7  UNL     1     -35.351   5.566   4.255  1.00 20.00    -0.264 OA
BRANCH   5   7
HETATM    7  O8  UNL     1     -33.579   6.570   5.334  1.00 20.00    -0.326 OA
HETATM    8  C5  UNL     1     -34.431   6.883   6.440  1.00 20.00     0.213 C 
ENDBRANCH   5   7
ENDBRANCH   4   5
TORSDOF 2
