REMARK  1 active torsions:
REMARK  status: ('A' for Active; 'I' for Inactive)
REMARK    1  A    between atoms: C1_1  and  C2_2 
ROOT
HETATM    1  C1  UNL     1     -33.927   6.178   5.877  1.00 20.00     0.401 C 
HETATM    2  F3  UNL     1     -34.840   6.018   6.866  1.00 20.00    -0.210 F 
HETATM    3  F4  UNL     1     -33.956   7.489   5.528  1.00 20.00    -0.210 F 
ENDROOT
BRANCH   1   4
HETATM    4  C2  UNL     1     -34.303   5.337   4.682  1.00 20.00     0.330 C 
HETATM    5  F5  UNL     1     -35.541   5.708   4.261  1.00 20.00    -0.227 F 
HETATM    6 CL6  UNL     1     -33.149   5.560   3.356  1.00 20.00    -0.084 Cl
ENDBRANCH   1   4
TORSDOF 1
