REMARK  0 active torsions:
REMARK  status: ('A' for Active; 'I' for Inactive)
ROOT
HETATM    1  C1  UNL     1     -32.508   7.053   2.372  1.00 20.00     0.127 C 
HETATM    2  C2  UNL     1     -32.552   7.905   3.620  1.00 20.00     0.079 C 
HETATM    3  C3  UNL     1     -32.772   5.575   2.555  1.00 20.00     0.079 C 
HETATM    4  C4  UNL     1     -33.838   7.649   4.394  1.00 20.00     0.017 C 
HETATM    5  C5  UNL     1     -34.046   5.352   3.362  1.00 20.00     0.017 C 
HETATM    6  C6  UNL     1     -34.304   4.809   6.340  1.00 20.00     0.002 C 
HETATM    7  C7  UNL     1     -35.201   5.837   5.626  1.00 20.00     0.009 C 
HETATM    8  C8  UNL     1     -33.083   5.574   5.797  1.00 20.00     0.009 C 
HETATM    9  C9  UNL     1     -34.004   6.151   4.675  1.00 20.00    -0.040 C 
HETATM   10  O10 UNL     1     -32.173   7.519   1.283  1.00 20.00    -0.298 OA
ENDROOT
TORSDOF 0
