REMARK  0 active torsions:
REMARK  status: ('A' for Active; 'I' for Inactive)
ROOT
HETATM    1  C1  UNL     1     -32.653   7.346   3.633  1.00 20.00     0.005 C 
HETATM    2  C2  UNL     1     -32.457   6.485   2.387  1.00 20.00     0.026 C 
HETATM    3  C3  UNL     1     -32.781   6.477   4.882  1.00 20.00     0.042 C 
HETATM    4  C4  UNL     1     -34.170   4.569   5.935  1.00 20.00     0.309 C 
HETATM    5  C5  UNL     1     -35.347   5.929   4.882  1.00 20.00     0.309 C 
HETATM    6  C6  UNL     1     -33.561   5.443   2.273  1.00 20.00     0.169 C 
HETATM    7  C7  UNL     1     -33.889   5.439   4.684  1.00 20.00     0.113 C 
HETATM    8  N8  UNL     1     -35.303   5.449   6.276  1.00 20.00     0.089 N 
HETATM    9  O9  UNL     1     -33.639   4.679   3.475  1.00 20.00    -0.377 OA
HETATM   10  H22 UNL     1     -36.141   4.931   6.545  1.00 20.00     0.316 HD
ENDROOT
TORSDOF 0
