REMARK  0 active torsions:
REMARK  status: ('A' for Active; 'I' for Inactive)
ROOT
HETATM    1  C1  UNL     1     -33.002   5.718   2.525  1.00 20.00     0.013 C 
HETATM    2  C2  UNL     1     -34.224   4.847   2.929  1.00 20.00     0.080 C 
HETATM    3  C3  UNL     1     -31.832   7.580   4.052  1.00 20.00     0.274 C 
HETATM    4  C4  UNL     1     -33.310   7.052   5.885  1.00 20.00     0.280 C 
HETATM    5  C5  UNL     1     -32.516   6.255   3.855  1.00 20.00     0.025 C 
HETATM    6  C6  UNL     1     -33.819   6.498   4.584  1.00 20.00     0.092 C 
HETATM    7  C7  UNL     1     -34.495   5.167   4.410  1.00 20.00     0.249 C 
HETATM    8  N8  UNL     1     -32.215   7.956   5.440  1.00 20.00     0.084 N 
HETATM    9  F9  UNL     1     -35.807   5.210   4.694  1.00 20.00    -0.206 F 
HETATM   10  F10 UNL     1     -33.926   4.226   5.196  1.00 20.00    -0.206 F 
HETATM   11  H21 UNL     1     -31.415   7.837   6.062  1.00 20.00     0.315 HD
ENDROOT
TORSDOF 0
