REMARK  1 active torsions:
REMARK  status: ('A' for Active; 'I' for Inactive)
REMARK    1  A    between atoms: C7_7  and  C10_10 
ROOT
HETATM    1  C1  UNL     1     -34.283   5.276   4.624  1.00 20.00     0.127 C 
HETATM    2  C2  UNL     1     -34.968   6.615   4.457  1.00 20.00     0.078 C 
HETATM    3  C3  UNL     1     -33.357   4.781   3.525  1.00 20.00     0.079 C 
HETATM    4  C4  UNL     1     -34.016   7.799   4.573  1.00 20.00     0.008 C 
HETATM    5  C5  UNL     1     -33.198   5.738   2.348  1.00 20.00     0.012 C 
HETATM    6  C6  UNL     1     -32.582   7.568   4.093  1.00 20.00     0.005 C 
HETATM    7  C7  UNL     1     -32.411   7.024   2.665  1.00 20.00    -0.011 C 
HETATM    8  O11 UNL     1     -34.472   4.593   5.633  1.00 20.00    -0.298 OA
ENDROOT
BRANCH   7   9
HETATM    9  C10 UNL     1     -32.723   8.099   1.620  1.00 20.00    -0.019 C 
HETATM   10  C8  UNL     1     -31.976   9.387   1.945  1.00 20.00     0.010 C 
HETATM   11  C9  UNL     1     -32.364   7.601   0.224  1.00 20.00     0.010 C 
ENDBRANCH   7   9
TORSDOF 1
