REMARK  1 active torsions:
REMARK  status: ('A' for Active; 'I' for Inactive)
REMARK    1  A    between atoms: C6_6  and  O8_8 
ROOT
HETATM    1  C1  UNL     1     -33.838   4.999   3.226  1.00 20.00     0.064 C 
HETATM    2  C2  UNL     1     -34.080   4.657   5.672  1.00 20.00     0.022 C 
HETATM    3  C3  UNL     1     -34.242   5.773   6.700  1.00 20.00     0.033 C 
HETATM    4  C4  UNL     1     -35.034   6.667   4.634  1.00 20.00     0.051 C 
HETATM    5  C5  UNL     1     -34.730   5.180   4.381  1.00 20.00     0.095 C 
HETATM    6  C6  UNL     1     -34.216   7.043   5.865  1.00 20.00     0.119 C 
HETATM    7  N7  UNL     1     -33.135   4.856   2.314  1.00 20.00    -0.197 NA
ENDROOT
BRANCH   6   8
HETATM    8  O8  UNL     1     -32.876   7.343   5.497  1.00 20.00    -0.396 OA
HETATM    9  H17 UNL     1     -32.907   8.156   4.968  1.00 20.00     0.210 HD
ENDBRANCH   6   8
TORSDOF 1
