REMARK  3 active torsions:
REMARK  status: ('A' for Active; 'I' for Inactive)
REMARK    1  A    between atoms: C2_2  and  C6_6 
REMARK    2  A    between atoms: C6_6  and  C7_7 
REMARK    3  A    between atoms: C7_7  and  C8_8 
ROOT
HETATM    1  C4  UNL     1     -33.243   5.183   2.326  1.00 20.00     0.011 C 
HETATM    2  C7  UNL     1     -32.786   6.342   3.227  1.00 20.00    -0.001 C 
ENDROOT
BRANCH   2   3
HETATM    3  C6  UNL     1     -33.944   6.877   4.105  1.00 20.00     0.038 C 
BRANCH   3   4
HETATM    4  C2  UNL     1     -34.300   5.998   5.286  1.00 20.00    -0.093 C 
HETATM    5  C1  UNL     1     -34.753   4.746   5.117  1.00 20.00     0.014 C 
HETATM    6  C3  UNL     1     -34.083   6.572   6.657  1.00 20.00     0.042 C 
ENDBRANCH   3   4
ENDBRANCH   2   3
BRANCH   2   7
HETATM    7  C8  UNL     1     -32.063   7.441   2.414  1.00 20.00     0.057 C 
HETATM    8  C5  UNL     1     -32.933   8.090   1.344  1.00 20.00     0.022 C 
HETATM    9 BR9  UNL     1     -31.337   8.862   3.553  1.00 20.00    -0.091 Br
ENDBRANCH   2   7
TORSDOF 3
