REMARK  2 active torsions:
REMARK  status: ('A' for Active; 'I' for Inactive)
REMARK    1  A    between atoms: C2_2  and  C7_7 
REMARK    2  A    between atoms: C7_7  and  C8_8 
ROOT
HETATM    1  C7  UNL     1     -34.081   6.884   4.208  1.00 20.00     0.035 C 
ENDROOT
BRANCH   1   2
HETATM    2  C2  UNL     1     -33.692   7.195   5.628  1.00 20.00    -0.030 C 
HETATM    3  C1  UNL     1     -33.783   6.315   6.636  1.00 20.00    -0.035 C 
HETATM    4  C3  UNL     1     -34.281   4.918   6.476  1.00 20.00     0.035 C 
ENDBRANCH   1   2
BRANCH   1   5
HETATM    5  C8  UNL     1     -32.925   6.936   3.173  1.00 20.00    -0.048 C 
HETATM    6  C4  UNL     1     -33.243   7.913   2.027  1.00 20.00     0.014 C 
HETATM    7  C5  UNL     1     -32.647   5.541   2.586  1.00 20.00     0.014 C 
HETATM    8  C6  UNL     1     -31.654   7.427   3.893  1.00 20.00     0.014 C 
ENDBRANCH   1   5
TORSDOF 2
