REMARK  3 active torsions:
REMARK  status: ('A' for Active; 'I' for Inactive)
REMARK    1  A    between atoms: C1_1  and  C3_3 
REMARK       I    between atoms: C3_3  and  N10_10 
REMARK    2  A    between atoms: C8_8  and  C9_9 
REMARK    3  A    between atoms: C8_8  and  N10_10 
ROOT
HETATM    1  C3  UNL     1     -32.636   6.538   2.196  1.00 20.00     0.240 C 
HETATM    2  N10 UNL     1     -32.696   6.771   3.563  1.00 20.00    -0.357 N 
HETATM    3  O11 UNL     1     -32.852   5.463   1.648  1.00 20.00    -0.269 OA
HETATM    4  H28 UNL     1     -32.473   7.697   3.923  1.00 20.00     0.162 HD
ENDROOT
BRANCH   2   5
HETATM    5  C8  UNL     1     -33.027   5.747   4.519  1.00 20.00     0.131 C 
BRANCH   5   6
HETATM    6  C9  UNL     1     -34.285   6.049   5.363  1.00 20.00    -0.035 C 
HETATM    7  C5  UNL     1     -34.553   4.915   6.367  1.00 20.00     0.016 C 
HETATM    8  C6  UNL     1     -34.135   7.379   6.122  1.00 20.00     0.016 C 
HETATM    9  C7  UNL     1     -35.491   6.162   4.411  1.00 20.00     0.016 C 
ENDBRANCH   5   6
ENDBRANCH   2   5
BRANCH   1  10
HETATM   10  C1  UNL     1     -32.269   7.765   1.437  1.00 20.00     0.070 C 
HETATM   11  C2  UNL     1     -33.040   8.859   1.503  1.00 20.00    -0.026 C 
HETATM   12  C4  UNL     1     -32.736  10.124   0.771  1.00 20.00     0.036 C 
ENDBRANCH   1  10
TORSDOF 3
