REMARK  2 active torsions:
REMARK  status: ('A' for Active; 'I' for Inactive)
REMARK    1  A    between atoms: C2_2  and  C9_9 
REMARK    2  A    between atoms: C6_6  and  C9_9 
ROOT
HETATM    1  C3  UNL     1     -33.846   4.578   4.127  1.00 20.00     0.002 C 
HETATM    2  C4  UNL     1     -32.999   5.444   3.188  1.00 20.00     0.006 C 
HETATM    3  C5  UNL     1     -34.796   5.535   4.849  1.00 20.00     0.020 C 
HETATM    4  C6  UNL     1     -33.548   6.866   3.334  1.00 20.00     0.008 C 
HETATM    5  C7  UNL     1     -34.124   6.902   4.754  1.00 20.00     0.086 C 
HETATM    6 CL10 UNL     1     -32.874   7.051   6.027  1.00 20.00    -0.125 Cl
ENDROOT
BRANCH   4   7
HETATM    7  C9  UNL     1     -32.551   7.934   3.005  1.00 20.00     0.039 C 
BRANCH   7   8
HETATM    8  C2  UNL     1     -32.389   8.146   1.519  1.00 20.00    -0.093 C 
HETATM    9  C1  UNL     1     -31.950   7.165   0.715  1.00 20.00     0.014 C 
HETATM   10  C8  UNL     1     -32.707   9.513   0.985  1.00 20.00     0.042 C 
ENDBRANCH   7   8
ENDBRANCH   4   7
TORSDOF 2
