REMARK  2 active torsions:
REMARK  status: ('A' for Active; 'I' for Inactive)
REMARK    1  A    between atoms: C5_5  and  C6_6 
REMARK    2  A    between atoms: C6_6  and  C7_7 
ROOT
HETATM    1  C1  UNL     1     -32.260   6.903   2.200  1.00 20.00     0.012 C 
HETATM    2  C2  UNL     1     -32.723   5.877   2.618  1.00 20.00    -0.117 C 
HETATM    3  C5  UNL     1     -33.289   4.615   3.124  1.00 20.00     0.098 C 
ENDROOT
BRANCH   3   4
HETATM    4  C6  UNL     1     -34.173   4.832   4.373  1.00 20.00     0.011 C 
HETATM    5  C3  UNL     1     -35.395   5.699   4.033  1.00 20.00     0.012 C 
BRANCH   4   6
HETATM    6  C7  UNL     1     -33.337   5.385   5.557  1.00 20.00     0.082 C 
HETATM    7  C4  UNL     1     -33.925   5.042   6.922  1.00 20.00     0.027 C 
HETATM    8 CL8  UNL     1     -33.098   7.159   5.458  1.00 20.00    -0.125 Cl
ENDBRANCH   4   6
ENDBRANCH   3   4
TORSDOF 2
