REMARK  2 active torsions:
REMARK  status: ('A' for Active; 'I' for Inactive)
REMARK    1  A    between atoms: C5_5  and  C6_6 
REMARK    2  A    between atoms: C6_6  and  C7_7 
ROOT
HETATM    1  C1  UNL     1     -32.204   8.005   0.937  1.00 20.00     0.012 C 
HETATM    2  C2  UNL     1     -32.237   7.774   2.115  1.00 20.00    -0.117 C 
HETATM    3  C5  UNL     1     -32.270   7.494   3.559  1.00 20.00     0.098 C 
ENDROOT
BRANCH   3   4
HETATM    4  C6  UNL     1     -33.400   6.509   3.937  1.00 20.00     0.011 C 
HETATM    5  C3  UNL     1     -33.266   5.195   3.151  1.00 20.00     0.012 C 
BRANCH   4   6
HETATM    6  C7  UNL     1     -33.457   6.308   5.474  1.00 20.00     0.082 C 
HETATM    7  C4  UNL     1     -33.579   7.616   6.251  1.00 20.00     0.027 C 
HETATM    8 CL8  UNL     1     -34.788   5.214   5.966  1.00 20.00    -0.125 Cl
ENDBRANCH   4   6
ENDBRANCH   3   4
TORSDOF 2
