REMARK  2 active torsions:
REMARK  status: ('A' for Active; 'I' for Inactive)
REMARK    1  A    between atoms: C7_7  and  C9_9 
REMARK    2  A    between atoms: C8_8  and  C9_9 
ROOT
HETATM    1  C1  UNL     1     -32.929   9.392   1.671  1.00 20.00     0.012 C 
HETATM    2  C2  UNL     1     -32.380   8.676   2.462  1.00 20.00    -0.117 C 
HETATM    3  C8  UNL     1     -31.703   7.800   3.428  1.00 20.00     0.093 C 
ENDROOT
BRANCH   3   4
HETATM    4  C9  UNL     1     -32.553   7.624   4.678  1.00 20.00     0.024 C 
BRANCH   4   5
HETATM    5  C7  UNL     1     -33.902   7.010   4.343  1.00 20.00     0.056 C 
HETATM    6  C3  UNL     1     -33.724   5.630   3.745  1.00 20.00     0.131 C 
HETATM    7  C4  UNL     1     -34.208   4.540   4.665  1.00 20.00     0.079 C 
HETATM    8  O10 UNL     1     -33.246   5.420   2.637  1.00 20.00    -0.298 OA
HETATM    9  C5  UNL     1     -34.358   5.284   5.985  1.00 20.00     0.008 C 
HETATM   10  C6  UNL     1     -34.746   6.701   5.582  1.00 20.00     0.013 C 
ENDBRANCH   4   5
ENDBRANCH   3   4
TORSDOF 2
