REMARK  2 active torsions:
REMARK  status: ('A' for Active; 'I' for Inactive)
REMARK    1  A    between atoms: C7_7  and  C9_9 
REMARK    2  A    between atoms: C8_8  and  C9_9 
ROOT
HETATM    1  C1  UNL     1     -32.324   8.601   0.365  1.00 20.00     0.012 C 
HETATM    2  C2  UNL     1     -32.312   7.959   1.380  1.00 20.00    -0.117 C 
HETATM    3  C8  UNL     1     -32.293   7.170   2.619  1.00 20.00     0.093 C 
ENDROOT
BRANCH   3   4
HETATM    4  C9  UNL     1     -33.166   7.821   3.681  1.00 20.00     0.024 C 
BRANCH   4   5
HETATM    5  C7  UNL     1     -33.161   7.014   4.964  1.00 20.00     0.056 C 
HETATM    6  C3  UNL     1     -34.057   5.794   4.899  1.00 20.00     0.131 C 
HETATM    7  C4  UNL     1     -34.889   5.637   6.147  1.00 20.00     0.079 C 
HETATM    8  O10 UNL     1     -34.107   5.022   3.950  1.00 20.00    -0.298 OA
HETATM    9  C5  UNL     1     -34.263   6.668   7.077  1.00 20.00     0.008 C 
HETATM   10  C6  UNL     1     -33.771   7.770   6.147  1.00 20.00     0.013 C 
ENDBRANCH   4   5
ENDBRANCH   3   4
TORSDOF 2
