REMARK  0 active torsions:
REMARK  status: ('A' for Active; 'I' for Inactive)
ROOT
HETATM    1  C1  UNL     1     -35.030   6.199   6.765  1.00 20.00     0.002 A 
HETATM    2  C2  UNL     1     -35.022   5.187   5.803  1.00 20.00     0.009 A 
HETATM    3  C3  UNL     1     -34.234   7.345   6.605  1.00 20.00     0.019 A 
HETATM    4  C4  UNL     1     -34.217   5.346   4.687  1.00 20.00    -0.032 A 
HETATM    5  C5  UNL     1     -33.429   6.494   4.525  1.00 20.00    -0.033 A 
HETATM    6  C6  UNL     1     -33.421   7.496   5.480  1.00 20.00     0.017 A 
HETATM    7  C7  UNL     1     -32.627   6.417   3.264  1.00 20.00     0.042 C 
HETATM    8  C8  UNL     1     -33.396   5.332   2.493  1.00 20.00     0.030 C 
HETATM    9  C9  UNL     1     -34.021   4.398   3.544  1.00 20.00     0.116 C 
HETATM   10 CL10 UNL     1     -32.899   3.102   4.008  1.00 20.00    -0.120 Cl
HETATM   11 BR11 UNL     1     -32.345   9.039   5.311  1.00 20.00    -0.051 Br
ENDROOT
TORSDOF 0
