REMARK  2 active torsions:
REMARK  status: ('A' for Active; 'I' for Inactive)
REMARK    1  A    between atoms: C1_1  and  C6_6 
REMARK    2  A    between atoms: C1_1  and  C8_8 
ROOT
HETATM    1  C2  UNL     1     -34.153   6.341   6.859  1.00 20.00     0.027 C 
HETATM    2  C3  UNL     1     -33.312   6.942   5.743  1.00 20.00     0.016 C 
HETATM    3  C4  UNL     1     -34.412   4.855   6.616  1.00 20.00     0.167 C 
HETATM    4  C5  UNL     1     -34.898   5.495   4.377  1.00 20.00     0.179 C 
HETATM    5  C6  UNL     1     -33.985   6.723   4.384  1.00 20.00     0.079 C 
HETATM    6  O10 UNL     1     -34.374   4.486   5.237  1.00 20.00    -0.390 OA
ENDROOT
BRANCH   5   7
HETATM    7  C1  UNL     1     -32.923   6.573   3.335  1.00 20.00     0.132 C 
HETATM    8  O9  UNL     1     -32.490   5.464   3.027  1.00 20.00    -0.298 OA
BRANCH   7   9
HETATM    9  C8  UNL     1     -32.431   7.857   2.694  1.00 20.00     0.074 C 
HETATM   10  C7  UNL     1     -33.211   8.223   1.444  1.00 20.00     0.013 C 
ENDBRANCH   7   9
ENDBRANCH   5   7
TORSDOF 2
