REMARK  4 active torsions:
REMARK  status: ('A' for Active; 'I' for Inactive)
REMARK    1  A    between atoms: C5_5  and  C9_9 
REMARK    2  A    between atoms: C7_7  and  C8_8 
REMARK    3  A    between atoms: C8_8  and  C9_9 
REMARK    4  A    between atoms: C9_9  and  O10_10 
ROOT
HETATM    1  C1  UNL     1     -31.645   8.019   4.364  1.00 20.00     0.012 C 
HETATM    2  C2  UNL     1     -32.064   7.123   3.683  1.00 20.00    -0.117 C 
HETATM    3  C7  UNL     1     -32.576   6.027   2.846  1.00 20.00     0.096 C 
ENDROOT
BRANCH   3   4
HETATM    4  C8  UNL     1     -33.208   4.927   3.710  1.00 20.00     0.050 C 
BRANCH   4   5
HETATM    5  C9  UNL     1     -34.383   5.401   4.593  1.00 20.00     0.059 C 
HETATM    6  C6  UNL     1     -35.314   6.327   3.849  1.00 20.00     0.046 C 
BRANCH   5   7
HETATM    7  C5  UNL     1     -33.830   6.103   5.840  1.00 20.00     0.019 A 
HETATM    8  C3  UNL     1     -34.143   7.551   6.096  1.00 20.00     0.008 A 
HETATM    9  C4  UNL     1     -34.753   6.486   6.964  1.00 20.00     0.008 A 
ENDBRANCH   5   7
BRANCH   5  10
HETATM   10  O10 UNL     1     -35.116   4.253   5.026  1.00 20.00    -0.390 OA
HETATM   11  H24 UNL     1     -35.826   4.583   5.597  1.00 20.00     0.210 HD
ENDBRANCH   5  10
ENDBRANCH   4   5
ENDBRANCH   3   4
TORSDOF 4
