REMARK  6 active torsions:
REMARK  status: ('A' for Active; 'I' for Inactive)
REMARK    1  A    between atoms: C4_4  and  C6_6 
REMARK    2  A    between atoms: C5_5  and  C7_7 
REMARK    3  A    between atoms: C6_6  and  C8_8 
REMARK    4  A    between atoms: C7_7  and  C9_9 
REMARK    5  A    between atoms: C8_8  and  C9_9 
REMARK    6  A    between atoms: C9_9  and  O10_10 
ROOT
HETATM    1  C1  UNL     1     -33.100   9.674   0.654  1.00 20.00     0.012 C 
HETATM    2  C2  UNL     1     -32.509   8.676   0.964  1.00 20.00    -0.117 C 
HETATM    3  C4  UNL     1     -31.783   7.454   1.339  1.00 20.00     0.093 C 
ENDROOT
BRANCH   3   4
HETATM    4  C6  UNL     1     -32.372   6.787   2.584  1.00 20.00     0.014 C 
BRANCH   4   5
HETATM    5  C8  UNL     1     -32.351   7.704   3.817  1.00 20.00     0.032 C 
BRANCH   5   6
HETATM    6  C9  UNL     1     -32.989   7.037   5.043  1.00 20.00     0.118 C 
BRANCH   6   7
HETATM    7  C7  UNL     1     -34.476   6.706   4.855  1.00 20.00     0.031 C 
BRANCH   7   8
HETATM    8  C5  UNL     1     -35.133   6.105   6.096  1.00 20.00    -0.002 C 
HETATM    9  C3  UNL     1     -34.479   4.788   6.487  1.00 20.00     0.005 C 
ENDBRANCH   7   8
ENDBRANCH   6   7
BRANCH   6  10
HETATM   10  O10 UNL     1     -32.874   7.910   6.168  1.00 20.00    -0.396 OA
HETATM   11  H26 UNL     1     -31.930   8.104   6.267  1.00 20.00     0.210 HD
ENDBRANCH   6  10
ENDBRANCH   5   6
ENDBRANCH   4   5
ENDBRANCH   3   4
TORSDOF 6
