REMARK  2 active torsions:
REMARK  status: ('A' for Active; 'I' for Inactive)
REMARK    1  A    between atoms: C5_5  and  N8_8 
REMARK    2  A    between atoms: C6_6  and  N8_8 
ROOT
HETATM    1  N8  UNL     1     -33.653   7.108   4.239  1.00 20.00     0.097 N 
HETATM    2  H22 UNL     1     -33.574   7.825   4.956  1.00 20.00     0.317 HD
ENDROOT
BRANCH   1   3
HETATM    3  C5  UNL     1     -34.184   5.887   4.852  1.00 20.00     0.225 A 
HETATM    4  C1  UNL     1     -35.280   5.979   5.883  1.00 20.00     0.042 A 
HETATM    5  C4  UNL     1     -33.901   5.538   6.293  1.00 20.00     0.016 A 
HETATM    6  C7  UNL     1     -33.069   6.410   7.171  1.00 20.00     0.012 C 
ENDBRANCH   1   3
BRANCH   1   7
HETATM    7  C6  UNL     1     -32.347   6.859   3.652  1.00 20.00     0.268 C 
HETATM    8  C2  UNL     1     -31.834   8.157   3.030  1.00 20.00     0.205 C 
HETATM    9  O9  UNL     1     -32.258   7.737   1.708  1.00 20.00    -0.387 OA
HETATM   10  C3  UNL     1     -32.539   6.403   2.206  1.00 20.00     0.205 C 
ENDBRANCH   1   7
TORSDOF 2
