REMARK  2 active torsions:
REMARK  status: ('A' for Active; 'I' for Inactive)
REMARK    1  A    between atoms: C8_8  and  C9_9 
REMARK    2  A    between atoms: C8_8  and  N10_10 
ROOT
HETATM    1  C1  UNL     1     -34.192   4.533   3.588  1.00 20.00     0.032 C 
HETATM    2  C2  UNL     1     -34.403   4.799   5.075  1.00 20.00     0.024 C 
HETATM    3  C3  UNL     1     -33.027   5.356   3.035  1.00 20.00     0.272 C 
HETATM    4  C4  UNL     1     -33.350   7.069   4.724  1.00 20.00     0.292 C 
HETATM    5  C5  UNL     1     -34.532   6.300   5.324  1.00 20.00     0.110 C 
HETATM    6  N10 UNL     1     -33.226   6.791   3.285  1.00 20.00     0.090 N 
HETATM    7 CL11 UNL     1     -34.639   6.616   7.079  1.00 20.00    -0.123 Cl
ENDROOT
BRANCH   6   8
HETATM    8  C8  UNL     1     -32.130   7.567   2.706  1.00 20.00     0.276 C 
BRANCH   8   9
HETATM    9  C9  UNL     1     -32.339   7.818   1.208  1.00 20.00     0.006 C 
HETATM   10  C6  UNL     1     -33.626   8.593   0.923  1.00 20.00     0.011 C 
HETATM   11  C7  UNL     1     -31.137   8.517   0.570  1.00 20.00     0.011 C 
ENDBRANCH   8   9
ENDBRANCH   6   8
TORSDOF 2
