REMARK  2 active torsions:
REMARK  status: ('A' for Active; 'I' for Inactive)
REMARK    1  A    between atoms: C5_5  and  N8_8 
REMARK    2  A    between atoms: C6_6  and  N8_8 
ROOT
HETATM    1  N8  UNL     1     -32.279   7.662   5.063  1.00 20.00     0.097 N 
HETATM    2  H22 UNL     1     -31.504   8.004   5.626  1.00 20.00     0.317 HD
ENDROOT
BRANCH   1   3
HETATM    3  C5  UNL     1     -32.437   8.537   3.898  1.00 20.00     0.225 A 
HETATM    4  C1  UNL     1     -31.310   8.707   2.912  1.00 20.00     0.042 A 
HETATM    5  C4  UNL     1     -32.569   7.997   2.495  1.00 20.00     0.016 A 
HETATM    6  C7  UNL     1     -32.542   6.538   2.194  1.00 20.00     0.012 C 
ENDBRANCH   1   3
BRANCH   1   7
HETATM    7  C6  UNL     1     -33.493   7.648   5.861  1.00 20.00     0.268 C 
HETATM    8  C2  UNL     1     -33.280   6.727   7.062  1.00 20.00     0.205 C 
HETATM    9  O9  UNL     1     -33.971   5.638   6.399  1.00 20.00    -0.387 OA
HETATM   10  C3  UNL     1     -34.405   6.536   5.346  1.00 20.00     0.205 C 
ENDBRANCH   1   7
TORSDOF 2
