REMARK  4 active torsions:
REMARK  status: ('A' for Active; 'I' for Inactive)
REMARK    1  A    between atoms: C3_3  and  C6_6 
REMARK    2  A    between atoms: C3_3  and  C7_7 
REMARK    3  A    between atoms: C5_5  and  C8_8 
REMARK    4  A    between atoms: C7_7  and  C8_8 
ROOT
HETATM    1  C1  UNL     1     -32.139   8.344   0.125  1.00 20.00     0.012 C 
HETATM    2  C2  UNL     1     -32.373   7.875   1.205  1.00 20.00    -0.117 C 
HETATM    3  C5  UNL     1     -32.658   7.305   2.530  1.00 20.00     0.093 C 
ENDROOT
BRANCH   3   4
HETATM    4  C8  UNL     1     -33.168   5.867   2.411  1.00 20.00     0.019 C 
BRANCH   4   5
HETATM    5  C7  UNL     1     -33.470   5.240   3.771  1.00 20.00     0.079 C 
BRANCH   5   6
HETATM    6  C3  UNL     1     -34.540   5.977   4.565  1.00 20.00     0.126 C 
HETATM    7  O9  UNL     1     -35.732   5.682   4.493  1.00 20.00    -0.298 OA
BRANCH   6   8
HETATM    8  C6  UNL     1     -34.041   7.125   5.427  1.00 20.00     0.074 C 
HETATM    9  C4  UNL     1     -34.315   6.911   6.904  1.00 20.00     0.013 C 
ENDBRANCH   6   8
ENDBRANCH   5   6
ENDBRANCH   4   5
ENDBRANCH   3   4
TORSDOF 4
