REMARK  3 active torsions:
REMARK  status: ('A' for Active; 'I' for Inactive)
REMARK    1  A    between atoms: C1_1  and  C5_5 
REMARK    2  A    between atoms: C1_1  and  C8_8 
REMARK    3  A    between atoms: C8_8  and  C9_9 
ROOT
HETATM    1  C1  UNL     1     -32.699   6.803   3.251  1.00 20.00     0.133 C 
HETATM    2  O10 UNL     1     -32.749   5.666   2.785  1.00 20.00    -0.297 OA
ENDROOT
BRANCH   1   3
HETATM    3  C5  UNL     1     -32.354   7.968   2.389  1.00 20.00     0.081 C 
HETATM    4  C2  UNL     1     -32.186   7.617   0.925  1.00 20.00     0.040 C 
HETATM    5  C3  UNL     1     -32.364   8.965   0.260  1.00 20.00     0.168 C 
HETATM    6  O11 UNL     1     -33.318   9.684   1.051  1.00 20.00    -0.390 OA
HETATM    7  C4  UNL     1     -33.441   9.031   2.325  1.00 20.00     0.179 C 
ENDBRANCH   1   3
BRANCH   1   8
HETATM    8  C8  UNL     1     -32.936   7.106   4.722  1.00 20.00     0.082 C 
BRANCH   8   9
HETATM    9  C9  UNL     1     -33.959   6.175   5.390  1.00 20.00    -0.016 C 
HETATM   10  C6  UNL     1     -35.328   6.269   4.710  1.00 20.00     0.010 C 
HETATM   11  C7  UNL     1     -34.096   6.525   6.873  1.00 20.00     0.010 C 
ENDBRANCH   8   9
ENDBRANCH   1   8
TORSDOF 3
