REMARK  4 active torsions:
REMARK  status: ('A' for Active; 'I' for Inactive)
REMARK    1  A    between atoms: C4_4  and  C8_8 
REMARK    2  A    between atoms: C8_8  and  C11_11 
REMARK    3  A    between atoms: C9_9  and  C10_10 
REMARK    4  A    between atoms: C10_10  and  C11_11 
ROOT
HETATM    1  C1  UNL     1     -35.035   6.333   7.287  1.00 20.00     0.002 C 
HETATM    2  C2  UNL     1     -34.381   7.463   6.487  1.00 20.00     0.006 C 
HETATM    3  C3  UNL     1     -34.807   5.051   6.486  1.00 20.00     0.020 C 
HETATM    4  C4  UNL     1     -33.623   6.777   5.346  1.00 20.00     0.004 C 
HETATM    5  C5  UNL     1     -34.480   5.540   5.081  1.00 20.00     0.086 C 
HETATM    6 CL12 UNL     1     -33.638   4.304   4.130  1.00 20.00    -0.125 Cl
ENDROOT
BRANCH   4   7
HETATM    7  C8  UNL     1     -33.442   7.679   4.135  1.00 20.00     0.010 C 
BRANCH   7   8
HETATM    8  C11 UNL     1     -32.243   7.292   3.249  1.00 20.00    -0.018 C 
HETATM    9  C7  UNL     1     -30.939   7.735   3.922  1.00 20.00     0.010 C 
BRANCH   8  10
HETATM   10  C10 UNL     1     -32.328   7.805   1.796  1.00 20.00     0.004 C 
BRANCH  10  11
HETATM   11  C9  UNL     1     -32.689   9.285   1.647  1.00 20.00    -0.004 C 
HETATM   12  C6  UNL     1     -32.673   9.712   0.186  1.00 20.00     0.005 C 
ENDBRANCH  10  11
ENDBRANCH   8  10
ENDBRANCH   7   8
ENDBRANCH   4   7
TORSDOF 4
