REMARK  0 active torsions:
REMARK  status: ('A' for Active; 'I' for Inactive)
ROOT
HETATM    1  C1  UNL     1     -32.838   6.998   3.069  1.00 20.00     0.101 C 
HETATM    2  C2  UNL     1     -34.306   6.778   6.600  1.00 20.00     0.005 C 
HETATM    3  C3  UNL     1     -34.232   5.258   6.676  1.00 20.00     0.030 C 
HETATM    4  C4  UNL     1     -33.485   7.297   5.421  1.00 20.00     0.057 C 
HETATM    5  C5  UNL     1     -34.593   4.617   5.339  1.00 20.00     0.272 C 
HETATM    6  C6  UNL     1     -33.836   6.595   4.089  1.00 20.00     0.240 C 
HETATM    7  C7  UNL     1     -35.221   7.028   3.573  1.00 20.00     0.066 C 
HETATM    8  N8  UNL     1     -32.057   7.314   2.271  1.00 20.00    -0.195 NA
HETATM    9  N9  UNL     1     -33.768   5.129   4.241  1.00 20.00     0.106 N 
HETATM   10  H21 UNL     1     -32.800   4.831   4.366  1.00 20.00     0.318 HD
ENDROOT
TORSDOF 0
