REMARK  4 active torsions:
REMARK  status: ('A' for Active; 'I' for Inactive)
REMARK    1  A    between atoms: C3_3  and  C7_7 
REMARK    2  A    between atoms: C3_3  and  C9_9 
REMARK    3  A    between atoms: C6_6  and  C8_8 
REMARK    4  A    between atoms: C7_7  and  C8_8 
ROOT
HETATM    1  C1  UNL     1     -32.987  10.013   0.425  1.00 20.00     0.012 C 
HETATM    2  C2  UNL     1     -32.712   8.943   0.893  1.00 20.00    -0.117 C 
HETATM    3  C6  UNL     1     -32.373   7.632   1.464  1.00 20.00     0.093 C 
ENDROOT
BRANCH   3   4
HETATM    4  C8  UNL     1     -33.325   7.263   2.601  1.00 20.00     0.019 C 
BRANCH   4   5
HETATM    5  C7  UNL     1     -32.951   5.920   3.226  1.00 20.00     0.079 C 
BRANCH   5   6
HETATM    6  C3  UNL     1     -33.855   5.547   4.393  1.00 20.00     0.130 C 
HETATM    7  O10 UNL     1     -34.539   4.524   4.389  1.00 20.00    -0.298 OA
BRANCH   6   8
HETATM    8  C9  UNL     1     -33.890   6.531   5.560  1.00 20.00     0.047 C 
HETATM    9  C4  UNL     1     -34.111   5.801   6.882  1.00 20.00     0.017 C 
HETATM   10  C5  UNL     1     -34.977   7.573   5.324  1.00 20.00     0.017 C 
ENDBRANCH   6   8
ENDBRANCH   5   6
ENDBRANCH   4   5
ENDBRANCH   3   4
TORSDOF 4
