REMARK  2 active torsions:
REMARK  status: ('A' for Active; 'I' for Inactive)
REMARK    1  A    between atoms: C6_6  and  C7_7 
REMARK    2  A    between atoms: C7_7  and  N9_9 
ROOT
HETATM    1  C1  UNL     1     -32.008   8.549   0.211  1.00 20.00     0.012 C 
HETATM    2  C2  UNL     1     -32.175   8.030   1.280  1.00 20.00    -0.116 C 
HETATM    3  C6  UNL     1     -32.375   7.390   2.589  1.00 20.00     0.113 C 
ENDROOT
BRANCH   3   4
HETATM    4  C7  UNL     1     -33.724   7.753   3.212  1.00 20.00     0.141 C 
BRANCH   4   5
HETATM    5  N9  UNL     1     -33.945   7.143   4.520  1.00 20.00    -0.349 N 
HETATM    6  C4  UNL     1     -33.386   7.538   5.702  1.00 20.00     0.111 A 
HETATM    7  C3  UNL     1     -33.891   6.668   6.639  1.00 20.00     0.135 A 
HETATM    8  N8  UNL     1     -34.739   5.757   6.063  1.00 20.00    -0.255 NA
HETATM    9  C5  UNL     1     -34.750   6.070   4.786  1.00 20.00     0.209 A 
ENDBRANCH   4   5
ENDBRANCH   3   4
TORSDOF 2
