REMARK  2 active torsions:
REMARK  status: ('A' for Active; 'I' for Inactive)
REMARK    1  A    between atoms: C1_1  and  C7_7 
REMARK    2  A    between atoms: C7_7  and  S10_10 
ROOT
HETATM    1  C1  UNL     1     -33.572   6.527   4.639  1.00 20.00     0.061 A 
HETATM    2  C2  UNL     1     -33.632   5.602   3.618  1.00 20.00     0.006 A 
HETATM    3  C3  UNL     1     -32.273   7.545   3.195  1.00 20.00     0.072 A 
HETATM    4  C4  UNL     1     -34.356   4.317   3.539  1.00 20.00     0.058 C 
HETATM    5  C5  UNL     1     -31.378   8.553   2.587  1.00 20.00     0.078 C 
HETATM    6  N8  UNL     1     -32.793   7.641   4.399  1.00 20.00    -0.249 NA
HETATM    7  S9  UNL     1     -32.680   6.140   2.297  1.00 20.00    -0.078 SA
ENDROOT
BRANCH   1   8
HETATM    8  C7  UNL     1     -34.273   6.422   5.979  1.00 20.00     0.093 C 
HETATM    9  C6  UNL     1     -34.006   7.625   6.882  1.00 20.00     0.028 C 
BRANCH   8  10
HETATM   10  S10 UNL     1     -33.809   4.881   6.847  1.00 20.00    -0.172 SA
HETATM   11  H21 UNL     1     -34.568   5.108   7.927  1.00 20.00     0.102 HD
ENDBRANCH   8  10
ENDBRANCH   1   8
TORSDOF 2
