REMARK  2 active torsions:
REMARK  status: ('A' for Active; 'I' for Inactive)
REMARK    1  A    between atoms: C4_4  and  C5_5 
REMARK    2  A    between atoms: C5_5  and  C7_7 
ROOT
HETATM    1  C1  UNL     1     -33.442   6.181   5.730  1.00 20.00     0.033 A 
HETATM    2  C2  UNL     1     -34.391   5.593   6.538  1.00 20.00     0.088 A 
HETATM    3  C3  UNL     1     -34.993   5.217   4.414  1.00 20.00     0.102 A 
HETATM    4  C4  UNL     1     -33.823   5.943   4.387  1.00 20.00     0.027 A 
HETATM    5  N10 UNL     1     -35.329   5.010   5.727  1.00 20.00    -0.374 N 
HETATM    6  H22 UNL     1     -36.144   4.506   6.048  1.00 20.00     0.164 HD
ENDROOT
BRANCH   4   7
HETATM    7  C5  UNL     1     -33.135   6.367   3.165  1.00 20.00     0.165 C 
HETATM    8  O11 UNL     1     -32.709   5.603   2.305  1.00 20.00    -0.292 OA
BRANCH   7   9
HETATM    9  C7  UNL     1     -32.953   7.809   2.966  1.00 20.00     0.065 A 
HETATM   10  C6  UNL     1     -31.560   8.384   2.969  1.00 20.00     0.018 A 
HETATM   11  C8  UNL     1     -32.331   8.302   1.683  1.00 20.00    -0.006 A 
HETATM   12  C9  UNL     1     -32.839   9.542   1.032  1.00 20.00     0.011 C 
ENDBRANCH   7   9
ENDBRANCH   4   7
TORSDOF 2
