REMARK  2 active torsions:
REMARK  status: ('A' for Active; 'I' for Inactive)
REMARK    1  A    between atoms: C1_1  and  C7_7 
REMARK    2  A    between atoms: C7_7  and  S10_10 
ROOT
HETATM    1  C1  UNL     1     -33.234   6.660   4.114  1.00 20.00     0.061 A 
HETATM    2  C2  UNL     1     -33.370   5.389   3.595  1.00 20.00     0.006 A 
HETATM    3  C3  UNL     1     -34.265   5.720   5.807  1.00 20.00     0.072 A 
HETATM    4  C4  UNL     1     -32.945   4.844   2.290  1.00 20.00     0.058 C 
HETATM    5  C5  UNL     1     -34.912   5.538   7.125  1.00 20.00     0.078 C 
HETATM    6  N8  UNL     1     -33.748   6.852   5.382  1.00 20.00    -0.249 NA
HETATM    7  S9  UNL     1     -34.169   4.385   4.733  1.00 20.00    -0.078 SA
ENDROOT
BRANCH   1   8
HETATM    8  C7  UNL     1     -32.585   7.841   3.421  1.00 20.00     0.093 C 
HETATM    9  C6  UNL     1     -31.116   7.592   3.084  1.00 20.00     0.028 C 
BRANCH   8  10
HETATM   10  S10 UNL     1     -33.510   8.307   1.914  1.00 20.00    -0.172 SA
HETATM   11  H21 UNL     1     -32.706   9.322   1.577  1.00 20.00     0.102 HD
ENDBRANCH   8  10
ENDBRANCH   1   8
TORSDOF 2
