REMARK  2 active torsions:
REMARK  status: ('A' for Active; 'I' for Inactive)
REMARK    1  A    between atoms: C4_4  and  C5_5 
REMARK    2  A    between atoms: C5_5  and  C6_6 
ROOT
HETATM    1  C1  UNL     1     -32.609   7.353   4.085  1.00 20.00     0.034 A 
HETATM    2  C2  UNL     1     -33.933   5.446   3.969  1.00 20.00     0.069 A 
HETATM    3  C3  UNL     1     -33.496   6.476   4.773  1.00 20.00     0.018 A 
HETATM    4  C4  UNL     1     -32.402   6.960   2.780  1.00 20.00    -0.015 A 
HETATM    5  S7  UNL     1     -33.274   5.539   2.391  1.00 20.00    -0.105 SA
HETATM    6 BR9  UNL     1     -33.985   6.736   6.572  1.00 20.00    -0.051 Br
ENDROOT
BRANCH   4   7
HETATM    7  C5  UNL     1     -31.556   7.600   1.750  1.00 20.00     0.061 C 
BRANCH   7   8
HETATM    8  C6  UNL     1     -32.326   8.455   0.730  1.00 20.00     0.119 C 
HETATM    9 CL8  UNL     1     -33.227   9.769   1.525  1.00 20.00    -0.130 Cl
ENDBRANCH   7   8
ENDBRANCH   4   7
TORSDOF 2
