REMARK  4 active torsions:
REMARK  status: ('A' for Active; 'I' for Inactive)
REMARK    1  A    between atoms: C4_4  and  C8_8 
REMARK    2  A    between atoms: C5_5  and  C9_9 
REMARK    3  A    between atoms: C8_8  and  N10_10 
REMARK    4  A    between atoms: C9_9  and  N10_10 
ROOT
HETATM    1  C7  UNL     1     -33.103   5.450   3.289  1.00 20.00     0.310 C 
HETATM    2  N10 UNL     1     -33.015   6.911   3.437  1.00 20.00     0.087 N 
ENDROOT
BRANCH   2   3
HETATM    3  C8  UNL     1     -31.836   7.431   2.801  1.00 20.00     0.277 C 
BRANCH   3   4
HETATM    4  C4  UNL     1     -32.031   7.563   1.330  1.00 20.00     0.018 A 
HETATM    5  C1  UNL     1     -31.151   8.484   0.525  1.00 20.00     0.011 A 
HETATM    6  C3  UNL     1     -32.612   8.806   0.697  1.00 20.00    -0.012 A 
HETATM    7  C6  UNL     1     -33.033   9.989   1.498  1.00 20.00     0.010 C 
ENDBRANCH   3   4
ENDBRANCH   2   3
BRANCH   2   8
HETATM    8  C9  UNL     1     -33.053   7.262   4.865  1.00 20.00     0.305 C 
BRANCH   8   9
HETATM    9  C5  UNL     1     -34.450   7.246   5.386  1.00 20.00     0.173 A 
HETATM   10  C2  UNL     1     -35.129   5.955   5.752  1.00 20.00     0.201 A 
HETATM   11  O11 UNL     1     -35.403   6.629   4.513  1.00 20.00    -0.379 OA
ENDBRANCH   8   9
ENDBRANCH   2   8
TORSDOF 4
