REMARK  2 active torsions:
REMARK  status: ('A' for Active; 'I' for Inactive)
REMARK    1  A    between atoms: C6_6  and  C8_8 
REMARK    2  A    between atoms: C8_8  and  N9_9 
ROOT
HETATM    1  C1  UNL     1     -32.356   7.397   1.488  1.00 20.00     0.157 C 
HETATM    2  N9  UNL     1     -32.479   6.623   2.368  1.00 20.00    -0.275 NA
HETATM    3  S10 UNL     1     -32.195   8.431   0.287  1.00 20.00    -0.055 SA
ENDROOT
BRANCH   2   4
HETATM    4  C8  UNL     1     -32.218   7.149   3.700  1.00 20.00     0.159 C 
BRANCH   4   5
HETATM    5  C6  UNL     1     -33.486   6.977   4.539  1.00 20.00    -0.026 C 
HETATM    6  C4  UNL     1     -33.297   7.514   5.964  1.00 20.00     0.011 C 
HETATM    7  C2  UNL     1     -34.343   6.785   6.805  1.00 20.00     0.001 C 
HETATM    8  C3  UNL     1     -34.660   5.489   6.060  1.00 20.00     0.001 C 
HETATM    9  C5  UNL     1     -33.793   5.496   4.804  1.00 20.00     0.011 C 
HETATM   10  C7  UNL     1     -34.660   7.672   3.831  1.00 20.00     0.017 C 
ENDBRANCH   4   5
ENDBRANCH   2   4
TORSDOF 2
