REMARK  3 active torsions:
REMARK  status: ('A' for Active; 'I' for Inactive)
REMARK    1  A    between atoms: C4_4  and  C8_8 
REMARK    2  A    between atoms: C7_7  and  N10_10 
REMARK    3  A    between atoms: C8_8  and  N10_10 
ROOT
HETATM    1  C1  UNL     1     -32.651   8.218   0.867  1.00 20.00     0.089 C 
HETATM    2  C7  UNL     1     -32.342   6.893   1.404  1.00 20.00     0.394 C 
HETATM    3  N9  UNL     1     -32.894   9.268   0.438  1.00 20.00    -0.195 NA
ENDROOT
BRANCH   2   4
HETATM    4  N10 UNL     1     -32.727   6.800   2.821  1.00 20.00     0.097 N 
HETATM    5  C6  UNL     1     -31.692   7.434   3.653  1.00 20.00     0.311 C 
BRANCH   4   6
HETATM    6  C8  UNL     1     -32.951   5.435   3.214  1.00 20.00     0.278 C 
BRANCH   6   7
HETATM    7  C4  UNL     1     -33.829   5.358   4.415  1.00 20.00     0.018 A 
HETATM    8  C2  UNL     1     -35.322   5.505   4.272  1.00 20.00     0.011 A 
HETATM    9  C3  UNL     1     -34.518   6.596   4.929  1.00 20.00    -0.012 A 
HETATM   10  C5  UNL     1     -34.634   6.832   6.395  1.00 20.00     0.010 C 
ENDBRANCH   6   7
ENDBRANCH   4   6
ENDBRANCH   2   4
TORSDOF 3
