REMARK  4 active torsions:
REMARK  status: ('A' for Active; 'I' for Inactive)
REMARK    1  A    between atoms: C6_6  and  C10_10 
REMARK    2  A    between atoms: C8_8  and  C9_9 
REMARK    3  A    between atoms: C9_9  and  C10_10 
REMARK    4  A    between atoms: C10_10  and  O11_11 
ROOT
HETATM    1  C1  UNL     1     -34.801   5.201   6.198  1.00 20.00    -0.031 C 
HETATM    2  C2  UNL     1     -34.423   6.420   6.605  1.00 20.00    -0.030 C 
HETATM    3  C3  UNL     1     -34.557   4.687   4.811  1.00 20.00     0.027 C 
HETATM    4  C4  UNL     1     -33.744   7.410   5.706  1.00 20.00     0.034 C 
HETATM    5  C5  UNL     1     -33.572   5.546   4.012  1.00 20.00     0.011 C 
HETATM    6  C6  UNL     1     -33.846   7.041   4.215  1.00 20.00     0.018 C 
ENDROOT
BRANCH   6   7
HETATM    7  C10 UNL     1     -32.892   7.893   3.381  1.00 20.00     0.122 C 
BRANCH   7   8
HETATM    8  C9  UNL     1     -33.283   7.881   1.901  1.00 20.00     0.032 C 
BRANCH   8   9
HETATM    9  C8  UNL     1     -32.312   8.699   1.046  1.00 20.00    -0.002 C 
HETATM   10  C7  UNL     1     -32.686   8.644  -0.427  1.00 20.00     0.005 C 
ENDBRANCH   8   9
ENDBRANCH   7   8
BRANCH   7  11
HETATM   11  O11 UNL     1     -31.571   7.389   3.546  1.00 20.00    -0.395 OA
HETATM   12  H29 UNL     1     -31.366   7.453   4.492  1.00 20.00     0.210 HD
ENDBRANCH   7  11
ENDBRANCH   6   7
TORSDOF 4
