REMARK  4 active torsions:
REMARK  status: ('A' for Active; 'I' for Inactive)
REMARK    1  A    between atoms: C8_8  and  C11_11 
REMARK    2  A    between atoms: C9_9  and  C10_10 
REMARK    3  A    between atoms: C10_10  and  C11_11 
REMARK    4  A    between atoms: C11_11  and  O12_12 
ROOT
HETATM    1  C1  UNL     1     -33.137   9.972   1.459  1.00 20.00     0.012 C 
HETATM    2  C2  UNL     1     -32.637   8.899   1.656  1.00 20.00    -0.117 C 
HETATM    3  C9  UNL     1     -32.026   7.583   1.893  1.00 20.00     0.095 C 
ENDROOT
BRANCH   3   4
HETATM    4  C10 UNL     1     -31.696   7.355   3.372  1.00 20.00     0.044 C 
BRANCH   4   5
HETATM    5  C11 UNL     1     -32.922   7.406   4.292  1.00 20.00     0.123 C 
BRANCH   5   6
HETATM    6  C8  UNL     1     -33.940   6.326   3.909  1.00 20.00     0.018 C 
HETATM    7  C6  UNL     1     -35.153   6.333   4.858  1.00 20.00     0.034 C 
HETATM    8  C4  UNL     1     -34.925   5.589   6.142  1.00 20.00    -0.030 C 
HETATM    9  C3  UNL     1     -33.901   4.745   6.329  1.00 20.00    -0.031 C 
HETATM   10  C5  UNL     1     -32.889   4.434   5.268  1.00 20.00     0.027 C 
HETATM   11  C7  UNL     1     -33.298   4.931   3.878  1.00 20.00     0.011 C 
ENDBRANCH   5   6
BRANCH   5  12
HETATM   12  O12 UNL     1     -32.510   7.188   5.637  1.00 20.00    -0.395 OA
HETATM   13  H28 UNL     1     -31.869   7.885   5.848  1.00 20.00     0.210 HD
ENDBRANCH   5  12
ENDBRANCH   4   5
ENDBRANCH   3   4
TORSDOF 4
