REMARK  4 active torsions:
REMARK  status: ('A' for Active; 'I' for Inactive)
REMARK    1  A    between atoms: C2_2  and  C10_10 
REMARK    2  A    between atoms: C7_7  and  C11_11 
REMARK    3  A    between atoms: C10_10  and  N12_12 
REMARK    4  A    between atoms: C11_11  and  N12_12 
ROOT
HETATM    1  C1  UNL     1     -32.826   8.642  -0.275  1.00 20.00    -0.109 C 
HETATM    2  C2  UNL     1     -32.535   8.627   0.891  1.00 20.00    -0.077 C 
HETATM    3  C8  UNL     1     -33.181   8.661  -1.693  1.00 20.00     0.112 C 
ENDROOT
BRANCH   2   4
HETATM    4  C10 UNL     1     -32.177   8.615   2.312  1.00 20.00     0.362 C 
BRANCH   4   5
HETATM    5  N12 UNL     1     -32.630   7.374   2.957  1.00 20.00     0.095 N 
HETATM    6  H31 UNL     1     -32.168   6.587   2.474  1.00 20.00     0.317 HD
BRANCH   5   7
HETATM    7  C11 UNL     1     -34.043   7.236   2.925  1.00 20.00     0.279 C 
BRANCH   7   8
HETATM    8  C7  UNL     1     -34.482   6.249   4.008  1.00 20.00    -0.018 C 
HETATM    9  C5  UNL     1     -34.064   6.722   5.407  1.00 20.00     0.011 C 
HETATM   10  C3  UNL     1     -34.025   5.455   6.259  1.00 20.00     0.001 C 
HETATM   11  C4  UNL     1     -33.810   4.295   5.287  1.00 20.00     0.001 C 
HETATM   12  C6  UNL     1     -33.731   4.915   3.894  1.00 20.00     0.011 C 
HETATM   13  C9  UNL     1     -36.003   6.042   3.919  1.00 20.00     0.017 C 
ENDBRANCH   7   8
ENDBRANCH   5   7
ENDBRANCH   4   5
ENDBRANCH   2   4
TORSDOF 4
