REMARK  2 active torsions:
REMARK  status: ('A' for Active; 'I' for Inactive)
REMARK    1  A    between atoms: C6_6  and  C8_8 
REMARK    2  A    between atoms: C8_8  and  N9_9 
ROOT
HETATM    1  C1  UNL     1     -32.118   7.289   2.338  1.00 20.00     0.332 C 
HETATM    2  N9  UNL     1     -32.023   6.714   3.361  1.00 20.00    -0.247 NA
HETATM    3  O10 UNL     1     -32.212   7.860   1.314  1.00 20.00    -0.260 OA
ENDROOT
BRANCH   2   4
HETATM    4  C8  UNL     1     -32.347   7.507   4.538  1.00 20.00     0.162 C 
BRANCH   4   5
HETATM    5  C6  UNL     1     -33.508   6.828   5.267  1.00 20.00    -0.026 C 
HETATM    6  C4  UNL     1     -33.026   5.652   6.127  1.00 20.00     0.011 C 
HETATM    7  C2  UNL     1     -34.251   4.758   6.300  1.00 20.00     0.001 C 
HETATM    8  C3  UNL     1     -35.171   5.062   5.117  1.00 20.00     0.001 C 
HETATM    9  C5  UNL     1     -34.458   6.127   4.286  1.00 20.00     0.011 C 
HETATM   10  C7  UNL     1     -34.252   7.872   6.116  1.00 20.00     0.017 C 
ENDBRANCH   4   5
ENDBRANCH   2   4
TORSDOF 2
