REMARK  3 active torsions:
REMARK  status: ('A' for Active; 'I' for Inactive)
REMARK    1  A    between atoms: C5_5  and  C9_9 
REMARK    2  A    between atoms: C8_8  and  N10_10 
REMARK    3  A    between atoms: C9_9  and  N10_10 
ROOT
HETATM    1  C1  UNL     1     -32.910   9.549   0.844  1.00 20.00     0.013 C 
HETATM    2  C2  UNL     1     -32.441   8.517   1.241  1.00 20.00    -0.087 C 
HETATM    3  C8  UNL     1     -31.865   7.260   1.723  1.00 20.00     0.364 C 
ENDROOT
BRANCH   3   4
HETATM    4  N10 UNL     1     -32.881   6.458   2.424  1.00 20.00     0.095 N 
HETATM    5  C7  UNL     1     -32.448   5.053   2.473  1.00 20.00     0.310 C 
BRANCH   4   6
HETATM    6  C9  UNL     1     -33.139   6.973   3.741  1.00 20.00     0.278 C 
BRANCH   6   7
HETATM    7  C5  UNL     1     -34.479   6.547   4.233  1.00 20.00     0.018 A 
HETATM    8  C3  UNL     1     -34.678   5.164   4.795  1.00 20.00     0.011 A 
HETATM    9  C4  UNL     1     -34.783   6.364   5.701  1.00 20.00    -0.012 A 
HETATM   10  C6  UNL     1     -33.764   6.594   6.764  1.00 20.00     0.010 C 
ENDBRANCH   6   7
ENDBRANCH   4   6
ENDBRANCH   3   4
TORSDOF 3
