REMARK  3 active torsions:
REMARK  status: ('A' for Active; 'I' for Inactive)
REMARK    1  A    between atoms: C5_5  and  C6_6 
REMARK    2  A    between atoms: C5_5  and  C7_7 
REMARK    3  A    between atoms: C7_7  and  C8_8 
ROOT
HETATM    1  C1  UNL     1     -33.295   4.898   2.758  1.00 20.00     0.011 C 
HETATM    2  C7  UNL     1     -33.282   6.143   3.664  1.00 20.00    -0.010 C 
ENDROOT
BRANCH   2   3
HETATM    3  C5  UNL     1     -33.403   7.432   2.803  1.00 20.00     0.020 C 
BRANCH   3   4
HETATM    4  C6  UNL     1     -32.278   7.686   1.798  1.00 20.00     0.115 C 
HETATM    5 CL9  UNL     1     -32.557   9.150   0.830  1.00 20.00    -0.130 Cl
ENDBRANCH   3   4
ENDBRANCH   2   3
BRANCH   2   6
HETATM    6  C8  UNL     1     -34.350   6.069   4.825  1.00 20.00    -0.048 C 
HETATM    7  C2  UNL     1     -34.226   7.302   5.749  1.00 20.00     0.015 C 
HETATM    8  C3  UNL     1     -34.194   4.805   5.691  1.00 20.00     0.015 C 
HETATM    9  C4  UNL     1     -35.784   6.084   4.248  1.00 20.00     0.015 C 
ENDBRANCH   2   6
TORSDOF 3
