REMARK  3 active torsions:
REMARK  status: ('A' for Active; 'I' for Inactive)
REMARK    1  A    between atoms: C5_5  and  C9_9 
REMARK    2  A    between atoms: C8_8  and  N10_10 
REMARK    3  A    between atoms: C9_9  and  N10_10 
ROOT
HETATM    1  C1  UNL     1     -32.117   8.553  -0.560  1.00 20.00     0.013 C 
HETATM    2  C2  UNL     1     -32.413   8.484   0.602  1.00 20.00    -0.087 C 
HETATM    3  C8  UNL     1     -32.777   8.403   2.018  1.00 20.00     0.364 C 
ENDROOT
BRANCH   3   4
HETATM    4  N10 UNL     1     -32.097   7.270   2.666  1.00 20.00     0.095 N 
HETATM    5  C7  UNL     1     -32.817   6.024   2.355  1.00 20.00     0.310 C 
BRANCH   4   6
HETATM    6  C9  UNL     1     -31.982   7.469   4.084  1.00 20.00     0.278 C 
BRANCH   6   7
HETATM    7  C5  UNL     1     -33.324   7.551   4.727  1.00 20.00     0.018 A 
HETATM    8  C3  UNL     1     -33.472   7.299   6.205  1.00 20.00     0.011 A 
HETATM    9  C4  UNL     1     -34.007   6.300   5.213  1.00 20.00    -0.012 A 
HETATM   10  C6  UNL     1     -35.477   6.135   5.037  1.00 20.00     0.010 C 
ENDBRANCH   6   7
ENDBRANCH   4   6
ENDBRANCH   3   4
TORSDOF 3
