REMARK  3 active torsions:
REMARK  status: ('A' for Active; 'I' for Inactive)
REMARK    1  A    between atoms: C4_4  and  C8_8 
REMARK    2  A    between atoms: C7_7  and  N10_10 
REMARK    3  A    between atoms: C8_8  and  N10_10 
ROOT
HETATM    1  C1  UNL     1     -34.452   4.978   5.474  1.00 20.00     0.089 C 
HETATM    2  C7  UNL     1     -33.845   5.897   6.436  1.00 20.00     0.394 C 
HETATM    3  N9  UNL     1     -34.932   4.246   4.713  1.00 20.00    -0.195 NA
ENDROOT
BRANCH   2   4
HETATM    4  N10 UNL     1     -33.909   7.284   5.948  1.00 20.00     0.097 N 
HETATM    5  C6  UNL     1     -33.750   8.210   7.081  1.00 20.00     0.311 C 
BRANCH   4   6
HETATM    6  C8  UNL     1     -32.923   7.527   4.931  1.00 20.00     0.278 C 
BRANCH   6   7
HETATM    7  C4  UNL     1     -33.349   6.959   3.622  1.00 20.00     0.018 A 
HETATM    8  C2  UNL     1     -32.736   7.464   2.342  1.00 20.00     0.011 A 
HETATM    9  C3  UNL     1     -32.409   6.080   2.838  1.00 20.00    -0.012 A 
HETATM   10  C5  UNL     1     -32.929   4.884   2.118  1.00 20.00     0.010 C 
ENDBRANCH   6   7
ENDBRANCH   4   6
ENDBRANCH   2   4
TORSDOF 3
