REMARK  4 active torsions:
REMARK  status: ('A' for Active; 'I' for Inactive)
REMARK    1  A    between atoms: C1_1  and  C6_6 
REMARK    2  A    between atoms: C2_2  and  C7_7 
REMARK    3  A    between atoms: C6_6  and  S9_9 
REMARK    4  A    between atoms: C8_8  and  S9_9 
ROOT
HETATM    1  C6  UNL     1     -33.141   5.742   3.059  1.00 20.00     0.101 C 
ENDROOT
BRANCH   1   2
HETATM    2  C1  UNL     1     -32.434   6.524   1.997  1.00 20.00    -0.020 C 
HETATM    3  C2  UNL     1     -32.373   7.864   1.977  1.00 20.00    -0.015 C 
BRANCH   3   4
HETATM    4  C7  UNL     1     -31.663   8.644   0.921  1.00 20.00     0.141 C 
HETATM    5 CL10 UNL     1     -32.814   9.693   0.065  1.00 20.00    -0.126 Cl
ENDBRANCH   3   4
ENDBRANCH   1   2
BRANCH   1   6
HETATM    6  S9  UNL     1     -33.106   6.642   4.623  1.00 20.00    -0.156 SA
BRANCH   6   7
HETATM    7  C8  UNL     1     -34.507   5.781   5.435  1.00 20.00    -0.003 C 
HETATM    8  C3  UNL     1     -34.176   4.289   5.534  1.00 20.00     0.026 C 
HETATM    9  C4  UNL     1     -34.695   6.377   6.833  1.00 20.00     0.026 C 
HETATM   10  C5  UNL     1     -35.769   5.994   4.594  1.00 20.00     0.026 C 
ENDBRANCH   6   7
ENDBRANCH   1   6
TORSDOF 4
