REMARK  1 active torsions:
REMARK  status: ('A' for Active; 'I' for Inactive)
REMARK    1  A    between atoms: C6_6  and  C9_9 
ROOT
HETATM    1  C1  UNL     1     -32.809   7.397   3.169  1.00 20.00    -0.085 C 
HETATM    2  C2  UNL     1     -31.823   8.292   3.310  1.00 20.00     0.014 C 
HETATM    3  C3  UNL     1     -32.641   6.094   2.439  1.00 20.00     0.059 C 
HETATM    4  C4  UNL     1     -34.184   7.587   3.749  1.00 20.00     0.065 C 
HETATM    5  C5  UNL     1     -33.093   4.946   3.336  1.00 20.00     0.172 C 
HETATM    6  C6  UNL     1     -34.599   6.361   4.572  1.00 20.00     0.128 C 
HETATM    7  O10 UNL     1     -34.425   5.152   3.817  1.00 20.00    -0.385 OA
ENDROOT
BRANCH   6   8
HETATM    8  C9  UNL     1     -33.905   6.280   5.931  1.00 20.00     0.007 C 
HETATM    9  C7  UNL     1     -34.200   7.526   6.765  1.00 20.00     0.012 C 
HETATM   10  C8  UNL     1     -34.334   5.021   6.684  1.00 20.00     0.012 C 
ENDBRANCH   6   8
TORSDOF 1
