REMARK  0 active torsions:
REMARK  status: ('A' for Active; 'I' for Inactive)
ROOT
HETATM    1  C1  UNL     1     -33.965   5.673   4.061  1.00 20.00    -0.066 C 
HETATM    2  C2  UNL     1     -33.435   5.265   2.899  1.00 20.00     0.016 C 
HETATM    3  C3  UNL     1     -34.628   4.731   5.028  1.00 20.00     0.037 C 
HETATM    4  C4  UNL     1     -33.919   7.104   4.518  1.00 20.00     0.201 C 
HETATM    5  C5  UNL     1     -34.069   4.953   6.432  1.00 20.00     0.030 C 
HETATM    6  C6  UNL     1     -34.071   6.436   6.794  1.00 20.00     0.168 C 
HETATM    7  O7  UNL     1     -33.337   7.187   5.823  1.00 20.00    -0.387 OA
ENDROOT
TORSDOF 0
