REMARK  1 active torsions:
REMARK  status: ('A' for Active; 'I' for Inactive)
REMARK    1  A    between atoms: C6_6  and  N8_8 
ROOT
HETATM    1  C1  UNL     1     -32.893   6.236   2.871  1.00 20.00     0.158 C 
HETATM    2  N8  UNL     1     -33.295   5.359   3.536  1.00 20.00    -0.265 NA
HETATM    3  S9  UNL     1     -32.326   7.404   1.947  1.00 20.00    -0.055 SA
ENDROOT
BRANCH   2   4
HETATM    4  C6  UNL     1     -34.215   5.771   4.598  1.00 20.00     0.051 C 
HETATM    5  C4  UNL     1     -33.528   6.750   5.548  1.00 20.00     0.033 C 
HETATM    6  C2  UNL     1     -34.286   6.610   6.865  1.00 20.00     0.002 C 
HETATM    7  C3  UNL     1     -34.934   5.225   6.842  1.00 20.00     0.002 C 
HETATM    8  C5  UNL     1     -34.535   4.590   5.512  1.00 20.00     0.033 C 
HETATM    9  C7  UNL     1     -35.464   6.364   3.947  1.00 20.00     0.041 C 
ENDBRANCH   2   4
TORSDOF 1
