REMARK  5 active torsions:
REMARK  status: ('A' for Active; 'I' for Inactive)
REMARK    1  A    between atoms: C4_4  and  C5_5 
REMARK    2  A    between atoms: C4_4  and  C6_6 
REMARK    3  A    between atoms: C5_5  and  C8_8 
REMARK    4  A    between atoms: C6_6  and  C9_9 
REMARK    5  A    between atoms: C7_7  and  C9_9 
ROOT
HETATM    1  C4  UNL     1     -32.883   7.037   4.292  1.00 20.00     0.001 C 
ENDROOT
BRANCH   1   2
HETATM    2  C5  UNL     1     -34.391   7.259   4.454  1.00 20.00     0.004 C 
BRANCH   2   3
HETATM    3  C8  UNL     1     -34.999   6.493   5.644  1.00 20.00    -0.023 C 
HETATM    4  C1  UNL     1     -34.374   6.897   6.980  1.00 20.00     0.009 C 
HETATM    5  C2  UNL     1     -34.832   4.986   5.431  1.00 20.00     0.009 C 
ENDBRANCH   2   3
ENDBRANCH   1   2
BRANCH   1   6
HETATM    6  C6  UNL     1     -32.341   7.801   3.079  1.00 20.00     0.005 C 
BRANCH   6   7
HETATM    7  C9  UNL     1     -32.979   7.370   1.742  1.00 20.00    -0.005 C 
HETATM    8  C3  UNL     1     -32.728   5.877   1.506  1.00 20.00     0.011 C 
BRANCH   7   9
HETATM    9  C7  UNL     1     -32.544   8.211   0.531  1.00 20.00     0.119 C 
HETATM   10 CL10 UNL     1     -32.806   9.958   0.745  1.00 20.00    -0.130 Cl
ENDBRANCH   7   9
ENDBRANCH   6   7
ENDBRANCH   1   6
TORSDOF 5
