REMARK  0 active torsions:
REMARK  status: ('A' for Active; 'I' for Inactive)
ROOT
HETATM    1  C1  UNL     1     -33.056   5.615   2.558  1.00 20.00    -0.088 C 
HETATM    2  C2  UNL     1     -33.276   5.308   1.271  1.00 20.00     0.014 C 
HETATM    3  C3  UNL     1     -32.279   6.843   2.960  1.00 20.00     0.037 C 
HETATM    4  C4  UNL     1     -33.596   4.785   3.691  1.00 20.00     0.042 C 
HETATM    5  C5  UNL     1     -34.001   7.079   4.797  1.00 20.00     0.013 C 
HETATM    6  C6  UNL     1     -32.516   7.232   4.433  1.00 20.00    -0.014 C 
HETATM    7  C7  UNL     1     -34.511   5.616   4.629  1.00 20.00    -0.044 C 
HETATM    8  C8  UNL     1     -32.028   8.655   4.698  1.00 20.00     0.010 C 
HETATM    9  C9  UNL     1     -34.552   4.923   6.004  1.00 20.00     0.015 C 
HETATM   10  C10 UNL     1     -35.947   5.652   4.069  1.00 20.00     0.015 C 
ENDROOT
TORSDOF 0
