REMARK  4 active torsions:
REMARK  status: ('A' for Active; 'I' for Inactive)
REMARK    1  A    between atoms: C1_1  and  C12_12 
REMARK    2  A    between atoms: C6_6  and  C10_10 
REMARK    3  A    between atoms: C7_7  and  C11_11 
REMARK    4  A    between atoms: C11_11  and  C12_12 
ROOT
HETATM    1  C2  UNL     1     -32.600   5.025   2.961  1.00 20.00     0.001 C 
HETATM    2  C3  UNL     1     -32.496   5.836   1.672  1.00 20.00     0.005 C 
HETATM    3  C4  UNL     1     -33.819   5.431   3.786  1.00 20.00     0.005 C 
HETATM    4  C5  UNL     1     -33.730   7.747   2.774  1.00 20.00     0.009 C 
HETATM    5  C6  UNL     1     -32.501   7.345   1.944  1.00 20.00    -0.014 C 
HETATM    6  C7  UNL     1     -33.875   6.938   4.073  1.00 20.00    -0.013 C 
ENDROOT
BRANCH   6   7
HETATM    7  C11 UNL     1     -32.838   7.355   5.119  1.00 20.00     0.015 C 
BRANCH   7   8
HETATM    8  C12 UNL     1     -33.308   7.076   6.550  1.00 20.00     0.043 C 
HETATM    9  C9  UNL     1     -34.578   7.865   6.859  1.00 20.00     0.017 C 
BRANCH   8  10
HETATM   10  C1  UNL     1     -33.603   5.607   6.803  1.00 20.00     0.235 C 
HETATM   11  O13 UNL     1     -34.695   5.156   7.134  1.00 20.00    -0.306 OA
ENDBRANCH   8  10
ENDBRANCH   7   8
ENDBRANCH   6   7
BRANCH   5  12
HETATM   12  C10 UNL     1     -32.461   8.127   0.631  1.00 20.00     0.000 C 
HETATM   13  C8  UNL     1     -32.423   9.600   0.869  1.00 20.00     0.005 C 
ENDBRANCH   5  12
TORSDOF 4
