REMARK  3 active torsions:
REMARK  status: ('A' for Active; 'I' for Inactive)
REMARK    1  A    between atoms: C3_3  and  C5_5 
REMARK    2  A    between atoms: C5_5  and  C7_7 
REMARK    3  A    between atoms: C6_6  and  C7_7 
ROOT
HETATM    1  C5  UNL     1     -33.144   7.384   4.578  1.00 20.00     0.010 C 
ENDROOT
BRANCH   1   2
HETATM    2  C3  UNL     1     -34.532   6.815   4.616  1.00 20.00    -0.014 A 
HETATM    3  C1  UNL     1     -34.741   5.341   4.827  1.00 20.00     0.005 A 
HETATM    4  C2  UNL     1     -35.110   6.315   5.911  1.00 20.00     0.005 A 
ENDBRANCH   1   2
BRANCH   1   5
HETATM    5  C7  UNL     1     -32.535   7.398   3.162  1.00 20.00    -0.004 C 
HETATM    6  C4  UNL     1     -32.384   5.984   2.591  1.00 20.00     0.011 C 
BRANCH   5   7
HETATM    7  C6  UNL     1     -33.333   8.306   2.210  1.00 20.00     0.119 C 
HETATM    8 CL8  UNL     1     -32.574   8.506   0.611  1.00 20.00    -0.130 Cl
ENDBRANCH   5   7
ENDBRANCH   1   5
TORSDOF 3
