REMARK  2 active torsions:
REMARK  status: ('A' for Active; 'I' for Inactive)
REMARK    1  A    between atoms: C5_5  and  C7_7 
REMARK    2  A    between atoms: C6_6  and  C7_7 
ROOT
HETATM    1  C3  UNL     1     -33.368   5.120   3.110  1.00 20.00     0.016 C 
HETATM    2  C4  UNL     1     -34.971   7.022   3.261  1.00 20.00     0.016 C 
HETATM    3  C7  UNL     1     -33.645   6.460   3.829  1.00 20.00    -0.032 C 
ENDROOT
BRANCH   3   4
HETATM    4  C5  UNL     1     -32.488   7.424   3.438  1.00 20.00     0.123 C 
HETATM    5 CL8  UNL     1     -32.352   7.729   1.686  1.00 20.00    -0.130 Cl
ENDBRANCH   3   4
BRANCH   3   6
HETATM    6  C6  UNL     1     -33.764   6.269   5.388  1.00 20.00    -0.014 C 
HETATM    7  C1  UNL     1     -34.864   5.283   5.811  1.00 20.00     0.010 C 
HETATM    8  C2  UNL     1     -33.970   7.579   6.164  1.00 20.00     0.010 C 
ENDBRANCH   3   6
TORSDOF 2
