REMARK  1 active torsions:
REMARK  status: ('A' for Active; 'I' for Inactive)
REMARK    1  A    between atoms: C2_2  and  C6_6 
ROOT
HETATM    1  C1  UNL     1     -34.625   7.021   4.018  1.00 20.00     0.015 A 
HETATM    2  C2  UNL     1     -33.336   6.295   3.742  1.00 20.00     0.008 A 
HETATM    3  C3  UNL     1     -33.893   6.341   5.156  1.00 20.00    -0.043 A 
HETATM    4  C4  UNL     1     -34.475   5.066   5.706  1.00 20.00     0.015 C 
HETATM    5  C5  UNL     1     -33.240   7.213   6.196  1.00 20.00     0.015 C 
ENDROOT
BRANCH   2   6
HETATM    6  C6  UNL     1     -32.120   7.052   3.331  1.00 20.00     0.120 C 
HETATM    7 CL7  UNL     1     -32.166   7.453   1.592  1.00 20.00    -0.130 Cl
ENDBRANCH   2   6
TORSDOF 1
