REMARK  4 active torsions:
REMARK  status: ('A' for Active; 'I' for Inactive)
REMARK    1  A    between atoms: C1_1  and  C5_5 
REMARK    2  A    between atoms: C2_2  and  C6_6 
REMARK    3  A    between atoms: C5_5  and  N8_8 
REMARK    4  A    between atoms: C7_7  and  N8_8 
ROOT
HETATM    1  C5  UNL     1     -32.716   6.969   3.897  1.00 20.00     0.299 C 
ENDROOT
BRANCH   1   2
HETATM    2  C1  UNL     1     -32.396   7.107   2.444  1.00 20.00     0.000 C 
HETATM    3  C2  UNL     1     -32.265   8.288   1.821  1.00 20.00    -0.014 C 
BRANCH   3   4
HETATM    4  C6  UNL     1     -31.927   8.426   0.374  1.00 20.00     0.141 C 
HETATM    5 CL9  UNL     1     -33.211   9.322  -0.465  1.00 20.00    -0.126 Cl
ENDBRANCH   3   4
ENDBRANCH   1   2
BRANCH   1   6
HETATM    6  N8  UNL     1     -33.929   6.214   4.039  1.00 20.00     0.087 N 
HETATM    7  C4  UNL     1     -33.682   4.769   3.905  1.00 20.00     0.310 C 
BRANCH   6   8
HETATM    8  C7  UNL     1     -34.580   6.480   5.332  1.00 20.00     0.268 C 
HETATM    9  C3  UNL     1     -33.723   6.035   6.468  1.00 20.00     0.037 C 
ENDBRANCH   6   8
ENDBRANCH   1   6
TORSDOF 4
