REMARK  2 active torsions:
REMARK  status: ('A' for Active; 'I' for Inactive)
REMARK    1  A    between atoms: C7_7  and  C8_8 
REMARK    2  A    between atoms: C7_7  and  N9_9 
ROOT
HETATM    1  C1  UNL     1     -33.901   4.775   4.312  1.00 20.00     0.038 C 
HETATM    2  C2  UNL     1     -33.345   5.569   3.140  1.00 20.00     0.235 C 
HETATM    3  C3  UNL     1     -33.711   7.006   5.085  1.00 20.00     0.243 C 
HETATM    4  C4  UNL     1     -34.645   5.799   5.174  1.00 20.00    -0.022 C 
HETATM    5  C5  UNL     1     -36.035   6.114   4.596  1.00 20.00     0.016 C 
HETATM    6  C6  UNL     1     -34.798   5.317   6.618  1.00 20.00     0.016 C 
HETATM    7  N9  UNL     1     -33.242   6.996   3.644  1.00 20.00    -0.069 N 
HETATM    8  H27 UNL     1     -33.918   7.554   3.105  1.00 20.00     0.280 HD
ENDROOT
BRANCH   7   9
HETATM    9  C7  UNL     1     -31.901   7.626   3.443  1.00 20.00     0.250 C 
BRANCH   9  10
HETATM   10  C8  UNL     1     -31.758   8.101   2.009  1.00 20.00     0.142 C 
HETATM   11 CL10 UNL     1     -33.021   9.280   1.582  1.00 20.00    -0.129 Cl
ENDBRANCH   9  10
ENDBRANCH   7   9
TORSDOF 2
