REMARK  3 active torsions:
REMARK  status: ('A' for Active; 'I' for Inactive)
REMARK    1  A    between atoms: C1_1  and  C5_5 
REMARK    2  A    between atoms: C1_1  and  C7_7 
REMARK    3  A    between atoms: C6_6  and  C7_7 
ROOT
HETATM    1  C3  UNL     1     -35.412   5.244   4.389  1.00 20.00     0.023 C 
HETATM    2  C4  UNL     1     -33.327   3.953   4.789  1.00 20.00     0.023 C 
HETATM    3  C7  UNL     1     -33.988   5.332   4.971  1.00 20.00     0.014 C 
ENDROOT
BRANCH   3   4
HETATM    4  C1  UNL     1     -33.176   6.397   4.196  1.00 20.00     0.148 C 
HETATM    5  O8  UNL     1     -32.704   7.378   4.776  1.00 20.00    -0.296 OA
BRANCH   4   6
HETATM    6  C5  UNL     1     -32.991   6.194   2.703  1.00 20.00     0.193 C 
HETATM    7 CL9  UNL     1     -32.056   7.531   2.009  1.00 20.00    -0.123 Cl
ENDBRANCH   4   6
ENDBRANCH   3   4
BRANCH   3   8
HETATM    8  C6  UNL     1     -34.036   5.675   6.480  1.00 20.00     0.012 C 
HETATM    9  C2  UNL     1     -34.676   7.017   6.818  1.00 20.00     0.006 C 
ENDBRANCH   3   8
TORSDOF 3
