REMARK  2 active torsions:
REMARK  status: ('A' for Active; 'I' for Inactive)
REMARK    1  A    between atoms: C1_1  and  C5_5 
REMARK    2  A    between atoms: C1_1  and  C6_6 
ROOT
HETATM    1  C2  UNL     1     -34.113   5.039   4.688  1.00 20.00     0.023 C 
HETATM    2  C3  UNL     1     -34.946   5.368   5.915  1.00 20.00     0.075 C 
HETATM    3  C4  UNL     1     -33.391   7.352   4.986  1.00 20.00     0.086 C 
HETATM    4  C5  UNL     1     -33.891   6.354   3.951  1.00 20.00     0.066 C 
HETATM    5  S8  UNL     1     -34.304   6.958   6.504  1.00 20.00    -0.168 SA
ENDROOT
BRANCH   4   6
HETATM    6  C1  UNL     1     -32.891   6.173   2.853  1.00 20.00     0.145 C 
HETATM    7  O7  UNL     1     -32.790   5.094   2.270  1.00 20.00    -0.296 OA
BRANCH   6   8
HETATM    8  C6  UNL     1     -32.043   7.382   2.531  1.00 20.00     0.193 C 
HETATM    9 CL9  UNL     1     -33.057   8.737   2.012  1.00 20.00    -0.123 Cl
ENDBRANCH   6   8
ENDBRANCH   4   6
TORSDOF 2
