REMARK  1 active torsions:
REMARK  status: ('A' for Active; 'I' for Inactive)
REMARK    1  A    between atoms: C7_7  and  C8_8 
ROOT
HETATM    1  C1  UNL     1     -32.655   8.684   1.485  1.00 20.00     0.064 C 
HETATM    2  C2  UNL     1     -33.074   8.245   3.928  1.00 20.00     0.020 C 
HETATM    3  C3  UNL     1     -32.710   6.316   2.339  1.00 20.00     0.020 C 
HETATM    4  C4  UNL     1     -32.817   7.317   5.118  1.00 20.00     0.015 C 
HETATM    5  C5  UNL     1     -32.451   5.384   3.524  1.00 20.00     0.015 C 
HETATM    6  C6  UNL     1     -32.343   7.768   2.667  1.00 20.00     0.093 C 
HETATM    7  C7  UNL     1     -33.138   5.849   4.814  1.00 20.00     0.093 C 
HETATM    8  N9  UNL     1     -32.893   9.379   0.587  1.00 20.00    -0.197 NA
ENDROOT
BRANCH   7   9
HETATM    9  C8  UNL     1     -34.595   5.630   4.746  1.00 20.00     0.391 C 
HETATM   10  F10 UNL     1     -35.170   5.999   5.900  1.00 20.00    -0.171 F 
HETATM   11  F11 UNL     1     -35.122   6.353   3.747  1.00 20.00    -0.171 F 
HETATM   12  F12 UNL     1     -34.855   4.332   4.527  1.00 20.00    -0.171 F 
ENDBRANCH   7   9
TORSDOF 1
