REMARK  4 active torsions:
REMARK  status: ('A' for Active; 'I' for Inactive)
REMARK    1  A    between atoms: C5_5  and  C8_8 
REMARK    2  A    between atoms: C6_6  and  C9_9 
REMARK    3  A    between atoms: C9_9  and  C10_10 
REMARK    4  A    between atoms: C10_10  and  O11_11 
ROOT
HETATM    1  C1  UNL     1     -31.849   8.367   3.225  1.00 20.00     0.005 C 
HETATM    2  C2  UNL     1     -33.263   6.507   2.267  1.00 20.00     0.005 C 
HETATM    3  C3  UNL     1     -32.157   7.874   4.637  1.00 20.00     0.005 C 
HETATM    4  C4  UNL     1     -33.571   6.014   3.680  1.00 20.00     0.005 C 
HETATM    5  C5  UNL     1     -31.911   7.227   2.200  1.00 20.00    -0.015 C 
HETATM    6  C6  UNL     1     -33.510   7.154   4.704  1.00 20.00    -0.013 C 
ENDROOT
BRANCH   6   7
HETATM    7  C9  UNL     1     -33.772   6.628   6.114  1.00 20.00     0.030 C 
BRANCH   7   8
HETATM    8  C10 UNL     1     -35.242   6.314   6.326  1.00 20.00     0.164 C 
BRANCH   8   9
HETATM    9  O11 UNL     1     -35.630   5.313   5.396  1.00 20.00    -0.401 OA
HETATM   10  H31 UNL     1     -36.570   5.133   5.554  1.00 20.00     0.209 HD
ENDBRANCH   8   9
ENDBRANCH   7   8
ENDBRANCH   6   7
BRANCH   5  11
HETATM   11  C8  UNL     1     -31.650   7.754   0.790  1.00 20.00     0.000 C 
HETATM   12  C7  UNL     1     -32.681   8.752   0.375  1.00 20.00     0.005 C 
ENDBRANCH   5  11
TORSDOF 4
