REMARK  1 active torsions:
REMARK  status: ('A' for Active; 'I' for Inactive)
REMARK    1  A    between atoms: C7_7  and  C8_8 
ROOT
HETATM    1  C1  UNL     1     -32.339   7.787   2.280  1.00 20.00     0.064 C 
HETATM    2  C2  UNL     1     -33.119   4.400   3.882  1.00 20.00     0.002 C 
HETATM    3  C3  UNL     1     -32.610   5.403   2.851  1.00 20.00     0.019 C 
HETATM    4  C4  UNL     1     -34.562   4.692   4.288  1.00 20.00     0.013 C 
HETATM    5  C5  UNL     1     -34.222   7.137   3.738  1.00 20.00     0.032 C 
HETATM    6  C6  UNL     1     -32.769   6.849   3.333  1.00 20.00     0.093 C 
HETATM    7  C7  UNL     1     -34.772   6.135   4.766  1.00 20.00     0.095 C 
HETATM    8  N9  UNL     1     -32.000   8.526   1.452  1.00 20.00    -0.197 NA
ENDROOT
BRANCH   7   9
HETATM    9  C8  UNL     1     -34.174   6.364   6.157  1.00 20.00     0.391 C 
HETATM   10  F10 UNL     1     -34.717   5.507   7.033  1.00 20.00    -0.171 F 
HETATM   11  F11 UNL     1     -32.849   6.171   6.121  1.00 20.00    -0.171 F 
HETATM   12  F12 UNL     1     -34.424   7.618   6.560  1.00 20.00    -0.171 F 
ENDBRANCH   7   9
TORSDOF 1
