REMARK  1 active torsions:
REMARK  status: ('A' for Active; 'I' for Inactive)
REMARK    1  A    between atoms: C6_6  and  C8_8 
ROOT
HETATM    1  C1  UNL     1     -32.985   8.127   3.790  1.00 20.00     0.016 C 
HETATM    2  C2  UNL     1     -33.739   6.030   2.582  1.00 20.00     0.016 C 
HETATM    3  C3  UNL     1     -31.865   8.317   2.767  1.00 20.00     0.041 C 
HETATM    4  C4  UNL     1     -32.621   6.215   1.556  1.00 20.00     0.041 C 
HETATM    5  C5  UNL     1     -32.673   8.498   0.291  1.00 20.00     0.207 A 
HETATM    6  C6  UNL     1     -33.363   6.642   3.944  1.00 20.00     0.093 C 
HETATM    7  C7  UNL     1     -32.236   7.661   1.471  1.00 20.00     0.082 A 
HETATM    8  O9  UNL     1     -31.344   7.964   0.389  1.00 20.00    -0.375 OA
ENDROOT
BRANCH   6   9
HETATM    9  C8  UNL     1     -34.509   6.480   4.941  1.00 20.00     0.391 C 
HETATM   10  F10 UNL     1     -34.156   6.987   6.132  1.00 20.00    -0.171 F 
HETATM   11  F11 UNL     1     -35.598   7.127   4.498  1.00 20.00    -0.171 F 
HETATM   12  F12 UNL     1     -34.806   5.181   5.091  1.00 20.00    -0.171 F 
ENDBRANCH   6   9
TORSDOF 1
