REMARK  3 active torsions:
REMARK  status: ('A' for Active; 'I' for Inactive)
REMARK    1  A    between atoms: C2_2  and  C3_3 
REMARK    2  A    between atoms: C2_2  and  S8_8 
REMARK    3  A    between atoms: C3_3  and  C4_4 
ROOT
HETATM    1  C3  UNL     1     -33.065   5.426   4.523  1.00 20.00     0.174 C 
HETATM    2 BR9  UNL     1     -33.434   3.578   3.938  1.00 20.00    -0.081 Br
ENDROOT
BRANCH   1   3
HETATM    3  C2  UNL     1     -32.925   6.286   3.267  1.00 20.00     0.098 C 
BRANCH   3   4
HETATM    4  S8  UNL     1     -32.061   7.856   3.580  1.00 20.00    -0.172 SA
HETATM    5  C1  UNL     1     -32.075   8.500   1.891  1.00 20.00     0.089 C 
ENDBRANCH   3   4
ENDBRANCH   1   3
BRANCH   1   6
HETATM    6  C4  UNL     1     -34.183   5.841   5.464  1.00 20.00     0.401 C 
HETATM    7  F5  UNL     1     -33.944   7.042   6.034  1.00 20.00    -0.170 F 
HETATM    8  F6  UNL     1     -34.348   4.938   6.458  1.00 20.00    -0.170 F 
HETATM    9  F7  UNL     1     -35.367   5.928   4.818  1.00 20.00    -0.170 F 
ENDBRANCH   1   6
TORSDOF 3
