REMARK  4 active torsions:
REMARK  status: ('A' for Active; 'I' for Inactive)
REMARK    1  A    between atoms: C5_5  and  C6_6 
REMARK    2  A    between atoms: C6_6  and  C8_8 
REMARK    3  A    between atoms: C7_7  and  C8_8 
REMARK    4  A    between atoms: C7_7  and  C9_9 
ROOT
HETATM    1  C1  UNL     1     -32.882   9.592   0.200  1.00 20.00     0.012 C 
HETATM    2  C2  UNL     1     -32.505   8.500   0.525  1.00 20.00    -0.117 C 
HETATM    3  C5  UNL     1     -32.040   7.164   0.920  1.00 20.00     0.093 C 
ENDROOT
BRANCH   3   4
HETATM    4  C6  UNL     1     -32.827   6.596   2.105  1.00 20.00     0.016 C 
BRANCH   4   5
HETATM    5  C8  UNL     1     -32.724   7.393   3.428  1.00 20.00    -0.016 C 
HETATM    6  C3  UNL     1     -31.376   7.076   4.088  1.00 20.00     0.010 C 
BRANCH   5   7
HETATM    7  C7  UNL     1     -33.911   7.087   4.371  1.00 20.00     0.024 C 
BRANCH   7   8
HETATM    8  C9  UNL     1     -33.819   5.777   5.172  1.00 20.00     0.078 C 
HETATM    9  C4  UNL     1     -34.162   4.578   4.294  1.00 20.00     0.026 C 
HETATM   10 CL10 UNL     1     -34.931   5.802   6.573  1.00 20.00    -0.125 Cl
ENDBRANCH   7   8
ENDBRANCH   5   7
ENDBRANCH   4   5
ENDBRANCH   3   4
TORSDOF 4
