REMARK  2 active torsions:
REMARK  status: ('A' for Active; 'I' for Inactive)
REMARK    1  A    between atoms: C8_8  and  C11_11 
REMARK    2  A    between atoms: C8_8  and  O12_12 
ROOT
HETATM    1  C1  UNL     1     -32.834   9.042   0.363  1.00 20.00     0.012 C 
HETATM    2  C2  UNL     1     -32.911   8.975   1.559  1.00 20.00    -0.115 C 
HETATM    3  C11 UNL     1     -33.009   8.910   3.019  1.00 20.00     0.131 C 
ENDROOT
BRANCH   3   4
HETATM    4  C8  UNL     1     -32.622   7.518   3.529  1.00 20.00     0.069 C 
HETATM    5  C4  UNL     1     -32.723   7.440   5.067  1.00 20.00     0.043 C 
HETATM    6  C6  UNL     1     -34.074   6.884   5.524  1.00 20.00    -0.015 C 
HETATM    7  C3  UNL     1     -34.277   5.446   5.010  1.00 20.00     0.008 C 
HETATM    8  C9  UNL     1     -34.210   6.940   7.045  1.00 20.00     0.010 C 
HETATM    9  C7  UNL     1     -33.571   5.165   3.670  1.00 20.00    -0.015 C 
HETATM   10  C5  UNL     1     -33.472   6.440   2.824  1.00 20.00     0.043 C 
HETATM   11  C10 UNL     1     -34.281   4.047   2.909  1.00 20.00     0.010 C 
BRANCH   4  12
HETATM   12  O12 UNL     1     -31.244   7.309   3.196  1.00 20.00    -0.389 OA
HETATM   13  H30 UNL     1     -31.011   6.432   3.535  1.00 20.00     0.210 HD
ENDBRANCH   4  12
ENDBRANCH   3   4
TORSDOF 2
