REMARK  0 active torsions:
REMARK  status: ('A' for Active; 'I' for Inactive)
ROOT
HETATM    1  C1  UNL     1     -31.825   7.914   1.263  1.00 20.00     0.088 C 
HETATM    2  C2  UNL     1     -32.581   7.217   3.442  1.00 20.00    -0.070 C 
HETATM    3  C3  UNL     1     -32.057   8.156   2.640  1.00 20.00     0.096 C 
HETATM    4  C4  UNL     1     -32.957   5.849   2.938  1.00 20.00     0.035 C 
HETATM    5  C5  UNL     1     -32.859   7.467   4.901  1.00 20.00     0.039 C 
HETATM    6  C6  UNL     1     -34.408   5.521   3.293  1.00 20.00     0.009 C 
HETATM    7  C7  UNL     1     -34.321   7.133   5.247  1.00 20.00    -0.011 C 
HETATM    8  C8  UNL     1     -34.720   5.704   4.793  1.00 20.00    -0.014 C 
HETATM    9  C9  UNL     1     -34.589   7.379   6.733  1.00 20.00     0.010 C 
HETATM   10  C10 UNL     1     -34.077   4.586   5.623  1.00 20.00     0.010 C 
HETATM   11  N11 UNL     1     -31.633   7.723   0.135  1.00 20.00    -0.192 NA
ENDROOT
TORSDOF 0
