REMARK  2 active torsions:
REMARK  status: ('A' for Active; 'I' for Inactive)
REMARK    1  A    between atoms: C4_4  and  C9_9 
REMARK    2  A    between atoms: C9_9  and  C10_10 
ROOT
HETATM    1  C1  UNL     1     -34.165   5.379   3.546  1.00 20.00     0.005 C 
HETATM    2  C2  UNL     1     -35.353   5.399   4.506  1.00 20.00     0.005 C 
HETATM    3  C3  UNL     1     -33.197   7.405   4.719  1.00 20.00     0.009 C 
HETATM    4  C4  UNL     1     -33.560   6.776   3.366  1.00 20.00    -0.013 C 
HETATM    5  C5  UNL     1     -35.010   6.014   5.873  1.00 20.00    -0.015 C 
HETATM    6  C6  UNL     1     -34.396   7.422   5.681  1.00 20.00    -0.015 C 
HETATM    7  C7  UNL     1     -34.134   5.061   6.696  1.00 20.00     0.010 C 
HETATM    8  C8  UNL     1     -34.013   8.090   7.002  1.00 20.00     0.010 C 
ENDROOT
BRANCH   4   9
HETATM    9  C9  UNL     1     -32.336   6.720   2.453  1.00 20.00     0.020 C 
BRANCH   9  10
HETATM   10  C10 UNL     1     -31.738   8.089   2.165  1.00 20.00     0.115 C 
HETATM   11 CL11 UNL     1     -32.909   9.181   1.391  1.00 20.00    -0.130 Cl
ENDBRANCH   9  10
ENDBRANCH   4   9
TORSDOF 2
