REMARK  0 active torsions:
REMARK  status: ('A' for Active; 'I' for Inactive)
ROOT
HETATM    1  C1  UNL     1     -32.433   8.520   0.827  1.00 20.00     0.088 C 
HETATM    2  C2  UNL     1     -32.450   7.802   3.126  1.00 20.00    -0.070 C 
HETATM    3  C3  UNL     1     -32.249   8.761   2.211  1.00 20.00     0.096 C 
HETATM    4  C4  UNL     1     -32.881   6.411   2.757  1.00 20.00     0.035 C 
HETATM    5  C5  UNL     1     -32.279   8.041   4.602  1.00 20.00     0.039 C 
HETATM    6  C6  UNL     1     -34.147   6.023   3.520  1.00 20.00     0.009 C 
HETATM    7  C7  UNL     1     -33.553   7.656   5.381  1.00 20.00    -0.011 C 
HETATM    8  C8  UNL     1     -33.989   6.205   5.043  1.00 20.00    -0.014 C 
HETATM    9  C9  UNL     1     -33.311   7.861   6.879  1.00 20.00     0.010 C 
HETATM   10  C10 UNL     1     -35.295   5.809   5.738  1.00 20.00     0.010 C 
HETATM   11  N11 UNL     1     -32.582   8.329  -0.308  1.00 20.00    -0.192 NA
ENDROOT
TORSDOF 0
