REMARK  4 active torsions:
REMARK  status: ('A' for Active; 'I' for Inactive)
REMARK    1  A    between atoms: C2_2  and  C6_6 
REMARK    2  A    between atoms: C6_6  and  C8_8 
REMARK    3  A    between atoms: C7_7  and  C8_8 
REMARK    4  A    between atoms: C7_7  and  C9_9 
ROOT
HETATM    1  C1  UNL     1     -32.994   9.949   0.973  1.00 20.00    -0.111 C 
HETATM    2  C2  UNL     1     -32.529   8.876   1.246  1.00 20.00    -0.107 C 
HETATM    3  C3  UNL     1     -33.563  11.254   0.641  1.00 20.00     0.112 C 
ENDROOT
BRANCH   2   4
HETATM    4  C6  UNL     1     -31.958   7.562   1.574  1.00 20.00     0.098 C 
BRANCH   4   5
HETATM    5  C8  UNL     1     -32.852   6.711   2.496  1.00 20.00    -0.006 C 
HETATM    6  C4  UNL     1     -32.257   5.312   2.704  1.00 20.00     0.011 C 
BRANCH   5   7
HETATM    7  C7  UNL     1     -33.159   7.354   3.871  1.00 20.00     0.020 C 
BRANCH   7   8
HETATM    8  C9  UNL     1     -34.425   6.859   4.577  1.00 20.00     0.054 C 
HETATM    9  C5  UNL     1     -34.862   7.823   5.673  1.00 20.00     0.022 C 
HETATM   10 BR10 UNL     1     -34.103   5.114   5.409  1.00 20.00    -0.092 Br
ENDBRANCH   7   8
ENDBRANCH   5   7
ENDBRANCH   4   5
ENDBRANCH   2   4
TORSDOF 4
