REMARK  5 active torsions:
REMARK  status: ('A' for Active; 'I' for Inactive)
REMARK    1  A    between atoms: C6_6  and  C7_7 
REMARK    2  A    between atoms: C6_6  and  C9_9 
REMARK    3  A    between atoms: C7_7  and  C11_11 
REMARK    4  A    between atoms: C8_8  and  C9_9 
REMARK    5  A    between atoms: C8_8  and  C10_10 
ROOT
HETATM    1  C6  UNL     1     -32.118   7.211   2.517  1.00 20.00     0.005 C 
ENDROOT
BRANCH   1   2
HETATM    2  C7  UNL     1     -33.060   7.602   1.366  1.00 20.00     0.008 C 
BRANCH   2   3
HETATM    3  C11 UNL     1     -32.629   8.841   0.535  1.00 20.00    -0.051 C 
HETATM    4  C3  UNL     1     -33.171   8.767  -0.902  1.00 20.00     0.014 C 
HETATM    5  C4  UNL     1     -31.098   8.978   0.493  1.00 20.00     0.014 C 
HETATM    6  C5  UNL     1     -33.214  10.098   1.210  1.00 20.00     0.014 C 
ENDBRANCH   2   3
ENDBRANCH   1   2
BRANCH   1   7
HETATM    7  C9  UNL     1     -32.626   6.015   3.353  1.00 20.00    -0.017 C 
HETATM    8  C1  UNL     1     -33.238   4.919   2.470  1.00 20.00     0.010 C 
BRANCH   7   9
HETATM    9  C8  UNL     1     -33.680   6.451   4.401  1.00 20.00     0.024 C 
BRANCH   9  10
HETATM   10  C10 UNL     1     -33.154   7.227   5.619  1.00 20.00     0.078 C 
HETATM   11  C2  UNL     1     -34.180   7.225   6.749  1.00 20.00     0.026 C 
HETATM   12 CL12 UNL     1     -32.773   8.921   5.191  1.00 20.00    -0.125 Cl
ENDBRANCH   9  10
ENDBRANCH   7   9
ENDBRANCH   1   7
TORSDOF 5
