REMARK  4 active torsions:
REMARK  status: ('A' for Active; 'I' for Inactive)
REMARK    1  A    between atoms: C2_2  and  C7_7 
REMARK    2  A    between atoms: C3_3  and  C8_8 
REMARK    3  A    between atoms: C7_7  and  C9_9 
REMARK    4  A    between atoms: C8_8  and  C9_9 
ROOT
HETATM    1  C1  UNL     1     -32.566   8.620   1.344  1.00 20.00    -0.111 C 
HETATM    2  C2  UNL     1     -32.331   7.870   2.253  1.00 20.00    -0.107 C 
HETATM    3  C4  UNL     1     -32.855   9.531   0.238  1.00 20.00     0.112 C 
ENDROOT
BRANCH   2   4
HETATM    4  C7  UNL     1     -32.041   6.955   3.367  1.00 20.00     0.098 C 
BRANCH   4   5
HETATM    5  C9  UNL     1     -32.979   5.732   3.426  1.00 20.00    -0.001 C 
HETATM    6  C6  UNL     1     -33.200   5.127   2.034  1.00 20.00     0.011 C 
BRANCH   5   7
HETATM    7  C8  UNL     1     -34.316   6.074   4.109  1.00 20.00     0.083 C 
BRANCH   7   8
HETATM    8  C3  UNL     1     -34.228   6.161   5.625  1.00 20.00     0.123 C 
HETATM    9  C5  UNL     1     -33.754   4.918   6.333  1.00 20.00     0.091 C 
HETATM   10  O10 UNL     1     -34.550   7.165   6.259  1.00 20.00    -0.298 OA
ENDBRANCH   7   8
ENDBRANCH   5   7
ENDBRANCH   4   5
ENDBRANCH   2   4
TORSDOF 4
