REMARK  5 active torsions:
REMARK  status: ('A' for Active; 'I' for Inactive)
REMARK    1  A    between atoms: C6_6  and  C7_7 
REMARK    2  A    between atoms: C6_6  and  C9_9 
REMARK    3  A    between atoms: C7_7  and  C11_11 
REMARK    4  A    between atoms: C8_8  and  C10_10 
REMARK    5  A    between atoms: C8_8  and  C11_11 
ROOT
HETATM    1  C4  UNL     1     -33.042   4.448   3.947  1.00 20.00     0.015 C 
HETATM    2  C5  UNL     1     -34.923   5.990   3.456  1.00 20.00     0.015 C 
HETATM    3  C11 UNL     1     -33.405   5.935   3.724  1.00 20.00    -0.046 C 
ENDROOT
BRANCH   3   4
HETATM    4  C7  UNL     1     -32.679   6.466   2.454  1.00 20.00     0.009 C 
BRANCH   4   5
HETATM    5  C6  UNL     1     -33.229   7.776   1.870  1.00 20.00     0.004 C 
BRANCH   5   6
HETATM    6  C9  UNL     1     -32.413   8.296   0.668  1.00 20.00    -0.023 C 
HETATM    7  C1  UNL     1     -30.954   8.579   1.028  1.00 20.00     0.009 C 
HETATM    8  C2  UNL     1     -33.063   9.566   0.112  1.00 20.00     0.009 C 
ENDBRANCH   5   6
ENDBRANCH   4   5
ENDBRANCH   3   4
BRANCH   3   9
HETATM    9  C8  UNL     1     -33.024   6.707   5.025  1.00 20.00     0.028 C 
BRANCH   9  10
HETATM   10  C10 UNL     1     -34.043   6.746   6.179  1.00 20.00     0.079 C 
HETATM   11  C3  UNL     1     -34.264   5.346   6.748  1.00 20.00     0.026 C 
HETATM   12 CL12 UNL     1     -33.495   7.801   7.515  1.00 20.00    -0.125 Cl
ENDBRANCH   9  10
ENDBRANCH   3   9
TORSDOF 5
