REMARK  2 active torsions:
REMARK  status: ('A' for Active; 'I' for Inactive)
REMARK    1  A    between atoms: C5_5  and  C7_7 
REMARK    2  A    between atoms: C6_6  and  S11_11 
ROOT
HETATM    1  C1  UNL     1     -33.131   4.732   2.653  1.00 20.00     0.002 C 
HETATM    2  C2  UNL     1     -33.962   4.863   3.932  1.00 20.00     0.013 C 
HETATM    3  C3  UNL     1     -32.556   6.061   2.153  1.00 20.00     0.015 C 
HETATM    4  C4  UNL     1     -33.592   7.369   4.064  1.00 20.00     0.028 C 
HETATM    5  C5  UNL     1     -33.478   6.022   4.807  1.00 20.00     0.094 C 
HETATM    6  C6  UNL     1     -33.456   7.234   2.539  1.00 20.00     0.045 C 
ENDROOT
BRANCH   5   7
HETATM    7  C7  UNL     1     -34.232   6.067   6.134  1.00 20.00     0.391 C 
HETATM    8  F8  UNL     1     -33.755   7.061   6.898  1.00 20.00    -0.171 F 
HETATM    9  F9  UNL     1     -35.538   6.277   5.913  1.00 20.00    -0.171 F 
HETATM   10  F10 UNL     1     -34.082   4.905   6.787  1.00 20.00    -0.171 F 
ENDBRANCH   5   7
BRANCH   6  11
HETATM   11  S11 UNL     1     -32.829   8.789   1.820  1.00 20.00    -0.177 SA
HETATM   12  H22 UNL     1     -33.797   9.561   2.329  1.00 20.00     0.102 HD
ENDBRANCH   6  11
TORSDOF 2
