REMARK  0 active torsions:
REMARK  status: ('A' for Active; 'I' for Inactive)
ROOT
HETATM    1  C1  UNL     1     -32.565   8.295   0.609  1.00 20.00     0.088 C 
HETATM    2  C2  UNL     1     -32.613   6.639   2.358  1.00 20.00    -0.070 C 
HETATM    3  C3  UNL     1     -32.722   6.961   1.061  1.00 20.00     0.096 C 
HETATM    4  C4  UNL     1     -32.319   7.671   3.417  1.00 20.00     0.035 C 
HETATM    5  C5  UNL     1     -32.821   5.241   2.866  1.00 20.00     0.039 C 
HETATM    6  C6  UNL     1     -32.867   7.267   4.793  1.00 20.00     0.009 C 
HETATM    7  C7  UNL     1     -33.990   5.162   3.876  1.00 20.00    -0.011 C 
HETATM    8  C8  UNL     1     -34.187   6.490   4.670  1.00 20.00    -0.014 C 
HETATM    9  C9  UNL     1     -33.798   3.918   4.750  1.00 20.00     0.010 C 
HETATM   10  C10 UNL     1     -34.849   6.321   6.037  1.00 20.00     0.010 C 
HETATM   11  N11 UNL     1     -32.437   9.385   0.232  1.00 20.00    -0.192 NA
ENDROOT
TORSDOF 0
