REMARK  2 active torsions:
REMARK  status: ('A' for Active; 'I' for Inactive)
REMARK    1  A    between atoms: C1_1  and  C5_5 
REMARK    2  A    between atoms: C1_1  and  C11_11 
ROOT
HETATM    1  C2  UNL     1     -33.063   5.607   2.402  1.00 20.00     0.012 C 
HETATM    2  C3  UNL     1     -33.363   4.816   3.672  1.00 20.00     0.005 C 
HETATM    3  C4  UNL     1     -33.287   7.762   3.691  1.00 20.00     0.016 C 
HETATM    4  C5  UNL     1     -32.422   6.953   2.726  1.00 20.00     0.056 C 
HETATM    5  C6  UNL     1     -34.240   5.612   4.654  1.00 20.00    -0.015 C 
HETATM    6  C7  UNL     1     -33.593   6.981   4.981  1.00 20.00    -0.014 C 
HETATM    7  C8  UNL     1     -34.493   4.768   5.906  1.00 20.00     0.010 C 
HETATM    8  C9  UNL     1     -34.470   7.840   5.898  1.00 20.00     0.010 C 
ENDROOT
BRANCH   4   9
HETATM    9  C1  UNL     1     -32.220   7.737   1.465  1.00 20.00     0.130 C 
HETATM   10  O12 UNL     1     -31.529   7.296   0.548  1.00 20.00    -0.298 OA
BRANCH   9  11
HETATM   11  C11 UNL     1     -32.913   9.085   1.400  1.00 20.00     0.074 C 
HETATM   12  C10 UNL     1     -32.632   9.824   0.104  1.00 20.00     0.013 C 
ENDBRANCH   9  11
ENDBRANCH   4   9
TORSDOF 2
