REMARK  3 active torsions:
REMARK  status: ('A' for Active; 'I' for Inactive)
REMARK    1  A    between atoms: C6_6  and  C7_7 
REMARK    2  A    between atoms: C6_6  and  C8_8 
REMARK    3  A    between atoms: C7_7  and  C9_9 
ROOT
HETATM    1  C1  UNL     1     -32.921   4.129   4.690  1.00 20.00     0.011 C 
HETATM    2  C7  UNL     1     -33.094   5.657   4.655  1.00 20.00    -0.010 C 
ENDROOT
BRANCH   2   3
HETATM    3  C6  UNL     1     -32.907   6.186   3.203  1.00 20.00     0.024 C 
BRANCH   3   4
HETATM    4  C8  UNL     1     -32.526   7.671   3.057  1.00 20.00     0.078 C 
HETATM    5  C2  UNL     1     -31.242   7.980   3.823  1.00 20.00     0.026 C 
HETATM    6 CL10 UNL     1     -32.289   8.113   1.340  1.00 20.00    -0.125 Cl
ENDBRANCH   3   4
ENDBRANCH   2   3
BRANCH   2   7
HETATM    7  C9  UNL     1     -34.444   6.137   5.321  1.00 20.00    -0.048 C 
HETATM    8  C3  UNL     1     -34.302   7.499   6.027  1.00 20.00     0.015 C 
HETATM    9  C4  UNL     1     -35.555   6.264   4.253  1.00 20.00     0.015 C 
HETATM   10  C5  UNL     1     -34.938   5.105   6.359  1.00 20.00     0.015 C 
ENDBRANCH   2   7
TORSDOF 3
