REMARK  4 active torsions:
REMARK  status: ('A' for Active; 'I' for Inactive)
REMARK    1  A    between atoms: C3_3  and  C4_4 
REMARK    2  A    between atoms: C4_4  and  C5_5 
REMARK    3  A    between atoms: C5_5  and  C6_6 
REMARK    4  A    between atoms: C5_5  and  O7_7 
ROOT
HETATM    1  C5  UNL     1     -34.186   7.061   5.636  1.00 20.00     0.226 C 
ENDROOT
BRANCH   1   2
HETATM    2  C4  UNL     1     -33.604   7.792   4.424  1.00 20.00     0.045 C 
BRANCH   2   3
HETATM    3  C3  UNL     1     -32.556   6.977   3.724  1.00 20.00    -0.012 A 
HETATM    4  C1  UNL     1     -32.943   6.034   2.619  1.00 20.00     0.005 A 
HETATM    5  C2  UNL     1     -32.179   7.290   2.302  1.00 20.00     0.005 A 
ENDBRANCH   2   3
ENDBRANCH   1   2
BRANCH   1   6
HETATM    6  C6  UNL     1     -34.788   5.725   5.247  1.00 20.00     0.413 C 
HETATM    7  F8  UNL     1     -35.824   5.876   4.395  1.00 20.00    -0.168 F 
HETATM    8  F9  UNL     1     -35.238   5.060   6.333  1.00 20.00    -0.168 F 
HETATM    9  F10 UNL     1     -33.867   4.941   4.645  1.00 20.00    -0.168 F 
ENDBRANCH   1   6
BRANCH   1  10
HETATM   10  O7  UNL     1     -33.140   6.829   6.577  1.00 20.00    -0.387 OA
HETATM   11  H19 UNL     1     -32.793   7.700   6.824  1.00 20.00     0.210 HD
ENDBRANCH   1  10
TORSDOF 4
