REMARK  2 active torsions:
REMARK  status: ('A' for Active; 'I' for Inactive)
REMARK    1  A    between atoms: C5_5  and  C6_6 
REMARK    2  A    between atoms: C6_6  and  C7_7 
ROOT
HETATM    1  C1  UNL     1     -34.046   4.390   4.519  1.00 20.00     0.027 C 
HETATM    2  C2  UNL     1     -33.872   5.432   3.419  1.00 20.00     0.009 C 
HETATM    3  C3  UNL     1     -34.772   4.988   5.717  1.00 20.00     0.167 C 
HETATM    4  C4  UNL     1     -34.024   7.180   5.215  1.00 20.00     0.172 C 
HETATM    5  C5  UNL     1     -33.245   6.713   3.983  1.00 20.00     0.010 C 
HETATM    6  O8  UNL     1     -34.087   6.144   6.197  1.00 20.00    -0.391 OA
ENDROOT
BRANCH   5   7
HETATM    7  C6  UNL     1     -33.181   7.807   2.924  1.00 20.00     0.017 C 
BRANCH   7   8
HETATM    8  C7  UNL     1     -32.309   7.385   1.757  1.00 20.00     0.085 C 
HETATM    9 BR9  UNL     1     -32.302   8.787   0.405  1.00 20.00    -0.096 Br
ENDBRANCH   7   8
ENDBRANCH   5   7
TORSDOF 2
