REMARK  2 active torsions:
REMARK  status: ('A' for Active; 'I' for Inactive)
REMARK    1  A    between atoms: C5_5  and  C6_6 
REMARK    2  A    between atoms: C6_6  and  C7_7 
ROOT
HETATM    1  C1  UNL     1     -33.741   6.387   6.701  1.00 20.00     0.027 C 
HETATM    2  C2  UNL     1     -34.069   7.559   5.779  1.00 20.00     0.009 C 
HETATM    3  C3  UNL     1     -34.478   5.129   6.263  1.00 20.00     0.167 C 
HETATM    4  C4  UNL     1     -34.657   5.868   4.021  1.00 20.00     0.172 C 
HETATM    5  C5  UNL     1     -33.924   7.185   4.298  1.00 20.00     0.010 C 
HETATM    6  O8  UNL     1     -34.209   4.831   4.894  1.00 20.00    -0.391 OA
ENDROOT
BRANCH   5   7
HETATM    7  C6  UNL     1     -32.451   7.086   3.892  1.00 20.00     0.021 C 
BRANCH   7   8
HETATM    8  C7  UNL     1     -32.236   7.114   2.385  1.00 20.00     0.115 C 
HETATM    9 CL9  UNL     1     -32.825   8.625   1.654  1.00 20.00    -0.130 Cl
ENDBRANCH   7   8
ENDBRANCH   5   7
TORSDOF 2
