REMARK  4 active torsions:
REMARK  status: ('A' for Active; 'I' for Inactive)
REMARK    1  A    between atoms: C5_5  and  C7_7 
REMARK    2  A    between atoms: C6_6  and  C8_8 
REMARK    3  A    between atoms: C7_7  and  C8_8 
REMARK    4  A    between atoms: C8_8  and  O9_9 
ROOT
HETATM    1  C8  UNL     1     -34.628   5.543   4.569  1.00 20.00     0.122 C 
ENDROOT
BRANCH   1   2
HETATM    2  C6  UNL     1     -33.871   5.626   5.888  1.00 20.00     0.014 A 
HETATM    3  C3  UNL     1     -33.361   6.950   6.386  1.00 20.00     0.007 A 
HETATM    4  C4  UNL     1     -34.507   6.274   7.086  1.00 20.00     0.007 A 
ENDBRANCH   1   2
BRANCH   1   5
HETATM    5  C7  UNL     1     -33.667   5.503   3.380  1.00 20.00     0.036 C 
BRANCH   5   6
HETATM    6  C5  UNL     1     -32.809   6.759   3.289  1.00 20.00    -0.012 A 
HETATM    7  C1  UNL     1     -32.137   7.126   1.994  1.00 20.00     0.005 A 
HETATM    8  C2  UNL     1     -33.289   7.947   2.502  1.00 20.00     0.005 A 
ENDBRANCH   5   6
ENDBRANCH   1   5
BRANCH   1   9
HETATM    9  O9  UNL     1     -35.422   4.360   4.568  1.00 20.00    -0.395 OA
HETATM   10  H23 UNL     1     -36.032   4.435   5.318  1.00 20.00     0.210 HD
ENDBRANCH   1   9
TORSDOF 4
