REMARK  1 active torsions:
REMARK  status: ('A' for Active; 'I' for Inactive)
REMARK    1  A    between atoms: C5_5  and  C8_8 
ROOT
HETATM    1  C1  UNL     1     -32.090   9.035   0.488  1.00 20.00     0.018 A 
HETATM    2  C2  UNL     1     -31.756   8.179   1.533  1.00 20.00     0.010 A 
HETATM    3  C3  UNL     1     -32.975  10.076   0.734  1.00 20.00     0.087 A 
HETATM    4  C4  UNL     1     -33.186   9.435   2.983  1.00 20.00     0.095 A 
HETATM    5  C5  UNL     1     -32.307   8.377   2.795  1.00 20.00    -0.038 A 
HETATM    6  N12 UNL     1     -33.491  10.244   1.959  1.00 20.00    -0.375 N 
HETATM    7  H28 UNL     1     -34.139  11.015   2.118  1.00 20.00     0.164 HD
ENDROOT
BRANCH   5   8
HETATM    8  C8  UNL     1     -31.954   7.454   3.950  1.00 20.00     0.025 C 
HETATM    9  C6  UNL     1     -32.004   8.125   5.337  1.00 20.00     0.011 C 
HETATM   10  C7  UNL     1     -33.315   7.684   6.003  1.00 20.00     0.021 C 
HETATM   11  C10 UNL     1     -34.010   6.763   5.002  1.00 20.00     0.086 C 
HETATM   12  C9  UNL     1     -32.874   6.224   4.131  1.00 20.00     0.008 C 
HETATM   13 CL13 UNL     1     -34.926   5.477   5.816  1.00 20.00    -0.125 Cl
HETATM   14  C11 UNL     1     -33.343   5.545   2.851  1.00 20.00     0.012 C 
ENDBRANCH   5   8
TORSDOF 1
