REMARK  1 active torsions:
REMARK  status: ('A' for Active; 'I' for Inactive)
REMARK    1  A    between atoms: C5_5  and  C9_9 
ROOT
HETATM    1  C1  UNL     1     -32.798   9.789   1.219  1.00 20.00     0.012 C 
HETATM    2  C2  UNL     1     -32.644   8.768   1.832  1.00 20.00    -0.117 C 
HETATM    3  C9  UNL     1     -32.448   7.520   2.578  1.00 20.00     0.098 C 
ENDROOT
BRANCH   3   4
HETATM    4  C5  UNL     1     -33.655   7.205   3.451  1.00 20.00     0.002 C 
HETATM    5  C3  UNL     1     -33.944   8.313   4.477  1.00 20.00     0.007 C 
HETATM    6  C4  UNL     1     -34.347   7.605   5.774  1.00 20.00     0.021 C 
HETATM    7  C7  UNL     1     -34.542   6.145   5.385  1.00 20.00     0.086 C 
HETATM    8  C6  UNL     1     -33.491   5.929   4.294  1.00 20.00     0.005 C 
HETATM    9 CL10 UNL     1     -34.338   5.060   6.771  1.00 20.00    -0.125 Cl
HETATM   10  C8  UNL     1     -33.701   4.649   3.494  1.00 20.00     0.012 C 
ENDBRANCH   3   4
TORSDOF 1
