REMARK  2 active torsions:
REMARK  status: ('A' for Active; 'I' for Inactive)
REMARK    1  A    between atoms: C4_4  and  C5_5 
REMARK    2  A    between atoms: C5_5  and  C7_7 
ROOT
HETATM    1  C3  UNL     1     -33.569   4.142   5.313  1.00 20.00     0.207 A 
HETATM    2  C5  UNL     1     -33.958   5.431   4.628  1.00 20.00     0.085 A 
HETATM    3  O8  UNL     1     -34.921   4.404   4.905  1.00 20.00    -0.375 OA
ENDROOT
BRANCH   2   4
HETATM    4  C4  UNL     1     -33.683   5.671   3.150  1.00 20.00     0.022 A 
HETATM    5  C1  UNL     1     -32.353   6.153   2.640  1.00 20.00     0.008 A 
HETATM    6  C2  UNL     1     -32.817   4.758   2.327  1.00 20.00     0.008 A 
ENDBRANCH   2   4
BRANCH   2   7
HETATM    7  C7  UNL     1     -34.143   6.651   5.480  1.00 20.00     0.036 C 
HETATM    8  C6  UNL     1     -34.500   6.316   6.902  1.00 20.00     0.008 C 
ENDBRANCH   2   7
TORSDOF 2
