REMARK  1 active torsions:
REMARK  status: ('A' for Active; 'I' for Inactive)
REMARK    1  A    between atoms: C7_7  and  C9_9 
ROOT
HETATM    1  C1  UNL     1     -32.186   7.309   1.410  1.00 20.00     0.012 C 
HETATM    2  C2  UNL     1     -32.281   7.289   2.607  1.00 20.00    -0.117 C 
HETATM    3  C9  UNL     1     -32.390   7.265   4.070  1.00 20.00     0.098 C 
ENDROOT
BRANCH   3   4
HETATM    4  C7  UNL     1     -33.851   7.361   4.518  1.00 20.00     0.008 C 
HETATM    5  C5  UNL     1     -33.961   7.800   5.982  1.00 20.00     0.013 C 
HETATM    6  C4  UNL     1     -33.769   6.531   6.803  1.00 20.00     0.079 C 
HETATM    7  C3  UNL     1     -34.324   5.474   5.885  1.00 20.00     0.131 C 
HETATM    8  C6  UNL     1     -34.547   5.987   4.476  1.00 20.00     0.056 C 
HETATM    9  O10 UNL     1     -34.563   4.327   6.240  1.00 20.00    -0.298 OA
HETATM   10  C8  UNL     1     -36.040   6.090   4.197  1.00 20.00     0.018 C 
ENDBRANCH   3   4
TORSDOF 1
