REMARK  1 active torsions:
REMARK  status: ('A' for Active; 'I' for Inactive)
REMARK    1  A    between atoms: C4_4  and  C7_7 
ROOT
HETATM    1  C5  UNL     1     -31.826   7.770   4.464  1.00 20.00     0.011 C 
HETATM    2  C6  UNL     1     -33.107   7.718   5.304  1.00 20.00     0.021 C 
HETATM    3  C7  UNL     1     -32.091   6.955   3.182  1.00 20.00     0.025 C 
HETATM    4  C8  UNL     1     -33.300   6.056   3.544  1.00 20.00     0.008 C 
HETATM    5  C9  UNL     1     -34.131   6.980   4.447  1.00 20.00     0.086 C 
HETATM    6  C10 UNL     1     -32.824   4.762   4.215  1.00 20.00     0.012 C 
HETATM    7 CL12 UNL     1     -35.365   6.166   5.425  1.00 20.00    -0.125 Cl
ENDROOT
BRANCH   3   8
HETATM    8  C4  UNL     1     -32.352   7.765   1.921  1.00 20.00    -0.029 A 
HETATM    9  C1  UNL     1     -32.920   9.059   1.842  1.00 20.00     0.034 A 
HETATM   10  C2  UNL     1     -32.956   9.379   0.505  1.00 20.00     0.142 A 
HETATM   11  O11 UNL     1     -32.448   8.365  -0.243  1.00 20.00    -0.334 OA
HETATM   12  C3  UNL     1     -32.082   7.387   0.627  1.00 20.00     0.148 A 
ENDBRANCH   3   8
TORSDOF 1
