REMARK  2 active torsions:
REMARK  status: ('A' for Active; 'I' for Inactive)
REMARK    1  A    between atoms: C3_3  and  C9_9 
REMARK    2  A    between atoms: C9_9  and  C10_10 
ROOT
HETATM    1  C1  UNL     1     -32.311   7.501   4.651  1.00 20.00     0.006 C 
HETATM    2  C2  UNL     1     -31.805   8.284   3.450  1.00 20.00     0.016 C 
HETATM    3  C3  UNL     1     -33.571   6.833   4.104  1.00 20.00    -0.009 C 
HETATM    4  C4  UNL     1     -33.186   6.404   2.667  1.00 20.00    -0.000 C 
HETATM    5  C5  UNL     1     -32.001   7.317   2.290  1.00 20.00     0.062 C 
HETATM    6  C6  UNL     1     -32.789   4.935   2.516  1.00 20.00     0.011 C 
HETATM    7 BR11 UNL     1     -32.350   8.289   0.643  1.00 20.00    -0.091 Br
ENDROOT
BRANCH   3   8
HETATM    8  C9  UNL     1     -34.107   5.749   5.026  1.00 20.00     0.009 C 
BRANCH   8   9
HETATM    9  C10 UNL     1     -33.954   6.086   6.516  1.00 20.00    -0.022 C 
HETATM   10  C7  UNL     1     -34.694   7.367   6.905  1.00 20.00     0.009 C 
HETATM   11  C8  UNL     1     -34.464   4.917   7.362  1.00 20.00     0.009 C 
ENDBRANCH   8   9
ENDBRANCH   3   8
TORSDOF 2
