REMARK  2 active torsions:
REMARK  status: ('A' for Active; 'I' for Inactive)
REMARK    1  A    between atoms: C3_3  and  C8_8 
REMARK    2  A    between atoms: C8_8  and  C9_9 
ROOT
HETATM    1  C1  UNL     1     -32.725   5.662   2.527  1.00 20.00     0.006 C 
HETATM    2  C2  UNL     1     -33.468   4.831   3.568  1.00 20.00     0.021 C 
HETATM    3  C3  UNL     1     -32.556   7.071   3.136  1.00 20.00    -0.009 C 
HETATM    4  C4  UNL     1     -33.265   7.007   4.512  1.00 20.00     0.004 C 
HETATM    5  C5  UNL     1     -34.272   5.866   4.340  1.00 20.00     0.086 C 
HETATM    6  C6  UNL     1     -33.889   8.306   5.006  1.00 20.00     0.012 C 
HETATM    7 CL10 UNL     1     -34.862   5.221   5.881  1.00 20.00    -0.125 Cl
ENDROOT
BRANCH   3   8
HETATM    8  C8  UNL     1     -33.078   8.138   2.176  1.00 20.00     0.005 C 
BRANCH   8   9
HETATM    9  C9  UNL     1     -32.299   8.130   0.865  1.00 20.00    -0.004 C 
HETATM   10  C7  UNL     1     -32.835   9.174  -0.101  1.00 20.00     0.005 C 
ENDBRANCH   8   9
ENDBRANCH   3   8
TORSDOF 2
