REMARK  2 active torsions:
REMARK  status: ('A' for Active; 'I' for Inactive)
REMARK    1  A    between atoms: C7_7  and  C10_10 
REMARK    2  A    between atoms: C9_9  and  C10_10 
ROOT
HETATM    1  C1  UNL     1     -32.417   8.517   0.393  1.00 20.00     0.012 C 
HETATM    2  C2  UNL     1     -32.038   7.696   1.184  1.00 20.00    -0.117 C 
HETATM    3  C9  UNL     1     -31.573   6.690   2.147  1.00 20.00     0.093 C 
ENDROOT
BRANCH   3   4
HETATM    4  C10 UNL     1     -31.808   7.177   3.563  1.00 20.00     0.017 C 
BRANCH   4   5
HETATM    5  C7  UNL     1     -33.298   7.419   3.812  1.00 20.00    -0.002 C 
HETATM    6  C5  UNL     1     -33.519   8.389   4.980  1.00 20.00     0.013 C 
HETATM    7  C4  UNL     1     -33.428   7.531   6.238  1.00 20.00     0.079 C 
HETATM    8  C3  UNL     1     -33.927   6.196   5.746  1.00 20.00     0.131 C 
HETATM    9  C6  UNL     1     -34.097   6.172   4.239  1.00 20.00     0.055 C 
HETATM   10  O11 UNL     1     -34.170   5.252   6.487  1.00 20.00    -0.298 OA
HETATM   11  C8  UNL     1     -33.666   4.856   3.618  1.00 20.00     0.018 C 
ENDBRANCH   4   5
ENDBRANCH   3   4
TORSDOF 2
