REMARK  1 active torsions:
REMARK  status: ('A' for Active; 'I' for Inactive)
REMARK    1  A    between atoms: C5_5  and  C9_9 
ROOT
HETATM    1  C1  UNL     1     -32.417   8.069   1.378  1.00 20.00     0.012 C 
HETATM    2  C2  UNL     1     -32.348   7.739   2.530  1.00 20.00    -0.117 C 
HETATM    3  C9  UNL     1     -32.255   7.334   3.937  1.00 20.00     0.098 C 
ENDROOT
BRANCH   3   4
HETATM    4  C5  UNL     1     -33.609   7.444   4.630  1.00 20.00     0.002 C 
HETATM    5  C3  UNL     1     -33.448   7.548   6.160  1.00 20.00     0.007 C 
HETATM    6  C4  UNL     1     -34.504   6.619   6.752  1.00 20.00     0.021 C 
HETATM    7  C7  UNL     1     -34.634   5.499   5.726  1.00 20.00     0.086 C 
HETATM    8  C6  UNL     1     -34.597   6.273   4.398  1.00 20.00     0.005 C 
HETATM    9 CL10 UNL     1     -33.294   4.332   5.908  1.00 20.00    -0.125 Cl
HETATM   10  C8  UNL     1     -34.385   5.431   3.147  1.00 20.00     0.012 C 
ENDBRANCH   3   4
TORSDOF 1
