REMARK  2 active torsions:
REMARK  status: ('A' for Active; 'I' for Inactive)
REMARK    1  A    between atoms: C5_5  and  C9_9 
REMARK    2  A    between atoms: C9_9  and  C10_10 
ROOT
HETATM    1  C1  UNL     1     -34.519   5.669   6.019  1.00 20.00     0.131 C 
HETATM    2  C2  UNL     1     -33.987   6.839   6.806  1.00 20.00     0.079 C 
HETATM    3  C3  UNL     1     -34.145   7.987   5.817  1.00 20.00     0.013 C 
HETATM    4  C4  UNL     1     -34.694   5.990   4.548  1.00 20.00     0.055 C 
HETATM    5  C5  UNL     1     -33.991   7.355   4.429  1.00 20.00    -0.003 C 
HETATM    6  C6  UNL     1     -36.176   6.058   4.210  1.00 20.00     0.018 C 
HETATM    7  O11 UNL     1     -34.777   4.580   6.517  1.00 20.00    -0.298 OA
ENDROOT
BRANCH   5   8
HETATM    8  C9  UNL     1     -32.517   7.197   4.045  1.00 20.00     0.009 C 
BRANCH   8   9
HETATM    9  C10 UNL     1     -32.294   6.961   2.541  1.00 20.00    -0.022 C 
HETATM   10  C7  UNL     1     -32.991   5.695   2.041  1.00 20.00     0.009 C 
HETATM   11  C8  UNL     1     -32.788   8.172   1.746  1.00 20.00     0.009 C 
ENDBRANCH   8   9
ENDBRANCH   5   8
TORSDOF 2
