REMARK  2 active torsions:
REMARK  status: ('A' for Active; 'I' for Inactive)
REMARK    1  A    between atoms: C2_2  and  C10_10 
REMARK    2  A    between atoms: C7_7  and  C10_10 
ROOT
HETATM    1  C1  UNL     1     -32.523   8.583   1.367  1.00 20.00    -0.111 C 
HETATM    2  C2  UNL     1     -32.313   8.224   2.494  1.00 20.00    -0.107 C 
HETATM    3  C8  UNL     1     -32.779   9.020  -0.005  1.00 20.00     0.112 C 
ENDROOT
BRANCH   2   4
HETATM    4  C10 UNL     1     -32.043   7.787   3.865  1.00 20.00     0.099 C 
BRANCH   4   5
HETATM    5  C7  UNL     1     -33.339   7.487   4.603  1.00 20.00     0.008 C 
HETATM    6  C5  UNL     1     -33.101   7.046   6.050  1.00 20.00     0.013 C 
HETATM    7  C4  UNL     1     -34.444   6.487   6.499  1.00 20.00     0.079 C 
HETATM    8  C3  UNL     1     -34.989   5.911   5.218  1.00 20.00     0.131 C 
HETATM    9  C6  UNL     1     -34.209   6.367   3.999  1.00 20.00     0.056 C 
HETATM   10  O11 UNL     1     -35.958   5.164   5.170  1.00 20.00    -0.298 OA
HETATM   11  C9  UNL     1     -33.458   5.186   3.402  1.00 20.00     0.018 C 
ENDBRANCH   4   5
ENDBRANCH   2   4
TORSDOF 2
