REMARK  2 active torsions:
REMARK  status: ('A' for Active; 'I' for Inactive)
REMARK    1  A    between atoms: C4_4  and  C9_9 
REMARK    2  A    between atoms: C6_6  and  N10_10 
ROOT
HETATM    1  C1  UNL     1     -32.411   8.087   0.926  1.00 20.00     0.158 C 
HETATM    2  N10 UNL     1     -32.109   7.229   1.666  1.00 20.00    -0.270 NA
HETATM    3  S11 UNL     1     -32.791   9.253  -0.090  1.00 20.00    -0.055 SA
ENDROOT
BRANCH   2   4
HETATM    4  C6  UNL     1     -33.198   6.724   2.496  1.00 20.00     0.113 C 
HETATM    5  C3  UNL     1     -32.980   5.256   2.857  1.00 20.00     0.028 C 
HETATM    6  C2  UNL     1     -33.570   5.079   4.259  1.00 20.00     0.007 C 
HETATM    7  C4  UNL     1     -34.151   6.446   4.644  1.00 20.00    -0.009 C 
HETATM    8  C5  UNL     1     -33.305   7.454   3.842  1.00 20.00     0.010 C 
HETATM    9  C7  UNL     1     -31.952   7.780   4.481  1.00 20.00     0.012 C 
BRANCH   7  10
HETATM   10  C9  UNL     1     -34.207   6.664   6.148  1.00 20.00     0.000 C 
HETATM   11  C8  UNL     1     -35.047   5.631   6.826  1.00 20.00     0.005 C 
ENDBRANCH   7  10
ENDBRANCH   2   4
TORSDOF 2
