REMARK  3 active torsions:
REMARK  status: ('A' for Active; 'I' for Inactive)
REMARK    1  A    between atoms: C1_1  and  C4_4 
REMARK    2  A    between atoms: C1_1  and  C6_6 
REMARK    3  A    between atoms: N7_7  and  O8_8 
ROOT
HETATM    1  C1  UNL     1     -33.847   6.397   5.214  1.00 20.00     0.043 C 
HETATM    2  N7  UNL     1     -34.694   5.659   5.864  1.00 20.00    -0.145 NA
ENDROOT
BRANCH   1   3
HETATM    3  C4  UNL     1     -33.853   6.317   3.707  1.00 20.00     0.036 A 
HETATM    4  C2  UNL     1     -32.592   6.627   2.987  1.00 20.00     0.011 A 
HETATM    5  C3  UNL     1     -33.092   5.216   3.066  1.00 20.00     0.011 A 
ENDBRANCH   1   3
BRANCH   1   6
HETATM    6  C6  UNL     1     -32.818   7.311   5.854  1.00 20.00     0.053 C 
HETATM    7  C5  UNL     1     -33.344   7.875   7.161  1.00 20.00     0.011 C 
ENDBRANCH   1   6
BRANCH   2   8
HETATM    8  O8  UNL     1     -35.482   4.901   4.997  1.00 20.00    -0.266 OA
HETATM    9  H19 UNL     1     -36.049   4.417   5.621  1.00 20.00     0.247 HD
ENDBRANCH   2   8
TORSDOF 3
