REMARK  1 active torsions:
REMARK  status: ('A' for Active; 'I' for Inactive)
REMARK    1  A    between atoms: C1_1  and  N8_8 
ROOT
HETATM    1  C2  UNL     1     -34.557   7.230   6.680  1.00 20.00     0.022 C 
HETATM    2  C3  UNL     1     -34.957   5.795   6.350  1.00 20.00     0.032 C 
HETATM    3  C4  UNL     1     -33.271   7.408   5.892  1.00 20.00     0.126 C 
HETATM    4  C5  UNL     1     -34.571   5.636   4.861  1.00 20.00     0.027 C 
HETATM    5  C6  UNL     1     -34.138   4.192   4.583  1.00 20.00     0.038 C 
HETATM    6  C7  UNL     1     -35.745   6.018   3.949  1.00 20.00     0.038 C 
HETATM    7  N8  UNL     1     -33.460   6.593   4.703  1.00 20.00    -0.351 N 
ENDROOT
BRANCH   7   8
HETATM    8  C1  UNL     1     -32.695   6.754   3.569  1.00 20.00     0.351 C 
HETATM    9  O9  UNL     1     -32.781   6.117   2.525  1.00 20.00    -0.284 OA
ENDBRANCH   7   8
TORSDOF 1
