REMARK  3 active torsions:
REMARK  status: ('A' for Active; 'I' for Inactive)
REMARK    1  A    between atoms: C1_1  and  C2_2 
REMARK    2  A    between atoms: C1_1  and  C3_3 
REMARK    3  A    between atoms: C2_2  and  C4_4 
ROOT
HETATM    1  C2  UNL     1     -33.455   6.755   4.616  1.00 20.00     0.196 C 
ENDROOT
BRANCH   1   2
HETATM    2  C1  UNL     1     -32.963   6.400   3.221  1.00 20.00     0.148 C 
HETATM    3  O5  UNL     1     -32.118   7.078   2.638  1.00 20.00    -0.296 OA
BRANCH   2   4
HETATM    4  C3  UNL     1     -33.583   5.158   2.618  1.00 20.00     0.193 C 
HETATM    5 CL9  UNL     1     -32.922   4.845   1.006  1.00 20.00    -0.123 Cl
ENDBRANCH   2   4
ENDBRANCH   1   2
BRANCH   1   6
HETATM    6  C4  UNL     1     -34.509   5.805   5.134  1.00 20.00     0.394 C 
HETATM    7  F6  UNL     1     -34.930   6.157   6.367  1.00 20.00    -0.171 F 
HETATM    8  F7  UNL     1     -34.012   4.550   5.217  1.00 20.00    -0.171 F 
HETATM    9  F8  UNL     1     -35.583   5.763   4.318  1.00 20.00    -0.171 F 
ENDBRANCH   1   6
TORSDOF 3
