REMARK  1 active torsions:
REMARK  status: ('A' for Active; 'I' for Inactive)
REMARK    1  A    between atoms: C6_6  and  C7_7 
ROOT
HETATM    1  C1  UNL     1     -32.084   8.205   1.315  1.00 20.00     0.065 C 
HETATM    2  C7  UNL     1     -31.361   7.410   2.318  1.00 20.00     0.186 C 
HETATM    3  N8  UNL     1     -32.653   8.832   0.521  1.00 20.00    -0.197 NA
ENDROOT
BRANCH   2   4
HETATM    4  C6  UNL     1     -32.294   6.934   3.382  1.00 20.00     0.085 A 
HETATM    5  C4  UNL     1     -33.144   5.872   3.118  1.00 20.00     0.143 A 
HETATM    6  C2  UNL     1     -33.999   5.455   4.131  1.00 20.00     0.069 A 
HETATM    7  F10 UNL     1     -33.148   5.259   1.928  1.00 20.00    -0.204 F 
HETATM    8  C5  UNL     1     -33.979   6.104   5.361  1.00 20.00     0.054 A 
HETATM    9  C3  UNL     1     -33.092   7.156   5.525  1.00 20.00     0.141 A 
HETATM   10 CL11 UNL     1     -35.019   5.618   6.634  1.00 20.00    -0.083 Cl
HETATM   11  N9  UNL     1     -32.246   7.589   4.563  1.00 20.00    -0.260 NA
ENDBRANCH   2   4
TORSDOF 1
