REMARK  3 active torsions:
REMARK  status: ('A' for Active; 'I' for Inactive)
REMARK    1  A    between atoms: C5_5  and  C7_7 
REMARK    2  A    between atoms: C5_5  and  C8_8 
REMARK    3  A    between atoms: C8_8  and  O9_9 
ROOT
HETATM    1  C1  UNL     1     -32.755   7.524   2.515  1.00 20.00     0.001 C 
HETATM    2  C2  UNL     1     -32.305   6.083   2.757  1.00 20.00     0.001 C 
HETATM    3  C3  UNL     1     -34.139   7.649   3.146  1.00 20.00     0.011 C 
HETATM    4  C4  UNL     1     -33.438   5.407   3.525  1.00 20.00     0.011 C 
HETATM    5  C5  UNL     1     -34.191   6.551   4.217  1.00 20.00    -0.019 C 
ENDROOT
BRANCH   5   6
HETATM    6  C7  UNL     1     -33.474   6.993   5.503  1.00 20.00     0.007 C 
HETATM    7  C6  UNL     1     -34.097   8.217   6.087  1.00 20.00     0.006 C 
ENDBRANCH   5   6
BRANCH   5   8
HETATM    8  C8  UNL     1     -35.631   6.158   4.552  1.00 20.00     0.173 C 
BRANCH   8   9
HETATM    9  O9  UNL     1     -35.591   5.142   5.532  1.00 20.00    -0.400 OA
HETATM   10  H25 UNL     1     -36.512   4.901   5.736  1.00 20.00     0.209 HD
ENDBRANCH   8   9
ENDBRANCH   5   8
TORSDOF 3
