REMARK  4 active torsions:
REMARK  status: ('A' for Active; 'I' for Inactive)
REMARK    1  A    between atoms: C3_3  and  C5_5 
REMARK    2  A    between atoms: C5_5  and  N8_8 
REMARK    3  A    between atoms: C6_6  and  C7_7 
REMARK    4  A    between atoms: C7_7  and  N8_8 
ROOT
HETATM    1  N8  UNL     1     -32.827   6.969   3.535  1.00 20.00     0.089 N 
HETATM    2  H23 UNL     1     -32.993   7.951   3.767  1.00 20.00     0.316 HD
ENDROOT
BRANCH   1   3
HETATM    3  C5  UNL     1     -32.433   6.876   2.133  1.00 20.00     0.274 C 
BRANCH   3   4
HETATM    4  C3  UNL     1     -33.229   7.810   1.287  1.00 20.00     0.014 A 
HETATM    5  C1  UNL     1     -32.877   9.271   1.232  1.00 20.00     0.007 A 
HETATM    6  C2  UNL     1     -32.633   8.393   0.036  1.00 20.00     0.007 A 
ENDBRANCH   3   4
ENDBRANCH   1   3
BRANCH   1   7
HETATM    7  C7  UNL     1     -34.025   6.198   3.796  1.00 20.00     0.230 C 
HETATM    8  C4  UNL     1     -33.659   4.725   3.935  1.00 20.00     0.043 C 
BRANCH   7   9
HETATM    9  C6  UNL     1     -34.761   6.767   5.011  1.00 20.00     0.149 C 
HETATM   10 CL9  UNL     1     -33.818   6.663   6.521  1.00 20.00    -0.128 Cl
ENDBRANCH   7   9
ENDBRANCH   1   7
TORSDOF 4
