REMARK  2 active torsions:
REMARK  status: ('A' for Active; 'I' for Inactive)
REMARK    1  A    between atoms: C1_1  and  N11_11 
REMARK    2  A    between atoms: C7_7  and  C10_10 
ROOT
HETATM    1  C2  UNL     1     -32.849   4.596   2.794  1.00 20.00     0.020 C 
HETATM    2  C3  UNL     1     -34.062   5.093   3.582  1.00 20.00     0.006 C 
HETATM    3  C4  UNL     1     -33.195   7.449   4.192  1.00 20.00     0.025 C 
HETATM    4  C5  UNL     1     -32.442   5.495   1.630  1.00 20.00     0.125 C 
HETATM    5  C6  UNL     1     -31.998   7.375   3.248  1.00 20.00     0.125 C 
HETATM    6  C7  UNL     1     -33.699   6.088   4.698  1.00 20.00    -0.010 C 
HETATM    7  N11 UNL     1     -32.395   6.923   1.919  1.00 20.00    -0.359 N 
ENDROOT
BRANCH   6   8
HETATM    8  C10 UNL     1     -34.913   6.307   5.608  1.00 20.00    -0.019 C 
HETATM    9  C8  UNL     1     -35.367   4.983   6.214  1.00 20.00     0.010 C 
HETATM   10  C9  UNL     1     -34.582   7.318   6.701  1.00 20.00     0.010 C 
ENDBRANCH   6   8
BRANCH   7  11
HETATM   11  C1  UNL     1     -32.683   7.845   0.921  1.00 20.00     0.350 C 
HETATM   12  O12 UNL     1     -32.685   9.068   1.014  1.00 20.00    -0.284 OA
ENDBRANCH   7  11
TORSDOF 2
