REMARK  0 active torsions:
REMARK  status: ('A' for Active; 'I' for Inactive)
ROOT
HETATM    1  C1  UNL     1     -33.356   6.157   3.962  1.00 20.00    -0.074 C 
HETATM    2  C2  UNL     1     -32.521   6.143   2.920  1.00 20.00    -0.085 C 
HETATM    3  C3  UNL     1     -33.353   7.158   5.091  1.00 20.00     0.039 C 
HETATM    4  C4  UNL     1     -34.120   4.304   5.386  1.00 20.00     0.009 C 
HETATM    5  C5  UNL     1     -34.128   5.276   6.582  1.00 20.00     0.005 C 
HETATM    6  C6  UNL     1     -35.509   6.163   4.858  1.00 20.00     0.014 C 
HETATM    7  C7  UNL     1     -34.508   5.209   4.206  1.00 20.00     0.015 C 
HETATM    8  C8  UNL     1     -34.525   6.621   5.938  1.00 20.00    -0.010 C 
HETATM    9  C9  UNL     1     -32.607   5.098   1.842  1.00 20.00     0.043 C 
HETATM   10  C10 UNL     1     -31.435   7.169   2.751  1.00 20.00     0.043 C 
ENDROOT
TORSDOF 0
