REMARK  4 active torsions:
REMARK  status: ('A' for Active; 'I' for Inactive)
REMARK    1  A    between atoms: C3_3  and  C7_7 
REMARK    2  A    between atoms: C6_6  and  C7_7 
REMARK    3  A    between atoms: C6_6  and  N9_9 
REMARK    4  A    between atoms: C8_8  and  N9_9 
ROOT
HETATM    1  C6  UNL     1     -32.827   7.390   3.078  1.00 20.00     0.290 C 
ENDROOT
BRANCH   1   2
HETATM    2  C7  UNL     1     -33.705   6.496   3.955  1.00 20.00     0.114 C 
HETATM    3 CL10 UNL     1     -33.625   4.797   3.396  1.00 20.00    -0.123 Cl
BRANCH   2   4
HETATM    4  C3  UNL     1     -33.348   6.566   5.436  1.00 20.00     0.006 A 
HETATM    5  C1  UNL     1     -33.845   7.704   6.282  1.00 20.00     0.006 A 
HETATM    6  C2  UNL     1     -34.401   6.322   6.481  1.00 20.00     0.006 A 
ENDBRANCH   2   4
ENDBRANCH   1   2
BRANCH   1   7
HETATM    7  N9  UNL     1     -33.175   7.286   1.680  1.00 20.00     0.088 N 
HETATM    8  H26 UNL     1     -33.058   6.319   1.364  1.00 20.00     0.316 HD
BRANCH   7   9
HETATM    9  C8  UNL     1     -32.336   8.152   0.856  1.00 20.00     0.212 C 
HETATM   10  C4  UNL     1     -32.848   9.582   0.956  1.00 20.00     0.042 C 
HETATM   11  C5  UNL     1     -32.362   7.644  -0.578  1.00 20.00     0.042 C 
ENDBRANCH   7   9
ENDBRANCH   1   7
TORSDOF 4
