REMARK  2 active torsions:
REMARK  status: ('A' for Active; 'I' for Inactive)
REMARK    1  A    between atoms: C1_1  and  C3_3 
REMARK    2  A    between atoms: C2_2  and  C5_5 
ROOT
HETATM    1  C1  UNL     1     -32.864   6.594   3.629  1.00 20.00     0.004 C 
HETATM    2  C2  UNL     1     -33.734   6.822   4.622  1.00 20.00     0.049 C 
ENDROOT
BRANCH   1   3
HETATM    3  C3  UNL     1     -32.494   7.608   2.666  1.00 20.00     0.007 C 
HETATM    4  C4  UNL     1     -33.375   8.469   2.145  1.00 20.00     0.056 C 
HETATM    5 BR8  UNL     1     -32.939   9.782   0.908  1.00 20.00    -0.064 Br
ENDBRANCH   1   3
BRANCH   2   6
HETATM    6  C5  UNL     1     -34.080   5.743   5.589  1.00 20.00     0.145 C 
HETATM    7  C6  UNL     1     -34.023   4.330   5.071  1.00 20.00     0.096 C 
HETATM    8  O7  UNL     1     -34.422   5.983   6.745  1.00 20.00    -0.294 OA
ENDBRANCH   2   6
TORSDOF 2
