REMARK  5 active torsions:
REMARK  status: ('A' for Active; 'I' for Inactive)
REMARK    1  A    between atoms: C2_2  and  C9_9 
REMARK    2  A    between atoms: C3_3  and  C8_8 
REMARK    3  A    between atoms: C4_4  and  C10_10 
REMARK    4  A    between atoms: C8_8  and  C9_9 
REMARK    5  A    between atoms: C10_10  and  O11_11 
ROOT
HETATM    1  C3  UNL     1     -33.313   7.569   4.243  1.00 20.00    -0.027 C 
HETATM    2  C4  UNL     1     -33.542   6.923   5.397  1.00 20.00     0.006 C 
ENDROOT
BRANCH   1   3
HETATM    3  C8  UNL     1     -33.875   7.130   2.918  1.00 20.00     0.035 C 
BRANCH   3   4
HETATM    4  C9  UNL     1     -32.776   6.721   1.917  1.00 20.00     0.006 C 
HETATM    5  C5  UNL     1     -31.644   5.996   2.649  1.00 20.00     0.014 C 
BRANCH   4   6
HETATM    6  C2  UNL     1     -32.215   7.921   1.192  1.00 20.00    -0.032 C 
HETATM    7  C1  UNL     1     -32.249   8.075  -0.136  1.00 20.00     0.007 C 
ENDBRANCH   4   6
ENDBRANCH   3   4
ENDBRANCH   1   3
BRANCH   2   8
HETATM    8  C10 UNL     1     -34.375   5.676   5.596  1.00 20.00     0.068 C 
HETATM    9  C6  UNL     1     -33.911   4.437   4.821  1.00 20.00     0.050 C 
HETATM   10  C7  UNL     1     -34.444   5.348   7.091  1.00 20.00     0.050 C 
BRANCH   8  11
HETATM   11  O11 UNL     1     -35.710   5.974   5.172  1.00 20.00    -0.387 OA
HETATM   12  H29 UNL     1     -36.223   5.165   5.308  1.00 20.00     0.211 HD
ENDBRANCH   8  11
ENDBRANCH   2   8
TORSDOF 5
