REMARK  1 active torsions:
REMARK  status: ('A' for Active; 'I' for Inactive)
REMARK    1  A    between atoms: C2_2  and  C3_3 
ROOT
HETATM    1  C1  UNL     1     -32.579   7.594   4.086  1.00 20.00     0.112 C 
HETATM    2  C2  UNL     1     -33.474   6.911   4.808  1.00 20.00     0.090 C 
HETATM    3 CL6  UNL     1     -32.252   7.350   2.418  1.00 20.00    -0.095 Cl
HETATM    4 CL7  UNL     1     -33.744   7.221   6.490  1.00 20.00    -0.080 Cl
ENDROOT
BRANCH   2   5
HETATM    5  C3  UNL     1     -34.312   5.824   4.206  1.00 20.00     0.167 C 
HETATM    6  C4  UNL     1     -35.815   5.955   4.222  1.00 20.00     0.097 C 
HETATM    7  O5  UNL     1     -33.784   4.832   3.702  1.00 20.00    -0.292 OA
ENDBRANCH   2   5
TORSDOF 1
