REMARK  1 active torsions:
REMARK  status: ('A' for Active; 'I' for Inactive)
REMARK    1  A    between atoms: C1_1  and  C4_4 
ROOT
HETATM    1  C2  UNL     1     -34.114   4.501   5.632  1.00 20.00     0.042 C 
HETATM    2  C3  UNL     1     -35.909   5.924   4.564  1.00 20.00     0.042 C 
HETATM    3  C4  UNL     1     -34.471   5.882   5.080  1.00 20.00     0.105 C 
HETATM    4 CL7  UNL     1     -34.347   7.061   6.443  1.00 20.00    -0.110 Cl
ENDROOT
BRANCH   3   5
HETATM    5  C1  UNL     1     -33.472   6.327   3.995  1.00 20.00     0.241 C 
HETATM    6  O5  UNL     1     -32.789   7.343   4.092  1.00 20.00    -0.278 OA
HETATM    7 CL6  UNL     1     -33.409   5.247   2.619  1.00 20.00    -0.042 Cl
ENDBRANCH   3   5
TORSDOF 1
