REMARK  0 active torsions:
REMARK  status: ('A' for Active; 'I' for Inactive)
ROOT
HETATM    1  C1  UNL     1     -32.170   7.266   1.870  1.00 20.00     0.102 C 
HETATM    2  C2  UNL     1     -32.813   5.036   2.663  1.00 20.00     0.075 A 
HETATM    3  C3  UNL     1     -32.818   6.406   2.810  1.00 20.00     0.075 A 
HETATM    4  C4  UNL     1     -33.527   6.816   3.976  1.00 20.00     0.084 A 
HETATM    5  C5  UNL     1     -34.038   5.744   4.675  1.00 20.00     0.097 A 
HETATM    6  N6  UNL     1     -31.644   7.965   1.106  1.00 20.00    -0.191 NA
HETATM    7  S7  UNL     1     -33.661   4.251   3.926  1.00 20.00    -0.086 SA
HETATM    8 CL8  UNL     1     -33.711   8.461   4.434  1.00 20.00    -0.080 Cl
HETATM    9 CL9  UNL     1     -34.954   5.745   6.127  1.00 20.00    -0.074 Cl
ENDROOT
TORSDOF 0
