REMARK  2 active torsions:
REMARK  status: ('A' for Active; 'I' for Inactive)
REMARK    1  A    between atoms: C1_1  and  C4_4 
REMARK    2  A    between atoms: C4_4  and  C6_6 
ROOT
HETATM    1  C2  UNL     1     -35.275   6.598   4.142  1.00 20.00     0.062 A 
HETATM    2  C3  UNL     1     -34.722   6.190   5.469  1.00 20.00     0.190 A 
HETATM    3  C4  UNL     1     -33.826   6.162   4.256  1.00 20.00     0.081 A 
HETATM    4  F9  UNL     1     -35.152   4.983   5.994  1.00 20.00    -0.248 F 
ENDROOT
BRANCH   3   5
HETATM    5  C1  UNL     1     -32.826   7.221   4.173  1.00 20.00     0.184 C 
HETATM    6  O7  UNL     1     -32.409   7.478   3.010  1.00 20.00    -0.647 OA
HETATM    7  O8  UNL     1     -32.512   7.741   5.280  1.00 20.00    -0.647 OA
ENDBRANCH   3   5
BRANCH   3   8
HETATM    8  C6  UNL     1     -33.463   4.816   3.685  1.00 20.00     0.019 C 
HETATM    9  C5  UNL     1     -33.144   4.883   2.219  1.00 20.00     0.006 C 
ENDBRANCH   3   8
TORSDOF 2
