REMARK  1 active torsions:
REMARK  status: ('A' for Active; 'I' for Inactive)
REMARK    1  A    between atoms: C5_5  and  C8_8 
ROOT
HETATM    1  C1  UNL     1     -33.137   5.695   2.222  1.00 20.00     0.047 C 
HETATM    2  C2  UNL     1     -33.543   5.008   3.297  1.00 20.00    -0.009 C 
HETATM    3  C3  UNL     1     -32.448   6.997   2.381  1.00 20.00     0.149 C 
HETATM    4  C6  UNL     1     -32.282   7.560   3.774  1.00 20.00     0.084 C 
HETATM    5  C7  UNL     1     -32.142   6.441   4.801  1.00 20.00     0.025 C 
HETATM    6  C8  UNL     1     -33.307   5.426   4.734  1.00 20.00    -0.003 C 
HETATM    7  C11 UNL     1     -32.933   4.192   5.572  1.00 20.00     0.024 C 
HETATM    8  O12 UNL     1     -32.082   7.620   1.385  1.00 20.00    -0.293 OA
ENDROOT
BRANCH   6   9
HETATM    9  C5  UNL     1     -34.568   6.022   5.309  1.00 20.00    -0.076 C 
HETATM   10  C4  UNL     1     -34.611   6.470   6.578  1.00 20.00    -0.027 C 
HETATM   11  C9  UNL     1     -33.522   6.468   7.574  1.00 20.00     0.036 C 
HETATM   12  C10 UNL     1     -35.737   6.068   4.367  1.00 20.00     0.044 C 
ENDBRANCH   6   9
TORSDOF 1
