REMARK  0 active torsions:
REMARK  status: ('A' for Active; 'I' for Inactive)
ROOT
HETATM    1  C1  UNL     1     -34.137   6.448   5.391  1.00 20.00     0.001 C 
HETATM    2  C2  UNL     1     -33.500   6.324   4.216  1.00 20.00     0.076 C 
HETATM    3  C3  UNL     1     -34.785   5.369   6.200  1.00 20.00     0.038 C 
HETATM    4 CL4  UNL     1     -33.319   4.802   3.411  1.00 20.00    -0.076 Cl
HETATM    5 BR5  UNL     1     -32.750   7.806   3.352  1.00 20.00    -0.038 Br
ENDROOT
TORSDOF 0
