REMARK  4 active torsions:
REMARK  status: ('A' for Active; 'I' for Inactive)
REMARK    1  A    between atoms: C5_5  and  C7_7 
REMARK    2  A    between atoms: C5_5  and  O10_10 
REMARK    3  A    between atoms: C6_6  and  C7_7 
REMARK    4  A    between atoms: C7_7  and  N8_8 
ROOT
HETATM    1  C1  UNL     1     -33.137   4.821   3.342  1.00 20.00     0.332 C 
HETATM    2  N8  UNL     1     -33.881   4.980   4.232  1.00 20.00    -0.240 NA
HETATM    3  O9  UNL     1     -32.394   4.652   2.446  1.00 20.00    -0.260 OA
ENDROOT
BRANCH   2   4
HETATM    4  C7  UNL     1     -33.657   6.225   4.984  1.00 20.00     0.139 C 
BRANCH   4   5
HETATM    5  C5  UNL     1     -33.755   7.394   4.005  1.00 20.00     0.194 C 
BRANCH   5   6
HETATM    6  O10 UNL     1     -32.528   7.506   3.291  1.00 20.00    -0.394 OA
HETATM    7  C4  UNL     1     -32.567   8.576   2.358  1.00 20.00     0.201 C 
ENDBRANCH   5   6
ENDBRANCH   4   5
BRANCH   4   8
HETATM    8  C6  UNL     1     -34.669   6.326   6.146  1.00 20.00     0.004 C 
HETATM    9  C2  UNL     1     -34.430   7.590   6.979  1.00 20.00     0.012 C 
HETATM   10  C3  UNL     1     -34.682   5.096   7.059  1.00 20.00     0.012 C 
ENDBRANCH   4   8
ENDBRANCH   2   4
TORSDOF 4
