REMARK  1 active torsions:
REMARK  status: ('A' for Active; 'I' for Inactive)
REMARK    1  A    between atoms: C8_8  and  C11_11 
ROOT
HETATM    1  C1  UNL     1     -32.126   8.291   1.186  1.00 20.00     0.064 C 
HETATM    2  C2  UNL     1     -33.418   5.618   2.627  1.00 20.00     0.002 C 
HETATM    3  C3  UNL     1     -32.000   6.130   2.376  1.00 20.00     0.019 C 
HETATM    4  C4  UNL     1     -32.634   8.342   3.588  1.00 20.00     0.019 C 
HETATM    5  C5  UNL     1     -33.696   5.349   4.106  1.00 20.00     0.005 C 
HETATM    6  C6  UNL     1     -32.698   7.588   4.915  1.00 20.00     0.006 C 
HETATM    7  C7  UNL     1     -31.824   7.650   2.484  1.00 20.00     0.093 C 
HETATM    8  C8  UNL     1     -33.871   6.596   4.985  1.00 20.00    -0.011 C 
HETATM    9  N12 UNL     1     -32.363   8.793   0.168  1.00 20.00    -0.197 NA
ENDROOT
BRANCH   8  10
HETATM   10  C11 UNL     1     -34.089   6.158   6.439  1.00 20.00    -0.019 C 
HETATM   11  C9  UNL     1     -34.711   7.292   7.246  1.00 20.00     0.010 C 
HETATM   12  C10 UNL     1     -34.965   4.911   6.491  1.00 20.00     0.010 C 
ENDBRANCH   8  10
TORSDOF 1
