REMARK  2 active torsions:
REMARK  status: ('A' for Active; 'I' for Inactive)
REMARK    1  A    between atoms: C6_6  and  C9_9 
REMARK    2  A    between atoms: C9_9  and  C10_10 
ROOT
HETATM    1  C1  UNL     1     -33.536   4.787   3.374  1.00 20.00     0.002 C 
HETATM    2  C2  UNL     1     -32.132   5.353   3.564  1.00 20.00     0.005 C 
HETATM    3  C3  UNL     1     -32.346   7.707   4.517  1.00 20.00     0.006 C 
HETATM    4  C4  UNL     1     -34.742   5.579   3.878  1.00 20.00     0.020 C 
HETATM    5  C5  UNL     1     -33.841   7.789   4.812  1.00 20.00     0.020 C 
HETATM    6  C6  UNL     1     -31.910   6.848   3.322  1.00 20.00    -0.014 C 
HETATM    7  C7  UNL     1     -34.582   6.481   5.100  1.00 20.00     0.082 C 
HETATM    8 CL11 UNL     1     -33.907   5.607   6.501  1.00 20.00    -0.125 Cl
ENDROOT
BRANCH   6   9
HETATM    9  C9  UNL     1     -32.462   7.342   1.986  1.00 20.00     0.004 C 
BRANCH   9  10
HETATM   10  C10 UNL     1     -32.243   8.840   1.826  1.00 20.00    -0.004 C 
HETATM   11  C8  UNL     1     -32.770   9.327   0.485  1.00 20.00     0.005 C 
ENDBRANCH   9  10
ENDBRANCH   6   9
TORSDOF 2
