REMARK  1 active torsions:
REMARK  status: ('A' for Active; 'I' for Inactive)
REMARK    1  A    between atoms: C4_4  and  C10_10 
ROOT
HETATM    1  C5  UNL     1     -33.099   7.494   4.819  1.00 20.00     0.135 C 
HETATM    2  C6  UNL     1     -34.590   7.647   5.015  1.00 20.00     0.079 C 
HETATM    3  C7  UNL     1     -35.286   6.322   4.754  1.00 20.00     0.007 C 
HETATM    4  C8  UNL     1     -34.931   5.768   3.378  1.00 20.00     0.001 C 
HETATM    5  C9  UNL     1     -33.415   5.627   3.209  1.00 20.00     0.017 C 
HETATM    6  C10 UNL     1     -32.630   6.925   3.482  1.00 20.00     0.088 C 
HETATM    7  O11 UNL     1     -32.300   7.879   5.673  1.00 20.00    -0.297 OA
ENDROOT
BRANCH   6   8
HETATM    8  C4  UNL     1     -32.618   7.995   2.399  1.00 20.00    -0.040 A 
HETATM    9  C1  UNL     1     -33.141   9.309   2.574  1.00 20.00     0.015 A 
HETATM   10  C2  UNL     1     -33.005  10.076   1.438  1.00 20.00     0.050 A 
HETATM   11  S12 UNL     1     -32.249   9.212   0.167  1.00 20.00    -0.113 SA
HETATM   12  C3  UNL     1     -32.102   7.808   1.136  1.00 20.00     0.057 A 
ENDBRANCH   6   8
TORSDOF 1
