REMARK  2 active torsions:
REMARK  status: ('A' for Active; 'I' for Inactive)
REMARK    1  A    between atoms: C5_5  and  S11_11 
REMARK    2  A    between atoms: C9_9  and  S11_11 
ROOT
HETATM    1  C1  UNL     1     -32.763   5.758   2.837  1.00 20.00     0.080 C 
HETATM    2  C2  UNL     1     -31.332   8.400   2.714  1.00 20.00     0.005 C 
HETATM    3  C3  UNL     1     -31.729   7.742   4.053  1.00 20.00     0.036 C 
HETATM    4  C4  UNL     1     -32.801   8.239   2.266  1.00 20.00     0.036 C 
HETATM    5  C5  UNL     1     -32.938   7.109   3.318  1.00 20.00     0.097 C 
HETATM    6  N10 UNL     1     -32.622   4.672   2.452  1.00 20.00    -0.196 NA
ENDROOT
BRANCH   5   7
HETATM    7  S11 UNL     1     -34.485   7.240   4.282  1.00 20.00    -0.135 SA
BRANCH   7   8
HETATM    8  C9  UNL     1     -34.071   6.010   5.580  1.00 20.00    -0.001 C 
HETATM    9  C6  UNL     1     -32.553   6.002   5.783  1.00 20.00     0.026 C 
HETATM   10  C7  UNL     1     -34.778   6.420   6.876  1.00 20.00     0.026 C 
HETATM   11  C8  UNL     1     -34.556   4.632   5.123  1.00 20.00     0.026 C 
ENDBRANCH   7   8
ENDBRANCH   5   7
TORSDOF 2
