REMARK  0 active torsions:
REMARK  status: ('A' for Active; 'I' for Inactive)
ROOT
HETATM    1  C1  UNL     1     -33.393   4.871   3.069  1.00 20.00     0.004 C 
HETATM    2  C2  UNL     1     -32.199   5.773   2.760  1.00 20.00     0.040 C 
HETATM    3  C3  UNL     1     -32.746   7.476   4.634  1.00 20.00     0.041 C 
HETATM    4  C4  UNL     1     -33.537   4.582   4.565  1.00 20.00     0.009 C 
HETATM    5  C5  UNL     1     -34.189   7.073   4.948  1.00 20.00     0.012 C 
HETATM    6  C6  UNL     1     -31.650   8.275   2.424  1.00 20.00     0.207 A 
HETATM    7  C7  UNL     1     -32.376   7.196   3.202  1.00 20.00     0.082 A 
HETATM    8  C8  UNL     1     -34.394   5.595   5.365  1.00 20.00    -0.048 C 
HETATM    9  C9  UNL     1     -35.890   5.254   5.192  1.00 20.00     0.015 C 
HETATM   10  C10 UNL     1     -34.051   5.431   6.863  1.00 20.00     0.015 C 
HETATM   11  O11 UNL     1     -33.050   8.029   2.245  1.00 20.00    -0.375 OA
ENDROOT
TORSDOF 0
