REMARK  1 active torsions:
REMARK  status: ('A' for Active; 'I' for Inactive)
REMARK    1  A    between atoms: C3_3  and  C8_8 
ROOT
HETATM    1  C1  UNL     1     -33.381   7.862   1.894  1.00 20.00     0.022 A 
HETATM    2  C2  UNL     1     -31.449   8.085   3.167  1.00 20.00     0.057 A 
HETATM    3  C3  UNL     1     -32.680   7.473   3.072  1.00 20.00    -0.045 A 
HETATM    4  C4  UNL     1     -32.659   8.757   1.134  1.00 20.00    -0.021 A 
HETATM    5  C10 UNL     1     -33.037   9.391  -0.148  1.00 20.00     0.056 C 
HETATM    6  S11 UNL     1     -31.143   9.123   1.840  1.00 20.00    -0.106 SA
ENDROOT
BRANCH   3   7
HETATM    7  C8  UNL     1     -33.224   6.503   4.097  1.00 20.00     0.033 C 
HETATM    8  C6  UNL     1     -33.470   5.098   3.519  1.00 20.00     0.010 C 
HETATM    9  C5  UNL     1     -34.574   4.532   4.398  1.00 20.00     0.002 C 
HETATM   10  C7  UNL     1     -35.508   5.721   4.580  1.00 20.00     0.016 C 
HETATM   11  C9  UNL     1     -34.580   6.928   4.700  1.00 20.00     0.066 C 
HETATM   12 BR12 UNL     1     -34.349   7.398   6.589  1.00 20.00    -0.090 Br
ENDBRANCH   3   7
TORSDOF 1
