REMARK  1 active torsions:
REMARK  status: ('A' for Active; 'I' for Inactive)
REMARK    1  A    between atoms: C4_4  and  C8_8 
ROOT
HETATM    1  C5  UNL     1     -31.553   7.355   3.562  1.00 20.00     0.011 C 
HETATM    2  C6  UNL     1     -31.199   8.210   2.340  1.00 20.00     0.021 C 
HETATM    3  C7  UNL     1     -33.460   7.486   2.089  1.00 20.00     0.029 C 
HETATM    4  C8  UNL     1     -32.883   6.640   3.234  1.00 20.00     0.020 C 
HETATM    5  C9  UNL     1     -32.219   7.826   1.278  1.00 20.00     0.083 C 
HETATM    6 CL11 UNL     1     -32.509   9.129   0.116  1.00 20.00    -0.125 Cl
ENDROOT
BRANCH   4   7
HETATM    7  C4  UNL     1     -33.773   6.401   4.435  1.00 20.00    -0.047 A 
HETATM    8  C1  UNL     1     -35.020   5.716   4.376  1.00 20.00     0.015 A 
HETATM    9  C2  UNL     1     -35.627   5.637   5.610  1.00 20.00     0.050 A 
HETATM   10  S10 UNL     1     -34.693   6.388   6.833  1.00 20.00    -0.113 SA
HETATM   11  C3  UNL     1     -33.473   6.821   5.713  1.00 20.00     0.057 A 
ENDBRANCH   4   7
TORSDOF 1
