REMARK  1 active torsions:
REMARK  status: ('A' for Active; 'I' for Inactive)
REMARK    1  A    between atoms: C7_7  and  C11_11 
ROOT
HETATM    1  C1  UNL     1     -33.745   5.213   2.910  1.00 20.00     0.004 C 
HETATM    2  C2  UNL     1     -32.407   5.949   2.839  1.00 20.00     0.005 C 
HETATM    3  C3  UNL     1     -32.819   7.708   4.685  1.00 20.00     0.008 C 
HETATM    4  C4  UNL     1     -34.075   4.649   4.288  1.00 20.00     0.040 C 
HETATM    5  C5  UNL     1     -34.140   7.100   5.157  1.00 20.00     0.041 C 
HETATM    6  C6  UNL     1     -33.376   5.182   6.736  1.00 20.00     0.207 A 
HETATM    7  C7  UNL     1     -32.441   7.439   3.220  1.00 20.00    -0.011 C 
HETATM    8  C8  UNL     1     -34.008   5.627   5.429  1.00 20.00     0.082 A 
HETATM    9  O12 UNL     1     -34.793   5.197   6.560  1.00 20.00    -0.375 OA
ENDROOT
BRANCH   7  10
HETATM   10  C11 UNL     1     -33.300   8.267   2.256  1.00 20.00    -0.019 C 
HETATM   11  C9  UNL     1     -32.952   9.746   2.374  1.00 20.00     0.010 C 
HETATM   12  C10 UNL     1     -33.110   7.777   0.825  1.00 20.00     0.010 C 
ENDBRANCH   7  10
TORSDOF 1
