REMARK  2 active torsions:
REMARK  status: ('A' for Active; 'I' for Inactive)
REMARK    1  A    between atoms: C6_6  and  C9_9 
REMARK    2  A    between atoms: C9_9  and  C10_10 
ROOT
HETATM    1  C1  UNL     1     -34.806   5.478   3.632  1.00 20.00     0.002 C 
HETATM    2  C2  UNL     1     -33.352   5.815   3.314  1.00 20.00     0.005 C 
HETATM    3  C3  UNL     1     -32.568   7.553   4.996  1.00 20.00     0.006 C 
HETATM    4  C4  UNL     1     -35.495   6.223   4.772  1.00 20.00     0.020 C 
HETATM    5  C5  UNL     1     -33.748   7.666   5.958  1.00 20.00     0.020 C 
HETATM    6  C6  UNL     1     -32.939   7.277   3.529  1.00 20.00    -0.014 C 
HETATM    7  C7  UNL     1     -34.703   6.475   6.055  1.00 20.00     0.082 C 
HETATM    8 CL11 UNL     1     -33.885   5.006   6.654  1.00 20.00    -0.125 Cl
ENDROOT
BRANCH   6   9
HETATM    9  C9  UNL     1     -31.722   7.589   2.646  1.00 20.00     0.004 C 
BRANCH   9  10
HETATM   10  C10 UNL     1     -32.035   7.343   1.177  1.00 20.00    -0.004 C 
HETATM   11  C8  UNL     1     -33.203   8.201   0.717  1.00 20.00     0.005 C 
ENDBRANCH   9  10
ENDBRANCH   6   9
TORSDOF 2
