REMARK  2 active torsions:
REMARK  status: ('A' for Active; 'I' for Inactive)
REMARK    1  A    between atoms: C7_7  and  C10_10 
REMARK    2  A    between atoms: C10_10  and  C11_11 
ROOT
HETATM    1  C1  UNL     1     -32.988   7.733   5.786  1.00 20.00     0.004 C 
HETATM    2  C2  UNL     1     -31.990   7.549   4.639  1.00 20.00     0.005 C 
HETATM    3  C3  UNL     1     -32.994   5.935   2.932  1.00 20.00     0.007 C 
HETATM    4  C4  UNL     1     -34.312   6.987   5.687  1.00 20.00     0.040 C 
HETATM    5  C5  UNL     1     -34.250   5.452   3.653  1.00 20.00     0.040 C 
HETATM    6  C6  UNL     1     -33.528   4.514   5.982  1.00 20.00     0.207 A 
HETATM    7  C7  UNL     1     -32.591   7.394   3.230  1.00 20.00    -0.014 C 
HETATM    8  C8  UNL     1     -34.166   5.598   5.143  1.00 20.00     0.082 A 
HETATM    9  O12 UNL     1     -34.951   4.624   5.851  1.00 20.00    -0.375 OA
ENDROOT
BRANCH   7  10
HETATM   10  C10 UNL     1     -31.552   7.836   2.190  1.00 20.00     0.004 C 
BRANCH  10  11
HETATM   11  C11 UNL     1     -32.212   8.136   0.851  1.00 20.00    -0.004 C 
HETATM   12  C9  UNL     1     -33.256   9.232   0.991  1.00 20.00     0.005 C 
ENDBRANCH  10  11
ENDBRANCH   7  10
TORSDOF 2
