REMARK  1 active torsions:
REMARK  status: ('A' for Active; 'I' for Inactive)
REMARK    1  A    between atoms: C4_4  and  C8_8 
ROOT
HETATM    1  C5  UNL     1     -34.396   6.637   6.905  1.00 20.00     0.002 C 
HETATM    2  C6  UNL     1     -33.069   7.046   6.267  1.00 20.00     0.011 C 
HETATM    3  C7  UNL     1     -34.681   5.257   6.333  1.00 20.00     0.021 C 
HETATM    4  C8  UNL     1     -32.946   6.222   4.965  1.00 20.00     0.037 C 
HETATM    5  C9  UNL     1     -34.255   5.417   4.881  1.00 20.00     0.090 C 
HETATM    6 CL11 UNL     1     -34.037   3.847   4.082  1.00 20.00    -0.124 Cl
ENDROOT
BRANCH   4   7
HETATM    7  C4  UNL     1     -32.682   7.056   3.731  1.00 20.00    -0.046 A 
HETATM    8  C1  UNL     1     -32.576   8.477   3.740  1.00 20.00     0.015 A 
HETATM    9  C2  UNL     1     -32.334   8.986   2.483  1.00 20.00     0.050 A 
HETATM   10  S10 UNL     1     -32.236   7.753   1.299  1.00 20.00    -0.113 SA
HETATM   11  C3  UNL     1     -32.517   6.533   2.467  1.00 20.00     0.057 A 
ENDBRANCH   4   7
TORSDOF 1
