REMARK  1 active torsions:
REMARK  status: ('A' for Active; 'I' for Inactive)
REMARK    1  A    between atoms: C4_4  and  C10_10 
ROOT
HETATM    1  C5  UNL     1     -32.903   6.662   6.524  1.00 20.00     0.001 C 
HETATM    2  C6  UNL     1     -34.278   6.163   6.952  1.00 20.00     0.001 C 
HETATM    3  C7  UNL     1     -32.953   7.540   5.277  1.00 20.00     0.009 C 
HETATM    4  C8  UNL     1     -34.868   5.076   6.061  1.00 20.00     0.020 C 
HETATM    5  C9  UNL     1     -33.778   5.535   3.774  1.00 20.00     0.029 C 
HETATM    6  C10 UNL     1     -32.853   6.761   3.955  1.00 20.00     0.020 C 
HETATM    7  C11 UNL     1     -35.074   5.406   4.580  1.00 20.00     0.083 C 
HETATM    8 CL13 UNL     1     -36.180   6.782   4.340  1.00 20.00    -0.125 Cl
ENDROOT
BRANCH   6   9
HETATM    9  C4  UNL     1     -32.884   7.657   2.718  1.00 20.00    -0.047 A 
HETATM   10  C1  UNL     1     -33.677   8.836   2.611  1.00 20.00     0.015 A 
HETATM   11  C2  UNL     1     -33.519   9.457   1.391  1.00 20.00     0.050 A 
HETATM   12  S12 UNL     1     -32.418   8.619   0.382  1.00 20.00    -0.113 SA
HETATM   13  C3  UNL     1     -32.150   7.422   1.576  1.00 20.00     0.057 A 
ENDBRANCH   6   9
TORSDOF 1
