REMARK  2 active torsions:
REMARK  status: ('A' for Active; 'I' for Inactive)
REMARK    1  A    between atoms: C4_4  and  C9_9 
REMARK    2  A    between atoms: C5_5  and  S11_11 
ROOT
HETATM    1  C1  UNL     1     -33.523   7.142   5.188  1.00 20.00     0.080 C 
HETATM    2  C2  UNL     1     -32.055   6.797   3.137  1.00 20.00     0.041 C 
HETATM    3  C3  UNL     1     -34.022   7.552   2.725  1.00 20.00     0.041 C 
HETATM    4  C4  UNL     1     -32.590   8.099   2.483  1.00 20.00    -0.006 C 
HETATM    5  C5  UNL     1     -33.431   6.645   3.834  1.00 20.00     0.097 C 
HETATM    6  N10 UNL     1     -33.598   7.541   6.275  1.00 20.00    -0.196 NA
ENDROOT
BRANCH   5   7
HETATM    7  S11 UNL     1     -34.070   4.935   3.747  1.00 20.00    -0.148 SA
HETATM    8  C8  UNL     1     -32.913   4.177   4.909  1.00 20.00     0.091 C 
ENDBRANCH   5   7
BRANCH   4   9
HETATM    9  C9  UNL     1     -32.194   8.345   1.042  1.00 20.00    -0.019 C 
HETATM   10  C6  UNL     1     -32.817   9.642   0.516  1.00 20.00     0.010 C 
HETATM   11  C7  UNL     1     -30.671   8.393   0.892  1.00 20.00     0.010 C 
ENDBRANCH   4   9
TORSDOF 2
