REMARK  0 active torsions:
REMARK  status: ('A' for Active; 'I' for Inactive)
ROOT
HETATM    1  C1  UNL     1     -32.410   7.891   1.491  1.00 20.00     0.085 C 
HETATM    2  C2  UNL     1     -33.242   4.896   2.542  1.00 20.00     0.004 C 
HETATM    3  C3  UNL     1     -32.047   5.819   2.789  1.00 20.00     0.041 C 
HETATM    4  C4  UNL     1     -33.707   7.664   3.566  1.00 20.00     0.042 C 
HETATM    5  C5  UNL     1     -33.910   4.448   3.845  1.00 20.00     0.009 C 
HETATM    6  C6  UNL     1     -34.017   6.845   4.823  1.00 20.00     0.011 C 
HETATM    7  C7  UNL     1     -32.389   7.316   2.852  1.00 20.00     0.125 C 
HETATM    8  C8  UNL     1     -34.759   5.499   4.599  1.00 20.00    -0.048 C 
HETATM    9  C9  UNL     1     -35.090   4.916   5.994  1.00 20.00     0.015 C 
HETATM   10  C10 UNL     1     -36.101   5.711   3.868  1.00 20.00     0.015 C 
HETATM   11  N11 UNL     1     -32.426   8.342   0.422  1.00 20.00    -0.195 NA
HETATM   12 CL12 UNL     1     -31.023   8.153   3.691  1.00 20.00    -0.103 Cl
ENDROOT
TORSDOF 0
