REMARK  0 active torsions:
REMARK  status: ('A' for Active; 'I' for Inactive)
ROOT
HETATM    1  C1  UNL     1     -32.325   7.992   1.583  1.00 20.00     0.064 C 
HETATM    2  C2  UNL     1     -33.399   8.132   4.701  1.00 20.00     0.002 C 
HETATM    3  C3  UNL     1     -32.047   7.884   4.034  1.00 20.00     0.019 C 
HETATM    4  C4  UNL     1     -33.119   5.941   2.674  1.00 20.00     0.020 C 
HETATM    5  C5  UNL     1     -33.798   7.005   5.656  1.00 20.00     0.008 C 
HETATM    6  C6  UNL     1     -33.261   5.126   3.962  1.00 20.00     0.010 C 
HETATM    7  C7  UNL     1     -32.097   7.084   2.727  1.00 20.00     0.093 C 
HETATM    8  C8  UNL     1     -34.256   5.674   5.018  1.00 20.00    -0.048 C 
HETATM    9  C9  UNL     1     -35.673   5.833   4.427  1.00 20.00     0.015 C 
HETATM   10  C10 UNL     1     -34.353   4.624   6.152  1.00 20.00     0.015 C 
HETATM   11  N11 UNL     1     -32.503   8.705   0.685  1.00 20.00    -0.197 NA
ENDROOT
TORSDOF 0
