REMARK  1 active torsions:
REMARK  status: ('A' for Active; 'I' for Inactive)
REMARK    1  A    between atoms: C4_4  and  C9_9 
ROOT
HETATM    1  C5  UNL     1     -34.028   5.203   3.158  1.00 20.00     0.002 C 
HETATM    2  C6  UNL     1     -32.560   5.456   2.801  1.00 20.00     0.009 C 
HETATM    3  C7  UNL     1     -34.370   5.670   4.568  1.00 20.00     0.020 C 
HETATM    4  C8  UNL     1     -32.473   7.326   4.496  1.00 20.00     0.029 C 
HETATM    5  C9  UNL     1     -32.082   6.903   3.061  1.00 20.00     0.020 C 
HETATM    6  C10 UNL     1     -33.964   7.127   4.777  1.00 20.00     0.083 C 
HETATM    7 CL12 UNL     1     -34.333   7.617   6.456  1.00 20.00    -0.125 Cl
ENDROOT
BRANCH   5   8
HETATM    8  C4  UNL     1     -32.456   7.955   2.019  1.00 20.00    -0.047 A 
HETATM    9  C1  UNL     1     -32.099   7.871   0.642  1.00 20.00     0.015 A 
HETATM   10  C2  UNL     1     -32.560   8.951  -0.079  1.00 20.00     0.050 A 
HETATM   11  S11 UNL     1     -33.418  10.060   0.904  1.00 20.00    -0.113 SA
HETATM   12  C3  UNL     1     -33.175   9.096   2.298  1.00 20.00     0.057 A 
ENDBRANCH   5   8
TORSDOF 1
