REMARK  2 active torsions:
REMARK  status: ('A' for Active; 'I' for Inactive)
REMARK    1  A    between atoms: C8_8  and  C10_10 
REMARK    2  A    between atoms: C10_10  and  C11_11 
ROOT
HETATM    1  C1  UNL     1     -34.274   5.241   6.002  1.00 20.00     0.064 C 
HETATM    2  C2  UNL     1     -33.511   8.144   5.050  1.00 20.00     0.002 C 
HETATM    3  C3  UNL     1     -34.756   7.316   4.731  1.00 20.00     0.019 C 
HETATM    4  C4  UNL     1     -33.565   5.269   3.628  1.00 20.00     0.019 C 
HETATM    5  C5  UNL     1     -32.211   7.719   4.374  1.00 20.00     0.005 C 
HETATM    6  C6  UNL     1     -33.255   6.247   2.495  1.00 20.00     0.006 C 
HETATM    7  C7  UNL     1     -34.579   5.791   4.667  1.00 20.00     0.093 C 
HETATM    8  C8  UNL     1     -32.286   7.385   2.876  1.00 20.00    -0.014 C 
HETATM    9  N12 UNL     1     -34.035   4.809   7.052  1.00 20.00    -0.197 NA
ENDROOT
BRANCH   8  10
HETATM   10  C10 UNL     1     -32.570   8.632   2.034  1.00 20.00     0.004 C 
BRANCH  10  11
HETATM   11  C11 UNL     1     -32.130   8.427   0.591  1.00 20.00    -0.004 C 
HETATM   12  C9  UNL     1     -32.434   9.655  -0.252  1.00 20.00     0.005 C 
ENDBRANCH  10  11
ENDBRANCH   8  10
TORSDOF 2
