REMARK  2 active torsions:
REMARK  status: ('A' for Active; 'I' for Inactive)
REMARK    1  A    between atoms: C8_8  and  C10_10 
REMARK    2  A    between atoms: C10_10  and  C11_11 
ROOT
HETATM    1  C1  UNL     1     -34.297   5.378   6.303  1.00 20.00     0.064 C 
HETATM    2  C2  UNL     1     -33.643   4.832   3.351  1.00 20.00     0.002 C 
HETATM    3  C3  UNL     1     -34.945   5.410   3.904  1.00 20.00     0.019 C 
HETATM    4  C4  UNL     1     -33.981   7.504   5.070  1.00 20.00     0.019 C 
HETATM    5  C5  UNL     1     -32.878   5.765   2.419  1.00 20.00     0.005 C 
HETATM    6  C6  UNL     1     -32.584   7.363   4.457  1.00 20.00     0.006 C 
HETATM    7  C7  UNL     1     -34.803   6.219   5.199  1.00 20.00     0.093 C 
HETATM    8  C8  UNL     1     -32.523   7.171   2.933  1.00 20.00    -0.014 C 
HETATM    9  N12 UNL     1     -33.899   4.718   7.171  1.00 20.00    -0.197 NA
ENDROOT
BRANCH   8  10
HETATM   10  C10 UNL     1     -33.308   8.245   2.170  1.00 20.00     0.004 C 
BRANCH  10  11
HETATM   11  C11 UNL     1     -32.643   8.564   0.838  1.00 20.00    -0.004 C 
HETATM   12  C9  UNL     1     -33.433   9.611   0.071  1.00 20.00     0.005 C 
ENDBRANCH  10  11
ENDBRANCH   8  10
TORSDOF 2
