REMARK  3 active torsions:
REMARK  status: ('A' for Active; 'I' for Inactive)
REMARK    1  A    between atoms: C4_4  and  C9_9 
REMARK    2  A    between atoms: C8_8  and  C9_9 
REMARK    3  A    between atoms: C9_9  and  O10_10 
ROOT
HETATM    1  C9  UNL     1     -32.700   6.552   3.075  1.00 20.00     0.155 C 
ENDROOT
BRANCH   1   2
HETATM    2  C4  UNL     1     -33.461   6.381   4.371  1.00 20.00    -0.022 A 
HETATM    3  C1  UNL     1     -34.185   5.204   4.718  1.00 20.00     0.017 A 
HETATM    4  C2  UNL     1     -34.787   5.312   5.952  1.00 20.00     0.050 A 
HETATM    5  S11 UNL     1     -34.479   6.827   6.687  1.00 20.00    -0.113 SA
HETATM    6  C3  UNL     1     -33.538   7.344   5.353  1.00 20.00     0.059 A 
ENDBRANCH   1   2
BRANCH   1   7
HETATM    7  C8  UNL     1     -33.246   7.677   2.221  1.00 20.00     0.019 C 
HETATM    8  C6  UNL     1     -32.399   8.088   0.988  1.00 20.00     0.007 C 
HETATM    9  C5  UNL     1     -32.819   9.544   1.278  1.00 20.00     0.001 C 
HETATM   10  C7  UNL     1     -33.022   9.119   2.747  1.00 20.00     0.007 C 
ENDBRANCH   1   7
BRANCH   1  11
HETATM   11  O10 UNL     1     -32.785   5.326   2.346  1.00 20.00    -0.391 OA
HETATM   12  H23 UNL     1     -33.727   5.167   2.189  1.00 20.00     0.210 HD
ENDBRANCH   1  11
TORSDOF 3
