REMARK  2 active torsions:
REMARK  status: ('A' for Active; 'I' for Inactive)
REMARK    1  A    between atoms: C8_8  and  C10_10 
REMARK    2  A    between atoms: C10_10  and  C11_11 
ROOT
HETATM    1  C1  UNL     1     -34.438   5.414   6.111  1.00 20.00     0.064 C 
HETATM    2  C2  UNL     1     -33.364   4.902   3.297  1.00 20.00     0.002 C 
HETATM    3  C3  UNL     1     -34.773   5.382   3.644  1.00 20.00     0.019 C 
HETATM    4  C4  UNL     1     -34.206   7.568   4.911  1.00 20.00     0.019 C 
HETATM    5  C5  UNL     1     -32.498   5.899   2.533  1.00 20.00     0.005 C 
HETATM    6  C6  UNL     1     -32.748   7.607   4.442  1.00 20.00     0.006 C 
HETATM    7  C7  UNL     1     -34.887   6.196   4.942  1.00 20.00     0.093 C 
HETATM    8  C8  UNL     1     -32.607   7.378   2.930  1.00 20.00    -0.014 C 
HETATM    9  N12 UNL     1     -34.085   4.799   7.030  1.00 20.00    -0.197 NA
ENDROOT
BRANCH   8  10
HETATM   10  C10 UNL     1     -31.386   8.133   2.389  1.00 20.00     0.004 C 
BRANCH  10  11
HETATM   11  C11 UNL     1     -31.289   8.000   0.875  1.00 20.00    -0.004 C 
HETATM   12  C9  UNL     1     -32.537   8.546   0.200  1.00 20.00     0.005 C 
ENDBRANCH  10  11
ENDBRANCH   8  10
TORSDOF 2
