REMARK  1 active torsions:
REMARK  status: ('A' for Active; 'I' for Inactive)
REMARK    1  A    between atoms: C3_3  and  C8_8 
ROOT
HETATM    1  C1  UNL     1     -33.996   6.161   4.370  1.00 20.00     0.022 A 
HETATM    2  C2  UNL     1     -33.281   7.643   6.011  1.00 20.00     0.057 A 
HETATM    3  C3  UNL     1     -33.139   7.251   4.698  1.00 20.00    -0.046 A 
HETATM    4  C4  UNL     1     -34.760   5.761   5.445  1.00 20.00    -0.021 A 
HETATM    5  C10 UNL     1     -35.761   4.674   5.509  1.00 20.00     0.056 C 
HETATM    6  S11 UNL     1     -34.444   6.699   6.842  1.00 20.00    -0.106 SA
ENDROOT
BRANCH   3   7
HETATM    7  C8  UNL     1     -32.187   7.900   3.719  1.00 20.00     0.020 C 
HETATM    8  C5  UNL     1     -31.659   6.953   2.620  1.00 20.00     0.010 C 
HETATM    9  C6  UNL     1     -32.156   7.534   1.299  1.00 20.00     0.016 C 
HETATM   10  C9  UNL     1     -32.225   9.022   1.581  1.00 20.00     0.058 C 
HETATM   11  C7  UNL     1     -32.825   9.089   2.976  1.00 20.00     0.025 C 
HETATM   12 BR12 UNL     1     -33.324   9.940   0.284  1.00 20.00    -0.091 Br
ENDBRANCH   3   7
TORSDOF 1
