REMARK  1 active torsions:
REMARK  status: ('A' for Active; 'I' for Inactive)
REMARK    1  A    between atoms: C3_3  and  C8_8 
ROOT
HETATM    1  C1  UNL     1     -33.430   6.825   4.784  1.00 20.00     0.022 A 
HETATM    2  C2  UNL     1     -33.540   5.093   3.237  1.00 20.00     0.057 A 
HETATM    3  C3  UNL     1     -33.149   6.396   3.455  1.00 20.00    -0.046 A 
HETATM    4  C4  UNL     1     -34.026   5.833   5.532  1.00 20.00    -0.021 A 
HETATM    5  C10 UNL     1     -34.468   5.884   6.943  1.00 20.00     0.056 C 
HETATM    6  S11 UNL     1     -34.244   4.392   4.633  1.00 20.00    -0.106 SA
ENDROOT
BRANCH   3   7
HETATM    7  C8  UNL     1     -32.496   7.271   2.405  1.00 20.00     0.020 C 
HETATM    8  C5  UNL     1     -32.273   6.570   1.055  1.00 20.00     0.010 C 
HETATM    9  C6  UNL     1     -32.131   7.681   0.010  1.00 20.00     0.016 C 
HETATM   10  C9  UNL     1     -32.583   8.968   0.689  1.00 20.00     0.058 C 
HETATM   11  C7  UNL     1     -33.261   8.535   1.981  1.00 20.00     0.025 C 
HETATM   12 BR12 UNL     1     -31.040  10.102   1.086  1.00 20.00    -0.091 Br
ENDBRANCH   3   7
TORSDOF 1
