REMARK  1 active torsions:
REMARK  status: ('A' for Active; 'I' for Inactive)
REMARK    1  A    between atoms: C4_4  and  C8_8 
ROOT
HETATM    1  C5  UNL     1     -33.519   5.234   6.628  1.00 20.00     0.002 C 
HETATM    2  C6  UNL     1     -33.073   6.656   6.263  1.00 20.00     0.011 C 
HETATM    3  C7  UNL     1     -34.720   4.910   5.743  1.00 20.00     0.021 C 
HETATM    4  C8  UNL     1     -33.951   7.109   5.081  1.00 20.00     0.037 C 
HETATM    5  C9  UNL     1     -35.226   6.272   5.291  1.00 20.00     0.090 C 
HETATM    6 CL11 UNL     1     -36.308   6.157   3.893  1.00 20.00    -0.124 Cl
ENDROOT
BRANCH   4   7
HETATM    7  C4  UNL     1     -33.281   6.982   3.722  1.00 20.00    -0.046 A 
HETATM    8  C1  UNL     1     -33.355   5.817   2.906  1.00 20.00     0.015 A 
HETATM    9  C2  UNL     1     -32.659   5.966   1.727  1.00 20.00     0.050 A 
HETATM   10  S10 UNL     1     -31.920   7.506   1.607  1.00 20.00    -0.113 SA
HETATM   11  C3  UNL     1     -32.531   7.978   3.136  1.00 20.00     0.057 A 
ENDBRANCH   4   7
TORSDOF 1
