REMARK  1 active torsions:
REMARK  status: ('A' for Active; 'I' for Inactive)
REMARK    1  A    between atoms: C7_7  and  C10_10 
ROOT
HETATM    1  C1  UNL     1     -33.502   4.564   3.505  1.00 20.00     0.004 C 
HETATM    2  C2  UNL     1     -32.533   5.505   2.790  1.00 20.00     0.005 C 
HETATM    3  C3  UNL     1     -33.602   7.754   3.473  1.00 20.00     0.007 C 
HETATM    4  C4  UNL     1     -33.604   4.794   5.009  1.00 20.00     0.040 C 
HETATM    5  C5  UNL     1     -34.579   7.141   4.475  1.00 20.00     0.040 C 
HETATM    6  C6  UNL     1     -33.100   6.802   6.585  1.00 20.00     0.207 A 
HETATM    7  C7  UNL     1     -33.187   6.818   2.326  1.00 20.00    -0.015 C 
HETATM    8  C8  UNL     1     -33.886   6.210   5.429  1.00 20.00     0.082 A 
HETATM    9  O11 UNL     1     -34.418   6.284   6.768  1.00 20.00    -0.375 OA
ENDROOT
BRANCH   7  10
HETATM   10  C10 UNL     1     -32.231   7.564   1.387  1.00 20.00     0.000 C 
HETATM   11  C9  UNL     1     -32.848   8.815   0.861  1.00 20.00     0.005 C 
ENDBRANCH   7  10
TORSDOF 1
