REMARK  1 active torsions:
REMARK  status: ('A' for Active; 'I' for Inactive)
REMARK    1  A    between atoms: C8_8  and  C11_11 
ROOT
HETATM    1  C1  UNL     1     -32.394   8.894   0.343  1.00 20.00     0.064 C 
HETATM    2  C2  UNL     1     -33.385   5.359   1.457  1.00 20.00     0.002 C 
HETATM    3  C3  UNL     1     -32.678   6.490   0.716  1.00 20.00     0.019 C 
HETATM    4  C4  UNL     1     -32.064   8.051   2.624  1.00 20.00     0.019 C 
HETATM    5  C5  UNL     1     -33.039   5.216   2.939  1.00 20.00     0.005 C 
HETATM    6  C6  UNL     1     -32.780   7.591   3.893  1.00 20.00     0.006 C 
HETATM    7  C7  UNL     1     -32.861   7.890   1.323  1.00 20.00     0.093 C 
HETATM    8  C8  UNL     1     -33.650   6.328   3.801  1.00 20.00    -0.011 C 
HETATM    9  N12 UNL     1     -32.028   9.682  -0.427  1.00 20.00    -0.197 NA
ENDROOT
BRANCH   8  10
HETATM   10  C11 UNL     1     -33.929   5.810   5.218  1.00 20.00    -0.019 C 
HETATM   11  C9  UNL     1     -34.504   6.924   6.086  1.00 20.00     0.010 C 
HETATM   12  C10 UNL     1     -34.876   4.617   5.169  1.00 20.00     0.010 C 
ENDBRANCH   8  10
TORSDOF 1
