REMARK  1 active torsions:
REMARK  status: ('A' for Active; 'I' for Inactive)
REMARK    1  A    between atoms: C2_2  and  C11_11 
ROOT
HETATM    1  C1  UNL     1     -33.938   6.130   3.790  1.00 20.00     0.053 C 
HETATM    2  C2  UNL     1     -32.886   6.961   3.848  1.00 20.00    -0.072 C 
HETATM    3  C3  UNL     1     -34.841   5.971   4.957  1.00 20.00     0.149 C 
HETATM    4  C4  UNL     1     -32.514   7.726   5.092  1.00 20.00     0.035 C 
HETATM    5  C5  UNL     1     -34.604   6.835   6.174  1.00 20.00     0.083 C 
HETATM    6  C6  UNL     1     -33.123   7.123   6.355  1.00 20.00     0.012 C 
HETATM    7  O12 UNL     1     -35.793   5.195   4.891  1.00 20.00    -0.293 OA
ENDROOT
BRANCH   2   8
HETATM    8  C11 UNL     1     -31.994   7.188   2.641  1.00 20.00     0.014 C 
HETATM    9  C9  UNL     1     -31.455   8.614   2.697  1.00 20.00     0.009 C 
HETATM   10  C7  UNL     1     -32.375   9.411   1.783  1.00 20.00     0.001 C 
HETATM   11  C8  UNL     1     -32.674   8.433   0.661  1.00 20.00     0.001 C 
HETATM   12  C10 UNL     1     -32.836   7.091   1.368  1.00 20.00     0.009 C 
ENDBRANCH   2   8
TORSDOF 1
