REMARK  1 active torsions:
REMARK  status: ('A' for Active; 'I' for Inactive)
REMARK    1  A    between atoms: C2_2  and  C10_10 
ROOT
HETATM    1  C1  UNL     1     -32.180   7.821   4.544  1.00 20.00    -0.003 C 
HETATM    2  C2  UNL     1     -33.281   7.045   4.553  1.00 20.00    -0.075 C 
HETATM    3  C3  UNL     1     -33.525   6.023   3.463  1.00 20.00     0.034 C 
HETATM    4  C4  UNL     1     -32.296   5.720   2.602  1.00 20.00     0.006 C 
HETATM    5  C5  UNL     1     -31.562   7.005   2.229  1.00 20.00     0.024 C 
HETATM    6  C6  UNL     1     -31.130   7.789   3.472  1.00 20.00     0.105 C 
HETATM    7 CL11 UNL     1     -29.642   7.076   4.172  1.00 20.00    -0.121 Cl
ENDROOT
BRANCH   2   8
HETATM    8  C10 UNL     1     -34.314   7.104   5.616  1.00 20.00    -0.028 C 
HETATM    9  C7  UNL     1     -34.406   5.738   6.313  1.00 20.00     0.019 C 
HETATM   10  C8  UNL     1     -35.678   7.455   4.999  1.00 20.00     0.019 C 
HETATM   11  C9  UNL     1     -33.938   8.180   6.648  1.00 20.00     0.019 C 
ENDBRANCH   2   8
TORSDOF 1
