REMARK  2 active torsions:
REMARK  status: ('A' for Active; 'I' for Inactive)
REMARK    1  A    between atoms: C4_4  and  C9_9 
REMARK    2  A    between atoms: C8_8  and  O10_10 
ROOT
HETATM    1  C1  UNL     1     -32.480   8.578   1.043  1.00 20.00     0.012 C 
HETATM    2  C2  UNL     1     -32.172   7.657   1.749  1.00 20.00    -0.113 C 
HETATM    3  C9  UNL     1     -31.781   6.531   2.594  1.00 20.00     0.127 C 
ENDROOT
BRANCH   3   4
HETATM    4  C4  UNL     1     -32.727   6.418   3.752  1.00 20.00    -0.070 C 
HETATM    5  C3  UNL     1     -33.485   5.324   3.947  1.00 20.00     0.008 C 
HETATM    6  C8  UNL     1     -34.465   5.185   5.075  1.00 20.00     0.141 C 
HETATM    7  C7  UNL     1     -34.773   6.514   5.769  1.00 20.00     0.036 C 
HETATM    8  C6  UNL     1     -33.500   7.314   6.005  1.00 20.00     0.007 C 
HETATM    9  C5  UNL     1     -32.780   7.603   4.685  1.00 20.00     0.035 C 
BRANCH   6  10
HETATM   10  O10 UNL     1     -35.677   4.639   4.561  1.00 20.00    -0.392 OA
HETATM   11  H22 UNL     1     -36.286   4.562   5.312  1.00 20.00     0.210 HD
ENDBRANCH   6  10
ENDBRANCH   3   4
TORSDOF 2
