REMARK  1 active torsions:
REMARK  status: ('A' for Active; 'I' for Inactive)
REMARK    1  A    between atoms: C2_2  and  C9_9 
ROOT
HETATM    1  C1  UNL     1     -32.766   6.180   2.242  1.00 20.00    -0.004 C 
HETATM    2  C2  UNL     1     -33.464   6.342   3.373  1.00 20.00    -0.076 C 
HETATM    3  C3  UNL     1     -33.008   7.549   4.133  1.00 20.00     0.036 C 
HETATM    4  C4  UNL     1     -31.673   7.877   3.461  1.00 20.00     0.028 C 
HETATM    5  C8  UNL     1     -31.737   7.248   2.067  1.00 20.00     0.105 C 
HETATM    6 CL11 UNL     1     -32.287   8.415   0.844  1.00 20.00    -0.121 Cl
ENDROOT
BRANCH   2   7
HETATM    7  C9  UNL     1     -34.593   5.491   3.868  1.00 20.00     0.040 C 
HETATM    8  C5  UNL     1     -34.135   4.405   4.819  1.00 20.00     0.037 C 
HETATM    9  C6  UNL     1     -34.109   5.113   6.159  1.00 20.00     0.168 C 
HETATM   10  O10 UNL     1     -35.097   6.149   6.103  1.00 20.00    -0.390 OA
HETATM   11  C7  UNL     1     -35.548   6.285   4.746  1.00 20.00     0.176 C 
ENDBRANCH   2   7
TORSDOF 1
