REMARK  1 active torsions:
REMARK  status: ('A' for Active; 'I' for Inactive)
REMARK    1  A    between atoms: C4_4  and  C8_8 
ROOT
HETATM    1  C1  UNL     1     -32.434   8.059   0.964  1.00 20.00     0.012 C 
HETATM    2  C2  UNL     1     -32.177   7.747   2.094  1.00 20.00    -0.113 C 
HETATM    3  C8  UNL     1     -31.856   7.370   3.474  1.00 20.00     0.126 C 
ENDROOT
BRANCH   3   4
HETATM    4  C4  UNL     1     -32.978   6.599   4.068  1.00 20.00    -0.071 C 
HETATM    5  C3  UNL     1     -33.677   6.909   5.168  1.00 20.00    -0.003 C 
HETATM    6  C7  UNL     1     -34.708   5.875   5.480  1.00 20.00     0.105 C 
HETATM    7  C6  UNL     1     -34.771   5.067   4.181  1.00 20.00     0.028 C 
HETATM    8 CL9  UNL     1     -34.162   4.879   6.847  1.00 20.00    -0.121 Cl
HETATM    9  C5  UNL     1     -33.435   5.303   3.474  1.00 20.00     0.036 C 
ENDBRANCH   3   4
TORSDOF 1
