REMARK  1 active torsions:
REMARK  status: ('A' for Active; 'I' for Inactive)
REMARK    1  A    between atoms: C2_2  and  C8_8 
ROOT
HETATM    1  C1  UNL     1     -32.844   7.510   3.899  1.00 20.00    -0.004 C 
HETATM    2  C2  UNL     1     -33.701   6.574   4.327  1.00 20.00    -0.079 C 
HETATM    3  C3  UNL     1     -33.696   5.374   3.432  1.00 20.00     0.036 C 
HETATM    4  C4  UNL     1     -32.426   5.584   2.605  1.00 20.00     0.028 C 
HETATM    5  C5  UNL     1     -32.132   7.086   2.657  1.00 20.00     0.105 C 
HETATM    6 CL9  UNL     1     -32.815   7.938   1.255  1.00 20.00    -0.121 Cl
ENDROOT
BRANCH   2   7
HETATM    7  C8  UNL     1     -34.602   6.656   5.505  1.00 20.00     0.006 C 
HETATM    8  C6  UNL     1     -34.313   5.520   6.489  1.00 20.00     0.014 C 
HETATM    9  C7  UNL     1     -34.478   8.012   6.205  1.00 20.00     0.014 C 
ENDBRANCH   2   7
TORSDOF 1
