REMARK  1 active torsions:
REMARK  status: ('A' for Active; 'I' for Inactive)
REMARK    1  A    between atoms: C2_2  and  C8_8 
ROOT
HETATM    1  C1  UNL     1     -34.702   6.397   6.010  1.00 20.00     0.018 C 
HETATM    2  C2  UNL     1     -34.155   6.510   4.583  1.00 20.00     0.034 C 
HETATM    3  C3  UNL     1     -34.105   5.081   6.533  1.00 20.00     0.122 C 
HETATM    4  C4  UNL     1     -34.096   5.029   4.200  1.00 20.00     0.123 C 
HETATM    5  C5  UNL     1     -34.544   7.618   6.902  1.00 20.00     0.013 C 
HETATM    6  C6  UNL     1     -32.948   5.186   7.515  1.00 20.00     0.040 C 
HETATM    7  C7  UNL     1     -33.201   4.660   3.031  1.00 20.00     0.040 C 
HETATM    8  O9  UNL     1     -33.650   4.344   5.381  1.00 20.00    -0.381 OA
ENDROOT
BRANCH   2   9
HETATM    9  C8  UNL     1     -32.815   7.238   4.473  1.00 20.00     0.122 C 
HETATM   10 CL10 UNL     1     -32.563   7.800   2.812  1.00 20.00    -0.130 Cl
ENDBRANCH   2   9
TORSDOF 1
