REMARK  4 active torsions:
REMARK  status: ('A' for Active; 'I' for Inactive)
REMARK    1  A    between atoms: C2_2  and  C8_8 
REMARK    2  A    between atoms: C8_8  and  C11_11 
REMARK    3  A    between atoms: C9_9  and  C10_10 
REMARK    4  A    between atoms: C10_10  and  C11_11 
ROOT
HETATM    1  C1  UNL     1     -32.969   5.510   4.568  1.00 20.00    -0.004 C 
HETATM    2  C2  UNL     1     -33.413   5.922   3.374  1.00 20.00    -0.082 C 
HETATM    3  C3  UNL     1     -34.893   6.150   3.386  1.00 20.00     0.036 C 
HETATM    4  C4  UNL     1     -35.324   5.452   4.678  1.00 20.00     0.028 C 
HETATM    5  C5  UNL     1     -34.077   5.398   5.563  1.00 20.00     0.105 C 
HETATM    6 CL12 UNL     1     -34.011   6.771   6.690  1.00 20.00    -0.121 Cl
ENDROOT
BRANCH   2   7
HETATM    7  C8  UNL     1     -32.602   6.177   2.157  1.00 20.00     0.038 C 
BRANCH   7   8
HETATM    8  C11 UNL     1     -32.148   7.639   1.976  1.00 20.00    -0.015 C 
HETATM    9  C7  UNL     1     -31.212   8.074   3.111  1.00 20.00     0.010 C 
BRANCH   8  10
HETATM   10  C10 UNL     1     -33.309   8.648   1.846  1.00 20.00     0.004 C 
BRANCH  10  11
HETATM   11  C9  UNL     1     -32.927   9.926   1.096  1.00 20.00    -0.004 C 
HETATM   12  C6  UNL     1     -32.482   9.622  -0.326  1.00 20.00     0.005 C 
ENDBRANCH  10  11
ENDBRANCH   8  10
ENDBRANCH   7   8
ENDBRANCH   2   7
TORSDOF 4
