REMARK  1 active torsions:
REMARK  status: ('A' for Active; 'I' for Inactive)
REMARK    1  A    between atoms: C4_4  and  C6_6 
ROOT
HETATM    1  C5  UNL     1     -32.448   7.709   3.187  1.00 20.00     0.001 C 
HETATM    2  C6  UNL     1     -33.200   6.752   3.756  1.00 20.00    -0.048 C 
HETATM    3  C7  UNL     1     -33.455   5.636   2.780  1.00 20.00     0.041 C 
HETATM    4  C8  UNL     1     -32.406   5.888   1.696  1.00 20.00     0.028 C 
HETATM    5  C9  UNL     1     -32.081   7.378   1.776  1.00 20.00     0.106 C 
HETATM    6 CL11 UNL     1     -33.081   8.332   0.659  1.00 20.00    -0.121 Cl
ENDROOT
BRANCH   2   7
HETATM    7  C4  UNL     1     -33.760   6.759   5.118  1.00 20.00    -0.006 A 
HETATM    8  C1  UNL     1     -33.634   7.756   6.114  1.00 20.00     0.038 A 
HETATM    9  C2  UNL     1     -34.334   7.297   7.206  1.00 20.00     0.142 A 
HETATM   10  O10 UNL     1     -34.882   6.081   6.945  1.00 20.00    -0.334 OA
HETATM   11  C3  UNL     1     -34.528   5.761   5.672  1.00 20.00     0.153 A 
ENDBRANCH   2   7
TORSDOF 1
