REMARK  0 active torsions:
REMARK  status: ('A' for Active; 'I' for Inactive)
ROOT
HETATM    1  C1  UNL     1     -32.910   7.480   4.217  1.00 20.00     0.067 C 
HETATM    2  C2  UNL     1     -34.249   6.879   4.099  1.00 20.00     0.127 C 
HETATM    3  C3  UNL     1     -34.899   6.595   5.452  1.00 20.00     0.030 C 
HETATM    4  C4  UNL     1     -34.218   5.465   3.515  1.00 20.00     0.136 C 
HETATM    5  C5  UNL     1     -34.342   5.216   5.839  1.00 20.00     0.123 C 
HETATM    6  C6  UNL     1     -34.801   7.693   6.501  1.00 20.00     0.014 C 
HETATM    7  C7  UNL     1     -33.249   5.217   2.371  1.00 20.00     0.041 C 
HETATM    8  C8  UNL     1     -33.167   5.201   6.807  1.00 20.00     0.040 C 
HETATM    9  N9  UNL     1     -31.854   7.954   4.311  1.00 20.00    -0.197 NA
HETATM   10  O10 UNL     1     -33.914   4.588   4.613  1.00 20.00    -0.380 OA
ENDROOT
TORSDOF 0
