REMARK  1 active torsions:
REMARK  status: ('A' for Active; 'I' for Inactive)
REMARK    1  A    between atoms: C2_2  and  C9_9 
ROOT
HETATM    1  C1  UNL     1     -33.563   7.523   4.202  1.00 20.00    -0.004 C 
HETATM    2  C2  UNL     1     -34.028   6.299   4.518  1.00 20.00    -0.078 C 
HETATM    3  C3  UNL     1     -33.618   5.079   3.720  1.00 20.00     0.034 C 
HETATM    4  C4  UNL     1     -32.411   5.305   2.806  1.00 20.00     0.006 C 
HETATM    5  C5  UNL     1     -32.527   6.637   2.070  1.00 20.00     0.024 C 
HETATM    6  C8  UNL     1     -32.651   7.811   3.046  1.00 20.00     0.105 C 
HETATM    7 CL10 UNL     1     -31.042   8.250   3.701  1.00 20.00    -0.121 Cl
ENDROOT
BRANCH   2   8
HETATM    8  C9  UNL     1     -34.941   6.040   5.658  1.00 20.00     0.014 A 
HETATM    9  C6  UNL     1     -34.525   5.031   6.674  1.00 20.00     0.010 A 
HETATM   10  C7  UNL     1     -34.514   6.491   7.014  1.00 20.00     0.010 A 
ENDBRANCH   2   8
TORSDOF 1
