REMARK  1 active torsions:
REMARK  status: ('A' for Active; 'I' for Inactive)
REMARK    1  A    between atoms: C3_3  and  C5_5 
ROOT
HETATM    1  C1  UNL     1     -32.431   8.248   0.866  1.00 20.00     0.109 A 
HETATM    2  C2  UNL     1     -32.756   9.456   1.415  1.00 20.00     0.107 A 
HETATM    3  C3  UNL     1     -33.101   7.896   2.946  1.00 20.00     0.113 A 
HETATM    4  C10 UNL     1     -32.433   5.876   1.670  1.00 20.00     0.157 C 
HETATM    5  N11 UNL     1     -32.653   7.300   1.836  1.00 20.00    -0.346 N 
HETATM    6  N12 UNL     1     -33.168   9.208   2.702  1.00 20.00    -0.350 N 
HETATM    7  H27 UNL     1     -33.476   9.915   3.365  1.00 20.00     0.166 HD
ENDROOT
BRANCH   3   8
HETATM    8  C5  UNL     1     -33.465   7.243   4.228  1.00 20.00    -0.016 C 
HETATM    9  C4  UNL     1     -32.828   7.561   5.372  1.00 20.00     0.004 C 
HETATM   10  C9  UNL     1     -33.131   6.932   6.702  1.00 20.00     0.105 C 
HETATM   11  C8  UNL     1     -34.016   5.687   6.598  1.00 20.00     0.024 C 
HETATM   12 CL13 UNL     1     -33.919   8.170   7.732  1.00 20.00    -0.121 Cl
HETATM   13  C7  UNL     1     -35.136   5.876   5.578  1.00 20.00     0.006 C 
HETATM   14  C6  UNL     1     -34.562   6.202   4.196  1.00 20.00     0.042 C 
ENDBRANCH   3   8
TORSDOF 1
