REMARK  2 active torsions:
REMARK  status: ('A' for Active; 'I' for Inactive)
REMARK    1  A    between atoms: C2_2  and  C9_9 
REMARK    2  A    between atoms: C4_4  and  C9_9 
ROOT
HETATM    1  C1  UNL     1     -32.744   7.153   4.887  1.00 20.00    -0.004 C 
HETATM    2  C2  UNL     1     -33.070   6.433   3.796  1.00 20.00    -0.079 C 
HETATM    3  C5  UNL     1     -34.064   5.295   3.885  1.00 20.00     0.034 C 
HETATM    4  C6  UNL     1     -34.356   4.836   5.315  1.00 20.00     0.006 C 
HETATM    5  C7  UNL     1     -34.578   6.034   6.231  1.00 20.00     0.024 C 
HETATM    6  C8  UNL     1     -33.338   6.931   6.248  1.00 20.00     0.105 C 
HETATM    7 CL10 UNL     1     -33.753   8.503   6.991  1.00 20.00    -0.121 Cl
ENDROOT
BRANCH   2   8
HETATM    8  C9  UNL     1     -32.474   6.664   2.458  1.00 20.00     0.060 C 
BRANCH   8   9
HETATM    9  C4  UNL     1     -32.754   8.045   1.954  1.00 20.00    -0.033 C 
HETATM   10  C3  UNL     1     -32.334   8.506   0.770  1.00 20.00     0.007 C 
ENDBRANCH   8   9
ENDBRANCH   2   8
TORSDOF 2
