REMARK  1 active torsions:
REMARK  status: ('A' for Active; 'I' for Inactive)
REMARK    1  A    between atoms: C2_2  and  C8_8 
ROOT
HETATM    1  C1  UNL     1     -32.933   6.320   2.680  1.00 20.00     0.053 C 
HETATM    2  C2  UNL     1     -33.069   7.313   3.572  1.00 20.00    -0.072 C 
HETATM    3  C3  UNL     1     -33.179   4.912   3.075  1.00 20.00     0.150 C 
HETATM    4  C4  UNL     1     -33.514   7.082   4.995  1.00 20.00     0.043 C 
HETATM    5  C5  UNL     1     -33.503   4.607   4.521  1.00 20.00     0.092 C 
HETATM    6  C9  UNL     1     -34.267   5.750   5.209  1.00 20.00    -0.037 C 
HETATM    7  C10 UNL     1     -34.362   5.461   6.718  1.00 20.00     0.015 C 
HETATM    8  C11 UNL     1     -35.703   5.845   4.650  1.00 20.00     0.015 C 
HETATM    9  O12 UNL     1     -33.057   4.017   2.240  1.00 20.00    -0.293 OA
ENDROOT
BRANCH   2  10
HETATM   10  C8  UNL     1     -32.769   8.737   3.203  1.00 20.00     0.014 A 
HETATM   11  C6  UNL     1     -31.657   8.989   2.243  1.00 20.00     0.010 A 
HETATM   12  C7  UNL     1     -33.081   9.178   1.815  1.00 20.00     0.010 A 
ENDBRANCH   2  10
TORSDOF 1
