REMARK  2 active torsions:
REMARK  status: ('A' for Active; 'I' for Inactive)
REMARK    1  A    between atoms: C3_3  and  C8_8 
REMARK    2  A    between atoms: C8_8  and  C9_9 
ROOT
HETATM    1  C1  UNL     1     -32.623   5.906   2.124  1.00 20.00     0.044 A 
HETATM    2  C2  UNL     1     -32.202   7.196   1.876  1.00 20.00     0.005 A 
HETATM    3  C3  UNL     1     -33.262   6.828   4.008  1.00 20.00     0.081 A 
HETATM    4  C4  UNL     1     -32.478   4.754   1.210  1.00 20.00     0.071 C 
HETATM    5  C5  UNL     1     -31.525   7.765   0.694  1.00 20.00     0.058 C 
HETATM    6  N10 UNL     1     -33.230   5.693   3.346  1.00 20.00    -0.249 NA
HETATM    7  S11 UNL     1     -32.579   8.191   3.221  1.00 20.00    -0.077 SA
ENDROOT
BRANCH   3   8
HETATM    8  C8  UNL     1     -33.854   6.997   5.402  1.00 20.00     0.059 C 
HETATM    9  C6  UNL     1     -32.732   6.853   6.443  1.00 20.00     0.018 C 
BRANCH   8  10
HETATM   10  C9  UNL     1     -35.037   6.027   5.664  1.00 20.00     0.088 C 
HETATM   11  C7  UNL     1     -34.582   4.601   5.975  1.00 20.00     0.027 C 
HETATM   12 CL12 UNL     1     -36.125   5.949   4.234  1.00 20.00    -0.125 Cl
ENDBRANCH   8  10
ENDBRANCH   3   8
TORSDOF 2
