REMARK  2 active torsions:
REMARK  status: ('A' for Active; 'I' for Inactive)
REMARK    1  A    between atoms: C4_4  and  C10_10 
REMARK    2  A    between atoms: C9_9  and  C10_10 
ROOT
HETATM    1  C1  UNL     1     -32.346   9.717  -0.442  1.00 20.00     0.012 C 
HETATM    2  C2  UNL     1     -32.667   8.861   0.337  1.00 20.00    -0.117 C 
HETATM    3  C9  UNL     1     -33.062   7.811   1.288  1.00 20.00     0.097 C 
ENDROOT
BRANCH   3   4
HETATM    4  C10 UNL     1     -32.659   8.152   2.715  1.00 20.00     0.046 C 
BRANCH   4   5
HETATM    5  C4  UNL     1     -33.049   7.065   3.646  1.00 20.00    -0.081 C 
HETATM    6  C3  UNL     1     -33.312   7.267   4.952  1.00 20.00    -0.004 C 
HETATM    7  C8  UNL     1     -33.707   6.176   5.906  1.00 20.00     0.105 C 
HETATM    8  C7  UNL     1     -34.099   4.871   5.209  1.00 20.00     0.024 C 
HETATM    9 CL11 UNL     1     -35.062   6.732   6.931  1.00 20.00    -0.121 Cl
HETATM   10  C6  UNL     1     -33.119   4.553   4.086  1.00 20.00     0.006 C 
HETATM   11  C5  UNL     1     -33.103   5.676   3.047  1.00 20.00     0.034 C 
ENDBRANCH   4   5
ENDBRANCH   3   4
TORSDOF 2
