REMARK  3 active torsions:
REMARK  status: ('A' for Active; 'I' for Inactive)
REMARK    1  A    between atoms: C4_4  and  C10_10 
REMARK    2  A    between atoms: C8_8  and  O11_11 
REMARK    3  A    between atoms: C9_9  and  C10_10 
ROOT
HETATM    1  C1  UNL     1     -31.927   9.637  -0.429  1.00 20.00     0.012 C 
HETATM    2  C2  UNL     1     -32.438   8.788   0.249  1.00 20.00    -0.117 C 
HETATM    3  C9  UNL     1     -33.066   7.747   1.077  1.00 20.00     0.097 C 
ENDROOT
BRANCH   3   4
HETATM    4  C10 UNL     1     -32.236   7.419   2.309  1.00 20.00     0.046 C 
BRANCH   4   5
HETATM    5  C4  UNL     1     -32.892   6.340   3.119  1.00 20.00    -0.080 C 
HETATM    6  C3  UNL     1     -33.727   6.622   4.136  1.00 20.00     0.007 C 
HETATM    7  C8  UNL     1     -34.428   5.573   4.949  1.00 20.00     0.141 C 
HETATM    8  C7  UNL     1     -34.380   4.185   4.305  1.00 20.00     0.036 C 
HETATM    9  C6  UNL     1     -32.989   3.881   3.766  1.00 20.00     0.007 C 
HETATM   10  C5  UNL     1     -32.563   4.921   2.726  1.00 20.00     0.034 C 
BRANCH   7  11
HETATM   11  O11 UNL     1     -35.789   5.959   5.115  1.00 20.00    -0.392 OA
HETATM   12  H25 UNL     1     -36.212   5.263   5.642  1.00 20.00     0.210 HD
ENDBRANCH   7  11
ENDBRANCH   4   5
ENDBRANCH   3   4
TORSDOF 3
