REMARK  1 active torsions:
REMARK  status: ('A' for Active; 'I' for Inactive)
REMARK    1  A    between atoms: C2_2  and  C10_10 
ROOT
HETATM    1  C1  UNL     1     -33.529   6.007   3.528  1.00 20.00    -0.004 C 
HETATM    2  C2  UNL     1     -33.079   7.248   3.793  1.00 20.00    -0.076 C 
HETATM    3  C3  UNL     1     -33.144   7.819   5.194  1.00 20.00     0.034 C 
HETATM    4  C4  UNL     1     -33.417   6.779   6.282  1.00 20.00     0.006 C 
HETATM    5  C5  UNL     1     -34.516   5.813   5.850  1.00 20.00     0.024 C 
HETATM    6  C9  UNL     1     -34.158   5.098   4.544  1.00 20.00     0.105 C 
HETATM    7 CL12 UNL     1     -33.021   3.750   4.863  1.00 20.00    -0.121 Cl
ENDROOT
BRANCH   2   8
HETATM    8  C10 UNL     1     -32.472   8.138   2.764  1.00 20.00     0.040 C 
HETATM    9  C6  UNL     1     -32.457   7.542   1.371  1.00 20.00     0.037 C 
HETATM   10  C7  UNL     1     -32.299   8.773   0.507  1.00 20.00     0.168 C 
HETATM   11  O11 UNL     1     -32.999   9.830   1.175  1.00 20.00    -0.390 OA
HETATM   12  C8  UNL     1     -33.242   9.431   2.534  1.00 20.00     0.176 C 
ENDBRANCH   2   8
TORSDOF 1
