REMARK  0 active torsions:
REMARK  status: ('A' for Active; 'I' for Inactive)
ROOT
HETATM    1  C1  UNL     1     -32.147   7.634   3.443  1.00 20.00     0.067 C 
HETATM    2  C2  UNL     1     -33.379   7.135   4.060  1.00 20.00     0.127 C 
HETATM    3  C3  UNL     1     -33.217   6.763   5.527  1.00 20.00     0.030 C 
HETATM    4  C4  UNL     1     -33.916   5.834   3.456  1.00 20.00     0.136 C 
HETATM    5  C5  UNL     1     -34.448   5.886   5.742  1.00 20.00     0.123 C 
HETATM    6  C6  UNL     1     -33.160   7.958   6.470  1.00 20.00     0.014 C 
HETATM    7  C7  UNL     1     -32.869   4.837   2.965  1.00 20.00     0.041 C 
HETATM    8  C8  UNL     1     -34.297   4.883   6.872  1.00 20.00     0.040 C 
HETATM    9  N9  UNL     1     -31.172   8.030   2.954  1.00 20.00    -0.197 NA
HETATM   10  O10 UNL     1     -34.657   5.179   4.507  1.00 20.00    -0.380 OA
ENDROOT
TORSDOF 0
