REMARK  1 active torsions:
REMARK  status: ('A' for Active; 'I' for Inactive)
REMARK    1  A    between atoms: C2_2  and  C10_10 
ROOT
HETATM    1  C1  UNL     1     -32.879   7.192   3.868  1.00 20.00    -0.003 C 
HETATM    2  C2  UNL     1     -33.551   6.083   4.225  1.00 20.00    -0.075 C 
HETATM    3  C3  UNL     1     -33.437   4.792   3.453  1.00 20.00     0.034 C 
HETATM    4  C4  UNL     1     -32.764   4.944   2.086  1.00 20.00     0.006 C 
HETATM    5  C5  UNL     1     -31.554   5.870   2.166  1.00 20.00     0.024 C 
HETATM    6  C6  UNL     1     -31.932   7.254   2.704  1.00 20.00     0.105 C 
HETATM    7 CL11 UNL     1     -32.692   8.241   1.417  1.00 20.00    -0.121 Cl
ENDROOT
BRANCH   2   8
HETATM    8  C10 UNL     1     -34.455   6.058   5.423  1.00 20.00    -0.028 C 
HETATM    9  C7  UNL     1     -33.946   5.006   6.419  1.00 20.00     0.019 C 
HETATM   10  C8  UNL     1     -35.885   5.700   4.986  1.00 20.00     0.019 C 
HETATM   11  C9  UNL     1     -34.464   7.439   6.096  1.00 20.00     0.019 C 
ENDBRANCH   2   8
TORSDOF 1
