REMARK  2 active torsions:
REMARK  status: ('A' for Active; 'I' for Inactive)
REMARK    1  A    between atoms: C4_4  and  C12_12 
REMARK    2  A    between atoms: C11_11  and  C12_12 
ROOT
HETATM    1  C1  UNL     1     -31.307   8.935  -0.430  1.00 20.00     0.012 C 
HETATM    2  C2  UNL     1     -31.946   8.714   0.562  1.00 20.00    -0.117 C 
HETATM    3  C11 UNL     1     -32.730   8.445   1.777  1.00 20.00     0.097 C 
ENDROOT
BRANCH   3   4
HETATM    4  C12 UNL     1     -32.242   7.205   2.510  1.00 20.00     0.046 C 
BRANCH   4   5
HETATM    5  C4  UNL     1     -33.076   6.948   3.732  1.00 20.00    -0.075 C 
HETATM    6  C3  UNL     1     -32.717   7.428   4.932  1.00 20.00     0.053 C 
HETATM    7  C5  UNL     1     -33.579   7.216   6.119  1.00 20.00     0.150 C 
HETATM    8  C7  UNL     1     -34.912   6.521   5.936  1.00 20.00     0.092 C 
HETATM    9  O13 UNL     1     -33.228   7.657   7.212  1.00 20.00    -0.293 OA
HETATM   10  C8  UNL     1     -34.887   5.485   4.799  1.00 20.00    -0.037 C 
HETATM   11  C6  UNL     1     -34.330   6.138   3.514  1.00 20.00     0.043 C 
HETATM   12  C9  UNL     1     -36.319   4.990   4.534  1.00 20.00     0.015 C 
HETATM   13  C10 UNL     1     -34.028   4.268   5.204  1.00 20.00     0.015 C 
ENDBRANCH   4   5
ENDBRANCH   3   4
TORSDOF 2
