REMARK  4 active torsions:
REMARK  status: ('A' for Active; 'I' for Inactive)
REMARK    1  A    between atoms: C2_2  and  C7_7 
REMARK    2  A    between atoms: C7_7  and  C8_8 
REMARK    3  A    between atoms: C8_8  and  C9_9 
REMARK    4  A    between atoms: C9_9  and  O10_10 
ROOT
HETATM    1  C1  UNL     1     -33.864   6.108   3.917  1.00 20.00    -0.004 C 
HETATM    2  C2  UNL     1     -32.727   6.701   3.530  1.00 20.00    -0.082 C 
HETATM    3  C3  UNL     1     -32.168   7.575   4.610  1.00 20.00     0.036 C 
HETATM    4  C4  UNL     1     -33.348   7.703   5.576  1.00 20.00     0.028 C 
HETATM    5  C5  UNL     1     -34.244   6.491   5.309  1.00 20.00     0.105 C 
HETATM    6 CL11 UNL     1     -33.881   5.150   6.418  1.00 20.00    -0.121 Cl
ENDROOT
BRANCH   2   7
HETATM    7  C7  UNL     1     -32.028   6.537   2.230  1.00 20.00     0.036 C 
BRANCH   7   8
HETATM    8  C8  UNL     1     -32.467   7.601   1.230  1.00 20.00     0.030 C 
BRANCH   8   9
HETATM    9  C9  UNL     1     -32.234   9.019   1.738  1.00 20.00     0.167 C 
BRANCH   9  10
HETATM   10  O10 UNL     1     -32.654   9.938   0.738  1.00 20.00    -0.396 OA
HETATM   11  C6  UNL     1     -32.486  11.284   1.162  1.00 20.00     0.201 C 
ENDBRANCH   9  10
ENDBRANCH   8   9
ENDBRANCH   7   8
ENDBRANCH   2   7
TORSDOF 4
