REMARK  2 active torsions:
REMARK  status: ('A' for Active; 'I' for Inactive)
REMARK    1  A    between atoms: C2_2  and  C8_8 
REMARK    2  A    between atoms: C4_4  and  C8_8 
ROOT
HETATM    1  C1  UNL     1     -34.438   6.395   4.193  1.00 20.00    -0.004 C 
HETATM    2  C2  UNL     1     -33.217   6.938   4.098  1.00 20.00    -0.079 C 
HETATM    3  C5  UNL     1     -32.716   7.402   5.430  1.00 20.00     0.036 C 
HETATM    4  C6  UNL     1     -33.986   7.389   6.284  1.00 20.00     0.028 C 
HETATM    5  C7  UNL     1     -34.944   6.412   5.598  1.00 20.00     0.105 C 
HETATM    6 CL9  UNL     1     -34.829   4.781   6.295  1.00 20.00    -0.121 Cl
ENDROOT
BRANCH   2   7
HETATM    7  C8  UNL     1     -32.388   7.066   2.872  1.00 20.00     0.060 C 
BRANCH   7   8
HETATM    8  C4  UNL     1     -32.639   5.955   1.894  1.00 20.00    -0.033 C 
HETATM    9  C3  UNL     1     -33.029   4.723   2.241  1.00 20.00     0.007 C 
ENDBRANCH   7   8
ENDBRANCH   2   7
TORSDOF 2
