REMARK  2 active torsions:
REMARK  status: ('A' for Active; 'I' for Inactive)
REMARK    1  A    between atoms: C5_5  and  C6_6 
REMARK    2  A    between atoms: C5_5  and  C7_7 
ROOT
HETATM    1  C1  UNL     1     -32.904   5.722   2.599  1.00 20.00     0.068 C 
HETATM    2  C3  UNL     1     -31.536   7.513   3.534  1.00 20.00     0.031 C 
HETATM    3  C4  UNL     1     -33.264   8.024   1.804  1.00 20.00     0.031 C 
HETATM    4  C7  UNL     1     -32.943   7.141   3.019  1.00 20.00     0.043 C 
HETATM    5  N8  UNL     1     -32.859   4.610   2.267  1.00 20.00    -0.196 NA
ENDROOT
BRANCH   4   6
HETATM    6  C5  UNL     1     -33.955   7.356   4.182  1.00 20.00     0.043 C 
BRANCH   6   7
HETATM    7  C6  UNL     1     -34.023   6.295   5.300  1.00 20.00     0.080 C 
HETATM    8  C2  UNL     1     -34.870   5.103   4.857  1.00 20.00     0.026 C 
HETATM    9 CL9  UNL     1     -34.716   6.943   6.812  1.00 20.00    -0.125 Cl
ENDBRANCH   6   7
ENDBRANCH   4   6
TORSDOF 2
