REMARK  2 active torsions:
REMARK  status: ('A' for Active; 'I' for Inactive)
REMARK    1  A    between atoms: C3_3  and  C4_4 
REMARK    2  A    between atoms: C4_4  and  C5_5 
ROOT
HETATM    1  C1  UNL     1     -32.759   6.290   2.717  1.00 20.00     0.059 C 
HETATM    2  C3  UNL     1     -33.435   5.027   3.042  1.00 20.00     0.125 C 
HETATM    3  N6  UNL     1     -32.225   7.287   2.459  1.00 20.00    -0.197 NA
ENDROOT
BRANCH   2   4
HETATM    4  C4  UNL     1     -34.401   5.171   4.223  1.00 20.00     0.034 C 
BRANCH   4   5
HETATM    5  C5  UNL     1     -33.765   5.677   5.528  1.00 20.00     0.079 C 
HETATM    6  C2  UNL     1     -34.663   5.378   6.724  1.00 20.00     0.026 C 
HETATM    7 CL7  UNL     1     -33.467   7.440   5.458  1.00 20.00    -0.125 Cl
ENDBRANCH   4   5
ENDBRANCH   2   4
TORSDOF 2
