REMARK  2 active torsions:
REMARK  status: ('A' for Active; 'I' for Inactive)
REMARK    1  A    between atoms: C4_4  and  C5_5 
REMARK    2  A    between atoms: C4_4  and  C6_6 
ROOT
HETATM    1  C1  UNL     1     -32.132   7.311   2.127  1.00 20.00     0.063 C 
HETATM    2  C2  UNL     1     -32.820   5.015   2.658  1.00 20.00     0.025 C 
HETATM    3  C5  UNL     1     -32.465   6.390   3.230  1.00 20.00     0.090 C 
HETATM    4  N7  UNL     1     -31.868   8.035   1.259  1.00 20.00    -0.197 NA
ENDROOT
BRANCH   3   5
HETATM    5  C4  UNL     1     -33.638   6.930   4.074  1.00 20.00     0.034 C 
BRANCH   5   6
HETATM    6  C6  UNL     1     -33.708   6.387   5.508  1.00 20.00     0.055 C 
HETATM    7  C3  UNL     1     -34.482   7.326   6.423  1.00 20.00     0.022 C 
HETATM    8 BR8  UNL     1     -34.618   4.649   5.528  1.00 20.00    -0.092 Br
ENDBRANCH   5   6
ENDBRANCH   3   5
TORSDOF 2
