REMARK  0 active torsions:
REMARK  status: ('A' for Active; 'I' for Inactive)
ROOT
HETATM    1  C1  UNL     1     -33.514   5.304   3.085  1.00 20.00     0.064 C 
HETATM    2  C2  UNL     1     -34.378   4.771   5.351  1.00 20.00     0.021 C 
HETATM    3  C3  UNL     1     -34.066   5.686   6.534  1.00 20.00     0.021 C 
HETATM    4  C4  UNL     1     -34.226   7.106   4.635  1.00 20.00     0.039 C 
HETATM    5  C5  UNL     1     -34.491   5.686   4.118  1.00 20.00     0.094 C 
HETATM    6  C6  UNL     1     -33.394   6.889   5.892  1.00 20.00     0.083 C 
HETATM    7  N7  UNL     1     -32.743   5.004   2.271  1.00 20.00    -0.197 NA
HETATM    8 CL8  UNL     1     -33.394   8.305   6.952  1.00 20.00    -0.125 Cl
ENDROOT
TORSDOF 0
