REMARK  1 active torsions:
REMARK  status: ('A' for Active; 'I' for Inactive)
REMARK    1  A    between atoms: C6_6  and  O11_11 
ROOT
HETATM    1  C1  UNL     1     -32.529   8.165   2.764  1.00 20.00     0.095 C 
HETATM    2  C2  UNL     1     -32.772   5.800   2.984  1.00 20.00     0.022 C 
HETATM    3  C3  UNL     1     -32.987   7.026   3.489  1.00 20.00     0.021 C 
HETATM    4  C4  UNL     1     -33.711   7.235   4.797  1.00 20.00     0.058 C 
HETATM    5  C5  UNL     1     -33.740   4.729   5.082  1.00 20.00     0.045 C 
HETATM    6  C6  UNL     1     -33.190   4.528   3.664  1.00 20.00     0.143 C 
HETATM    7  C7  UNL     1     -34.568   6.026   5.250  1.00 20.00    -0.041 C 
HETATM    8  C8  UNL     1     -34.938   6.197   6.735  1.00 20.00     0.015 C 
HETATM    9  C9  UNL     1     -35.879   5.963   4.441  1.00 20.00     0.015 C 
HETATM   10  N10 UNL     1     -32.156   9.092   2.174  1.00 20.00    -0.192 NA
ENDROOT
BRANCH   6  11
HETATM   11  O11 UNL     1     -34.176   3.872   2.868  1.00 20.00    -0.392 OA
HETATM   12  H24 UNL     1     -33.761   3.689   2.011  1.00 20.00     0.210 HD
ENDBRANCH   6  11
TORSDOF 1
