REMARK  0 active torsions:
REMARK  status: ('A' for Active; 'I' for Inactive)
ROOT
HETATM    1  C1  UNL     1     -32.907   7.211   4.019  1.00 20.00     0.064 C 
HETATM    2  C2  UNL     1     -33.557   6.927   6.399  1.00 20.00     0.021 C 
HETATM    3  C3  UNL     1     -34.493   5.838   6.920  1.00 20.00     0.021 C 
HETATM    4  C4  UNL     1     -35.078   6.158   4.634  1.00 20.00     0.039 C 
HETATM    5  C5  UNL     1     -34.029   7.231   4.969  1.00 20.00     0.094 C 
HETATM    6  C6  UNL     1     -34.898   5.058   5.677  1.00 20.00     0.083 C 
HETATM    7  N7  UNL     1     -32.021   7.195   3.269  1.00 20.00    -0.197 NA
HETATM    8 CL8  UNL     1     -33.612   3.918   5.191  1.00 20.00    -0.125 Cl
ENDROOT
TORSDOF 0
