REMARK  0 active torsions:
REMARK  status: ('A' for Active; 'I' for Inactive)
ROOT
HETATM    1  C1  UNL     1     -32.425   7.311   2.792  1.00 20.00     0.095 C 
HETATM    2  C2  UNL     1     -34.071   6.220   4.208  1.00 20.00     0.011 C 
HETATM    3  C3  UNL     1     -33.051   7.069   4.037  1.00 20.00     0.020 C 
HETATM    4  C4  UNL     1     -32.648   7.716   5.324  1.00 20.00     0.051 C 
HETATM    5  C5  UNL     1     -33.842   7.409   6.232  1.00 20.00     0.029 C 
HETATM    6  C6  UNL     1     -34.514   6.170   5.634  1.00 20.00     0.106 C 
HETATM    7  N7  UNL     1     -31.911   7.508   1.771  1.00 20.00    -0.192 NA
HETATM    8 CL8  UNL     1     -33.926   4.674   6.391  1.00 20.00    -0.121 Cl
ENDROOT
TORSDOF 0
