REMARK  2 active torsions:
REMARK  status: ('A' for Active; 'I' for Inactive)
REMARK    1  A    between atoms: C4_4  and  C5_5 
REMARK    2  A    between atoms: C4_4  and  C6_6 
ROOT
HETATM    1  C1  UNL     1     -32.464   7.188   2.063  1.00 20.00     0.063 C 
HETATM    2  C2  UNL     1     -33.266   4.985   2.789  1.00 20.00     0.025 C 
HETATM    3  C5  UNL     1     -32.777   6.362   3.244  1.00 20.00     0.090 C 
HETATM    4  N7  UNL     1     -32.215   7.837   1.134  1.00 20.00    -0.197 NA
ENDROOT
BRANCH   3   5
HETATM    5  C4  UNL     1     -33.844   7.036   4.130  1.00 20.00     0.038 C 
BRANCH   5   6
HETATM    6  C6  UNL     1     -33.856   6.581   5.600  1.00 20.00     0.079 C 
HETATM    7  C3  UNL     1     -34.503   7.635   6.492  1.00 20.00     0.026 C 
HETATM    8 CL8  UNL     1     -34.748   5.041   5.789  1.00 20.00    -0.125 Cl
ENDBRANCH   5   6
ENDBRANCH   3   5
TORSDOF 2
