REMARK  0 active torsions:
REMARK  status: ('A' for Active; 'I' for Inactive)
ROOT
HETATM    1  C1  UNL     1     -32.248   7.716   1.842  1.00 20.00     0.064 C 
HETATM    2  C2  UNL     1     -31.887   8.041   4.276  1.00 20.00     0.020 C 
HETATM    3  C3  UNL     1     -33.047   7.703   5.214  1.00 20.00     0.017 C 
HETATM    4  C4  UNL     1     -33.080   6.063   3.490  1.00 20.00     0.035 C 
HETATM    5  C5  UNL     1     -31.956   7.035   3.115  1.00 20.00     0.094 C 
HETATM    6  C6  UNL     1     -34.006   6.902   4.354  1.00 20.00     0.059 C 
HETATM    7  N7  UNL     1     -32.478   8.253   0.840  1.00 20.00    -0.197 NA
HETATM    8 BR8  UNL     1     -35.174   5.797   5.426  1.00 20.00    -0.091 Br
ENDROOT
TORSDOF 0
