REMARK  2 active torsions:
REMARK  status: ('A' for Active; 'I' for Inactive)
REMARK    1  A    between atoms: C4_4  and  C5_5 
REMARK    2  A    between atoms: C4_4  and  C6_6 
ROOT
HETATM    1  C1  UNL     1     -34.163   5.537   5.522  1.00 20.00     0.063 C 
HETATM    2  C2  UNL     1     -33.216   7.713   6.152  1.00 20.00     0.025 C 
HETATM    3  C5  UNL     1     -34.239   6.989   5.273  1.00 20.00     0.090 C 
HETATM    4  N7  UNL     1     -34.105   4.395   5.718  1.00 20.00    -0.197 NA
ENDROOT
BRANCH   3   5
HETATM    5  C4  UNL     1     -33.983   7.316   3.787  1.00 20.00     0.038 C 
BRANCH   5   6
HETATM    6  C6  UNL     1     -32.636   6.820   3.232  1.00 20.00     0.079 C 
HETATM    7  C3  UNL     1     -32.286   7.535   1.931  1.00 20.00     0.026 C 
HETATM    8 CL8  UNL     1     -32.676   5.057   2.929  1.00 20.00    -0.125 Cl
ENDBRANCH   5   6
ENDBRANCH   3   5
TORSDOF 2
