REMARK  1 active torsions:
REMARK  status: ('A' for Active; 'I' for Inactive)
REMARK    1  A    between atoms: C4_4  and  C7_7 
ROOT
HETATM    1  C1  UNL     1     -32.582   7.880   3.599  1.00 20.00     0.034 A 
HETATM    2  C2  UNL     1     -33.216   7.052   4.570  1.00 20.00     0.026 A 
HETATM    3  C3  UNL     1     -32.443   7.241   2.387  1.00 20.00    -0.019 A 
HETATM    4  C4  UNL     1     -33.537   5.813   4.063  1.00 20.00     0.018 A 
HETATM    5  C5  UNL     1     -31.842   7.758   1.138  1.00 20.00     0.056 C 
HETATM    6  S8  UNL     1     -33.076   5.650   2.422  1.00 20.00    -0.097 SA
HETATM    7 BR10 UNL     1     -33.545   7.649   6.328  1.00 20.00    -0.050 Br
ENDROOT
BRANCH   4   8
HETATM    8  C7  UNL     1     -34.199   4.670   4.734  1.00 20.00     0.119 C 
HETATM    9  C6  UNL     1     -35.602   4.972   5.288  1.00 20.00     0.032 C 
HETATM   10 CL9  UNL     1     -33.170   4.044   6.072  1.00 20.00    -0.120 Cl
ENDBRANCH   4   8
TORSDOF 1
