REMARK  3 active torsions:
REMARK  status: ('A' for Active; 'I' for Inactive)
REMARK    1  A    between atoms: C4_4  and  C5_5 
REMARK    2  A    between atoms: C5_5  and  C7_7 
REMARK    3  A    between atoms: C6_6  and  C7_7 
ROOT
HETATM    1  C1  UNL     1     -32.191   7.453   1.627  1.00 20.00     0.059 C 
HETATM    2  C4  UNL     1     -31.842   6.373   2.561  1.00 20.00     0.125 C 
HETATM    3  N8  UNL     1     -32.466   8.306   0.889  1.00 20.00    -0.197 NA
ENDROOT
BRANCH   2   4
HETATM    4  C5  UNL     1     -33.076   5.901   3.338  1.00 20.00     0.034 C 
BRANCH   4   5
HETATM    5  C7  UNL     1     -33.743   7.022   4.156  1.00 20.00     0.086 C 
HETATM    6 CL9  UNL     1     -32.548   7.782   5.259  1.00 20.00    -0.125 Cl
BRANCH   5   7
HETATM    7  C6  UNL     1     -34.995   6.531   4.927  1.00 20.00    -0.004 C 
HETATM    8  C2  UNL     1     -36.065   5.975   3.980  1.00 20.00     0.011 C 
HETATM    9  C3  UNL     1     -34.694   5.508   6.027  1.00 20.00     0.011 C 
ENDBRANCH   5   7
ENDBRANCH   4   5
ENDBRANCH   2   4
TORSDOF 3
