REMARK  2 active torsions:
REMARK  status: ('A' for Active; 'I' for Inactive)
REMARK    1  A    between atoms: C3_3  and  C8_8 
REMARK    2  A    between atoms: C3_3  and  C9_9 
ROOT
HETATM    1  C1  UNL     1     -32.532   8.328   0.684  1.00 20.00     0.012 C 
HETATM    2  C2  UNL     1     -32.223   7.790   1.712  1.00 20.00    -0.110 C 
HETATM    3  C9  UNL     1     -31.837   7.135   2.967  1.00 20.00     0.171 C 
ENDROOT
BRANCH   3   4
HETATM    4  C3  UNL     1     -32.988   6.389   3.612  1.00 20.00     0.142 C 
HETATM    5  O10 UNL     1     -33.225   5.202   3.394  1.00 20.00    -0.297 OA
BRANCH   4   6
HETATM    6  C8  UNL     1     -33.856   7.196   4.564  1.00 20.00     0.060 C 
HETATM    7  C4  UNL     1     -35.284   6.666   4.517  1.00 20.00     0.038 C 
HETATM    8  C6  UNL     1     -35.456   5.375   5.309  1.00 20.00     0.168 C 
HETATM    9  O11 UNL     1     -34.963   5.525   6.639  1.00 20.00    -0.391 OA
HETATM   10  C7  UNL     1     -33.564   5.799   6.660  1.00 20.00     0.168 C 
HETATM   11  C5  UNL     1     -33.259   7.121   5.964  1.00 20.00     0.038 C 
ENDBRANCH   4   6
ENDBRANCH   3   4
TORSDOF 2
