REMARK  3 active torsions:
REMARK  status: ('A' for Active; 'I' for Inactive)
REMARK    1  A    between atoms: C3_3  and  C7_7 
REMARK    2  A    between atoms: C3_3  and  C10_10 
REMARK    3  A    between atoms: C8_8  and  C11_11 
ROOT
HETATM    1  C1  UNL     1     -31.461   7.642  -0.428  1.00 20.00     0.012 C 
HETATM    2  C2  UNL     1     -31.714   7.445   0.729  1.00 20.00    -0.110 C 
HETATM    3  C10 UNL     1     -32.017   7.209   2.145  1.00 20.00     0.171 C 
ENDROOT
BRANCH   3   4
HETATM    4  C3  UNL     1     -32.761   5.909   2.371  1.00 20.00     0.142 C 
HETATM    5  O12 UNL     1     -33.048   5.131   1.462  1.00 20.00    -0.297 OA
BRANCH   4   6
HETATM    6  C7  UNL     1     -33.144   5.602   3.809  1.00 20.00     0.057 C 
HETATM    7  C4  UNL     1     -33.940   4.310   3.955  1.00 20.00     0.013 C 
HETATM    8  C5  UNL     1     -34.579   4.426   5.337  1.00 20.00     0.005 C 
HETATM    9  C8  UNL     1     -34.738   5.925   5.596  1.00 20.00    -0.014 C 
HETATM   10  C6  UNL     1     -34.086   6.642   4.416  1.00 20.00     0.016 C 
BRANCH   9  11
HETATM   11  C11 UNL     1     -33.990   6.296   6.863  1.00 20.00     0.000 C 
HETATM   12  C9  UNL     1     -34.062   7.763   7.147  1.00 20.00     0.005 C 
ENDBRANCH   9  11
ENDBRANCH   4   6
ENDBRANCH   3   4
TORSDOF 3
