REMARK  1 active torsions:
REMARK  status: ('A' for Active; 'I' for Inactive)
REMARK    1  A    between atoms: C1_1  and  N10_10 
ROOT
HETATM    1  C2  UNL     1     -34.487   7.803   6.904  1.00 20.00     0.002 C 
HETATM    2  C3  UNL     1     -33.609   4.245   3.772  1.00 20.00     0.020 C 
HETATM    3  C4  UNL     1     -34.873   6.320   6.810  1.00 20.00     0.007 C 
HETATM    4  C5  UNL     1     -34.524   4.530   4.966  1.00 20.00     0.008 C 
HETATM    5  C6  UNL     1     -33.728   8.137   5.608  1.00 20.00     0.026 C 
HETATM    6  C7  UNL     1     -33.484   5.442   2.824  1.00 20.00     0.125 C 
HETATM    7  C8  UNL     1     -34.047   5.803   5.642  1.00 20.00     0.009 C 
HETATM    8  C9  UNL     1     -34.080   6.984   4.672  1.00 20.00     0.090 C 
HETATM    9  N10 UNL     1     -33.245   6.718   3.507  1.00 20.00    -0.354 N 
ENDROOT
BRANCH   9  10
HETATM   10  C1  UNL     1     -32.541   7.718   2.853  1.00 20.00     0.351 C 
HETATM   11  O11 UNL     1     -32.067   7.675   1.722  1.00 20.00    -0.284 OA
ENDBRANCH   9  10
TORSDOF 1
