REMARK  0 active torsions:
REMARK  status: ('A' for Active; 'I' for Inactive)
ROOT
HETATM    1  C1  UNL     1     -32.789   6.999   3.605  1.00 20.00     0.071 C 
HETATM    2  C2  UNL     1     -34.319   5.321   6.354  1.00 20.00     0.034 C 
HETATM    3  C3  UNL     1     -35.061   6.203   5.351  1.00 20.00     0.036 C 
HETATM    4  C4  UNL     1     -32.592   4.720   4.624  1.00 20.00     0.058 C 
HETATM    5  C5  UNL     1     -33.772   4.213   5.458  1.00 20.00     0.123 C 
HETATM    6  C6  UNL     1     -34.765   5.501   4.022  1.00 20.00     0.144 C 
HETATM    7  C7  UNL     1     -33.291   5.616   3.577  1.00 20.00     0.074 C 
HETATM    8  C8  UNL     1     -33.105   5.041   2.165  1.00 20.00     0.034 C 
HETATM    9  N9  UNL     1     -32.393   8.089   3.627  1.00 20.00    -0.196 NA
HETATM   10  O10 UNL     1     -34.812   4.116   4.457  1.00 20.00    -0.379 OA
ENDROOT
TORSDOF 0
