REMARK  2 active torsions:
REMARK  status: ('A' for Active; 'I' for Inactive)
REMARK    1  A    between atoms: C2_2  and  C3_3 
REMARK    2  A    between atoms: C3_3  and  C4_4 
ROOT
HETATM    1  C3  UNL     1     -33.580   6.591   4.978  1.00 20.00     0.402 C 
HETATM    2  F7  UNL     1     -34.146   7.666   5.593  1.00 20.00    -0.189 F 
HETATM    3  F8  UNL     1     -32.524   6.221   5.749  1.00 20.00    -0.189 F 
ENDROOT
BRANCH   1   4
HETATM    4  C2  UNL     1     -34.602   5.469   4.957  1.00 20.00     0.313 C 
HETATM    5  C1  UNL     1     -34.133   4.172   4.333  1.00 20.00     0.097 C 
HETATM    6  F5  UNL     1     -34.977   5.210   6.240  1.00 20.00    -0.200 F 
HETATM    7  F6  UNL     1     -35.721   5.889   4.311  1.00 20.00    -0.200 F 
ENDBRANCH   1   4
BRANCH   1   8
HETATM    8  C4  UNL     1     -33.067   7.039   3.632  1.00 20.00     0.460 C 
HETATM    9  F9  UNL     1     -34.060   7.494   2.841  1.00 20.00    -0.165 F 
HETATM   10  F10 UNL     1     -32.476   6.008   2.986  1.00 20.00    -0.165 F 
HETATM   11  F11 UNL     1     -32.151   8.022   3.757  1.00 20.00    -0.165 F 
ENDBRANCH   1   8
TORSDOF 2
