REMARK  4 active torsions:
REMARK  status: ('A' for Active; 'I' for Inactive)
REMARK    1  A    between atoms: C2_2  and  C8_8 
REMARK    2  A    between atoms: C6_6  and  C9_9 
REMARK    3  A    between atoms: C8_8  and  C9_9 
REMARK    4  A    between atoms: C9_9  and  O11_11 
ROOT
HETATM    1  C1  UNL     1     -32.367   8.312   0.580  1.00 20.00    -0.111 C 
HETATM    2  C2  UNL     1     -32.264   7.816   1.669  1.00 20.00    -0.104 C 
HETATM    3  C7  UNL     1     -32.493   8.917  -0.745  1.00 20.00     0.112 C 
ENDROOT
BRANCH   2   4
HETATM    4  C8  UNL     1     -32.137   7.208   3.003  1.00 20.00     0.128 C 
BRANCH   4   5
HETATM    5  C9  UNL     1     -33.163   6.091   3.207  1.00 20.00     0.158 C 
BRANCH   5   6
HETATM    6  C6  UNL     1     -33.335   5.768   4.679  1.00 20.00     0.151 C 
HETATM    7  C4  UNL     1     -34.295   4.621   4.939  1.00 20.00     0.036 C 
HETATM    8  C3  UNL     1     -34.767   4.936   6.337  1.00 20.00     0.029 C 
HETATM    9  C5  UNL     1     -34.864   6.446   6.301  1.00 20.00     0.168 C 
HETATM   10  O10 UNL     1     -33.875   6.908   5.369  1.00 20.00    -0.383 OA
ENDBRANCH   5   6
BRANCH   5  11
HETATM   11  O11 UNL     1     -32.705   4.918   2.536  1.00 20.00    -0.392 OA
HETATM   12  H25 UNL     1     -33.385   4.241   2.672  1.00 20.00     0.210 HD
ENDBRANCH   5  11
ENDBRANCH   4   5
ENDBRANCH   2   4
TORSDOF 4
