REMARK  5 active torsions:
REMARK  status: ('A' for Active; 'I' for Inactive)
REMARK    1  A    between atoms: C6_6  and  C8_8 
REMARK    2  A    between atoms: C7_7  and  C11_11 
REMARK    3  A    between atoms: C8_8  and  C10_10 
REMARK    4  A    between atoms: C9_9  and  C10_10 
REMARK    5  A    between atoms: C9_9  and  C11_11 
ROOT
HETATM    1  C1  UNL     1     -34.124   4.839   4.338  1.00 20.00     0.069 C 
HETATM    2  C5  UNL     1     -36.248   6.066   4.164  1.00 20.00     0.031 C 
HETATM    3  C11 UNL     1     -34.714   6.195   4.229  1.00 20.00     0.045 C 
HETATM    4  N12 UNL     1     -33.661   3.778   4.432  1.00 20.00    -0.196 NA
ENDROOT
BRANCH   3   5
HETATM    5  C7  UNL     1     -34.369   6.984   5.531  1.00 20.00     0.020 C 
HETATM    6  C3  UNL     1     -34.890   6.373   6.830  1.00 20.00     0.007 C 
ENDBRANCH   3   5
BRANCH   3   7
HETATM    7  C9  UNL     1     -34.150   6.946   2.987  1.00 20.00     0.028 C 
BRANCH   7   8
HETATM    8  C10 UNL     1     -32.670   6.717   2.572  1.00 20.00    -0.017 C 
HETATM    9  C4  UNL     1     -31.767   7.269   3.686  1.00 20.00     0.010 C 
BRANCH   8  10
HETATM   10  C8  UNL     1     -32.326   7.343   1.205  1.00 20.00     0.004 C 
BRANCH  10  11
HETATM   11  C6  UNL     1     -32.477   8.867   1.159  1.00 20.00    -0.004 C 
HETATM   12  C2  UNL     1     -32.096   9.420  -0.207  1.00 20.00     0.005 C 
ENDBRANCH  10  11
ENDBRANCH   8  10
ENDBRANCH   7   8
ENDBRANCH   3   7
TORSDOF 5
