REMARK  3 active torsions:
REMARK  status: ('A' for Active; 'I' for Inactive)
REMARK    1  A    between atoms: C1_1  and  C7_7 
REMARK    2  A    between atoms: C1_1  and  C8_8 
REMARK    3  A    between atoms: C9_9  and  C11_11 
ROOT
HETATM    1  C4  UNL     1     -32.557   5.250   2.673  1.00 20.00     0.013 C 
HETATM    2  C5  UNL     1     -32.261   5.987   1.369  1.00 20.00     0.005 C 
HETATM    3  C6  UNL     1     -32.514   7.672   3.033  1.00 20.00     0.016 C 
HETATM    4  C8  UNL     1     -32.642   6.331   3.751  1.00 20.00     0.056 C 
HETATM    5  C9  UNL     1     -32.877   7.365   1.579  1.00 20.00    -0.014 C 
ENDROOT
BRANCH   4   6
HETATM    6  C1  UNL     1     -34.004   6.264   4.418  1.00 20.00     0.135 C 
HETATM    7  O12 UNL     1     -34.829   5.403   4.116  1.00 20.00    -0.297 OA
BRANCH   6   8
HETATM    8  C7  UNL     1     -34.293   7.300   5.471  1.00 20.00     0.056 A 
HETATM    9  C2  UNL     1     -34.037   6.946   6.892  1.00 20.00     0.013 A 
HETATM   10  C3  UNL     1     -33.141   7.915   6.181  1.00 20.00     0.013 A 
ENDBRANCH   6   8
ENDBRANCH   4   6
BRANCH   5  11
HETATM   11  C11 UNL     1     -32.361   8.407   0.602  1.00 20.00     0.000 C 
HETATM   12  C10 UNL     1     -32.947   9.759   0.863  1.00 20.00     0.005 C 
ENDBRANCH   5  11
TORSDOF 3
