REMARK  1 active torsions:
REMARK  status: ('A' for Active; 'I' for Inactive)
REMARK    1  A    between atoms: C5_5  and  C9_9 
ROOT
HETATM    1  C1  UNL     1     -34.099   5.883   4.021  1.00 20.00     0.069 C 
HETATM    2  C2  UNL     1     -31.416   7.881   2.395  1.00 20.00     0.006 C 
HETATM    3  C3  UNL     1     -32.031   7.192   3.616  1.00 20.00     0.024 C 
HETATM    4  C4  UNL     1     -33.547   6.854   1.809  1.00 20.00     0.029 C 
HETATM    5  C5  UNL     1     -32.321   7.543   1.202  1.00 20.00    -0.013 C 
HETATM    6  C6  UNL     1     -33.012   6.150   3.063  1.00 20.00     0.046 C 
HETATM    7  C7  UNL     1     -32.299   4.834   2.722  1.00 20.00     0.031 C 
HETATM    8  N10 UNL     1     -34.955   5.672   4.775  1.00 20.00    -0.196 NA
ENDROOT
BRANCH   5   9
HETATM    9  C9  UNL     1     -32.685   8.761   0.367  1.00 20.00     0.000 C 
HETATM   10  C8  UNL     1     -33.405   9.796   1.171  1.00 20.00     0.005 C 
ENDBRANCH   5   9
TORSDOF 1
