REMARK  3 active torsions:
REMARK  status: ('A' for Active; 'I' for Inactive)
REMARK    1  A    between atoms: C5_5  and  C9_9 
REMARK    2  A    between atoms: C6_6  and  C10_10 
REMARK    3  A    between atoms: C10_10  and  C11_11 
ROOT
HETATM    1  C1  UNL     1     -33.367   5.142   3.370  1.00 20.00     0.069 C 
HETATM    2  C2  UNL     1     -31.600   7.713   3.681  1.00 20.00     0.006 C 
HETATM    3  C3  UNL     1     -32.667   7.158   4.631  1.00 20.00     0.025 C 
HETATM    4  C4  UNL     1     -33.717   7.443   2.507  1.00 20.00     0.029 C 
HETATM    5  C5  UNL     1     -32.227   7.728   2.281  1.00 20.00    -0.013 C 
HETATM    6  C6  UNL     1     -33.741   6.525   3.736  1.00 20.00     0.049 C 
HETATM    7  N12 UNL     1     -33.074   4.056   3.083  1.00 20.00    -0.196 NA
ENDROOT
BRANCH   6   8
HETATM    8  C10 UNL     1     -35.112   6.512   4.410  1.00 20.00     0.024 C 
BRANCH   8   9
HETATM    9  C11 UNL     1     -35.008   6.062   5.863  1.00 20.00    -0.003 C 
HETATM   10  C8  UNL     1     -34.455   4.649   5.963  1.00 20.00     0.005 C 
ENDBRANCH   8   9
ENDBRANCH   6   8
BRANCH   5  11
HETATM   11  C9  UNL     1     -31.983   9.028   1.531  1.00 20.00     0.000 C 
HETATM   12  C7  UNL     1     -32.611   9.016   0.173  1.00 20.00     0.005 C 
ENDBRANCH   5  11
TORSDOF 3
