REMARK  2 active torsions:
REMARK  status: ('A' for Active; 'I' for Inactive)
REMARK    1  A    between atoms: C9_9  and  C10_10 
REMARK    2  A    between atoms: C9_9  and  N11_11 
ROOT
HETATM    1  C1  UNL     1     -33.823   7.898   7.047  1.00 20.00     0.002 C 
HETATM    2  C2  UNL     1     -33.831   3.918   4.328  1.00 20.00     0.028 C 
HETATM    3  C3  UNL     1     -34.649   6.599   7.034  1.00 20.00     0.007 C 
HETATM    4  C4  UNL     1     -34.704   4.583   5.397  1.00 20.00     0.008 C 
HETATM    5  C5  UNL     1     -32.874   7.823   5.838  1.00 20.00     0.034 C 
HETATM    6  C6  UNL     1     -33.268   4.913   3.311  1.00 20.00     0.235 C 
HETATM    7  C7  UNL     1     -33.921   5.716   6.032  1.00 20.00     0.016 C 
HETATM    8  C8  UNL     1     -33.491   6.731   4.981  1.00 20.00     0.192 C 
HETATM    9  N11 UNL     1     -32.563   6.066   4.013  1.00 20.00    -0.065 N 
HETATM   10  H31 UNL     1     -31.778   5.665   4.544  1.00 20.00     0.280 HD
ENDROOT
BRANCH   9  11
HETATM   11  C9  UNL     1     -31.968   7.020   3.014  1.00 20.00     0.250 C 
BRANCH  11  12
HETATM   12  C10 UNL     1     -33.056   7.584   2.119  1.00 20.00     0.142 C 
HETATM   13 CL12 UNL     1     -32.397   8.745   0.941  1.00 20.00    -0.129 Cl
ENDBRANCH  11  12
ENDBRANCH   9  11
TORSDOF 2
