REMARK  3 active torsions:
REMARK  status: ('A' for Active; 'I' for Inactive)
REMARK    1  A    between atoms: C5_5  and  C9_9 
REMARK    2  A    between atoms: C6_6  and  C10_10 
REMARK    3  A    between atoms: C10_10  and  O11_11 
ROOT
HETATM    1  C1  UNL     1     -32.367   8.790   5.365  1.00 20.00     0.001 C 
HETATM    2  C2  UNL     1     -31.565   8.209   4.204  1.00 20.00     0.005 C 
HETATM    3  C3  UNL     1     -33.355   7.775   5.932  1.00 20.00     0.007 C 
HETATM    4  C4  UNL     1     -33.472   6.635   3.679  1.00 20.00     0.011 C 
HETATM    5  C5  UNL     1     -32.482   7.658   3.105  1.00 20.00    -0.014 C 
HETATM    6  C6  UNL     1     -34.284   7.222   4.843  1.00 20.00     0.014 C 
ENDROOT
BRANCH   6   7
HETATM    7  C10 UNL     1     -35.230   6.173   5.424  1.00 20.00     0.118 C 
HETATM    8  C8  UNL     1     -34.471   4.984   5.987  1.00 20.00     0.040 C 
BRANCH   7   9
HETATM    9  O11 UNL     1     -36.113   5.729   4.401  1.00 20.00    -0.396 OA
HETATM   10  H31 UNL     1     -36.697   5.067   4.803  1.00 20.00     0.210 HD
ENDBRANCH   7   9
ENDBRANCH   6   7
BRANCH   5  11
HETATM   11  C9  UNL     1     -31.658   7.036   1.978  1.00 20.00     0.000 C 
HETATM   12  C7  UNL     1     -32.528   6.527   0.876  1.00 20.00     0.005 C 
ENDBRANCH   5  11
TORSDOF 3
