REMARK  3 active torsions:
REMARK  status: ('A' for Active; 'I' for Inactive)
REMARK    1  A    between atoms: C1_1  and  C7_7 
REMARK    2  A    between atoms: C1_1  and  C9_9 
REMARK    3  A    between atoms: C8_8  and  C9_9 
ROOT
HETATM    1  C1  UNL     1     -33.124   6.221   3.337  1.00 20.00     0.155 C 
HETATM    2  O10 UNL     1     -33.341   5.112   2.851  1.00 20.00    -0.295 OA
ENDROOT
BRANCH   1   3
HETATM    3  C7  UNL     1     -33.897   6.708   4.517  1.00 20.00     0.190 C 
HETATM    4  C3  UNL     1     -33.063   7.557   5.457  1.00 20.00     0.042 C 
HETATM    5  C2  UNL     1     -33.576   7.137   6.812  1.00 20.00     0.029 C 
HETATM    6  C6  UNL     1     -33.855   5.667   6.596  1.00 20.00     0.168 C 
HETATM    7  O11 UNL     1     -34.303   5.540   5.240  1.00 20.00    -0.378 OA
ENDBRANCH   1   3
BRANCH   1   8
HETATM    8  C9  UNL     1     -32.072   7.168   2.790  1.00 20.00     0.085 C 
BRANCH   8   9
HETATM    9  C8  UNL     1     -32.311   7.528   1.335  1.00 20.00    -0.007 A 
HETATM   10  C4  UNL     1     -33.158   8.718   0.977  1.00 20.00     0.005 A 
HETATM   11  C5  UNL     1     -31.673   8.756   0.745  1.00 20.00     0.005 A 
ENDBRANCH   8   9
ENDBRANCH   1   8
TORSDOF 3
