REMARK  1 active torsions:
REMARK  status: ('A' for Active; 'I' for Inactive)
REMARK    1  A    between atoms: C6_6  and  C8_8 
ROOT
HETATM    1  C1  UNL     1     -35.875   6.090   3.924  1.00 20.00     0.069 C 
HETATM    2  C2  UNL     1     -34.268   4.647   5.145  1.00 20.00     0.051 C 
HETATM    3  C3  UNL     1     -33.806   7.098   4.812  1.00 20.00     0.051 C 
HETATM    4  C4  UNL     1     -34.137   5.072   6.609  1.00 20.00     0.169 C 
HETATM    5  C5  UNL     1     -34.365   7.395   6.209  1.00 20.00     0.169 C 
HETATM    6  C6  UNL     1     -34.435   5.845   4.181  1.00 20.00     0.052 C 
HETATM    7  N9  UNL     1     -37.001   6.282   3.722  1.00 20.00    -0.196 NA
HETATM    8  O10 UNL     1     -34.899   6.244   6.864  1.00 20.00    -0.391 OA
ENDROOT
BRANCH   6   9
HETATM    9  C8  UNL     1     -33.758   5.535   2.838  1.00 20.00     0.020 C 
HETATM   10  C7  UNL     1     -32.302   5.276   3.014  1.00 20.00     0.007 C 
ENDBRANCH   6   9
TORSDOF 1
