REMARK  5 active torsions:
REMARK  status: ('A' for Active; 'I' for Inactive)
REMARK    1  A    between atoms: C1_1  and  C5_5 
REMARK    2  A    between atoms: C1_1  and  C9_9 
REMARK    3  A    between atoms: C6_6  and  C10_10 
REMARK    4  A    between atoms: C9_9  and  C12_12 
REMARK    5  A    between atoms: C11_11  and  C12_12 
ROOT
HETATM    1  C2  UNL     1     -32.988   7.568   5.600  1.00 20.00     0.012 C 
HETATM    2  C3  UNL     1     -33.858   6.818   6.600  1.00 20.00     0.005 C 
HETATM    3  C4  UNL     1     -34.728   6.286   4.435  1.00 20.00     0.016 C 
HETATM    4  C5  UNL     1     -33.685   7.395   4.250  1.00 20.00     0.056 C 
HETATM    5  C6  UNL     1     -34.443   5.656   5.802  1.00 20.00    -0.014 C 
ENDROOT
BRANCH   4   6
HETATM    6  C1  UNL     1     -32.711   7.030   3.173  1.00 20.00     0.131 C 
HETATM    7  O13 UNL     1     -32.792   5.973   2.538  1.00 20.00    -0.298 OA
BRANCH   6   8
HETATM    8  C9  UNL     1     -31.604   8.037   2.895  1.00 20.00     0.079 C 
BRANCH   8   9
HETATM    9  C12 UNL     1     -31.159   8.041   1.434  1.00 20.00     0.007 C 
BRANCH   9  10
HETATM   10  C11 UNL     1     -32.326   8.354   0.498  1.00 20.00    -0.004 C 
HETATM   11  C8  UNL     1     -32.903   9.734   0.770  1.00 20.00     0.005 C 
ENDBRANCH   9  10
ENDBRANCH   8   9
ENDBRANCH   6   8
ENDBRANCH   4   6
BRANCH   5  12
HETATM   12  C10 UNL     1     -33.481   4.473   5.707  1.00 20.00     0.000 C 
HETATM   13  C7  UNL     1     -34.041   3.362   4.876  1.00 20.00     0.005 C 
ENDBRANCH   5  12
TORSDOF 5
