REMARK  3 active torsions:
REMARK  status: ('A' for Active; 'I' for Inactive)
REMARK    1  A    between atoms: C3_3  and  C7_7 
REMARK    2  A    between atoms: C3_3  and  C9_9 
REMARK    3  A    between atoms: C8_8  and  C9_9 
ROOT
HETATM    1  C1  UNL     1     -32.488   9.628   0.003  1.00 20.00     0.012 C 
HETATM    2  C2  UNL     1     -32.399   8.667   0.717  1.00 20.00    -0.117 C 
HETATM    3  C8  UNL     1     -32.286   7.489   1.590  1.00 20.00     0.100 C 
ENDROOT
BRANCH   3   4
HETATM    4  C9  UNL     1     -33.642   7.059   2.145  1.00 20.00     0.091 C 
BRANCH   4   5
HETATM    5  C3  UNL     1     -33.572   5.853   3.070  1.00 20.00     0.134 C 
HETATM    6  O10 UNL     1     -32.708   4.983   2.973  1.00 20.00    -0.297 OA
BRANCH   5   7
HETATM    7  C7  UNL     1     -34.628   5.784   4.155  1.00 20.00     0.081 C 
HETATM    8  C4  UNL     1     -34.471   6.962   5.090  1.00 20.00     0.040 C 
HETATM    9  C5  UNL     1     -34.707   6.352   6.451  1.00 20.00     0.168 C 
HETATM   10  O11 UNL     1     -34.163   5.034   6.367  1.00 20.00    -0.390 OA
HETATM   11  C6  UNL     1     -34.392   4.565   5.030  1.00 20.00     0.179 C 
ENDBRANCH   5   7
ENDBRANCH   4   5
ENDBRANCH   3   4
TORSDOF 3
