REMARK  4 active torsions:
REMARK  status: ('A' for Active; 'I' for Inactive)
REMARK    1  A    between atoms: C6_6  and  C10_10 
REMARK    2  A    between atoms: C7_7  and  C11_11 
REMARK    3  A    between atoms: C9_9  and  C11_11 
REMARK    4  A    between atoms: C11_11  and  O12_12 
ROOT
HETATM    1  C1  UNL     1     -33.072   9.544   0.168  1.00 20.00     0.012 C 
HETATM    2  C2  UNL     1     -32.575   8.738   0.906  1.00 20.00    -0.115 C 
HETATM    3  C9  UNL     1     -31.962   7.753   1.812  1.00 20.00     0.125 C 
ENDROOT
BRANCH   3   4
HETATM    4  C11 UNL     1     -32.913   6.588   2.103  1.00 20.00     0.133 C 
BRANCH   4   5
HETATM    5  C7  UNL     1     -33.901   6.943   3.202  1.00 20.00     0.015 C 
HETATM    6  C4  UNL     1     -35.115   6.013   3.247  1.00 20.00     0.007 C 
HETATM    7  C3  UNL     1     -35.549   5.957   4.715  1.00 20.00     0.005 C 
HETATM    8  C6  UNL     1     -34.552   6.828   5.486  1.00 20.00    -0.014 C 
HETATM    9  C5  UNL     1     -33.307   6.828   4.603  1.00 20.00     0.012 C 
BRANCH   8  10
HETATM   10  C10 UNL     1     -34.285   6.329   6.896  1.00 20.00     0.000 C 
HETATM   11  C8  UNL     1     -33.740   4.935   6.903  1.00 20.00     0.005 C 
ENDBRANCH   8  10
ENDBRANCH   4   5
BRANCH   4  12
HETATM   12  O12 UNL     1     -32.141   5.464   2.527  1.00 20.00    -0.394 OA
HETATM   13  H30 UNL     1     -32.770   4.743   2.683  1.00 20.00     0.210 HD
ENDBRANCH   4  12
ENDBRANCH   3   4
TORSDOF 4
