REMARK  2 active torsions:
REMARK  status: ('A' for Active; 'I' for Inactive)
REMARK    1  A    between atoms: C5_5  and  C9_9 
REMARK    2  A    between atoms: C6_6  and  C10_10 
ROOT
HETATM    1  C1  UNL     1     -35.325   6.312   3.650  1.00 20.00     0.069 C 
HETATM    2  C2  UNL     1     -32.011   7.615   3.412  1.00 20.00     0.006 C 
HETATM    3  C3  UNL     1     -33.279   7.574   4.259  1.00 20.00     0.025 C 
HETATM    4  C4  UNL     1     -33.094   5.565   2.852  1.00 20.00     0.029 C 
HETATM    5  C5  UNL     1     -32.315   6.721   2.215  1.00 20.00    -0.013 C 
HETATM    6  C6  UNL     1     -33.900   6.180   4.020  1.00 20.00     0.049 C 
HETATM    7  N11 UNL     1     -36.443   6.415   3.360  1.00 20.00    -0.196 NA
ENDROOT
BRANCH   6   8
HETATM    8  C10 UNL     1     -33.794   5.303   5.273  1.00 20.00     0.020 C 
HETATM    9  C8  UNL     1     -34.535   5.897   6.424  1.00 20.00     0.007 C 
ENDBRANCH   6   8
BRANCH   5  10
HETATM   10  C9  UNL     1     -33.111   7.442   1.130  1.00 20.00     0.000 C 
HETATM   11  C7  UNL     1     -32.354   8.599   0.558  1.00 20.00     0.005 C 
ENDBRANCH   5  10
TORSDOF 2
