REMARK  2 active torsions:
REMARK  status: ('A' for Active; 'I' for Inactive)
REMARK    1  A    between atoms: C1_1  and  C7_7 
REMARK    2  A    between atoms: C6_6  and  C10_10 
ROOT
HETATM    1  C2  UNL     1     -34.059   3.908   2.931  1.00 20.00     0.002 C 
HETATM    2  C3  UNL     1     -33.013   4.748   2.203  1.00 20.00     0.005 C 
HETATM    3  C4  UNL     1     -34.196   4.322   4.395  1.00 20.00     0.020 C 
HETATM    4  C5  UNL     1     -33.431   6.662   3.801  1.00 20.00     0.025 C 
HETATM    5  C6  UNL     1     -33.298   6.251   2.326  1.00 20.00    -0.014 C 
HETATM    6  C7  UNL     1     -34.470   5.821   4.553  1.00 20.00     0.045 C 
HETATM    7  C8  UNL     1     -35.906   6.197   4.192  1.00 20.00     0.027 C 
ENDROOT
BRANCH   6   8
HETATM    8  C1  UNL     1     -34.313   6.107   6.044  1.00 20.00     0.181 C 
HETATM    9  O11 UNL     1     -34.501   7.307   6.386  1.00 20.00    -0.647 OA
HETATM   10  O12 UNL     1     -34.014   5.101   6.747  1.00 20.00    -0.647 OA
ENDBRANCH   6   8
BRANCH   5  11
HETATM   11  C10 UNL     1     -32.200   7.063   1.639  1.00 20.00     0.000 C 
HETATM   12  C9  UNL     1     -32.476   8.529   1.707  1.00 20.00     0.005 C 
ENDBRANCH   5  11
TORSDOF 2
