REMARK  2 active torsions:
REMARK  status: ('A' for Active; 'I' for Inactive)
REMARK    1  A    between atoms: C6_6  and  C10_10 
REMARK    2  A    between atoms: C7_7  and  C11_11 
ROOT
HETATM    1  C1  UNL     1     -32.710   6.215   2.892  1.00 20.00     0.069 C 
HETATM    2  C2  UNL     1     -32.312   7.701   5.614  1.00 20.00     0.002 C 
HETATM    3  C3  UNL     1     -33.743   7.784   6.134  1.00 20.00     0.005 C 
HETATM    4  C4  UNL     1     -32.200   8.259   4.195  1.00 20.00     0.024 C 
HETATM    5  C5  UNL     1     -34.609   7.573   3.757  1.00 20.00     0.029 C 
HETATM    6  C6  UNL     1     -34.757   7.093   5.214  1.00 20.00    -0.013 C 
HETATM    7  C7  UNL     1     -33.167   7.589   3.197  1.00 20.00     0.049 C 
HETATM    8  N12 UNL     1     -32.352   5.138   2.653  1.00 20.00    -0.196 NA
ENDROOT
BRANCH   7   9
HETATM    9  C11 UNL     1     -33.152   8.382   1.875  1.00 20.00     0.020 C 
HETATM   10  C9  UNL     1     -31.784   8.427   1.289  1.00 20.00     0.007 C 
ENDBRANCH   7   9
BRANCH   6  11
HETATM   11  C10 UNL     1     -34.701   5.570   5.353  1.00 20.00     0.000 C 
HETATM   12  C8  UNL     1     -34.907   5.138   6.767  1.00 20.00     0.005 C 
ENDBRANCH   6  11
TORSDOF 2
