REMARK  4 active torsions:
REMARK  status: ('A' for Active; 'I' for Inactive)
REMARK    1  A    between atoms: C5_5  and  C9_9 
REMARK    2  A    between atoms: C6_6  and  C10_10 
REMARK    3  A    between atoms: C10_10  and  C12_12 
REMARK    4  A    between atoms: C11_11  and  C12_12 
ROOT
HETATM    1  C1  UNL     1     -32.755   5.624   2.833  1.00 20.00     0.069 C 
HETATM    2  C2  UNL     1     -34.783   7.035   4.721  1.00 20.00     0.006 C 
HETATM    3  C3  UNL     1     -34.129   7.581   3.459  1.00 20.00     0.025 C 
HETATM    4  C4  UNL     1     -32.374   6.816   4.973  1.00 20.00     0.029 C 
HETATM    5  C5  UNL     1     -33.663   7.133   5.751  1.00 20.00    -0.013 C 
HETATM    6  C6  UNL     1     -32.722   6.959   3.473  1.00 20.00     0.049 C 
HETATM    7  N13 UNL     1     -32.780   4.578   2.333  1.00 20.00    -0.196 NA
ENDROOT
BRANCH   6   8
HETATM    8  C10 UNL     1     -31.713   7.840   2.733  1.00 20.00     0.024 C 
BRANCH   8   9
HETATM    9  C12 UNL     1     -32.077   7.973   1.257  1.00 20.00     0.001 C 
BRANCH   9  10
HETATM   10  C11 UNL     1     -31.050   8.828   0.515  1.00 20.00    -0.004 C 
HETATM   11  C8  UNL     1     -29.652   8.238   0.622  1.00 20.00     0.005 C 
ENDBRANCH   9  10
ENDBRANCH   8   9
ENDBRANCH   6   8
BRANCH   5  12
HETATM   12  C9  UNL     1     -33.878   6.225   6.951  1.00 20.00     0.000 C 
HETATM   13  C7  UNL     1     -33.969   4.786   6.554  1.00 20.00     0.005 C 
ENDBRANCH   5  12
TORSDOF 4
