REMARK  4 active torsions:
REMARK  status: ('A' for Active; 'I' for Inactive)
REMARK    1  A    between atoms: C6_6  and  C10_10 
REMARK    2  A    between atoms: C7_7  and  C11_11 
REMARK    3  A    between atoms: C9_9  and  C11_11 
REMARK    4  A    between atoms: C11_11  and  O12_12 
ROOT
HETATM    1  C1  UNL     1     -33.448   8.026   7.365  1.00 20.00     0.012 C 
HETATM    2  C2  UNL     1     -34.069   7.271   6.668  1.00 20.00    -0.115 C 
HETATM    3  C9  UNL     1     -34.834   6.346   5.815  1.00 20.00     0.125 C 
ENDROOT
BRANCH   3   4
HETATM    4  C11 UNL     1     -33.927   5.626   4.813  1.00 20.00     0.133 C 
BRANCH   4   5
HETATM    5  C7  UNL     1     -33.658   6.490   3.591  1.00 20.00     0.015 C 
HETATM    6  C4  UNL     1     -32.808   5.786   2.530  1.00 20.00     0.007 C 
HETATM    7  C3  UNL     1     -31.911   6.861   1.910  1.00 20.00     0.005 C 
HETATM    8  C6  UNL     1     -32.294   8.188   2.571  1.00 20.00    -0.014 C 
HETATM    9  C5  UNL     1     -32.875   7.759   3.918  1.00 20.00     0.012 C 
BRANCH   8  10
HETATM   10  C10 UNL     1     -33.295   8.975   1.726  1.00 20.00     0.000 C 
HETATM   11  C8  UNL     1     -32.733   9.339   0.388  1.00 20.00     0.005 C 
ENDBRANCH   8  10
ENDBRANCH   4   5
BRANCH   4  12
HETATM   12  O12 UNL     1     -34.576   4.426   4.391  1.00 20.00    -0.394 OA
HETATM   13  H30 UNL     1     -35.402   4.698   3.963  1.00 20.00     0.210 HD
ENDBRANCH   4  12
ENDBRANCH   3   4
TORSDOF 4
