REMARK  2 active torsions:
REMARK  status: ('A' for Active; 'I' for Inactive)
REMARK    1  A    between atoms: C5_5  and  C8_8 
REMARK    2  A    between atoms: C8_8  and  C9_9 
ROOT
HETATM    1  C1  UNL     1     -32.376   6.144   2.767  1.00 20.00     0.068 C 
HETATM    2  C6  UNL     1     -32.246   8.392   1.774  1.00 20.00     0.031 C 
HETATM    3  C7  UNL     1     -30.999   7.845   3.867  1.00 20.00     0.031 C 
HETATM    4  C9  UNL     1     -32.303   7.589   3.084  1.00 20.00     0.046 C 
HETATM    5  N10 UNL     1     -32.429   5.012   2.518  1.00 20.00    -0.196 NA
ENDROOT
BRANCH   4   6
HETATM    6  C8  UNL     1     -33.498   8.021   3.978  1.00 20.00     0.062 C 
BRANCH   6   7
HETATM    7  C5  UNL     1     -33.950   7.028   5.025  1.00 20.00    -0.050 A 
HETATM    8  C2  UNL     1     -34.027   7.320   6.418  1.00 20.00     0.014 A 
HETATM    9  C3  UNL     1     -34.468   6.240   7.150  1.00 20.00     0.050 A 
HETATM   10  S11 UNL     1     -34.786   4.879   6.159  1.00 20.00    -0.113 SA
HETATM   11  C4  UNL     1     -34.334   5.734   4.746  1.00 20.00     0.056 A 
ENDBRANCH   6   7
ENDBRANCH   4   6
TORSDOF 2
