REMARK  3 active torsions:
REMARK  status: ('A' for Active; 'I' for Inactive)
REMARK    1  A    between atoms: C1_1  and  C5_5 
REMARK    2  A    between atoms: C1_1  and  C9_9 
REMARK    3  A    between atoms: C6_6  and  C10_10 
ROOT
HETATM    1  C2  UNL     1     -33.313   4.995   2.327  1.00 20.00     0.012 C 
HETATM    2  C3  UNL     1     -32.664   5.909   1.292  1.00 20.00     0.005 C 
HETATM    3  C4  UNL     1     -32.808   7.023   3.468  1.00 20.00     0.016 C 
HETATM    4  C5  UNL     1     -33.900   5.959   3.352  1.00 20.00     0.056 C 
HETATM    5  C6  UNL     1     -32.275   7.181   2.046  1.00 20.00    -0.014 C 
ENDROOT
BRANCH   4   6
HETATM    6  C1  UNL     1     -34.231   5.295   4.677  1.00 20.00     0.130 C 
HETATM    7  O11 UNL     1     -34.069   4.087   4.839  1.00 20.00    -0.298 OA
BRANCH   6   8
HETATM    8  C9  UNL     1     -34.765   6.207   5.766  1.00 20.00     0.074 C 
HETATM    9  C7  UNL     1     -35.098   5.459   7.044  1.00 20.00     0.013 C 
ENDBRANCH   6   8
ENDBRANCH   4   6
BRANCH   5  10
HETATM   10  C10 UNL     1     -32.956   8.374   1.401  1.00 20.00     0.000 C 
HETATM   11  C8  UNL     1     -32.519   8.569  -0.018  1.00 20.00     0.005 C 
ENDBRANCH   5  10
TORSDOF 3
