REMARK  2 active torsions:
REMARK  status: ('A' for Active; 'I' for Inactive)
REMARK    1  A    between atoms: C2_2  and  C8_8 
REMARK    2  A    between atoms: C3_3  and  C5_5 
ROOT
HETATM    1  C1  UNL     1     -33.778   4.694   3.549  1.00 20.00     0.080 A 
HETATM    2  C2  UNL     1     -34.098   5.596   4.542  1.00 20.00     0.055 A 
HETATM    3  C3  UNL     1     -33.060   6.963   3.177  1.00 20.00     0.080 A 
HETATM    4  N9  UNL     1     -33.687   6.898   4.330  1.00 20.00    -0.248 NA
HETATM    5  S10 UNL     1     -32.929   5.497   2.294  1.00 20.00    -0.084 SA
ENDROOT
BRANCH   3   6
HETATM    6  C5  UNL     1     -32.486   8.259   2.655  1.00 20.00     0.049 A 
HETATM    7  C4  UNL     1     -31.191   8.258   1.871  1.00 20.00     0.016 A 
HETATM    8  C6  UNL     1     -32.485   8.541   1.167  1.00 20.00    -0.007 A 
HETATM    9  C7  UNL     1     -32.781   9.912   0.666  1.00 20.00     0.011 C 
ENDBRANCH   3   6
BRANCH   2  10
HETATM   10  C8  UNL     1     -34.830   5.286   5.786  1.00 20.00     0.174 C 
HETATM   11 CL11 UNL     1     -34.669   6.606   6.974  1.00 20.00    -0.124 Cl
ENDBRANCH   2  10
TORSDOF 2
