REMARK  3 active torsions:
REMARK  status: ('A' for Active; 'I' for Inactive)
REMARK    1  A    between atoms: C3_3  and  C5_5 
REMARK    2  A    between atoms: C3_3  and  C9_9 
REMARK    3  A    between atoms: C8_8  and  C9_9 
ROOT
HETATM    1  C1  UNL     1     -32.210   8.028   3.291  1.00 20.00     0.012 C 
HETATM    2  C2  UNL     1     -32.605   6.974   2.872  1.00 20.00    -0.117 C 
HETATM    3  C8  UNL     1     -33.090   5.685   2.356  1.00 20.00     0.100 C 
ENDROOT
BRANCH   3   4
HETATM    4  C9  UNL     1     -33.475   4.729   3.482  1.00 20.00     0.090 C 
BRANCH   4   5
HETATM    5  C3  UNL     1     -34.593   5.249   4.374  1.00 20.00     0.132 C 
HETATM    6  O10 UNL     1     -35.490   5.983   3.964  1.00 20.00    -0.298 OA
BRANCH   5   7
HETATM    7  C5  UNL     1     -34.559   4.794   5.811  1.00 20.00     0.059 A 
HETATM    8  C4  UNL     1     -33.306   5.012   6.585  1.00 20.00     0.017 A 
HETATM    9  C6  UNL     1     -34.541   5.806   6.904  1.00 20.00    -0.007 A 
HETATM   10  C7  UNL     1     -34.565   7.277   6.663  1.00 20.00     0.011 C 
ENDBRANCH   5   7
ENDBRANCH   4   5
ENDBRANCH   3   4
TORSDOF 3
