REMARK  3 active torsions:
REMARK  status: ('A' for Active; 'I' for Inactive)
REMARK    1  A    between atoms: C1_1  and  C9_9 
REMARK    2  A    between atoms: C10_10  and  C11_11 
REMARK    3  A    between atoms: C11_11  and  N12_12 
ROOT
HETATM    1  C5  UNL     1     -35.137   5.945   4.397  1.00 20.00     0.039 C 
HETATM    2  C6  UNL     1     -33.412   4.095   4.464  1.00 20.00     0.039 C 
HETATM    3  C7  UNL     1     -34.092   6.880   3.801  1.00 20.00     0.235 C 
HETATM    4  C8  UNL     1     -32.385   5.049   3.867  1.00 20.00     0.235 C 
HETATM    5  C9  UNL     1     -34.520   4.819   5.229  1.00 20.00     0.050 C 
HETATM    6  N12 UNL     1     -33.088   6.075   3.013  1.00 20.00    -0.071 N 
HETATM    7  H33 UNL     1     -33.606   5.565   2.285  1.00 20.00     0.279 HD
ENDROOT
BRANCH   6   8
HETATM    8  C11 UNL     1     -32.109   6.962   2.293  1.00 20.00     0.239 C 
BRANCH   8   9
HETATM    9  C10 UNL     1     -32.859   7.842   1.315  1.00 20.00     0.011 C 
HETATM   10  C3  UNL     1     -32.021   8.498   0.187  1.00 20.00     0.006 C 
HETATM   11  C2  UNL     1     -32.925   9.739   0.339  1.00 20.00     0.001 C 
HETATM   12  C4  UNL     1     -33.189   9.281   1.788  1.00 20.00     0.006 C 
ENDBRANCH   8   9
ENDBRANCH   6   8
BRANCH   5  13
HETATM   13  C1  UNL     1     -34.009   5.343   6.542  1.00 20.00     0.235 C 
HETATM   14  O13 UNL     1     -34.054   6.526   6.861  1.00 20.00    -0.306 OA
ENDBRANCH   5  13
TORSDOF 3
