REMARK  4 active torsions:
REMARK  status: ('A' for Active; 'I' for Inactive)
REMARK    1  A    between atoms: C5_5  and  C7_7 
REMARK    2  A    between atoms: C6_6  and  C7_7 
REMARK    3  A    between atoms: C6_6  and  C8_8 
REMARK    4  A    between atoms: C8_8  and  N9_9 
ROOT
HETATM    1  C1  UNL     1     -32.419   7.345   1.866  1.00 20.00     0.158 C 
HETATM    2  N9  UNL     1     -32.449   6.675   2.829  1.00 20.00    -0.271 NA
HETATM    3  S10 UNL     1     -32.355   8.273   0.573  1.00 20.00    -0.055 SA
ENDROOT
BRANCH   2   4
HETATM    4  C8  UNL     1     -33.424   5.580   2.786  1.00 20.00     0.106 C 
HETATM    5  C4  UNL     1     -32.656   4.265   2.877  1.00 20.00     0.034 C 
BRANCH   4   6
HETATM    6  C6  UNL     1     -34.406   5.725   3.956  1.00 20.00     0.031 C 
BRANCH   6   7
HETATM    7  C7  UNL     1     -33.766   5.666   5.363  1.00 20.00    -0.017 C 
HETATM    8  C3  UNL     1     -34.789   5.288   6.440  1.00 20.00     0.010 C 
BRANCH   7   9
HETATM    9  C5  UNL     1     -33.113   7.012   5.746  1.00 20.00    -0.000 C 
HETATM   10  C2  UNL     1     -34.086   8.182   5.787  1.00 20.00     0.005 C 
ENDBRANCH   7   9
ENDBRANCH   6   7
ENDBRANCH   4   6
ENDBRANCH   2   4
TORSDOF 4
