REMARK  2 active torsions:
REMARK  status: ('A' for Active; 'I' for Inactive)
REMARK    1  A    between atoms: C2_2  and  C9_9 
REMARK    2  A    between atoms: C9_9  and  N11_11 
ROOT
HETATM    1  C3  UNL     1     -33.840   4.394   5.388  1.00 20.00     0.300 C 
HETATM    2  C4  UNL     1     -33.682   4.823   3.928  1.00 20.00     0.302 C 
HETATM    3  C5  UNL     1     -34.647   6.968   4.450  1.00 20.00     0.307 C 
HETATM    4  C6  UNL     1     -34.823   6.556   5.923  1.00 20.00     0.244 C 
HETATM    5  C8  UNL     1     -33.714   7.111   6.822  1.00 20.00     0.044 C 
HETATM    6  N10 UNL     1     -34.940   5.095   6.055  1.00 20.00     0.091 N 
HETATM    7  N11 UNL     1     -33.511   6.277   3.826  1.00 20.00     0.096 N 
HETATM    8  H29 UNL     1     -35.831   4.784   5.660  1.00 20.00     0.316 HD
ENDROOT
BRANCH   7   9
HETATM    9  C9  UNL     1     -33.359   6.685   2.430  1.00 20.00     0.305 C 
BRANCH   9  10
HETATM   10  C2  UNL     1     -32.714   8.039   2.363  1.00 20.00    -0.065 C 
HETATM   11  C1  UNL     1     -33.338   9.086   1.800  1.00 20.00     0.015 C 
HETATM   12  C7  UNL     1     -31.323   8.163   2.918  1.00 20.00     0.044 C 
ENDBRANCH   9  10
ENDBRANCH   7   9
TORSDOF 2
