REMARK  3 active torsions:
REMARK  status: ('A' for Active; 'I' for Inactive)
REMARK    1  A    between atoms: C1_1  and  C3_3 
REMARK    2  A    between atoms: C1_1  and  C7_7 
REMARK    3  A    between atoms: C7_7  and  C8_8 
ROOT
HETATM    1  C1  UNL     1     -34.213   5.382   4.060  1.00 20.00     0.131 C 
HETATM    2  O9  UNL     1     -33.824   4.221   3.950  1.00 20.00    -0.298 OA
ENDROOT
BRANCH   1   3
HETATM    3  C3  UNL     1     -34.945   5.842   5.294  1.00 20.00     0.059 A 
HETATM    4  C2  UNL     1     -34.304   5.608   6.618  1.00 20.00     0.017 A 
HETATM    5  C4  UNL     1     -34.425   7.002   6.071  1.00 20.00    -0.007 A 
HETATM    6  C5  UNL     1     -33.201   7.763   5.691  1.00 20.00     0.011 C 
ENDBRANCH   1   3
BRANCH   1   7
HETATM    7  C7  UNL     1     -33.994   6.431   2.984  1.00 20.00     0.078 C 
BRANCH   7   8
HETATM    8  C8  UNL     1     -32.517   6.639   2.662  1.00 20.00     0.003 C 
HETATM    9  C6  UNL     1     -32.327   7.668   1.560  1.00 20.00     0.005 C 
ENDBRANCH   7   8
ENDBRANCH   1   7
TORSDOF 3
