REMARK  4 active torsions:
REMARK  status: ('A' for Active; 'I' for Inactive)
REMARK    1  A    between atoms: C2_2  and  C8_8 
REMARK    2  A    between atoms: C5_5  and  C9_9 
REMARK    3  A    between atoms: C8_8  and  C9_9 
REMARK    4  A    between atoms: C9_9  and  O10_10 
ROOT
HETATM    1  C1  UNL     1     -32.451   8.510   1.526  1.00 20.00    -0.111 C 
HETATM    2  C2  UNL     1     -32.389   7.511   2.191  1.00 20.00    -0.104 C 
HETATM    3  C6  UNL     1     -32.527   9.726   0.717  1.00 20.00     0.112 C 
ENDROOT
BRANCH   2   4
HETATM    4  C8  UNL     1     -32.311   6.287   3.004  1.00 20.00     0.126 C 
BRANCH   4   5
HETATM    5  C9  UNL     1     -33.700   5.697   3.257  1.00 20.00     0.133 C 
BRANCH   5   6
HETATM    6  C5  UNL     1     -34.394   6.402   4.416  1.00 20.00     0.019 A 
HETATM    7  C3  UNL     1     -35.497   5.709   5.172  1.00 20.00     0.012 A 
HETATM    8  C4  UNL     1     -34.162   5.938   5.831  1.00 20.00    -0.012 A 
HETATM    9  C7  UNL     1     -34.032   6.933   6.932  1.00 20.00     0.010 C 
ENDBRANCH   5   6
BRANCH   5  10
HETATM   10  O10 UNL     1     -33.559   4.316   3.586  1.00 20.00    -0.394 OA
HETATM   11  H24 UNL     1     -33.116   3.898   2.832  1.00 20.00     0.210 HD
ENDBRANCH   5  10
ENDBRANCH   4   5
ENDBRANCH   2   4
TORSDOF 4
