REMARK  1 active torsions:
REMARK  status: ('A' for Active; 'I' for Inactive)
REMARK    1  A    between atoms: C3_3  and  C4_4 
ROOT
HETATM    1  C1  UNL     1     -32.769   7.370   3.810  1.00 20.00     0.064 C 
HETATM    2  C4  UNL     1     -33.912   7.147   4.706  1.00 20.00     0.175 C 
HETATM    3  N5  UNL     1     -31.867   7.550   3.103  1.00 20.00    -0.197 NA
ENDROOT
BRANCH   2   4
HETATM    4  C3  UNL     1     -34.123   5.677   4.935  1.00 20.00     0.035 C 
HETATM    5  C2  UNL     1     -33.873   4.685   4.073  1.00 20.00     0.105 C 
HETATM    6 CL6  UNL     1     -33.201   4.879   2.509  1.00 20.00    -0.096 Cl
HETATM    7 CL7  UNL     1     -34.818   5.272   6.479  1.00 20.00    -0.087 Cl
ENDBRANCH   2   4
TORSDOF 1
