REMARK  2 active torsions:
REMARK  status: ('A' for Active; 'I' for Inactive)
REMARK    1  A    between atoms: C2_2  and  C8_8 
REMARK    2  A    between atoms: C3_3  and  C5_5 
ROOT
HETATM    1  C1  UNL     1     -32.352   6.799   1.754  1.00 20.00     0.080 A 
HETATM    2  C2  UNL     1     -32.432   7.775   2.726  1.00 20.00     0.055 A 
HETATM    3  C3  UNL     1     -33.500   6.175   3.778  1.00 20.00     0.080 A 
HETATM    4  N9  UNL     1     -33.090   7.419   3.887  1.00 20.00    -0.248 NA
HETATM    5  S10 UNL     1     -33.128   5.373   2.307  1.00 20.00    -0.084 SA
ENDROOT
BRANCH   3   6
HETATM    6  C5  UNL     1     -34.272   5.474   4.910  1.00 20.00     0.049 A 
HETATM    7  C4  UNL     1     -35.654   5.980   5.261  1.00 20.00     0.016 A 
HETATM    8  C6  UNL     1     -34.524   6.184   6.226  1.00 20.00    -0.007 A 
HETATM    9  C7  UNL     1     -34.018   7.559   6.504  1.00 20.00     0.011 C 
ENDBRANCH   3   6
BRANCH   2  10
HETATM   10  C8  UNL     1     -31.881   9.141   2.623  1.00 20.00     0.174 C 
HETATM   11 CL11 UNL     1     -32.885  10.161   1.559  1.00 20.00    -0.124 Cl
ENDBRANCH   2  10
TORSDOF 2
