REMARK  2 active torsions:
REMARK  status: ('A' for Active; 'I' for Inactive)
REMARK    1  A    between atoms: C1_1  and  C3_3 
REMARK    2  A    between atoms: C1_1  and  C7_7 
ROOT
HETATM    1  C2  UNL     1     -33.506   7.366   6.180  1.00 20.00     0.017 A 
HETATM    2  C3  UNL     1     -34.286   6.970   4.952  1.00 20.00     0.059 A 
HETATM    3  C4  UNL     1     -34.350   6.123   6.201  1.00 20.00    -0.007 A 
HETATM    4  C5  UNL     1     -33.701   4.784   6.285  1.00 20.00     0.011 C 
ENDROOT
BRANCH   2   5
HETATM    5  C1  UNL     1     -33.566   6.505   3.761  1.00 20.00     0.131 C 
HETATM    6  O8  UNL     1     -33.841   5.429   3.233  1.00 20.00    -0.298 OA
BRANCH   5   7
HETATM    7  C7  UNL     1     -32.480   7.426   3.236  1.00 20.00     0.074 C 
HETATM    8  C6  UNL     1     -32.273   7.292   1.738  1.00 20.00     0.013 C 
ENDBRANCH   5   7
ENDBRANCH   2   5
TORSDOF 2
