REMARK  3 active torsions:
REMARK  status: ('A' for Active; 'I' for Inactive)
REMARK    1  A    between atoms: C1_1  and  C3_3 
REMARK    2  A    between atoms: C1_1  and  C8_8 
REMARK    3  A    between atoms: C8_8  and  C9_9 
ROOT
HETATM    1  C1  UNL     1     -33.499   7.178   4.260  1.00 20.00     0.131 C 
HETATM    2  O10 UNL     1     -32.637   7.585   5.038  1.00 20.00    -0.298 OA
ENDROOT
BRANCH   1   3
HETATM    3  C3  UNL     1     -34.791   6.595   4.773  1.00 20.00     0.059 A 
HETATM    4  C2  UNL     1     -34.817   6.067   6.165  1.00 20.00     0.017 A 
HETATM    5  C4  UNL     1     -34.899   5.126   4.996  1.00 20.00    -0.007 A 
HETATM    6  C5  UNL     1     -33.787   4.169   4.731  1.00 20.00     0.011 C 
ENDBRANCH   1   3
BRANCH   1   7
HETATM    7  C8  UNL     1     -33.321   7.188   2.750  1.00 20.00     0.082 C 
BRANCH   7   8
HETATM    8  C9  UNL     1     -32.482   8.365   2.231  1.00 20.00    -0.016 C 
HETATM    9  C6  UNL     1     -33.120   9.708   2.593  1.00 20.00     0.010 C 
HETATM   10  C7  UNL     1     -32.320   8.263   0.713  1.00 20.00     0.010 C 
ENDBRANCH   7   8
ENDBRANCH   1   7
TORSDOF 3
