REMARK  3 active torsions:
REMARK  status: ('A' for Active; 'I' for Inactive)
REMARK    1  A    between atoms: C1_1  and  C3_3 
REMARK    2  A    between atoms: C1_1  and  C8_8 
REMARK    3  A    between atoms: C8_8  and  C9_9 
ROOT
HETATM    1  C1  UNL     1     -33.239   6.161   3.510  1.00 20.00     0.131 C 
HETATM    2  O10 UNL     1     -32.948   5.197   2.804  1.00 20.00    -0.298 OA
ENDROOT
BRANCH   1   3
HETATM    3  C3  UNL     1     -34.560   6.222   4.232  1.00 20.00     0.059 A 
HETATM    4  C2  UNL     1     -34.915   5.097   5.140  1.00 20.00     0.017 A 
HETATM    5  C4  UNL     1     -34.586   6.449   5.705  1.00 20.00    -0.007 A 
HETATM    6  C5  UNL     1     -33.357   6.634   6.529  1.00 20.00     0.011 C 
ENDBRANCH   1   3
BRANCH   1   7
HETATM    7  C8  UNL     1     -32.329   7.369   3.677  1.00 20.00     0.082 C 
BRANCH   7   8
HETATM    8  C9  UNL     1     -32.524   8.446   2.599  1.00 20.00    -0.016 C 
HETATM    9  C6  UNL     1     -33.956   8.988   2.603  1.00 20.00     0.010 C 
HETATM   10  C7  UNL     1     -32.193   7.873   1.220  1.00 20.00     0.010 C 
ENDBRANCH   7   8
ENDBRANCH   1   7
TORSDOF 3
