REMARK  1 active torsions:
REMARK  status: ('A' for Active; 'I' for Inactive)
REMARK    1  A    between atoms: C3_3  and  C8_8 
ROOT
HETATM    1  C1  UNL     1     -32.561   8.256   2.946  1.00 20.00     0.285 C 
HETATM    2  C2  UNL     1     -32.989   7.298   1.835  1.00 20.00     0.073 C 
HETATM    3  C3  UNL     1     -33.236   6.475   4.330  1.00 20.00     0.289 C 
HETATM    4  C4  UNL     1     -31.994   7.244   0.689  1.00 20.00     0.023 C 
HETATM    5  N9  UNL     1     -33.359   7.920   4.127  1.00 20.00     0.099 N 
HETATM    6  S10 UNL     1     -33.127   5.700   2.685  1.00 20.00    -0.127 SA
HETATM    7  H27 UNL     1     -33.020   8.425   4.945  1.00 20.00     0.317 HD
ENDROOT
BRANCH   3   8
HETATM    8  C8  UNL     1     -34.433   5.945   5.103  1.00 20.00    -0.011 C 
HETATM    9  C5  UNL     1     -34.494   6.602   6.495  1.00 20.00     0.017 C 
HETATM   10  C6  UNL     1     -34.315   4.419   5.276  1.00 20.00     0.017 C 
HETATM   11  C7  UNL     1     -35.734   6.263   4.342  1.00 20.00     0.017 C 
ENDBRANCH   3   8
TORSDOF 1
