REMARK  2 active torsions:
REMARK  status: ('A' for Active; 'I' for Inactive)
REMARK    1  A    between atoms: C3_3  and  C5_5 
REMARK    2  A    between atoms: C3_3  and  C8_8 
ROOT
HETATM    1  C1  UNL     1     -32.690   8.208   1.515  1.00 20.00     0.012 C 
HETATM    2  C2  UNL     1     -32.489   7.810   2.630  1.00 20.00    -0.110 C 
HETATM    3  C8  UNL     1     -32.237   7.321   3.990  1.00 20.00     0.171 C 
ENDROOT
BRANCH   3   4
HETATM    4  C3  UNL     1     -33.502   7.230   4.819  1.00 20.00     0.142 C 
HETATM    5  O9  UNL     1     -33.678   7.874   5.852  1.00 20.00    -0.297 OA
BRANCH   4   6
HETATM    6  C5  UNL     1     -34.535   6.315   4.319  1.00 20.00     0.060 A 
HETATM    7  C4  UNL     1     -34.174   4.880   4.028  1.00 20.00     0.017 A 
HETATM    8  C6  UNL     1     -35.073   5.203   5.188  1.00 20.00    -0.007 A 
HETATM    9  C7  UNL     1     -34.597   4.985   6.583  1.00 20.00     0.011 C 
ENDBRANCH   4   6
ENDBRANCH   3   4
TORSDOF 2
