REMARK  2 active torsions:
REMARK  status: ('A' for Active; 'I' for Inactive)
REMARK    1  A    between atoms: C1_1  and  C3_3 
REMARK    2  A    between atoms: C1_1  and  C9_9 
ROOT
HETATM    1  C1  UNL     1     -33.932   6.216   4.387  1.00 20.00     0.139 C 
HETATM    2  O10 UNL     1     -35.008   5.618   4.457  1.00 20.00    -0.297 OA
ENDROOT
BRANCH   1   3
HETATM    3  C3  UNL     1     -33.335   6.827   5.633  1.00 20.00     0.060 A 
HETATM    4  C2  UNL     1     -34.261   7.447   6.618  1.00 20.00     0.017 A 
HETATM    5  C4  UNL     1     -33.549   6.166   6.949  1.00 20.00    -0.007 A 
HETATM    6  C5  UNL     1     -34.324   4.904   7.121  1.00 20.00     0.011 C 
ENDBRANCH   1   3
BRANCH   1   7
HETATM    7  C9  UNL     1     -33.155   6.343   3.063  1.00 20.00     0.010 C 
HETATM    8  C6  UNL     1     -31.855   7.115   3.322  1.00 20.00     0.022 C 
HETATM    9  C7  UNL     1     -33.998   7.065   2.004  1.00 20.00     0.022 C 
HETATM   10  C8  UNL     1     -32.808   4.939   2.537  1.00 20.00     0.022 C 
ENDBRANCH   1   7
TORSDOF 2
