REMARK  2 active torsions:
REMARK  status: ('A' for Active; 'I' for Inactive)
REMARK    1  A    between atoms: C2_2  and  C9_9 
REMARK    2  A    between atoms: C9_9  and  N11_11 
ROOT
HETATM    1  C1  UNL     1     -32.604   8.476   1.119  1.00 20.00    -0.109 C 
HETATM    2  C2  UNL     1     -32.339   7.818   2.089  1.00 20.00    -0.077 C 
HETATM    3  C7  UNL     1     -32.928   9.276  -0.061  1.00 20.00     0.112 C 
ENDROOT
BRANCH   2   4
HETATM    4  C9  UNL     1     -32.008   7.018   3.271  1.00 20.00     0.365 C 
BRANCH   4   5
HETATM    5  N11 UNL     1     -33.192   6.336   3.788  1.00 20.00     0.103 N 
HETATM    6  C4  UNL     1     -32.810   5.200   4.637  1.00 20.00     0.303 C 
HETATM    7  C3  UNL     1     -34.048   4.484   5.178  1.00 20.00     0.300 C 
HETATM    8  N10 UNL     1     -34.943   5.393   5.899  1.00 20.00     0.091 N 
HETATM    9  C6  UNL     1     -35.301   6.569   5.091  1.00 20.00     0.244 C 
HETATM   10  H27 UNL     1     -35.801   4.885   6.144  1.00 20.00     0.316 HD
HETATM   11  C5  UNL     1     -34.045   7.267   4.539  1.00 20.00     0.308 C 
HETATM   12  C8  UNL     1     -36.300   6.206   3.988  1.00 20.00     0.044 C 
ENDBRANCH   4   5
ENDBRANCH   2   4
TORSDOF 2
