REMARK  2 active torsions:
REMARK  status: ('A' for Active; 'I' for Inactive)
REMARK    1  A    between atoms: C2_2  and  C3_3 
REMARK    2  A    between atoms: C3_3  and  C7_7 
ROOT
HETATM    1  C4  UNL     1     -33.815   5.167   6.824  1.00 20.00     0.002 C 
HETATM    2  C5  UNL     1     -34.924   5.201   5.755  1.00 20.00     0.012 C 
HETATM    3  C6  UNL     1     -33.780   6.706   6.749  1.00 20.00     0.012 C 
HETATM    4  C7  UNL     1     -34.418   6.605   5.341  1.00 20.00     0.059 C 
ENDROOT
BRANCH   4   5
HETATM    5  C3  UNL     1     -33.465   6.629   4.209  1.00 20.00     0.152 C 
HETATM    6  O8  UNL     1     -32.479   7.363   4.223  1.00 20.00    -0.293 OA
BRANCH   5   7
HETATM    7  C2  UNL     1     -33.746   5.703   3.079  1.00 20.00     0.040 C 
HETATM    8  C1  UNL     1     -32.750   5.199   2.345  1.00 20.00     0.015 C 
ENDBRANCH   5   7
ENDBRANCH   4   5
TORSDOF 2
