REMARK  2 active torsions:
REMARK  status: ('A' for Active; 'I' for Inactive)
REMARK    1  A    between atoms: C5_5  and  C8_8 
REMARK    2  A    between atoms: C8_8  and  N9_9 
ROOT
HETATM    1  C1  UNL     1     -32.918   4.541   2.422  1.00 20.00     0.014 C 
HETATM    2  C2  UNL     1     -32.826   5.393   3.263  1.00 20.00    -0.081 C 
HETATM    3  C8  UNL     1     -32.695   6.460   4.282  1.00 20.00     0.301 C 
ENDROOT
BRANCH   3   4
HETATM    4  C5  UNL     1     -34.018   6.921   4.791  1.00 20.00     0.035 A 
HETATM    5  C3  UNL     1     -34.125   7.576   6.143  1.00 20.00     0.012 A 
HETATM    6  C4  UNL     1     -34.742   6.221   5.917  1.00 20.00    -0.011 A 
HETATM    7  C6  UNL     1     -34.187   5.019   6.599  1.00 20.00     0.010 C 
ENDBRANCH   3   4
BRANCH   3   8
HETATM    8  N9  UNL     1     -31.926   7.555   3.713  1.00 20.00     0.095 N 
HETATM    9  C7  UNL     1     -32.580   8.094   2.527  1.00 20.00     0.308 C 
HETATM   10  H22 UNL     1     -31.829   8.297   4.406  1.00 20.00     0.317 HD
ENDBRANCH   3   8
TORSDOF 2
