REMARK  2 active torsions:
REMARK  status: ('A' for Active; 'I' for Inactive)
REMARK    1  A    between atoms: C3_3  and  C8_8 
REMARK    2  A    between atoms: C9_9  and  C12_12 
ROOT
HETATM    1  C1  UNL     1     -32.771  10.182   1.086  1.00 20.00     0.021 C 
HETATM    2  C2  UNL     1     -32.597   8.997   1.160  1.00 20.00    -0.039 C 
HETATM    3  C3  UNL     1     -32.388   7.571   1.249  1.00 20.00     0.205 C 
HETATM    4  O13 UNL     1     -32.562   6.868   0.262  1.00 20.00    -0.283 OA
ENDROOT
BRANCH   3   5
HETATM    5  C8  UNL     1     -31.952   7.037   2.604  1.00 20.00     0.069 C 
HETATM    6  C4  UNL     1     -32.477   7.953   3.704  1.00 20.00     0.013 C 
HETATM    7  C6  UNL     1     -33.971   7.786   3.983  1.00 20.00     0.006 C 
HETATM    8  C9  UNL     1     -34.389   6.326   4.193  1.00 20.00    -0.011 C 
HETATM    9  C7  UNL     1     -33.917   5.456   3.022  1.00 20.00     0.006 C 
HETATM   10  C5  UNL     1     -32.420   5.591   2.736  1.00 20.00     0.013 C 
BRANCH   8  11
HETATM   11  C12 UNL     1     -33.899   5.783   5.538  1.00 20.00    -0.019 C 
HETATM   12  C10 UNL     1     -34.448   6.623   6.688  1.00 20.00     0.010 C 
HETATM   13  C11 UNL     1     -34.299   4.319   5.703  1.00 20.00     0.010 C 
ENDBRANCH   8  11
ENDBRANCH   3   5
TORSDOF 2
