REMARK  2 active torsions:
REMARK  status: ('A' for Active; 'I' for Inactive)
REMARK    1  A    between atoms: C3_3  and  C7_7 
REMARK    2  A    between atoms: C8_8  and  C10_10 
ROOT
HETATM    1  C1  UNL     1     -34.410   4.076   6.363  1.00 20.00     0.021 C 
HETATM    2  C2  UNL     1     -34.292   5.237   6.081  1.00 20.00    -0.039 C 
HETATM    3  C3  UNL     1     -34.150   6.633   5.742  1.00 20.00     0.205 C 
HETATM    4  O11 UNL     1     -34.347   7.489   6.594  1.00 20.00    -0.283 OA
ENDROOT
BRANCH   3   5
HETATM    5  C7  UNL     1     -33.752   6.941   4.309  1.00 20.00     0.069 C 
HETATM    6  C4  UNL     1     -33.511   5.691   3.471  1.00 20.00     0.013 C 
HETATM    7  C5  UNL     1     -32.722   6.202   2.268  1.00 20.00     0.005 C 
HETATM    8  C8  UNL     1     -31.964   7.435   2.761  1.00 20.00    -0.014 C 
HETATM    9  C6  UNL     1     -32.417   7.677   4.199  1.00 20.00     0.017 C 
BRANCH   8  10
HETATM   10  C10 UNL     1     -32.357   8.634   1.919  1.00 20.00     0.000 C 
HETATM   11  C9  UNL     1     -31.987   8.454   0.480  1.00 20.00     0.005 C 
ENDBRANCH   8  10
ENDBRANCH   3   5
TORSDOF 2
