REMARK  5 active torsions:
REMARK  status: ('A' for Active; 'I' for Inactive)
REMARK    1  A    between atoms: C3_3  and  C5_5 
REMARK    2  A    between atoms: C5_5  and  C6_6 
REMARK    3  A    between atoms: C6_6  and  N9_9 
REMARK    4  A    between atoms: C7_7  and  C8_8 
REMARK    5  A    between atoms: C7_7  and  N9_9 
ROOT
HETATM    1  C6  UNL     1     -33.322   5.017   3.763  1.00 20.00     0.272 C 
ENDROOT
BRANCH   1   2
HETATM    2  C5  UNL     1     -33.082   5.587   2.370  1.00 20.00     0.034 C 
BRANCH   2   3
HETATM    3  C3  UNL     1     -32.318   6.903   2.397  1.00 20.00    -0.013 A 
HETATM    4  C1  UNL     1     -32.362   7.830   1.214  1.00 20.00     0.005 A 
HETATM    5  C2  UNL     1     -33.060   8.207   2.491  1.00 20.00     0.005 A 
ENDBRANCH   2   3
ENDBRANCH   1   2
BRANCH   1   6
HETATM    6  N9  UNL     1     -34.103   5.897   4.587  1.00 20.00     0.085 N 
HETATM    7  C4  UNL     1     -35.539   5.776   4.293  1.00 20.00     0.309 C 
BRANCH   6   8
HETATM    8  C7  UNL     1     -33.872   5.637   6.018  1.00 20.00     0.286 C 
BRANCH   8   9
HETATM    9  C8  UNL     1     -34.552   6.660   6.913  1.00 20.00     0.144 C 
HETATM   10 CL10 UNL     1     -33.962   8.307   6.581  1.00 20.00    -0.129 Cl
ENDBRANCH   8   9
ENDBRANCH   6   8
ENDBRANCH   1   6
TORSDOF 5
