REMARK  1 active torsions:
REMARK  status: ('A' for Active; 'I' for Inactive)
REMARK    1  A    between atoms: C3_3  and  C5_5 
ROOT
HETATM    1  C1  UNL     1     -32.159   8.761   1.942  1.00 20.00     0.021 C 
HETATM    2  C2  UNL     1     -32.391   7.741   2.532  1.00 20.00    -0.039 C 
HETATM    3  C3  UNL     1     -32.669   6.514   3.240  1.00 20.00     0.206 C 
HETATM    4  O8  UNL     1     -32.356   5.440   2.743  1.00 20.00    -0.283 OA
ENDROOT
BRANCH   3   5
HETATM    5  C5  UNL     1     -33.326   6.651   4.544  1.00 20.00     0.073 A 
HETATM    6  C4  UNL     1     -34.827   6.778   4.603  1.00 20.00     0.018 A 
HETATM    7  C6  UNL     1     -34.165   5.511   5.068  1.00 20.00    -0.006 A 
HETATM    8  C7  UNL     1     -34.140   5.167   6.517  1.00 20.00     0.011 C 
ENDBRANCH   3   5
TORSDOF 1
