REMARK  3 active torsions:
REMARK  status: ('A' for Active; 'I' for Inactive)
REMARK    1  A    between atoms: C7_7  and  C9_9 
REMARK    2  A    between atoms: C9_9  and  C10_10 
REMARK    3  A    between atoms: C10_10  and  N11_11 
ROOT
HETATM    1  C1  UNL     1     -33.550   4.277   3.805  1.00 20.00     0.029 C 
HETATM    2  C4  UNL     1     -34.643   4.583   4.825  1.00 20.00     0.023 C 
HETATM    3  C5  UNL     1     -33.190   5.502   2.977  1.00 20.00     0.235 C 
HETATM    4  C6  UNL     1     -33.900   6.997   4.866  1.00 20.00     0.254 C 
HETATM    5  C8  UNL     1     -34.253   5.772   5.701  1.00 20.00     0.108 C 
HETATM    6  N11 UNL     1     -32.798   6.635   3.896  1.00 20.00    -0.070 N 
HETATM    7 CL12 UNL     1     -35.597   6.171   6.808  1.00 20.00    -0.123 Cl
HETATM    8  H31 UNL     1     -31.995   6.311   4.453  1.00 20.00     0.279 HD
ENDROOT
BRANCH   6   9
HETATM    9  C10 UNL     1     -32.321   7.835   3.125  1.00 20.00     0.235 C 
BRANCH   9  10
HETATM   10  C9  UNL     1     -33.449   8.336   2.237  1.00 20.00     0.032 C 
BRANCH  10  11
HETATM   11  C7  UNL     1     -33.003   9.524   1.400  1.00 20.00    -0.013 A 
HETATM   12  C2  UNL     1     -32.391   9.309   0.044  1.00 20.00     0.005 A 
HETATM   13  C3  UNL     1     -33.765   9.906   0.162  1.00 20.00     0.005 A 
ENDBRANCH  10  11
ENDBRANCH   9  10
ENDBRANCH   6   9
TORSDOF 3
