REMARK  3 active torsions:
REMARK  status: ('A' for Active; 'I' for Inactive)
REMARK    1  A    between atoms: C6_6  and  C10_10 
REMARK    2  A    between atoms: C7_7  and  C11_11 
REMARK    3  A    between atoms: C11_11  and  N12_12 
ROOT
HETATM    1  C1  UNL     1     -33.910   4.340   4.420  1.00 20.00     0.014 C 
HETATM    2  C2  UNL     1     -34.141   5.489   4.678  1.00 20.00    -0.081 C 
HETATM    3  C11 UNL     1     -34.427   6.896   4.996  1.00 20.00     0.301 C 
ENDROOT
BRANCH   3   4
HETATM    4  C7  UNL     1     -33.612   7.835   4.122  1.00 20.00     0.031 C 
HETATM    5  C4  UNL     1     -32.106   7.639   4.279  1.00 20.00     0.008 C 
HETATM    6  C3  UNL     1     -31.551   8.231   2.993  1.00 20.00     0.005 C 
HETATM    7  C6  UNL     1     -32.511   7.700   1.931  1.00 20.00    -0.014 C 
HETATM    8  C5  UNL     1     -33.884   7.657   2.620  1.00 20.00     0.012 C 
BRANCH   7   9
HETATM    9  C10 UNL     1     -32.504   8.529   0.657  1.00 20.00     0.000 C 
HETATM   10  C8  UNL     1     -32.892   9.951   0.913  1.00 20.00     0.005 C 
ENDBRANCH   7   9
ENDBRANCH   3   4
BRANCH   3  11
HETATM   11  N12 UNL     1     -34.166   7.145   6.392  1.00 20.00     0.095 N 
HETATM   12  C9  UNL     1     -34.989   6.296   7.251  1.00 20.00     0.308 C 
HETATM   13  H31 UNL     1     -34.365   8.125   6.616  1.00 20.00     0.317 HD
ENDBRANCH   3  11
TORSDOF 3
