REMARK  4 active torsions:
REMARK  status: ('A' for Active; 'I' for Inactive)
REMARK    1  A    between atoms: C1_1  and  C5_5 
REMARK    2  A    between atoms: C1_1  and  C9_9 
REMARK    3  A    between atoms: C6_6  and  C10_10 
REMARK    4  A    between atoms: C9_9  and  C10_10 
ROOT
HETATM    1  C1  UNL     1     -33.750   6.871   3.652  1.00 20.00     0.131 C 
HETATM    2  O11 UNL     1     -34.482   6.185   2.941  1.00 20.00    -0.298 OA
ENDROOT
BRANCH   1   3
HETATM    3  C5  UNL     1     -34.191   7.315   5.023  1.00 20.00     0.059 A 
HETATM    4  C4  UNL     1     -33.302   7.012   6.177  1.00 20.00     0.017 A 
HETATM    5  C7  UNL     1     -34.615   6.299   6.026  1.00 20.00    -0.007 A 
HETATM    6  C8  UNL     1     -34.640   4.833   5.752  1.00 20.00     0.011 C 
ENDBRANCH   1   3
BRANCH   1   7
HETATM    7  C9  UNL     1     -32.366   7.321   3.218  1.00 20.00     0.079 C 
BRANCH   7   8
HETATM    8  C10 UNL     1     -32.266   7.535   1.711  1.00 20.00     0.012 C 
BRANCH   8   9
HETATM    9  C6  UNL     1     -33.266   8.573   1.228  1.00 20.00    -0.014 A 
HETATM   10  C2  UNL     1     -32.887  10.028   1.186  1.00 20.00     0.005 A 
HETATM   11  C3  UNL     1     -33.065   9.260  -0.094  1.00 20.00     0.005 A 
ENDBRANCH   8   9
ENDBRANCH   7   8
ENDBRANCH   1   7
TORSDOF 4
