REMARK  2 active torsions:
REMARK  status: ('A' for Active; 'I' for Inactive)
REMARK    1  A    between atoms: C3_3  and  C7_7 
REMARK    2  A    between atoms: C8_8  and  C10_10 
ROOT
HETATM    1  C1  UNL     1     -34.451   4.876   6.656  1.00 20.00     0.021 C 
HETATM    2  C2  UNL     1     -34.107   5.238   5.565  1.00 20.00    -0.039 C 
HETATM    3  C3  UNL     1     -33.694   5.673   4.252  1.00 20.00     0.205 C 
HETATM    4  O11 UNL     1     -33.476   4.845   3.377  1.00 20.00    -0.283 OA
ENDROOT
BRANCH   3   5
HETATM    5  C7  UNL     1     -33.557   7.171   4.051  1.00 20.00     0.069 C 
HETATM    6  C4  UNL     1     -32.114   7.587   4.332  1.00 20.00     0.013 C 
HETATM    7  C5  UNL     1     -31.617   8.254   3.052  1.00 20.00     0.005 C 
HETATM    8  C8  UNL     1     -32.437   7.589   1.952  1.00 20.00    -0.014 C 
HETATM    9  C6  UNL     1     -33.826   7.496   2.584  1.00 20.00     0.017 C 
BRANCH   8  10
HETATM   10  C10 UNL     1     -32.425   8.365   0.646  1.00 20.00     0.000 C 
HETATM   11  C9  UNL     1     -32.941   9.759   0.817  1.00 20.00     0.005 C 
ENDBRANCH   8  10
ENDBRANCH   3   5
TORSDOF 2
