REMARK  2 active torsions:
REMARK  status: ('A' for Active; 'I' for Inactive)
REMARK    1  A    between atoms: C3_3  and  C7_7 
REMARK    2  A    between atoms: C8_8  and  C10_10 
ROOT
HETATM    1  C1  UNL     1     -33.952   6.642   6.988  1.00 20.00     0.021 C 
HETATM    2  C2  UNL     1     -33.826   6.230   5.867  1.00 20.00    -0.039 C 
HETATM    3  C3  UNL     1     -33.675   5.735   4.520  1.00 20.00     0.205 C 
HETATM    4  O11 UNL     1     -34.516   4.979   4.051  1.00 20.00    -0.283 OA
ENDROOT
BRANCH   3   5
HETATM    5  C7  UNL     1     -32.462   6.200   3.774  1.00 20.00     0.069 C 
HETATM    6  C4  UNL     1     -32.057   7.605   4.224  1.00 20.00     0.013 C 
HETATM    7  C5  UNL     1     -32.572   8.529   3.128  1.00 20.00     0.005 C 
HETATM    8  C8  UNL     1     -32.346   7.710   1.862  1.00 20.00    -0.014 C 
HETATM    9  C6  UNL     1     -32.767   6.297   2.273  1.00 20.00     0.017 C 
BRANCH   8  10
HETATM   10  C10 UNL     1     -33.113   8.240   0.663  1.00 20.00     0.000 C 
HETATM   11  C9  UNL     1     -32.701   9.633   0.304  1.00 20.00     0.005 C 
ENDBRANCH   8  10
ENDBRANCH   3   5
TORSDOF 2
