REMARK  2 active torsions:
REMARK  status: ('A' for Active; 'I' for Inactive)
REMARK    1  A    between atoms: C2_2  and  C3_3 
REMARK    2  A    between atoms: C3_3  and  C8_8 
ROOT
HETATM    1  C4  UNL     1     -34.993   6.429   6.253  1.00 20.00     0.027 C 
HETATM    2  C5  UNL     1     -33.824   7.216   5.671  1.00 20.00     0.017 C 
HETATM    3  C6  UNL     1     -34.876   4.951   5.902  1.00 20.00     0.167 C 
HETATM    4  C7  UNL     1     -33.619   5.403   3.946  1.00 20.00     0.180 C 
HETATM    5  C8  UNL     1     -33.658   6.909   4.184  1.00 20.00     0.083 C 
HETATM    6  O10 UNL     1     -34.780   4.774   4.489  1.00 20.00    -0.390 OA
ENDROOT
BRANCH   5   7
HETATM    7  C3  UNL     1     -32.408   7.550   3.671  1.00 20.00     0.154 C 
HETATM    8  O9  UNL     1     -31.656   8.168   4.421  1.00 20.00    -0.293 OA
BRANCH   7   9
HETATM    9  C2  UNL     1     -32.112   7.374   2.224  1.00 20.00     0.040 C 
HETATM   10  C1  UNL     1     -32.964   7.813   1.294  1.00 20.00     0.015 C 
ENDBRANCH   7   9
ENDBRANCH   5   7
TORSDOF 2
