REMARK  1 active torsions:
REMARK  status: ('A' for Active; 'I' for Inactive)
REMARK    1  A    between atoms: C3_3  and  C5_5 
ROOT
HETATM    1  C1  UNL     1     -32.571   5.251   2.402  1.00 20.00     0.021 C 
HETATM    2  C2  UNL     1     -32.693   6.114   3.227  1.00 20.00    -0.039 C 
HETATM    3  C3  UNL     1     -32.838   7.153   4.219  1.00 20.00     0.206 C 
HETATM    4  O8  UNL     1     -31.916   7.929   4.427  1.00 20.00    -0.283 OA
ENDROOT
BRANCH   3   5
HETATM    5  C5  UNL     1     -34.123   7.201   4.926  1.00 20.00     0.073 A 
HETATM    6  C4  UNL     1     -35.242   6.288   4.492  1.00 20.00     0.018 A 
HETATM    7  C6  UNL     1     -34.564   6.062   5.814  1.00 20.00    -0.006 A 
HETATM    8  C7  UNL     1     -33.724   4.848   6.024  1.00 20.00     0.011 C 
ENDBRANCH   3   5
TORSDOF 1
