REMARK  1 active torsions:
REMARK  status: ('A' for Active; 'I' for Inactive)
REMARK    1  A    between atoms: C3_3  and  C7_7 
ROOT
HETATM    1  C1  UNL     1     -31.872   7.332   1.570  1.00 20.00     0.021 C 
HETATM    2  C2  UNL     1     -32.391   6.430   2.167  1.00 20.00    -0.039 C 
HETATM    3  C3  UNL     1     -33.016   5.344   2.885  1.00 20.00     0.208 C 
HETATM    4  O10 UNL     1     -33.430   4.369   2.273  1.00 20.00    -0.283 OA
ENDROOT
BRANCH   3   5
HETATM    5  C7  UNL     1     -33.112   5.500   4.371  1.00 20.00     0.100 C 
HETATM    6  C6  UNL     1     -34.391   4.849   4.909  1.00 20.00     0.047 C 
HETATM    7  C8  UNL     1     -35.100   6.037   5.558  1.00 20.00     0.122 C 
HETATM    8  C4  UNL     1     -34.371   6.483   6.825  1.00 20.00     0.034 C 
HETATM    9  O11 UNL     1     -34.756   7.102   4.644  1.00 20.00    -0.380 OA
HETATM   10  C5  UNL     1     -33.122   7.160   6.255  1.00 20.00     0.035 C 
HETATM   11  C9  UNL     1     -33.316   6.970   4.751  1.00 20.00     0.134 C 
ENDBRANCH   3   5
TORSDOF 1
