REMARK  3 active torsions:
REMARK  status: ('A' for Active; 'I' for Inactive)
REMARK    1  A    between atoms: C2_2  and  C8_8 
REMARK    2  A    between atoms: C6_6  and  C8_8 
REMARK    3  A    between atoms: C8_8  and  N9_9 
ROOT
HETATM    1  C8  UNL     1     -32.991   6.708   3.700  1.00 20.00     0.248 C 
ENDROOT
BRANCH   1   2
HETATM    2  C2  UNL     1     -33.467   5.753   2.639  1.00 20.00    -0.002 C 
HETATM    3  C1  UNL     1     -32.794   4.661   2.260  1.00 20.00     0.009 C 
ENDBRANCH   1   2
BRANCH   1   4
HETATM    4  C6  UNL     1     -33.997   6.840   4.826  1.00 20.00     0.048 C 
HETATM    5  C3  UNL     1     -34.261   5.553   5.577  1.00 20.00     0.035 C 
HETATM    6  C4  UNL     1     -34.863   6.068   6.867  1.00 20.00     0.168 C 
HETATM    7  O10 UNL     1     -34.265   7.347   7.123  1.00 20.00    -0.391 OA
HETATM    8  C5  UNL     1     -33.542   7.754   5.951  1.00 20.00     0.174 C 
ENDBRANCH   1   4
BRANCH   1   9
HETATM    9  N9  UNL     1     -32.750   7.984   3.067  1.00 20.00     0.087 N 
HETATM   10  C7  UNL     1     -31.464   8.000   2.373  1.00 20.00     0.307 C 
HETATM   11  H25 UNL     1     -32.751   8.727   3.771  1.00 20.00     0.316 HD
ENDBRANCH   1   9
TORSDOF 3
