REMARK  1 active torsions:
REMARK  status: ('A' for Active; 'I' for Inactive)
REMARK    1  A    between atoms: C3_3  and  C8_8 
ROOT
HETATM    1  C1  UNL     1     -32.286   6.563   2.123  1.00 20.00     0.016 A 
HETATM    2  C2  UNL     1     -32.153   7.440   1.008  1.00 20.00     0.015 A 
HETATM    3  C3  UNL     1     -32.840   7.195   3.214  1.00 20.00    -0.012 A 
HETATM    4  C4  UNL     1     -32.610   8.709   1.290  1.00 20.00    -0.021 A 
HETATM    5  C10 UNL     1     -32.643   9.893   0.405  1.00 20.00     0.056 C 
HETATM    6  S11 UNL     1     -33.196   8.839   2.893  1.00 20.00    -0.099 SA
ENDROOT
BRANCH   3   7
HETATM    7  C8  UNL     1     -33.146   6.620   4.581  1.00 20.00     0.040 C 
HETATM    8  C6  UNL     1     -33.719   7.664   5.555  1.00 20.00     0.011 C 
HETATM    9  C5  UNL     1     -34.556   6.840   6.519  1.00 20.00     0.002 C 
HETATM   10  C7  UNL     1     -35.243   5.836   5.604  1.00 20.00     0.016 C 
HETATM   11  C9  UNL     1     -34.187   5.481   4.558  1.00 20.00     0.067 C 
HETATM   12 BR12 UNL     1     -33.328   3.785   5.038  1.00 20.00    -0.090 Br
ENDBRANCH   3   7
TORSDOF 1
