REMARK  1 active torsions:
REMARK  status: ('A' for Active; 'I' for Inactive)
REMARK    1  A    between atoms: C3_3  and  C8_8 
ROOT
HETATM    1  C1  UNL     1     -33.395   5.392   3.958  1.00 20.00     0.016 A 
HETATM    2  C2  UNL     1     -34.234   4.815   4.955  1.00 20.00     0.015 A 
HETATM    3  C3  UNL     1     -33.245   6.750   4.129  1.00 20.00    -0.013 A 
HETATM    4  C4  UNL     1     -34.694   5.756   5.851  1.00 20.00    -0.021 A 
HETATM    5  C10 UNL     1     -35.579   5.559   7.019  1.00 20.00     0.056 C 
HETATM    6  S11 UNL     1     -34.114   7.326   5.488  1.00 20.00    -0.099 SA
ENDROOT
BRANCH   3   7
HETATM    7  C8  UNL     1     -32.443   7.722   3.293  1.00 20.00     0.027 C 
HETATM    8  C5  UNL     1     -32.313   7.270   1.826  1.00 20.00     0.011 C 
HETATM    9  C6  UNL     1     -32.368   8.558   1.016  1.00 20.00     0.016 C 
HETATM   10  C9  UNL     1     -33.384   9.383   1.781  1.00 20.00     0.058 C 
HETATM   11  C7  UNL     1     -33.022   9.153   3.242  1.00 20.00     0.025 C 
HETATM   12 BR12 UNL     1     -33.286  11.253   1.303  1.00 20.00    -0.091 Br
ENDBRANCH   3   7
TORSDOF 1
