REMARK  5 active torsions:
REMARK  status: ('A' for Active; 'I' for Inactive)
REMARK    1  A    between atoms: C3_3  and  C5_5 
REMARK    2  A    between atoms: C3_3  and  C7_7 
REMARK    3  A    between atoms: C4_4  and  C6_6 
REMARK    4  A    between atoms: C4_4  and  C7_7 
REMARK    5  A    between atoms: C5_5  and  S8_8 
ROOT
HETATM    1  C1  UNL     1     -34.376   5.990   3.411  1.00 20.00     0.010 C 
HETATM    2  C7  UNL     1     -33.198   6.762   4.016  1.00 20.00    -0.017 C 
ENDROOT
BRANCH   2   3
HETATM    3  C3  UNL     1     -32.672   7.840   3.042  1.00 20.00     0.014 C 
BRANCH   3   4
HETATM    4  C5  UNL     1     -32.118   7.297   1.725  1.00 20.00     0.073 C 
BRANCH   4   5
HETATM    5  S8  UNL     1     -31.541   8.660   0.669  1.00 20.00    -0.173 SA
HETATM    6  C2  UNL     1     -33.137   9.143  -0.027  1.00 20.00     0.089 C 
ENDBRANCH   4   5
ENDBRANCH   3   4
ENDBRANCH   2   3
BRANCH   2   7
HETATM    7  C4  UNL     1     -33.593   7.301   5.407  1.00 20.00     0.019 C 
BRANCH   7   8
HETATM    8  C6  UNL     1     -33.468   6.314   6.565  1.00 20.00     0.115 C 
HETATM    9 CL9  UNL     1     -34.464   4.862   6.320  1.00 20.00    -0.130 Cl
ENDBRANCH   7   8
ENDBRANCH   2   7
TORSDOF 5
