REMARK  1 active torsions:
REMARK  status: ('A' for Active; 'I' for Inactive)
REMARK    1  A    between atoms: C3_3  and  C8_8 
ROOT
HETATM    1  C1  UNL     1     -33.170   8.843   3.167  1.00 20.00     0.016 A 
HETATM    2  C2  UNL     1     -32.864   9.097   1.798  1.00 20.00     0.015 A 
HETATM    3  C3  UNL     1     -33.000   7.517   3.498  1.00 20.00    -0.012 A 
HETATM    4  C4  UNL     1     -32.472   7.954   1.136  1.00 20.00    -0.021 A 
HETATM    5  C10 UNL     1     -32.075   7.802  -0.281  1.00 20.00     0.056 C 
HETATM    6  S11 UNL     1     -32.474   6.583   2.162  1.00 20.00    -0.099 SA
ENDROOT
BRANCH   3   7
HETATM    7  C8  UNL     1     -33.217   6.845   4.837  1.00 20.00     0.040 C 
HETATM    8  C6  UNL     1     -33.676   7.719   6.015  1.00 20.00     0.011 C 
HETATM    9  C5  UNL     1     -34.186   6.736   7.070  1.00 20.00     0.002 C 
HETATM   10  C7  UNL     1     -34.384   5.395   6.359  1.00 20.00     0.016 C 
HETATM   11  C9  UNL     1     -34.222   5.684   4.872  1.00 20.00     0.067 C 
HETATM   12 BR12 UNL     1     -35.962   6.172   4.113  1.00 20.00    -0.090 Br
ENDBRANCH   3   7
TORSDOF 1
