REMARK  1 active torsions:
REMARK  status: ('A' for Active; 'I' for Inactive)
REMARK    1  A    between atoms: C3_3  and  C9_9 
ROOT
HETATM    1  C1  UNL     1     -33.629   5.524   3.020  1.00 20.00     0.016 A 
HETATM    2  C2  UNL     1     -34.526   5.213   4.083  1.00 20.00     0.015 A 
HETATM    3  C3  UNL     1     -32.924   6.683   3.261  1.00 20.00    -0.013 A 
HETATM    4  C4  UNL     1     -34.471   6.146   5.096  1.00 20.00    -0.021 A 
HETATM    5  C10 UNL     1     -35.238   6.178   6.359  1.00 20.00     0.056 C 
HETATM    6  S12 UNL     1     -33.343   7.390   4.763  1.00 20.00    -0.099 SA
ENDROOT
BRANCH   3   7
HETATM    7  C9  UNL     1     -31.879   7.353   2.384  1.00 20.00     0.033 C 
HETATM    8  C7  UNL     1     -32.071   7.225   0.865  1.00 20.00     0.088 C 
HETATM    9  C5  UNL     1     -32.838   8.478   0.519  1.00 20.00     0.127 C 
HETATM   10  C6  UNL     1     -32.872   9.460   1.660  1.00 20.00     0.079 C 
HETATM   11  O11 UNL     1     -33.371   8.673  -0.565  1.00 20.00    -0.298 OA
HETATM   12  C8  UNL     1     -31.837   8.872   2.614  1.00 20.00     0.018 C 
ENDBRANCH   3   7
TORSDOF 1
