REMARK  1 active torsions:
REMARK  status: ('A' for Active; 'I' for Inactive)
REMARK    1  A    between atoms: C3_3  and  C6_6 
ROOT
HETATM    1  C1  UNL     1     -32.010   7.543   1.559  1.00 20.00     0.087 C 
HETATM    2  C5  UNL     1     -32.464   6.698   2.608  1.00 20.00     0.095 C 
HETATM    3  C6  UNL     1     -33.166   7.156   3.702  1.00 20.00     0.032 C 
HETATM    4  N8  UNL     1     -31.638   8.229   0.700  1.00 20.00    -0.192 NA
ENDROOT
BRANCH   3   5
HETATM    5  C3  UNL     1     -33.645   6.394   4.787  1.00 20.00     0.031 A 
HETATM    6  C4  UNL     1     -34.072   5.084   4.839  1.00 20.00     0.048 A 
HETATM    7  C7  UNL     1     -34.126   4.136   3.705  1.00 20.00     0.072 C 
HETATM    8  N9  UNL     1     -34.485   4.632   6.077  1.00 20.00    -0.258 NA
HETATM    9  C2  UNL     1     -34.365   5.609   6.948  1.00 20.00     0.167 A 
HETATM   10  S10 UNL     1     -33.763   7.099   6.346  1.00 20.00    -0.081 SA
ENDBRANCH   3   5
TORSDOF 1
