REMARK  0 active torsions:
REMARK  status: ('A' for Active; 'I' for Inactive)
ROOT
HETATM    1  C1  UNL     1     -32.674   4.603   2.170  1.00 20.00     0.002 C 
HETATM    2  C2  UNL     1     -32.978   4.543   3.686  1.00 20.00     0.015 C 
HETATM    3  C3  UNL     1     -33.698   5.761   2.070  1.00 20.00     0.015 C 
HETATM    4  C4  UNL     1     -33.522   6.596   6.525  1.00 20.00     0.036 C 
HETATM    5  C5  UNL     1     -34.870   5.900   6.677  1.00 20.00     0.168 C 
HETATM    6  C6  UNL     1     -33.627   7.339   5.190  1.00 20.00     0.050 C 
HETATM    7  C7  UNL     1     -32.548   7.063   4.096  1.00 20.00     0.178 C 
HETATM    8  C8  UNL     1     -34.626   6.429   4.419  1.00 20.00     0.139 C 
HETATM    9  C9  UNL     1     -33.470   5.981   3.553  1.00 20.00     0.016 C 
HETATM   10  O10 UNL     1     -32.373   8.179   3.258  1.00 20.00    -0.234 OA
HETATM   11  O11 UNL     1     -35.211   5.488   5.348  1.00 20.00    -0.385 OA
ENDROOT
TORSDOF 0
