REMARK  3 active torsions:
REMARK  status: ('A' for Active; 'I' for Inactive)
REMARK    1  A    between atoms: C4_4  and  C9_9 
REMARK    2  A    between atoms: C7_7  and  C8_8 
REMARK    3  A    between atoms: C7_7  and  N10_10 
ROOT
HETATM    1  C1  UNL     1     -34.184   3.958   2.998  1.00 20.00     0.032 C 
HETATM    2  C2  UNL     1     -34.496   4.416   4.419  1.00 20.00     0.038 C 
HETATM    3  C3  UNL     1     -33.638   5.189   2.294  1.00 20.00     0.273 C 
HETATM    4  C4  UNL     1     -34.101   5.894   4.463  1.00 20.00     0.226 C 
HETATM    5  N10 UNL     1     -33.098   5.993   3.393  1.00 20.00     0.094 N 
ENDROOT
BRANCH   4   6
HETATM    6  C9  UNL     1     -33.568   6.296   5.832  1.00 20.00     0.011 C 
HETATM    7  C5  UNL     1     -33.614   7.813   6.005  1.00 20.00     0.011 C 
HETATM    8  C6  UNL     1     -34.358   5.607   6.944  1.00 20.00     0.011 C 
ENDBRANCH   4   6
BRANCH   5   9
HETATM    9  C7  UNL     1     -32.837   7.365   2.973  1.00 20.00     0.287 C 
BRANCH   9  10
HETATM   10  C8  UNL     1     -32.172   7.440   1.609  1.00 20.00     0.144 C 
HETATM   11 CL11 UNL     1     -31.863   9.128   1.131  1.00 20.00    -0.129 Cl
ENDBRANCH   9  10
ENDBRANCH   5   9
TORSDOF 3
