REMARK  2 active torsions:
REMARK  status: ('A' for Active; 'I' for Inactive)
REMARK    1  A    between atoms: C1_1  and  C7_7 
REMARK    2  A    between atoms: C3_3  and  C7_7 
ROOT
HETATM    1  C2  UNL     1     -31.615   7.705   3.609  1.00 20.00     0.015 A 
HETATM    2  C3  UNL     1     -32.916   6.987   3.367  1.00 20.00     0.004 A 
HETATM    3  C4  UNL     1     -32.518   8.155   2.480  1.00 20.00    -0.043 A 
HETATM    4  C5  UNL     1     -32.095   7.833   1.070  1.00 20.00     0.015 C 
HETATM    5  C6  UNL     1     -33.217   9.482   2.619  1.00 20.00     0.015 C 
ENDROOT
BRANCH   2   6
HETATM    6  C7  UNL     1     -34.020   7.073   4.364  1.00 20.00     0.118 C 
BRANCH   6   7
HETATM    7  C1  UNL     1     -34.206   5.848   5.283  1.00 20.00     0.172 C 
HETATM    8  O8  UNL     1     -34.524   4.773   4.705  1.00 20.00    -0.648 OA
HETATM    9  O9  UNL     1     -34.015   6.071   6.514  1.00 20.00    -0.648 OA
ENDBRANCH   6   7
ENDBRANCH   2   6
TORSDOF 2
