REMARK  2 active torsions:
REMARK  status: ('A' for Active; 'I' for Inactive)
REMARK    1  A    between atoms: C6_6  and  C7_7 
REMARK    2  A    between atoms: C7_7  and  N8_8 
ROOT
HETATM    1  C1  UNL     1     -32.360   8.229   0.879  1.00 20.00     0.157 C 
HETATM    2  N8  UNL     1     -32.348   7.305   1.607  1.00 20.00    -0.274 NA
HETATM    3  S9  UNL     1     -32.380   9.467  -0.124  1.00 20.00    -0.055 SA
ENDROOT
BRANCH   2   4
HETATM    4  C7  UNL     1     -32.130   7.626   3.013  1.00 20.00     0.165 C 
BRANCH   4   5
HETATM    5  C6  UNL     1     -33.337   7.148   3.816  1.00 20.00     0.067 C 
HETATM    6  C4  UNL     1     -33.164   7.465   5.303  1.00 20.00     0.017 C 
HETATM    7  C2  UNL     1     -34.367   7.049   6.149  1.00 20.00     0.002 C 
HETATM    8  C3  UNL     1     -34.652   5.552   6.080  1.00 20.00     0.010 C 
HETATM    9  C5  UNL     1     -34.948   5.067   4.668  1.00 20.00     0.074 C 
HETATM   10  S10 UNL     1     -33.548   5.354   3.549  1.00 20.00    -0.163 SA
ENDBRANCH   4   5
ENDBRANCH   2   4
TORSDOF 2
