REMARK  2 active torsions:
REMARK  status: ('A' for Active; 'I' for Inactive)
REMARK    1  A    between atoms: C6_6  and  C7_7 
REMARK    2  A    between atoms: C7_7  and  N8_8 
ROOT
HETATM    1  C1  UNL     1     -32.133   8.065   1.855  1.00 20.00     0.157 C 
HETATM    2  N8  UNL     1     -31.816   7.475   2.823  1.00 20.00    -0.274 NA
HETATM    3  S9  UNL     1     -32.543   8.876   0.547  1.00 20.00    -0.055 SA
ENDROOT
BRANCH   2   4
HETATM    4  C7  UNL     1     -32.741   6.426   3.239  1.00 20.00     0.165 C 
BRANCH   4   5
HETATM    5  C6  UNL     1     -33.766   7.030   4.199  1.00 20.00     0.067 C 
HETATM    6  C4  UNL     1     -35.027   6.157   4.299  1.00 20.00     0.017 C 
HETATM    7  C2  UNL     1     -34.887   4.980   5.259  1.00 20.00     0.002 C 
HETATM    8  C3  UNL     1     -34.725   5.408   6.720  1.00 20.00     0.010 C 
HETATM    9  C5  UNL     1     -34.268   6.846   6.935  1.00 20.00     0.074 C 
HETATM   10  S10 UNL     1     -32.931   7.318   5.806  1.00 20.00    -0.163 SA
ENDBRANCH   4   5
ENDBRANCH   2   4
TORSDOF 2
