REMARK  2 active torsions:
REMARK  status: ('A' for Active; 'I' for Inactive)
REMARK    1  A    between atoms: C5_5  and  C6_6 
REMARK    2  A    between atoms: C6_6  and  S8_8 
ROOT
HETATM    1  C1  UNL     1     -33.951   6.133   6.721  1.00 20.00     0.027 C 
HETATM    2  C2  UNL     1     -34.308   7.385   5.924  1.00 20.00     0.009 C 
HETATM    3  C3  UNL     1     -34.574   4.894   6.092  1.00 20.00     0.167 C 
HETATM    4  C4  UNL     1     -34.678   5.888   3.945  1.00 20.00     0.172 C 
HETATM    5  C5  UNL     1     -34.056   7.204   4.422  1.00 20.00     0.019 C 
HETATM    6  O7  UNL     1     -34.209   4.781   4.717  1.00 20.00    -0.391 OA
ENDROOT
BRANCH   5   7
HETATM    7  C6  UNL     1     -32.558   7.246   4.101  1.00 20.00     0.077 C 
BRANCH   7   8
HETATM    8  S8  UNL     1     -32.300   7.629   2.351  1.00 20.00    -0.182 SA
HETATM    9  H20 UNL     1     -30.961   7.595   2.389  1.00 20.00     0.101 HD
ENDBRANCH   7   8
ENDBRANCH   5   7
TORSDOF 2
