REMARK  0 active torsions:
REMARK  status: ('A' for Active; 'I' for Inactive)
ROOT
HETATM    1  C1  UNL     1     -32.994   7.328   4.029  1.00 20.00     0.066 C 
HETATM    2  C2  UNL     1     -33.658   4.531   4.889  1.00 20.00     0.038 C 
HETATM    3  C3  UNL     1     -33.903   4.748   6.382  1.00 20.00     0.273 C 
HETATM    4  C4  UNL     1     -34.496   7.056   6.021  1.00 20.00     0.292 C 
HETATM    5  C5  UNL     1     -35.838   5.319   5.245  1.00 20.00     0.278 C 
HETATM    6  C6  UNL     1     -34.328   6.947   4.500  1.00 20.00     0.127 C 
HETATM    7  C7  UNL     1     -34.690   5.475   4.260  1.00 20.00     0.035 C 
HETATM    8  N8  UNL     1     -31.938   7.630   3.656  1.00 20.00    -0.197 NA
HETATM    9  N9  UNL     1     -35.030   5.721   6.429  1.00 20.00     0.090 N 
ENDROOT
TORSDOF 0
