REMARK  2 active torsions:
REMARK  status: ('A' for Active; 'I' for Inactive)
REMARK    1  A    between atoms: C1_1  and  C7_7 
REMARK    2  A    between atoms: C8_8  and  C12_12 
ROOT
HETATM    1  C2  UNL     1     -33.210   5.033   2.265  1.00 20.00     0.001 C 
HETATM    2  C3  UNL     1     -33.322   6.380   1.559  1.00 20.00     0.011 C 
HETATM    3  C4  UNL     1     -32.308   7.929   3.355  1.00 20.00     0.012 C 
HETATM    4  C5  UNL     1     -33.863   4.959   3.643  1.00 20.00     0.005 C 
HETATM    5  C6  UNL     1     -32.411   6.908   4.490  1.00 20.00     0.006 C 
HETATM    6  C7  UNL     1     -32.196   7.341   1.949  1.00 20.00     0.047 C 
HETATM    7  C8  UNL     1     -33.776   6.206   4.536  1.00 20.00    -0.007 C 
ENDROOT
BRANCH   7   8
HETATM    8  C12 UNL     1     -34.120   5.811   5.978  1.00 20.00    -0.048 C 
HETATM    9  C9  UNL     1     -35.509   5.156   6.013  1.00 20.00     0.015 C 
HETATM   10  C10 UNL     1     -34.123   7.063   6.867  1.00 20.00     0.015 C 
HETATM   11  C11 UNL     1     -33.074   4.816   6.502  1.00 20.00     0.015 C 
ENDBRANCH   7   8
BRANCH   6  12
HETATM   12  C1  UNL     1     -32.175   8.479   0.971  1.00 20.00     0.235 C 
HETATM   13  O13 UNL     1     -32.989   8.607   0.063  1.00 20.00    -0.306 OA
ENDBRANCH   6  12
TORSDOF 2
