REMARK  2 active torsions:
REMARK  status: ('A' for Active; 'I' for Inactive)
REMARK    1  A    between atoms: C1_1  and  C5_5 
REMARK    2  A    between atoms: C6_6  and  C8_8 
ROOT
HETATM    1  C2  UNL     1     -33.124   7.256   5.740  1.00 20.00     0.012 C 
HETATM    2  C3  UNL     1     -32.248   7.809   4.619  1.00 20.00     0.005 C 
HETATM    3  C4  UNL     1     -34.244   7.039   3.573  1.00 20.00     0.016 C 
HETATM    4  C5  UNL     1     -34.434   6.834   5.074  1.00 20.00     0.047 C 
HETATM    5  C6  UNL     1     -32.728   7.065   3.378  1.00 20.00    -0.014 C 
ENDROOT
BRANCH   4   6
HETATM    6  C1  UNL     1     -34.675   5.359   5.338  1.00 20.00     0.235 C 
HETATM    7  O9  UNL     1     -34.232   4.463   4.627  1.00 20.00    -0.306 OA
ENDBRANCH   4   6
BRANCH   5   8
HETATM    8  C8  UNL     1     -32.303   7.729   2.080  1.00 20.00     0.000 C 
HETATM    9  C7  UNL     1     -32.798   9.139   1.985  1.00 20.00     0.005 C 
ENDBRANCH   5   8
TORSDOF 2
