REMARK  2 active torsions:
REMARK  status: ('A' for Active; 'I' for Inactive)
REMARK    1  A    between atoms: C1_1  and  C7_7 
REMARK    2  A    between atoms: C8_8  and  C10_10 
ROOT
HETATM    1  C2  UNL     1     -33.447   5.067   2.887  1.00 20.00     0.001 C 
HETATM    2  C3  UNL     1     -34.290   5.297   4.141  1.00 20.00     0.011 C 
HETATM    3  C4  UNL     1     -33.242   7.598   4.672  1.00 20.00     0.012 C 
HETATM    4  C5  UNL     1     -33.404   6.288   1.974  1.00 20.00     0.004 C 
HETATM    5  C6  UNL     1     -32.006   7.535   3.776  1.00 20.00     0.005 C 
HETATM    6  C7  UNL     1     -33.668   6.219   5.192  1.00 20.00     0.047 C 
HETATM    7  C8  UNL     1     -32.282   7.290   2.285  1.00 20.00    -0.015 C 
ENDROOT
BRANCH   6   8
HETATM    8  C1  UNL     1     -34.653   6.399   6.315  1.00 20.00     0.235 C 
HETATM    9  O11 UNL     1     -35.117   5.467   6.963  1.00 20.00    -0.306 OA
ENDBRANCH   6   8
BRANCH   7  10
HETATM   10  C10 UNL     1     -32.561   8.610   1.557  1.00 20.00     0.000 C 
HETATM   11  C9  UNL     1     -32.746   8.397   0.093  1.00 20.00     0.005 C 
ENDBRANCH   7  10
TORSDOF 2
