REMARK  2 active torsions:
REMARK  status: ('A' for Active; 'I' for Inactive)
REMARK    1  A    between atoms: C1_1  and  C7_7 
REMARK    2  A    between atoms: C8_8  and  C10_10 
ROOT
HETATM    1  C2  UNL     1     -32.393   4.871   2.394  1.00 20.00     0.001 C 
HETATM    2  C3  UNL     1     -32.609   6.157   1.600  1.00 20.00     0.011 C 
HETATM    3  C4  UNL     1     -31.878   7.356   3.800  1.00 20.00     0.012 C 
HETATM    4  C5  UNL     1     -33.331   4.674   3.592  1.00 20.00     0.004 C 
HETATM    5  C6  UNL     1     -33.097   7.011   4.656  1.00 20.00     0.005 C 
HETATM    6  C7  UNL     1     -32.084   7.428   2.284  1.00 20.00     0.047 C 
HETATM    7  C8  UNL     1     -34.043   5.926   4.125  1.00 20.00    -0.015 C 
ENDROOT
BRANCH   6   8
HETATM    8  C1  UNL     1     -32.964   8.592   1.933  1.00 20.00     0.235 C 
HETATM    9  O11 UNL     1     -32.586   9.547   1.263  1.00 20.00    -0.306 OA
ENDBRANCH   6   8
BRANCH   7  10
HETATM   10  C10 UNL     1     -35.033   5.529   5.228  1.00 20.00     0.000 C 
HETATM   11  C9  UNL     1     -34.332   4.929   6.400  1.00 20.00     0.005 C 
ENDBRANCH   7  10
TORSDOF 2
