REMARK  1 active torsions:
REMARK  status: ('A' for Active; 'I' for Inactive)
REMARK    1  A    between atoms: C1_1  and  C7_7 
ROOT
HETATM    1  C2  UNL     1     -33.193   4.637   3.626  1.00 20.00     0.001 C 
HETATM    2  C3  UNL     1     -33.283   5.521   2.390  1.00 20.00     0.011 C 
HETATM    3  C4  UNL     1     -32.613   7.765   3.461  1.00 20.00     0.012 C 
HETATM    4  C5  UNL     1     -34.082   5.051   4.796  1.00 20.00     0.008 C 
HETATM    5  C6  UNL     1     -32.732   7.279   4.908  1.00 20.00     0.009 C 
HETATM    6  C7  UNL     1     -32.295   6.686   2.430  1.00 20.00     0.047 C 
HETATM    7  C8  UNL     1     -34.028   6.521   5.294  1.00 20.00    -0.048 C 
HETATM    8  C9  UNL     1     -34.098   6.488   6.843  1.00 20.00     0.015 C 
HETATM    9  C10 UNL     1     -35.284   7.279   4.815  1.00 20.00     0.015 C 
ENDROOT
BRANCH   6  10
HETATM   10  C1  UNL     1     -32.260   7.322   1.071  1.00 20.00     0.235 C 
HETATM   11  O11 UNL     1     -32.503   8.508   0.874  1.00 20.00    -0.306 OA
ENDBRANCH   6  10
TORSDOF 1
