REMARK  2 active torsions:
REMARK  status: ('A' for Active; 'I' for Inactive)
REMARK    1  A    between atoms: C1_1  and  C5_5 
REMARK    2  A    between atoms: C6_6  and  C8_8 
ROOT
HETATM    1  C2  UNL     1     -33.709   4.837   3.623  1.00 20.00     0.012 C 
HETATM    2  C3  UNL     1     -33.033   5.261   2.322  1.00 20.00     0.005 C 
HETATM    3  C4  UNL     1     -32.900   7.046   3.993  1.00 20.00     0.016 C 
HETATM    4  C5  UNL     1     -34.111   6.155   4.275  1.00 20.00     0.047 C 
HETATM    5  C6  UNL     1     -32.452   6.650   2.589  1.00 20.00    -0.014 C 
ENDROOT
BRANCH   4   6
HETATM    6  C1  UNL     1     -34.423   6.020   5.755  1.00 20.00     0.235 C 
HETATM    7  O9  UNL     1     -33.787   6.590   6.635  1.00 20.00    -0.306 OA
ENDBRANCH   4   6
BRANCH   5   8
HETATM    8  C8  UNL     1     -33.036   7.637   1.595  1.00 20.00     0.000 C 
HETATM    9  C7  UNL     1     -32.547   9.030   1.836  1.00 20.00     0.005 C 
ENDBRANCH   5   8
TORSDOF 2
