REMARK  2 active torsions:
REMARK  status: ('A' for Active; 'I' for Inactive)
REMARK    1  A    between atoms: C5_5  and  C6_6 
REMARK    2  A    between atoms: C6_6  and  S8_8 
ROOT
HETATM    1  C1  UNL     1     -34.851   5.768   5.700  1.00 20.00     0.027 C 
HETATM    2  C2  UNL     1     -33.982   5.393   4.503  1.00 20.00     0.009 C 
HETATM    3  C3  UNL     1     -34.089   6.677   6.655  1.00 20.00     0.167 C 
HETATM    4  C4  UNL     1     -32.696   7.507   4.927  1.00 20.00     0.172 C 
HETATM    5  C5  UNL     1     -33.379   6.648   3.860  1.00 20.00     0.019 C 
HETATM    6  O7  UNL     1     -33.610   7.836   5.974  1.00 20.00    -0.391 OA
ENDROOT
BRANCH   5   7
HETATM    7  C6  UNL     1     -32.409   6.282   2.742  1.00 20.00     0.077 C 
BRANCH   7   8
HETATM    8  S8  UNL     1     -32.157   7.696   1.640  1.00 20.00    -0.182 SA
HETATM    9  H20 UNL     1     -31.301   7.084   0.810  1.00 20.00     0.101 HD
ENDBRANCH   7   8
ENDBRANCH   5   7
TORSDOF 2
