REMARK  3 active torsions:
REMARK  status: ('A' for Active; 'I' for Inactive)
REMARK    1  A    between atoms: C6_6  and  C9_9 
REMARK    2  A    between atoms: C7_7  and  C10_10 
REMARK    3  A    between atoms: C9_9  and  C11_11 
ROOT
HETATM    1  C1  UNL     1     -33.111   7.873   5.320  1.00 20.00     0.001 C 
HETATM    2  C2  UNL     1     -31.956   7.909   4.321  1.00 20.00     0.005 C 
HETATM    3  C3  UNL     1     -34.389   7.137   4.931  1.00 20.00     0.005 C 
HETATM    4  C4  UNL     1     -32.573   6.323   2.428  1.00 20.00     0.005 C 
HETATM    5  C5  UNL     1     -33.924   5.749   2.847  1.00 20.00     0.006 C 
HETATM    6  C6  UNL     1     -32.326   7.785   2.837  1.00 20.00    -0.014 C 
HETATM    7  C7  UNL     1     -34.246   5.728   4.346  1.00 20.00    -0.001 C 
ENDROOT
BRANCH   6   8
HETATM    8  C9  UNL     1     -31.175   8.346   1.989  1.00 20.00     0.004 C 
BRANCH   8   9
HETATM    9  C11 UNL     1     -31.644   8.670   0.577  1.00 20.00    -0.004 C 
HETATM   10  C8  UNL     1     -32.773   9.688   0.598  1.00 20.00     0.005 C 
ENDBRANCH   8   9
ENDBRANCH   6   8
BRANCH   7  11
HETATM   11  C10 UNL     1     -33.313   4.821   5.146  1.00 20.00     0.119 C 
HETATM   12 CL12 UNL     1     -33.914   4.647   6.802  1.00 20.00    -0.130 Cl
ENDBRANCH   7  11
TORSDOF 3
