REMARK  1 active torsions:
REMARK  status: ('A' for Active; 'I' for Inactive)
REMARK    1  A    between atoms: C6_6  and  C10_10 
ROOT
HETATM    1  C1  UNL     1     -33.335   5.036   3.077  1.00 20.00     0.001 C 
HETATM    2  C2  UNL     1     -33.178   6.328   2.279  1.00 20.00     0.005 C 
HETATM    3  C3  UNL     1     -32.125   7.437   4.381  1.00 20.00     0.006 C 
HETATM    4  C4  UNL     1     -34.402   5.151   4.168  1.00 20.00     0.008 C 
HETATM    5  C5  UNL     1     -33.484   7.390   5.084  1.00 20.00     0.009 C 
HETATM    6  C6  UNL     1     -32.158   7.321   2.850  1.00 20.00    -0.001 C 
HETATM    7  C7  UNL     1     -34.038   5.980   5.421  1.00 20.00    -0.048 C 
HETATM    8  C8  UNL     1     -35.335   6.177   6.242  1.00 20.00     0.015 C 
HETATM    9  C9  UNL     1     -33.056   5.188   6.310  1.00 20.00     0.015 C 
ENDROOT
BRANCH   6  10
HETATM   10  C10 UNL     1     -32.367   8.695   2.201  1.00 20.00     0.119 C 
HETATM   11 CL11 UNL     1     -32.137   8.575   0.451  1.00 20.00    -0.130 Cl
ENDBRANCH   6  10
TORSDOF 1
