REMARK  2 active torsions:
REMARK  status: ('A' for Active; 'I' for Inactive)
REMARK    1  A    between atoms: C5_5  and  C7_7 
REMARK    2  A    between atoms: C6_6  and  C8_8 
ROOT
HETATM    1  C1  UNL     1     -32.956   4.785   2.334  1.00 20.00     0.001 C 
HETATM    2  C2  UNL     1     -32.405   6.016   1.618  1.00 20.00     0.005 C 
HETATM    3  C3  UNL     1     -34.046   5.157   3.335  1.00 20.00     0.013 C 
HETATM    4  C4  UNL     1     -33.007   7.444   3.615  1.00 20.00     0.019 C 
HETATM    5  C5  UNL     1     -31.906   7.072   2.612  1.00 20.00    -0.000 C 
HETATM    6  C6  UNL     1     -33.557   6.207   4.340  1.00 20.00     0.094 C 
ENDROOT
BRANCH   6   7
HETATM    7  C8  UNL     1     -34.679   6.599   5.300  1.00 20.00     0.391 C 
HETATM    8  F9  UNL     1     -34.229   7.491   6.195  1.00 20.00    -0.171 F 
HETATM    9  F10 UNL     1     -35.697   7.144   4.617  1.00 20.00    -0.171 F 
HETATM   10  F11 UNL     1     -35.125   5.515   5.953  1.00 20.00    -0.171 F 
ENDBRANCH   6   7
BRANCH   5  11
HETATM   11  C7  UNL     1     -31.407   8.313   1.875  1.00 20.00     0.119 C 
HETATM   12 CL12 UNL     1     -32.715   9.013   0.906  1.00 20.00    -0.130 Cl
ENDBRANCH   5  11
TORSDOF 2
