REMARK  2 active torsions:
REMARK  status: ('A' for Active; 'I' for Inactive)
REMARK    1  A    between atoms: C5_5  and  C8_8 
REMARK    2  A    between atoms: C6_6  and  C9_9 
ROOT
HETATM    1  C1  UNL     1     -33.978   5.731   2.891  1.00 20.00     0.001 C 
HETATM    2  C2  UNL     1     -33.933   5.890   4.408  1.00 20.00     0.005 C 
HETATM    3  C3  UNL     1     -32.645   6.099   2.245  1.00 20.00     0.005 C 
HETATM    4  C4  UNL     1     -32.144   7.661   4.169  1.00 20.00     0.010 C 
HETATM    5  C5  UNL     1     -33.487   7.298   4.822  1.00 20.00    -0.014 C 
HETATM    6  C6  UNL     1     -32.150   7.497   2.642  1.00 20.00    -0.000 C 
ENDROOT
BRANCH   5   7
HETATM    7  C8  UNL     1     -33.389   7.403   6.344  1.00 20.00     0.000 C 
HETATM    8  C7  UNL     1     -34.691   7.086   7.003  1.00 20.00     0.005 C 
ENDBRANCH   5   7
BRANCH   6   9
HETATM    9  C9  UNL     1     -32.960   8.600   1.955  1.00 20.00     0.119 C 
HETATM   10 CL10 UNL     1     -32.813   8.454   0.196  1.00 20.00    -0.130 Cl
ENDBRANCH   6   9
TORSDOF 2
