REMARK  2 active torsions:
REMARK  status: ('A' for Active; 'I' for Inactive)
REMARK    1  A    between atoms: C1_1  and  C7_7 
REMARK    2  A    between atoms: C8_8  and  C12_12 
ROOT
HETATM    1  C2  UNL     1     -32.150   5.110   2.418  1.00 20.00     0.001 C 
HETATM    2  C3  UNL     1     -32.484   6.164   1.367  1.00 20.00     0.011 C 
HETATM    3  C4  UNL     1     -32.007   8.033   3.120  1.00 20.00     0.012 C 
HETATM    4  C5  UNL     1     -33.176   5.055   3.548  1.00 20.00     0.005 C 
HETATM    5  C6  UNL     1     -33.255   7.609   3.896  1.00 20.00     0.006 C 
HETATM    6  C7  UNL     1     -31.938   7.560   1.666  1.00 20.00     0.047 C 
HETATM    7  C8  UNL     1     -33.123   6.221   4.544  1.00 20.00    -0.007 C 
ENDROOT
BRANCH   7   8
HETATM    8  C12 UNL     1     -34.229   6.036   5.591  1.00 20.00    -0.048 C 
HETATM    9  C9  UNL     1     -34.136   7.154   6.640  1.00 20.00     0.015 C 
HETATM   10  C10 UNL     1     -34.060   4.674   6.280  1.00 20.00     0.015 C 
HETATM   11  C11 UNL     1     -35.601   6.093   4.904  1.00 20.00     0.015 C 
ENDBRANCH   7   8
BRANCH   6  12
HETATM   12  C1  UNL     1     -32.650   8.555   0.794  1.00 20.00     0.235 C 
HETATM   13  O13 UNL     1     -32.087   9.229  -0.062  1.00 20.00    -0.306 OA
ENDBRANCH   6  12
TORSDOF 2
