REMARK  2 active torsions:
REMARK  status: ('A' for Active; 'I' for Inactive)
REMARK    1  A    between atoms: C4_4  and  C8_8 
REMARK    2  A    between atoms: C5_5  and  C9_9 
ROOT
HETATM    1  C1  UNL     1     -32.272   7.745   5.029  1.00 20.00     0.032 C 
HETATM    2  C2  UNL     1     -33.304   6.087   3.464  1.00 20.00     0.043 C 
HETATM    3  C3  UNL     1     -33.347   7.373   6.041  1.00 20.00     0.169 C 
HETATM    4  C4  UNL     1     -32.770   7.519   3.600  1.00 20.00     0.004 C 
HETATM    5  C5  UNL     1     -34.327   5.733   4.562  1.00 20.00     0.057 C 
HETATM    6  C6  UNL     1     -35.674   6.440   4.352  1.00 20.00     0.046 C 
HETATM    7  O10 UNL     1     -33.792   6.031   5.860  1.00 20.00    -0.381 OA
ENDROOT
BRANCH   5   8
HETATM    8  C9  UNL     1     -34.573   4.217   4.548  1.00 20.00     0.033 C 
HETATM    9  C7  UNL     1     -33.315   3.459   4.804  1.00 20.00     0.008 C 
ENDBRANCH   5   8
BRANCH   4  10
HETATM   10  C8  UNL     1     -31.660   7.787   2.586  1.00 20.00     0.119 C 
HETATM   11 CL11 UNL     1     -32.356   8.076   0.982  1.00 20.00    -0.130 Cl
ENDBRANCH   4  10
TORSDOF 2
