REMARK  2 active torsions:
REMARK  status: ('A' for Active; 'I' for Inactive)
REMARK    1  A    between atoms: C4_4  and  C8_8 
REMARK    2  A    between atoms: C5_5  and  C9_9 
ROOT
HETATM    1  C1  UNL     1     -32.393   4.938   2.736  1.00 20.00     0.032 C 
HETATM    2  C2  UNL     1     -33.200   6.762   4.246  1.00 20.00     0.043 C 
HETATM    3  C3  UNL     1     -33.212   3.963   3.569  1.00 20.00     0.169 C 
HETATM    4  C4  UNL     1     -33.003   6.340   2.785  1.00 20.00     0.004 C 
HETATM    5  C5  UNL     1     -33.962   5.704   5.068  1.00 20.00     0.057 C 
HETATM    6  C6  UNL     1     -35.453   5.647   4.702  1.00 20.00     0.046 C 
HETATM    7  O10 UNL     1     -33.350   4.414   4.914  1.00 20.00    -0.381 OA
ENDROOT
BRANCH   5   8
HETATM    8  C9  UNL     1     -33.847   6.048   6.560  1.00 20.00     0.033 C 
HETATM    9  C7  UNL     1     -34.426   7.389   6.855  1.00 20.00     0.008 C 
ENDBRANCH   5   8
BRANCH   4  10
HETATM   10  C8  UNL     1     -32.127   7.344   2.039  1.00 20.00     0.119 C 
HETATM   11 CL11 UNL     1     -32.859   8.957   2.100  1.00 20.00    -0.130 Cl
ENDBRANCH   4  10
TORSDOF 2
