REMARK  2 active torsions:
REMARK  status: ('A' for Active; 'I' for Inactive)
REMARK    1  A    between atoms: C5_5  and  C6_6 
REMARK    2  A    between atoms: C6_6  and  C7_7 
ROOT
HETATM    1  C1  UNL     1     -32.189   8.108   0.563  1.00 20.00     0.012 C 
HETATM    2  C2  UNL     1     -32.097   7.691   1.685  1.00 20.00    -0.117 C 
HETATM    3  C5  UNL     1     -31.976   7.181   3.061  1.00 20.00     0.098 C 
ENDROOT
BRANCH   3   4
HETATM    4  C6  UNL     1     -33.070   6.142   3.392  1.00 20.00     0.006 C 
HETATM    5  C3  UNL     1     -32.740   4.789   2.739  1.00 20.00     0.012 C 
BRANCH   4   6
HETATM    6  C7  UNL     1     -33.294   5.947   4.908  1.00 20.00     0.058 C 
HETATM    7  C4  UNL     1     -34.148   4.751   5.304  1.00 20.00     0.022 C 
HETATM    8 BR8  UNL     1     -34.107   7.568   5.673  1.00 20.00    -0.091 Br
ENDBRANCH   4   6
ENDBRANCH   3   4
TORSDOF 2
