REMARK  4 active torsions:
REMARK  status: ('A' for Active; 'I' for Inactive)
REMARK    1  A    between atoms: C2_2  and  C8_8 
REMARK    2  A    between atoms: C5_5  and  C9_9 
REMARK    3  A    between atoms: C8_8  and  N10_10 
REMARK    4  A    between atoms: C9_9  and  N10_10 
ROOT
HETATM    1  C1  UNL     1     -32.979  10.038   0.314  1.00 20.00    -0.109 C 
HETATM    2  C2  UNL     1     -32.572   9.019   0.802  1.00 20.00    -0.077 C 
HETATM    3  C7  UNL     1     -33.474  11.278  -0.281  1.00 20.00     0.112 C 
ENDROOT
BRANCH   2   4
HETATM    4  C8  UNL     1     -32.068   7.777   1.398  1.00 20.00     0.362 C 
BRANCH   4   5
HETATM    5  N10 UNL     1     -33.174   6.936   1.868  1.00 20.00     0.094 N 
HETATM    6  H25 UNL     1     -33.564   6.442   1.053  1.00 20.00     0.317 HD
BRANCH   5   7
HETATM    7  C9  UNL     1     -32.751   6.007   2.867  1.00 20.00     0.275 C 
BRANCH   7   8
HETATM    8  C5  UNL     1     -33.941   5.524   3.671  1.00 20.00     0.018 C 
HETATM    9  C3  UNL     1     -33.636   4.900   5.061  1.00 20.00     0.041 C 
HETATM   10  C6  UNL     1     -34.945   5.561   5.556  1.00 20.00     0.161 C 
HETATM   11  C4  UNL     1     -34.753   6.608   4.433  1.00 20.00     0.041 C 
HETATM   12  O11 UNL     1     -34.843   6.102   6.845  1.00 20.00    -0.235 OA
ENDBRANCH   7   8
ENDBRANCH   5   7
ENDBRANCH   4   5
ENDBRANCH   2   4
TORSDOF 4
