REMARK  4 active torsions:
REMARK  status: ('A' for Active; 'I' for Inactive)
REMARK    1  A    between atoms: C5_5  and  C7_7 
REMARK    2  A    between atoms: C5_5  and  C8_8 
REMARK    3  A    between atoms: C6_6  and  C8_8 
REMARK    4  A    between atoms: C6_6  and  C9_9 
ROOT
HETATM    1  C3  UNL     1     -31.436   8.019   4.004  1.00 20.00     0.010 C 
HETATM    2  C8  UNL     1     -32.649   7.406   3.300  1.00 20.00    -0.017 C 
ENDROOT
BRANCH   2   3
HETATM    3  C5  UNL     1     -33.214   6.196   4.084  1.00 20.00     0.008 C 
BRANCH   3   4
HETATM    4  C7  UNL     1     -34.164   6.522   5.255  1.00 20.00    -0.023 C 
HETATM    5  C1  UNL     1     -33.498   7.382   6.329  1.00 20.00     0.009 C 
HETATM    6  C2  UNL     1     -34.673   5.219   5.881  1.00 20.00     0.009 C 
ENDBRANCH   3   4
ENDBRANCH   2   3
BRANCH   2   7
HETATM    7  C6  UNL     1     -32.302   6.939   1.864  1.00 20.00     0.024 C 
BRANCH   7   8
HETATM    8  C9  UNL     1     -31.745   8.013   0.915  1.00 20.00     0.078 C 
HETATM    9  C4  UNL     1     -31.390   7.410  -0.440  1.00 20.00     0.026 C 
HETATM   10 CL10 UNL     1     -32.929   9.330   0.666  1.00 20.00    -0.125 Cl
ENDBRANCH   7   8
ENDBRANCH   2   7
TORSDOF 4
