REMARK  3 active torsions:
REMARK  status: ('A' for Active; 'I' for Inactive)
REMARK    1  A    between atoms: C6_6  and  C8_8 
REMARK    2  A    between atoms: C6_6  and  C9_9 
REMARK    3  A    between atoms: C7_7  and  C9_9 
ROOT
HETATM    1  C4  UNL     1     -35.816   5.785   4.273  1.00 20.00     0.015 C 
HETATM    2  C5  UNL     1     -33.548   4.890   3.814  1.00 20.00     0.015 C 
HETATM    3  C9  UNL     1     -34.307   6.031   4.528  1.00 20.00    -0.043 C 
ENDROOT
BRANCH   3   4
HETATM    4  C6  UNL     1     -33.967   7.410   3.862  1.00 20.00     0.029 C 
BRANCH   4   5
HETATM    5  C8  UNL     1     -32.505   7.710   3.477  1.00 20.00     0.079 C 
HETATM    6  C3  UNL     1     -31.722   8.202   4.693  1.00 20.00     0.026 C 
HETATM    7 CL10 UNL     1     -32.389   8.962   2.207  1.00 20.00    -0.125 Cl
ENDBRANCH   4   5
ENDBRANCH   3   4
BRANCH   3   8
HETATM    8  C7  UNL     1     -33.976   6.010   6.067  1.00 20.00    -0.015 C 
HETATM    9  C1  UNL     1     -34.694   7.103   6.874  1.00 20.00     0.010 C 
HETATM   10  C2  UNL     1     -34.245   4.657   6.748  1.00 20.00     0.010 C 
ENDBRANCH   3   8
TORSDOF 3
