REMARK  0 active torsions:
REMARK  status: ('A' for Active; 'I' for Inactive)
ROOT
HETATM    1  C1  UNL     1     -33.349   5.728   3.479  1.00 20.00    -0.085 C 
HETATM    2  C2  UNL     1     -32.654   5.093   2.528  1.00 20.00     0.014 C 
HETATM    3  C3  UNL     1     -33.025   7.105   3.997  1.00 20.00     0.034 C 
HETATM    4  C4  UNL     1     -33.418   7.254   5.479  1.00 20.00     0.009 C 
HETATM    5  C5  UNL     1     -34.184   4.804   5.675  1.00 20.00     0.013 C 
HETATM    6  C6  UNL     1     -35.577   6.040   4.685  1.00 20.00     0.013 C 
HETATM    7  C7  UNL     1     -34.492   5.039   4.161  1.00 20.00     0.014 C 
HETATM    8  C8  UNL     1     -34.572   6.306   5.848  1.00 20.00    -0.013 C 
ENDROOT
TORSDOF 0
