REMARK  2 active torsions:
REMARK  status: ('A' for Active; 'I' for Inactive)
REMARK    1  A    between atoms: C8_8  and  C9_9 
REMARK    2  A    between atoms: C9_9  and  O11_11 
ROOT
HETATM    1  C1  UNL     1     -35.132   6.496   6.173  1.00 20.00     0.003 C 
HETATM    2  C2  UNL     1     -34.144   5.440   6.668  1.00 20.00     0.003 C 
HETATM    3  C3  UNL     1     -34.577   7.009   4.846  1.00 20.00     0.038 C 
HETATM    4  C4  UNL     1     -33.024   5.382   5.630  1.00 20.00     0.038 C 
HETATM    5  C9  UNL     1     -33.076   6.744   4.942  1.00 20.00     0.063 C 
ENDROOT
BRANCH   5   6
HETATM    6  C8  UNL     1     -32.371   6.760   3.595  1.00 20.00     0.046 C 
HETATM    7  C5  UNL     1     -32.525   8.057   2.830  1.00 20.00     0.036 C 
HETATM    8  C6  UNL     1     -32.183   7.623   1.420  1.00 20.00     0.168 C 
HETATM    9  O10 UNL     1     -32.601   6.255   1.293  1.00 20.00    -0.391 OA
HETATM   10  C7  UNL     1     -32.928   5.757   2.599  1.00 20.00     0.175 C 
ENDBRANCH   5   6
BRANCH   5  11
HETATM   11  O11 UNL     1     -32.469   7.713   5.794  1.00 20.00    -0.389 OA
HETATM   12  H27 UNL     1     -31.524   7.501   5.821  1.00 20.00     0.210 HD
ENDBRANCH   5  11
TORSDOF 2
