REMARK  3 active torsions:
REMARK  status: ('A' for Active; 'I' for Inactive)
REMARK    1  A    between atoms: C5_5  and  S11_11 
REMARK    2  A    between atoms: C7_7  and  C8_8 
REMARK    3  A    between atoms: C8_8  and  S11_11 
ROOT
HETATM    1  C1  UNL     1     -32.595   5.675   2.652  1.00 20.00     0.080 C 
HETATM    2  C2  UNL     1     -33.665   7.926   2.116  1.00 20.00     0.071 C 
HETATM    3  C3  UNL     1     -31.551   7.996   2.478  1.00 20.00     0.071 C 
HETATM    4  C4  UNL     1     -32.442   8.329   1.255  1.00 20.00     0.165 C 
HETATM    5  C5  UNL     1     -32.696   7.078   2.984  1.00 20.00     0.101 C 
HETATM    6  N9  UNL     1     -32.513   4.549   2.386  1.00 20.00    -0.196 NA
HETATM    7  O10 UNL     1     -32.427   9.687   0.909  1.00 20.00    -0.235 OA
ENDROOT
BRANCH   5   8
HETATM    8  S11 UNL     1     -33.012   7.288   4.773  1.00 20.00    -0.144 SA
BRANCH   8   9
HETATM    9  C8  UNL     1     -34.786   6.954   4.755  1.00 20.00     0.075 C 
BRANCH   9  10
HETATM   10  C7  UNL     1     -35.046   5.451   4.747  1.00 20.00     0.006 C 
HETATM   11  C6  UNL     1     -34.449   4.786   5.978  1.00 20.00     0.006 C 
ENDBRANCH   9  10
ENDBRANCH   8   9
ENDBRANCH   5   8
TORSDOF 3
