REMARK  1 active torsions:
REMARK  status: ('A' for Active; 'I' for Inactive)
REMARK    1  A    between atoms: C6_6  and  O9_9 
ROOT
HETATM    1  C1  UNL     1     -35.563   5.797   4.068  1.00 20.00     0.098 C 
HETATM    2  C2  UNL     1     -33.991   7.344   6.247  1.00 20.00     0.004 C 
HETATM    3  C3  UNL     1     -34.476   6.078   6.956  1.00 20.00     0.004 C 
HETATM    4  C4  UNL     1     -33.482   6.896   4.879  1.00 20.00     0.053 C 
HETATM    5  C5  UNL     1     -34.237   4.928   5.980  1.00 20.00     0.053 C 
HETATM    6  C6  UNL     1     -34.209   5.581   4.600  1.00 20.00     0.148 C 
HETATM    7  N8  UNL     1     -36.631   5.966   3.648  1.00 20.00    -0.194 NA
ENDROOT
BRANCH   6   8
HETATM    8  O9  UNL     1     -33.465   4.775   3.699  1.00 20.00    -0.370 OA
HETATM    9  C7  UNL     1     -33.350   5.387   2.420  1.00 20.00     0.204 C 
ENDBRANCH   6   8
TORSDOF 1
