REMARK  2 active torsions:
REMARK  status: ('A' for Active; 'I' for Inactive)
REMARK    1  A    between atoms: C5_5  and  O9_9 
REMARK    2  A    between atoms: C7_7  and  O9_9 
ROOT
HETATM    1  C1  UNL     1     -33.123   5.576   3.332  1.00 20.00     0.098 C 
HETATM    2  C2  UNL     1     -34.727   7.211   4.300  1.00 20.00     0.065 C 
HETATM    3  C3  UNL     1     -34.585   6.765   5.747  1.00 20.00     0.078 C 
HETATM    4  C4  UNL     1     -32.323   7.594   4.544  1.00 20.00     0.127 C 
HETATM    5  C5  UNL     1     -33.377   7.001   3.608  1.00 20.00     0.157 C 
HETATM    6  N8  UNL     1     -32.923   4.454   3.114  1.00 20.00    -0.194 NA
HETATM    7  S10 UNL     1     -32.921   7.294   6.237  1.00 20.00    -0.165 SA
ENDROOT
BRANCH   5   8
HETATM    8  O9  UNL     1     -33.367   7.700   2.368  1.00 20.00    -0.365 OA
BRANCH   8   9
HETATM    9  C7  UNL     1     -32.117   7.567   1.709  1.00 20.00     0.165 C 
HETATM   10  C6  UNL     1     -32.165   8.329   0.402  1.00 20.00     0.033 C 
ENDBRANCH   8   9
ENDBRANCH   5   8
TORSDOF 2
