REMARK  4 active torsions:
REMARK  status: ('A' for Active; 'I' for Inactive)
REMARK    1  A    between atoms: C3_3  and  C6_6 
REMARK    2  A    between atoms: C3_3  and  C7_7 
REMARK    3  A    between atoms: C6_6  and  C8_8 
REMARK    4  A    between atoms: C8_8  and  C9_9 
ROOT
HETATM    1  C1  UNL     1     -32.376   4.852   3.460  1.00 20.00     0.011 A 
HETATM    2  C2  UNL     1     -32.893   4.663   2.062  1.00 20.00     0.011 A 
HETATM    3  C3  UNL     1     -33.068   5.994   2.754  1.00 20.00    -0.028 A 
ENDROOT
BRANCH   3   4
HETATM    4  C6  UNL     1     -34.465   6.379   3.218  1.00 20.00     0.011 C 
BRANCH   4   5
HETATM    5  C8  UNL     1     -34.416   7.214   4.500  1.00 20.00     0.005 C 
BRANCH   5   6
HETATM    6  C9  UNL     1     -33.815   6.460   5.701  1.00 20.00    -0.023 C 
HETATM    7  C4  UNL     1     -34.652   5.214   6.003  1.00 20.00     0.009 C 
HETATM    8  C5  UNL     1     -33.722   7.334   6.953  1.00 20.00     0.009 C 
ENDBRANCH   5   6
ENDBRANCH   4   5
ENDBRANCH   3   4
BRANCH   3   9
HETATM    9  C7  UNL     1     -32.225   7.148   2.286  1.00 20.00     0.124 C 
HETATM   10 CL10 UNL     1     -33.063   8.069   1.013  1.00 20.00    -0.130 Cl
ENDBRANCH   3   9
TORSDOF 4
