REMARK  4 active torsions:
REMARK  status: ('A' for Active; 'I' for Inactive)
REMARK    1  A    between atoms: C2_2  and  C9_9 
REMARK    2  A    between atoms: C2_2  and  C10_10 
REMARK    3  A    between atoms: C3_3  and  C5_5 
REMARK    4  A    between atoms: C3_3  and  C9_9 
ROOT
HETATM    1  C3  UNL     1     -33.332   6.916   4.557  1.00 20.00     0.135 C 
HETATM    2  O11 UNL     1     -32.787   7.543   5.457  1.00 20.00    -0.297 OA
ENDROOT
BRANCH   1   3
HETATM    3  C5  UNL     1     -34.697   6.350   4.770  1.00 20.00     0.060 A 
HETATM    4  C4  UNL     1     -34.905   4.885   4.552  1.00 20.00     0.017 A 
HETATM    5  C6  UNL     1     -34.965   5.455   5.940  1.00 20.00    -0.007 A 
HETATM    6  C7  UNL     1     -33.921   5.093   6.941  1.00 20.00     0.011 C 
ENDBRANCH   1   3
BRANCH   1   7
HETATM    7  C9  UNL     1     -32.710   6.617   3.206  1.00 20.00     0.111 C 
BRANCH   7   8
HETATM    8  C2  UNL     1     -32.448   7.882   2.431  1.00 20.00    -0.083 C 
HETATM    9  C1  UNL     1     -31.637   8.837   2.916  1.00 20.00     0.014 C 
BRANCH   8  10
HETATM   10  C10 UNL     1     -33.132   8.043   1.093  1.00 20.00     0.029 C 
HETATM   11  C8  UNL     1     -32.790   9.363   0.415  1.00 20.00     0.010 C 
ENDBRANCH   8  10
ENDBRANCH   7   8
ENDBRANCH   1   7
TORSDOF 4
