REMARK  3 active torsions:
REMARK  status: ('A' for Active; 'I' for Inactive)
REMARK    1  A    between atoms: C2_2  and  C9_9 
REMARK    2  A    between atoms: C2_2  and  C10_10 
REMARK    3  A    between atoms: C6_6  and  C9_9 
ROOT
HETATM    1  C3  UNL     1     -33.637   6.707   6.368  1.00 20.00     0.006 C 
HETATM    2  C4  UNL     1     -34.981   5.992   6.390  1.00 20.00     0.020 C 
HETATM    3  C5  UNL     1     -34.737   6.879   4.178  1.00 20.00     0.025 C 
HETATM    4  C6  UNL     1     -33.652   7.517   5.065  1.00 20.00    -0.009 C 
HETATM    5  C7  UNL     1     -35.233   5.644   4.929  1.00 20.00     0.082 C 
HETATM    6 CL11 UNL     1     -34.294   4.200   4.449  1.00 20.00    -0.125 Cl
ENDROOT
BRANCH   4   7
HETATM    7  C9  UNL     1     -32.286   7.556   4.393  1.00 20.00     0.038 C 
BRANCH   7   8
HETATM    8  C2  UNL     1     -32.361   7.903   2.924  1.00 20.00    -0.089 C 
HETATM    9  C1  UNL     1     -31.925   7.041   1.991  1.00 20.00     0.014 C 
BRANCH   8  10
HETATM   10  C10 UNL     1     -32.940   9.243   2.529  1.00 20.00     0.029 C 
HETATM   11  C8  UNL     1     -32.957   9.462   1.023  1.00 20.00     0.010 C 
ENDBRANCH   8  10
ENDBRANCH   7   8
ENDBRANCH   4   7
TORSDOF 3
