REMARK  3 active torsions:
REMARK  status: ('A' for Active; 'I' for Inactive)
REMARK    1  A    between atoms: C1_1  and  C6_6 
REMARK    2  A    between atoms: C5_5  and  C6_6 
REMARK    3  A    between atoms: C6_6  and  O8_8 
ROOT
HETATM    1  C4  UNL     1     -35.332   6.048   4.312  1.00 20.00     0.054 C 
HETATM    2  C6  UNL     1     -34.244   5.686   5.325  1.00 20.00     0.110 C 
ENDROOT
BRANCH   2   3
HETATM    3  C1  UNL     1     -33.434   4.521   4.773  1.00 20.00     0.268 C 
HETATM    4  O7  UNL     1     -33.251   4.314   3.577  1.00 20.00    -0.304 OA
ENDBRANCH   2   3
BRANCH   2   5
HETATM    5  C5  UNL     1     -33.340   6.891   5.694  1.00 20.00     0.018 C 
HETATM    6  C2  UNL     1     -34.093   8.086   6.286  1.00 20.00     0.013 C 
HETATM    7  C3  UNL     1     -32.484   7.363   4.508  1.00 20.00     0.013 C 
ENDBRANCH   2   5
BRANCH   2   8
HETATM    8  O8  UNL     1     -34.887   5.237   6.517  1.00 20.00    -0.383 OA
HETATM    9  H20 UNL     1     -35.454   4.493   6.260  1.00 20.00     0.211 HD
ENDBRANCH   2   8
TORSDOF 3
