REMARK  3 active torsions:
REMARK  status: ('A' for Active; 'I' for Inactive)
REMARK    1  A    between atoms: C6_6  and  C8_8 
REMARK    2  A    between atoms: C7_7  and  C8_8 
REMARK    3  A    between atoms: C7_7  and  C9_9 
ROOT
HETATM    1  C8  UNL     1     -32.575   7.127   4.117  1.00 20.00     0.042 C 
ENDROOT
BRANCH   1   2
HETATM    2  C6  UNL     1     -33.810   7.081   4.997  1.00 20.00     0.122 C 
HETATM    3  C2  UNL     1     -33.698   7.942   6.244  1.00 20.00     0.034 C 
HETATM    4  C1  UNL     1     -34.656   7.245   7.177  1.00 20.00     0.029 C 
HETATM    5  C5  UNL     1     -34.419   5.788   6.838  1.00 20.00     0.168 C 
HETATM    6  O10 UNL     1     -34.032   5.737   5.457  1.00 20.00    -0.386 OA
ENDBRANCH   1   2
BRANCH   1   7
HETATM    7  C7  UNL     1     -32.860   6.658   2.724  1.00 20.00    -0.025 A 
HETATM    8  C3  UNL     1     -32.956   5.170   2.482  1.00 20.00     0.011 A 
HETATM    9  C4  UNL     1     -34.199   6.012   2.453  1.00 20.00     0.011 A 
BRANCH   7  10
HETATM   10  C9  UNL     1     -32.257   7.511   1.642  1.00 20.00     0.124 C 
HETATM   11 CL11 UNL     1     -32.748   9.212   1.829  1.00 20.00    -0.130 Cl
ENDBRANCH   7  10
ENDBRANCH   1   7
TORSDOF 3
