REMARK  3 active torsions:
REMARK  status: ('A' for Active; 'I' for Inactive)
REMARK    1  A    between atoms: C5_5  and  C6_6 
REMARK    2  A    between atoms: C5_5  and  C7_7 
REMARK    3  A    between atoms: C6_6  and  O9_9 
ROOT
HETATM    1  C1  UNL     1     -33.012   5.321   2.582  1.00 20.00     0.091 C 
HETATM    2  C6  UNL     1     -33.218   5.951   3.893  1.00 20.00     0.227 C 
HETATM    3  N8  UNL     1     -32.848   4.823   1.548  1.00 20.00    -0.195 NA
ENDROOT
BRANCH   2   4
HETATM    4  C5  UNL     1     -34.656   5.785   4.403  1.00 20.00     0.050 C 
BRANCH   4   5
HETATM    5  C7  UNL     1     -34.836   5.900   5.930  1.00 20.00    -0.019 C 
HETATM    6  C2  UNL     1     -34.005   4.822   6.631  1.00 20.00     0.009 C 
HETATM    7  C3  UNL     1     -34.443   7.279   6.461  1.00 20.00     0.009 C 
ENDBRANCH   4   5
ENDBRANCH   2   4
BRANCH   2   8
HETATM    8  O9  UNL     1     -32.933   7.348   3.795  1.00 20.00    -0.376 OA
HETATM    9  C4  UNL     1     -31.537   7.593   3.844  1.00 20.00     0.203 C 
ENDBRANCH   2   8
TORSDOF 3
