REMARK  2 active torsions:
REMARK  status: ('A' for Active; 'I' for Inactive)
REMARK    1  A    between atoms: C5_5  and  O9_9 
REMARK    2  A    between atoms: C7_7  and  O9_9 
ROOT
HETATM    1  C1  UNL     1     -35.594   6.312   4.260  1.00 20.00     0.098 C 
HETATM    2  C2  UNL     1     -34.340   5.662   6.913  1.00 20.00     0.008 C 
HETATM    3  C3  UNL     1     -33.933   6.892   6.083  1.00 20.00     0.054 C 
HETATM    4  C4  UNL     1     -34.118   4.800   5.657  1.00 20.00     0.054 C 
HETATM    5  C5  UNL     1     -34.266   6.086   4.795  1.00 20.00     0.148 C 
HETATM    6  N8  UNL     1     -36.657   6.493   3.832  1.00 20.00    -0.194 NA
ENDROOT
BRANCH   5   7
HETATM    7  O9  UNL     1     -33.316   6.221   3.719  1.00 20.00    -0.366 OA
BRANCH   7   8
HETATM    8  C7  UNL     1     -33.047   7.583   3.458  1.00 20.00     0.165 C 
HETATM    9  C6  UNL     1     -32.048   7.680   2.324  1.00 20.00     0.033 C 
ENDBRANCH   7   8
ENDBRANCH   5   7
TORSDOF 2
