REMARK  4 active torsions:
REMARK  status: ('A' for Active; 'I' for Inactive)
REMARK    1  A    between atoms: C4_4  and  C5_5 
REMARK    2  A    between atoms: C5_5  and  C7_7 
REMARK    3  A    between atoms: C6_6  and  O9_9 
REMARK    4  A    between atoms: C7_7  and  O9_9 
ROOT
HETATM    1  C1  UNL     1     -33.141   5.657   3.188  1.00 20.00     0.091 C 
HETATM    2  C7  UNL     1     -33.404   6.896   3.931  1.00 20.00     0.227 C 
HETATM    3  N8  UNL     1     -32.936   4.677   2.600  1.00 20.00    -0.195 NA
ENDROOT
BRANCH   2   4
HETATM    4  C5  UNL     1     -32.237   7.883   3.836  1.00 20.00     0.046 C 
BRANCH   4   5
HETATM    5  C4  UNL     1     -32.201   8.644   2.508  1.00 20.00    -0.001 C 
HETATM    6  C2  UNL     1     -32.095   7.692   1.327  1.00 20.00     0.005 C 
ENDBRANCH   4   5
ENDBRANCH   2   4
BRANCH   2   7
HETATM    7  O9  UNL     1     -33.597   6.587   5.311  1.00 20.00    -0.372 OA
BRANCH   7   8
HETATM    8  C6  UNL     1     -34.910   6.108   5.554  1.00 20.00     0.165 C 
HETATM    9  C3  UNL     1     -35.057   5.797   7.028  1.00 20.00     0.033 C 
ENDBRANCH   7   8
ENDBRANCH   2   7
TORSDOF 4
