REMARK  5 active torsions:
REMARK  status: ('A' for Active; 'I' for Inactive)
REMARK    1  A    between atoms: C4_4  and  C5_5 
REMARK    2  A    between atoms: C5_5  and  C8_8 
REMARK    3  A    between atoms: C6_6  and  C8_8 
REMARK    4  A    between atoms: C6_6  and  C9_9 
REMARK    5  A    between atoms: C7_7  and  C9_9 
ROOT
HETATM    1  C6  UNL     1     -33.632   7.087   4.575  1.00 20.00     0.009 C 
ENDROOT
BRANCH   1   2
HETATM    2  C8  UNL     1     -32.659   6.566   3.496  1.00 20.00    -0.018 C 
HETATM    3  C2  UNL     1     -33.219   5.350   2.754  1.00 20.00     0.010 C 
BRANCH   2   4
HETATM    4  C5  UNL     1     -32.245   7.686   2.514  1.00 20.00     0.004 C 
BRANCH   4   5
HETATM    5  C4  UNL     1     -33.353   8.191   1.585  1.00 20.00    -0.004 C 
HETATM    6  C1  UNL     1     -32.825   9.244   0.622  1.00 20.00     0.005 C 
ENDBRANCH   4   5
ENDBRANCH   2   4
ENDBRANCH   1   2
BRANCH   1   7
HETATM    7  C9  UNL     1     -33.610   6.331   5.923  1.00 20.00    -0.004 C 
HETATM    8  C3  UNL     1     -34.164   7.238   7.029  1.00 20.00     0.011 C 
BRANCH   7   9
HETATM    9  C7  UNL     1     -34.327   4.972   5.906  1.00 20.00     0.119 C 
HETATM   10 CL10 UNL     1     -35.891   5.003   5.056  1.00 20.00    -0.130 Cl
ENDBRANCH   7   9
ENDBRANCH   1   7
TORSDOF 5
