REMARK  5 active torsions:
REMARK  status: ('A' for Active; 'I' for Inactive)
REMARK    1  A    between atoms: C2_2  and  C8_8 
REMARK    2  A    between atoms: C2_2  and  C9_9 
REMARK    3  A    between atoms: C3_3  and  C10_10 
REMARK    4  A    between atoms: C9_9  and  C10_10 
REMARK    5  A    between atoms: C10_10  and  C11_11 
ROOT
HETATM    1  C10 UNL     1     -33.354   6.683   3.980  1.00 20.00     0.062 C 
ENDROOT
BRANCH   1   2
HETATM    2  C3  UNL     1     -34.006   6.578   5.362  1.00 20.00     0.127 C 
HETATM    3  C4  UNL     1     -33.135   6.899   6.550  1.00 20.00     0.091 C 
HETATM    4  O12 UNL     1     -35.186   6.262   5.511  1.00 20.00    -0.298 OA
ENDBRANCH   1   2
BRANCH   1   5
HETATM    5  C9  UNL     1     -32.295   7.807   3.980  1.00 20.00     0.045 C 
BRANCH   5   6
HETATM    6  C2  UNL     1     -31.996   8.376   2.606  1.00 20.00    -0.089 C 
HETATM    7  C1  UNL     1     -30.768   8.269   2.070  1.00 20.00     0.014 C 
BRANCH   6   8
HETATM    8  C8  UNL     1     -33.107   9.073   1.854  1.00 20.00     0.029 C 
HETATM    9  C5  UNL     1     -32.668   9.602   0.495  1.00 20.00     0.010 C 
ENDBRANCH   6   8
ENDBRANCH   5   6
ENDBRANCH   1   5
BRANCH   1  10
HETATM   10  C11 UNL     1     -32.770   5.330   3.493  1.00 20.00    -0.011 C 
HETATM   11  C6  UNL     1     -32.505   5.250   1.987  1.00 20.00     0.010 C 
HETATM   12  C7  UNL     1     -33.642   4.147   3.927  1.00 20.00     0.010 C 
ENDBRANCH   1  10
TORSDOF 5
