REMARK  2 active torsions:
REMARK  status: ('A' for Active; 'I' for Inactive)
REMARK    1  A    between atoms: C5_5  and  C6_6 
REMARK    2  A    between atoms: C6_6  and  O8_8 
ROOT
HETATM    1  C1  UNL     1     -33.471   6.510   4.301  1.00 20.00     0.097 C 
HETATM    2  C3  UNL     1     -35.890   6.077   4.380  1.00 20.00     0.062 C 
HETATM    3  C6  UNL     1     -34.509   5.633   4.873  1.00 20.00     0.144 C 
HETATM    4  N7  UNL     1     -32.654   7.199   3.850  1.00 20.00    -0.194 NA
ENDROOT
BRANCH   3   5
HETATM    5  C5  UNL     1     -34.472   5.655   6.413  1.00 20.00     0.049 C 
HETATM    6  C2  UNL     1     -34.701   7.034   7.026  1.00 20.00     0.009 C 
ENDBRANCH   3   5
BRANCH   3   7
HETATM    7  O8  UNL     1     -34.296   4.290   4.434  1.00 20.00    -0.371 OA
HETATM    8  C4  UNL     1     -33.901   4.251   3.072  1.00 20.00     0.204 C 
ENDBRANCH   3   7
TORSDOF 2
