REMARK  5 active torsions:
REMARK  status: ('A' for Active; 'I' for Inactive)
REMARK    1  A    between atoms: C2_2  and  C5_5 
REMARK    2  A    between atoms: C2_2  and  C6_6 
REMARK    3  A    between atoms: C6_6  and  C7_7 
REMARK    4  A    between atoms: C7_7  and  C9_9 
REMARK    5  A    between atoms: C8_8  and  C9_9 
ROOT
HETATM    1  C6  UNL     1     -33.296   5.742   2.130  1.00 20.00     0.033 C 
ENDROOT
BRANCH   1   2
HETATM    2  C2  UNL     1     -32.533   7.017   2.445  1.00 20.00    -0.090 C 
HETATM    3  C1  UNL     1     -31.589   7.127   3.394  1.00 20.00     0.014 C 
BRANCH   2   4
HETATM    4  C5  UNL     1     -32.921   8.230   1.624  1.00 20.00     0.029 C 
HETATM    5  C3  UNL     1     -32.085   8.379   0.360  1.00 20.00     0.010 C 
ENDBRANCH   2   4
ENDBRANCH   1   2
BRANCH   1   6
HETATM    6  C7  UNL     1     -33.481   4.740   3.282  1.00 20.00     0.009 C 
BRANCH   6   7
HETATM    7  C9  UNL     1     -34.193   5.349   4.510  1.00 20.00    -0.004 C 
HETATM    8  C4  UNL     1     -35.616   5.816   4.186  1.00 20.00     0.011 C 
BRANCH   7   9
HETATM    9  C8  UNL     1     -34.178   4.384   5.708  1.00 20.00     0.119 C 
HETATM   10 CL10 UNL     1     -34.835   5.091   7.205  1.00 20.00    -0.130 Cl
ENDBRANCH   7   9
ENDBRANCH   6   7
ENDBRANCH   1   6
TORSDOF 5
