REMARK  3 active torsions:
REMARK  status: ('A' for Active; 'I' for Inactive)
REMARK    1  A    between atoms: C5_5  and  C8_8 
REMARK    2  A    between atoms: C5_5  and  C9_9 
REMARK    3  A    between atoms: C8_8  and  C10_10 
ROOT
HETATM    1  C1  UNL     1     -33.776   6.704   6.568  1.00 20.00     0.001 C 
HETATM    2  C2  UNL     1     -34.879   5.775   6.061  1.00 20.00     0.001 C 
HETATM    3  C3  UNL     1     -33.293   7.495   5.354  1.00 20.00     0.010 C 
HETATM    4  C4  UNL     1     -35.011   6.049   4.565  1.00 20.00     0.010 C 
HETATM    5  C5  UNL     1     -33.652   6.623   4.142  1.00 20.00    -0.028 C 
ENDROOT
BRANCH   5   6
HETATM    6  C8  UNL     1     -33.765   7.456   2.863  1.00 20.00     0.014 C 
BRANCH   6   7
HETATM    7  C10 UNL     1     -32.738   8.594   2.787  1.00 20.00    -0.022 C 
HETATM    8  C6  UNL     1     -31.296   8.087   2.828  1.00 20.00     0.009 C 
HETATM    9  C7  UNL     1     -32.965   9.405   1.508  1.00 20.00     0.009 C 
ENDBRANCH   6   7
ENDBRANCH   5   6
BRANCH   5  10
HETATM   10  C9  UNL     1     -32.616   5.507   3.930  1.00 20.00     0.124 C 
HETATM   11 CL11 UNL     1     -33.320   4.213   2.953  1.00 20.00    -0.130 Cl
ENDBRANCH   5  10
TORSDOF 3
