REMARK  4 active torsions:
REMARK  status: ('A' for Active; 'I' for Inactive)
REMARK    1  A    between atoms: C3_3  and  C5_5 
REMARK    2  A    between atoms: C3_3  and  C6_6 
REMARK    3  A    between atoms: C5_5  and  C7_7 
REMARK    4  A    between atoms: C7_7  and  O8_8 
ROOT
HETATM    1  C1  UNL     1     -35.467   5.710   4.258  1.00 20.00     0.011 A 
HETATM    2  C2  UNL     1     -34.333   4.755   4.016  1.00 20.00     0.011 A 
HETATM    3  C3  UNL     1     -34.059   6.104   4.639  1.00 20.00    -0.026 A 
ENDROOT
BRANCH   3   4
HETATM    4  C5  UNL     1     -33.365   7.141   3.799  1.00 20.00     0.037 C 
BRANCH   4   5
HETATM    5  C7  UNL     1     -32.835   6.566   2.488  1.00 20.00     0.167 C 
BRANCH   5   6
HETATM    6  O8  UNL     1     -32.186   7.593   1.752  1.00 20.00    -0.396 OA
HETATM    7  C4  UNL     1     -33.121   8.425   1.080  1.00 20.00     0.201 C 
ENDBRANCH   5   6
ENDBRANCH   4   5
ENDBRANCH   3   4
BRANCH   3   8
HETATM    8  C6  UNL     1     -33.709   6.147   6.101  1.00 20.00     0.124 C 
HETATM    9 CL9  UNL     1     -34.279   7.661   6.844  1.00 20.00    -0.130 Cl
ENDBRANCH   3   8
TORSDOF 4
