REMARK  1 active torsions:
REMARK  status: ('A' for Active; 'I' for Inactive)
REMARK    1  A    between atoms: C7_7  and  C9_9 
ROOT
HETATM    1  C1  UNL     1     -34.129   6.392   6.648  1.00 20.00     0.005 C 
HETATM    2  C2  UNL     1     -34.185   7.379   5.472  1.00 20.00     0.006 C 
HETATM    3  C3  UNL     1     -35.775   5.688   5.078  1.00 20.00     0.010 C 
HETATM    4  C4  UNL     1     -33.736   4.448   5.106  1.00 20.00     0.015 C 
HETATM    5  C5  UNL     1     -34.752   5.115   6.056  1.00 20.00    -0.013 C 
HETATM    6  C6  UNL     1     -34.722   6.509   4.320  1.00 20.00    -0.005 C 
HETATM    7  C7  UNL     1     -33.691   5.417   3.893  1.00 20.00    -0.028 C 
HETATM    8  C8  UNL     1     -34.151   4.707   2.605  1.00 20.00     0.016 C 
ENDROOT
BRANCH   7   9
HETATM    9  C9  UNL     1     -32.274   5.952   3.650  1.00 20.00     0.124 C 
HETATM   10 CL10 UNL     1     -32.347   7.429   2.677  1.00 20.00    -0.130 Cl
ENDBRANCH   7   9
TORSDOF 1
