REMARK  3 active torsions:
REMARK  status: ('A' for Active; 'I' for Inactive)
REMARK    1  A    between atoms: C6_6  and  C7_7 
REMARK    2  A    between atoms: C6_6  and  C8_8 
REMARK    3  A    between atoms: C8_8  and  O10_10 
ROOT
HETATM    1  C1  UNL     1     -34.579   7.021   5.810  1.00 20.00     0.097 C 
HETATM    2  C4  UNL     1     -36.232   6.194   4.190  1.00 20.00     0.062 C 
HETATM    3  C8  UNL     1     -34.748   6.485   4.447  1.00 20.00     0.144 C 
HETATM    4  N9  UNL     1     -34.447   7.445   6.882  1.00 20.00    -0.194 NA
ENDROOT
BRANCH   3   5
HETATM    5  C6  UNL     1     -34.226   7.471   3.379  1.00 20.00     0.057 C 
BRANCH   5   6
HETATM    6  C7  UNL     1     -32.693   7.545   3.167  1.00 20.00    -0.019 C 
HETATM    7  C2  UNL     1     -32.021   7.967   4.479  1.00 20.00     0.009 C 
HETATM    8  C3  UNL     1     -32.076   6.234   2.681  1.00 20.00     0.009 C 
ENDBRANCH   5   6
ENDBRANCH   3   5
BRANCH   3   9
HETATM    9  O10 UNL     1     -34.048   5.248   4.323  1.00 20.00    -0.371 OA
HETATM   10  C5  UNL     1     -34.187   4.457   5.493  1.00 20.00     0.204 C 
ENDBRANCH   3   9
TORSDOF 3
