REMARK  4 active torsions:
REMARK  status: ('A' for Active; 'I' for Inactive)
REMARK    1  A    between atoms: C3_3  and  C6_6 
REMARK    2  A    between atoms: C3_3  and  C7_7 
REMARK    3  A    between atoms: C6_6  and  C9_9 
REMARK    4  A    between atoms: C8_8  and  C9_9 
ROOT
HETATM    1  C1  UNL     1     -35.667   6.038   3.895  1.00 20.00     0.011 A 
HETATM    2  C2  UNL     1     -35.101   4.878   4.662  1.00 20.00     0.011 A 
HETATM    3  C3  UNL     1     -34.215   6.049   4.311  1.00 20.00    -0.027 A 
ENDROOT
BRANCH   3   4
HETATM    4  C6  UNL     1     -33.162   5.848   3.230  1.00 20.00     0.015 C 
BRANCH   4   5
HETATM    5  C9  UNL     1     -33.178   6.934   2.133  1.00 20.00    -0.018 C 
HETATM    6  C5  UNL     1     -32.505   6.446   0.846  1.00 20.00     0.010 C 
BRANCH   5   7
HETATM    7  C8  UNL     1     -32.499   8.207   2.681  1.00 20.00    -0.000 C 
HETATM    8  C4  UNL     1     -32.507   9.377   1.707  1.00 20.00     0.005 C 
ENDBRANCH   5   7
ENDBRANCH   4   5
ENDBRANCH   3   4
BRANCH   3   9
HETATM    9  C7  UNL     1     -33.805   6.981   5.418  1.00 20.00     0.124 C 
HETATM   10 CL10 UNL     1     -34.220   6.296   7.008  1.00 20.00    -0.130 Cl
ENDBRANCH   3   9
TORSDOF 4
