REMARK  2 active torsions:
REMARK  status: ('A' for Active; 'I' for Inactive)
REMARK    1  A    between atoms: C6_6  and  O10_10 
REMARK    2  A    between atoms: C8_8  and  O10_10 
ROOT
HETATM    1  C1  UNL     1     -32.892   5.576   2.933  1.00 20.00     0.098 C 
HETATM    2  C2  UNL     1     -35.284   6.026   4.854  1.00 20.00     0.004 C 
HETATM    3  C3  UNL     1     -34.062   5.984   5.773  1.00 20.00     0.004 C 
HETATM    4  C4  UNL     1     -34.884   6.882   3.655  1.00 20.00     0.053 C 
HETATM    5  C5  UNL     1     -32.984   6.817   5.082  1.00 20.00     0.053 C 
HETATM    6  C6  UNL     1     -33.360   6.799   3.603  1.00 20.00     0.148 C 
HETATM    7  N9  UNL     1     -32.524   4.611   2.405  1.00 20.00    -0.194 NA
ENDROOT
BRANCH   6   8
HETATM    8  O10 UNL     1     -32.815   7.937   2.952  1.00 20.00    -0.366 OA
BRANCH   8   9
HETATM    9  C8  UNL     1     -33.207   7.998   1.587  1.00 20.00     0.165 C 
HETATM   10  C7  UNL     1     -32.595   9.229   0.953  1.00 20.00     0.033 C 
ENDBRANCH   8   9
ENDBRANCH   6   8
TORSDOF 2
