REMARK  4 active torsions:
REMARK  status: ('A' for Active; 'I' for Inactive)
REMARK    1  A    between atoms: C2_2  and  C9_9 
REMARK    2  A    between atoms: C2_2  and  C10_10 
REMARK    3  A    between atoms: C3_3  and  C5_5 
REMARK    4  A    between atoms: C3_3  and  C9_9 
ROOT
HETATM    1  C3  UNL     1     -32.203   7.085   3.171  1.00 20.00     0.135 C 
HETATM    2  O11 UNL     1     -31.652   7.738   4.048  1.00 20.00    -0.297 OA
ENDROOT
BRANCH   1   3
HETATM    3  C5  UNL     1     -32.255   7.611   1.776  1.00 20.00     0.060 A 
HETATM    4  C4  UNL     1     -31.072   8.358   1.252  1.00 20.00     0.017 A 
HETATM    5  C6  UNL     1     -32.340   9.100   1.581  1.00 20.00    -0.007 A 
HETATM    6  C7  UNL     1     -33.193   9.648   0.490  1.00 20.00     0.011 C 
ENDBRANCH   1   3
BRANCH   1   7
HETATM    7  C9  UNL     1     -32.899   5.754   3.388  1.00 20.00     0.111 C 
BRANCH   7   8
HETATM    8  C2  UNL     1     -33.975   5.862   4.438  1.00 20.00    -0.083 C 
HETATM    9  C1  UNL     1     -35.258   5.592   4.147  1.00 20.00     0.014 C 
BRANCH   8  10
HETATM   10  C10 UNL     1     -33.563   6.290   5.827  1.00 20.00     0.029 C 
HETATM   11  C8  UNL     1     -34.739   6.366   6.791  1.00 20.00     0.010 C 
ENDBRANCH   8  10
ENDBRANCH   7   8
ENDBRANCH   1   7
TORSDOF 4
