REMARK  5 active torsions:
REMARK  status: ('A' for Active; 'I' for Inactive)
REMARK    1  A    between atoms: C5_5  and  C6_6 
REMARK    2  A    between atoms: C6_6  and  C9_9 
REMARK    3  A    between atoms: C7_7  and  O11_11 
REMARK    4  A    between atoms: C8_8  and  C9_9 
REMARK    5  A    between atoms: C8_8  and  O11_11 
ROOT
HETATM    1  C1  UNL     1     -32.974   5.197   2.140  1.00 20.00     0.091 C 
HETATM    2  C8  UNL     1     -32.486   6.421   2.793  1.00 20.00     0.231 C 
HETATM    3  N10 UNL     1     -33.356   4.230   1.625  1.00 20.00    -0.195 NA
ENDROOT
BRANCH   2   4
HETATM    4  C9  UNL     1     -32.973   6.568   4.253  1.00 20.00     0.024 C 
HETATM    5  C4  UNL     1     -32.370   7.798   4.951  1.00 20.00     0.014 C 
BRANCH   4   6
HETATM    6  C6  UNL     1     -34.510   6.594   4.399  1.00 20.00     0.007 C 
BRANCH   6   7
HETATM    7  C5  UNL     1     -34.992   6.492   5.848  1.00 20.00    -0.004 C 
HETATM    8  C2  UNL     1     -34.448   5.243   6.526  1.00 20.00     0.005 C 
ENDBRANCH   6   7
ENDBRANCH   4   6
ENDBRANCH   2   4
BRANCH   2   9
HETATM    9  O11 UNL     1     -32.918   7.564   2.052  1.00 20.00    -0.372 OA
BRANCH   9  10
HETATM   10  C7  UNL     1     -32.091   7.786   0.921  1.00 20.00     0.165 C 
HETATM   11  C3  UNL     1     -32.592   9.004   0.176  1.00 20.00     0.033 C 
ENDBRANCH   9  10
ENDBRANCH   2   9
TORSDOF 5
