REMARK  4 active torsions:
REMARK  status: ('A' for Active; 'I' for Inactive)
REMARK    1  A    between atoms: C4_4  and  C7_7 
REMARK    2  A    between atoms: C4_4  and  C8_8 
REMARK    3  A    between atoms: C7_7  and  C9_9 
REMARK    4  A    between atoms: C9_9  and  C10_10 
ROOT
HETATM    1  C1  UNL     1     -32.518   8.510   0.817  1.00 20.00     0.002 C 
HETATM    2  C2  UNL     1     -33.244   8.445   2.175  1.00 20.00     0.010 C 
HETATM    3  C3  UNL     1     -31.894   7.139   1.142  1.00 20.00     0.010 C 
HETATM    4  C4  UNL     1     -32.167   7.424   2.648  1.00 20.00    -0.028 C 
ENDROOT
BRANCH   4   5
HETATM    5  C7  UNL     1     -32.735   6.233   3.413  1.00 20.00     0.011 C 
BRANCH   5   6
HETATM    6  C9  UNL     1     -33.445   6.679   4.693  1.00 20.00     0.005 C 
BRANCH   6   7
HETATM    7  C10 UNL     1     -34.099   5.520   5.468  1.00 20.00    -0.023 C 
HETATM    8  C5  UNL     1     -35.143   4.831   4.586  1.00 20.00     0.009 C 
HETATM    9  C6  UNL     1     -34.750   5.982   6.772  1.00 20.00     0.009 C 
ENDBRANCH   6   7
ENDBRANCH   5   6
ENDBRANCH   4   5
BRANCH   4  10
HETATM   10  C8  UNL     1     -30.989   8.056   3.390  1.00 20.00     0.124 C 
HETATM   11 CL11 UNL     1     -29.603   6.952   3.381  1.00 20.00    -0.130 Cl
ENDBRANCH   4  10
TORSDOF 4
