REMARK  1 active torsions:
REMARK  status: ('A' for Active; 'I' for Inactive)
REMARK    1  A    between atoms: C3_3  and  C8_8 
ROOT
HETATM    1  C1  UNL     1     -33.913   5.968   5.536  1.00 20.00     0.218 C 
HETATM    2  C2  UNL     1     -33.347   7.251   4.981  1.00 20.00     0.109 C 
HETATM    3  C3  UNL     1     -32.742   6.812   3.641  1.00 20.00     0.021 C 
HETATM    4  C4  UNL     1     -33.646   5.639   3.199  1.00 20.00     0.029 C 
HETATM    5  C5  UNL     1     -32.870   4.614   2.370  1.00 20.00     0.038 C 
HETATM    6  C6  UNL     1     -34.905   6.075   2.438  1.00 20.00     0.038 C 
HETATM    7  N9  UNL     1     -34.035   5.074   4.479  1.00 20.00    -0.352 N 
HETATM    8  O10 UNL     1     -34.233   5.783   6.701  1.00 20.00    -0.274 OA
HETATM    9  H25 UNL     1     -34.363   4.120   4.590  1.00 20.00     0.163 HD
ENDROOT
BRANCH   3  10
HETATM   10  C8  UNL     1     -32.604   7.967   2.658  1.00 20.00     0.003 C 
HETATM   11  C7  UNL     1     -31.974   7.534   1.374  1.00 20.00     0.005 C 
ENDBRANCH   3  10
TORSDOF 1
