REMARK  2 active torsions:
REMARK  status: ('A' for Active; 'I' for Inactive)
REMARK    1  A    between atoms: C4_4  and  C7_7 
REMARK    2  A    between atoms: C7_7  and  C8_8 
ROOT
HETATM    1  C1  UNL     1     -33.795   7.281   5.916  1.00 20.00     0.218 C 
HETATM    2  C2  UNL     1     -34.531   7.479   4.613  1.00 20.00     0.113 C 
HETATM    3  C3  UNL     1     -32.158   7.612   4.254  1.00 20.00     0.132 C 
HETATM    4  C4  UNL     1     -33.455   7.222   3.539  1.00 20.00    -0.020 C 
HETATM    5  C5  UNL     1     -33.432   5.736   3.145  1.00 20.00     0.017 C 
HETATM    6  N9  UNL     1     -32.436   7.361   5.642  1.00 20.00    -0.360 N 
HETATM    7  O10 UNL     1     -34.321   7.120   7.007  1.00 20.00    -0.274 OA
HETATM    8  H25 UNL     1     -31.714   7.253   6.348  1.00 20.00     0.162 HD
ENDROOT
BRANCH   4   9
HETATM    9  C7  UNL     1     -33.689   8.078   2.294  1.00 20.00     0.011 C 
BRANCH   9  10
HETATM   10  C8  UNL     1     -32.598   7.842   1.261  1.00 20.00    -0.004 C 
HETATM   11  C6  UNL     1     -32.843   8.675   0.013  1.00 20.00     0.005 C 
ENDBRANCH   9  10
ENDBRANCH   4   9
TORSDOF 2
