REMARK  1 active torsions:
REMARK  status: ('A' for Active; 'I' for Inactive)
REMARK    1  A    between atoms: C5_5  and  C6_6 
ROOT
HETATM    1  C1  UNL     1     -33.696   6.841   5.744  1.00 20.00     0.218 C 
HETATM    2  C2  UNL     1     -32.921   7.676   4.755  1.00 20.00     0.110 C 
HETATM    3  C5  UNL     1     -32.569   6.670   3.651  1.00 20.00     0.026 C 
HETATM    4  C7  UNL     1     -33.750   5.674   3.675  1.00 20.00     0.030 C 
HETATM    5  C8  UNL     1     -33.309   4.270   3.256  1.00 20.00     0.038 C 
HETATM    6  C9  UNL     1     -34.954   6.113   2.831  1.00 20.00     0.038 C 
HETATM    7  N10 UNL     1     -34.120   5.696   5.079  1.00 20.00    -0.352 N 
HETATM    8  O11 UNL     1     -33.928   7.151   6.902  1.00 20.00    -0.274 OA
HETATM    9  H26 UNL     1     -34.638   4.948   5.531  1.00 20.00     0.163 HD
ENDROOT
BRANCH   3  10
HETATM   10  C6  UNL     1     -32.282   7.346   2.318  1.00 20.00    -0.008 A 
HETATM   11  C3  UNL     1     -33.048   8.572   1.920  1.00 20.00     0.005 A 
HETATM   12  C4  UNL     1     -31.594   8.678   2.288  1.00 20.00     0.005 A 
ENDBRANCH   3  10
TORSDOF 1
