REMARK  1 active torsions:
REMARK  status: ('A' for Active; 'I' for Inactive)
REMARK    1  A    between atoms: C3_3  and  C8_8 
ROOT
HETATM    1  C1  UNL     1     -32.891   6.573   2.833  1.00 20.00     0.218 C 
HETATM    2  C2  UNL     1     -33.075   7.580   3.941  1.00 20.00     0.109 C 
HETATM    3  C3  UNL     1     -33.437   6.705   5.149  1.00 20.00     0.021 C 
HETATM    4  C4  UNL     1     -34.175   5.502   4.521  1.00 20.00     0.029 C 
HETATM    5  C5  UNL     1     -35.676   5.736   4.300  1.00 20.00     0.038 C 
HETATM    6  C6  UNL     1     -33.966   4.226   5.339  1.00 20.00     0.038 C 
HETATM    7  N9  UNL     1     -33.515   5.397   3.231  1.00 20.00    -0.352 N 
HETATM    8  O10 UNL     1     -32.325   6.787   1.772  1.00 20.00    -0.274 OA
HETATM    9  H25 UNL     1     -33.510   4.547   2.675  1.00 20.00     0.163 HD
ENDROOT
BRANCH   3  10
HETATM   10  C8  UNL     1     -34.193   7.478   6.221  1.00 20.00     0.003 C 
HETATM   11  C7  UNL     1     -34.500   6.625   7.410  1.00 20.00     0.005 C 
ENDBRANCH   3  10
TORSDOF 1
