REMARK  1 active torsions:
REMARK  status: ('A' for Active; 'I' for Inactive)
REMARK    1  A    between atoms: C4_4  and  C8_8 
ROOT
HETATM    1  C1  UNL     1     -36.046   6.085   4.082  1.00 20.00     0.218 C 
HETATM    2  C2  UNL     1     -34.857   6.954   3.751  1.00 20.00     0.114 C 
HETATM    3  C3  UNL     1     -34.359   5.562   5.662  1.00 20.00     0.088 C 
HETATM    4  C4  UNL     1     -33.678   6.243   4.451  1.00 20.00    -0.016 C 
HETATM    5  C5  UNL     1     -34.441   6.402   6.934  1.00 20.00     0.033 C 
HETATM    6  C6  UNL     1     -32.570   7.237   4.810  1.00 20.00     0.018 C 
HETATM    7  N9  UNL     1     -35.695   5.298   5.171  1.00 20.00    -0.356 N 
HETATM    8  O10 UNL     1     -37.121   6.109   3.503  1.00 20.00    -0.274 OA
HETATM    9  H25 UNL     1     -36.314   4.604   5.585  1.00 20.00     0.162 HD
ENDROOT
BRANCH   4  10
HETATM   10  C8  UNL     1     -33.086   5.169   3.513  1.00 20.00     0.007 C 
HETATM   11  C7  UNL     1     -32.583   5.770   2.243  1.00 20.00     0.006 C 
ENDBRANCH   4  10
TORSDOF 1
