REMARK  0 active torsions:
REMARK  status: ('A' for Active; 'I' for Inactive)
ROOT
HETATM    1  C1  UNL     1     -33.257   5.325   2.832  1.00 20.00     0.010 A 
HETATM    2  C2  UNL     1     -32.579   6.152   1.933  1.00 20.00     0.019 A 
HETATM    3  C3  UNL     1     -32.479   7.940   3.581  1.00 20.00     0.026 A 
HETATM    4  C4  UNL     1     -33.532   5.816   4.098  1.00 20.00    -0.033 A 
HETATM    5  C5  UNL     1     -33.141   7.110   4.470  1.00 20.00    -0.049 A 
HETATM    6  C6  UNL     1     -32.194   7.450   2.305  1.00 20.00     0.011 A 
HETATM    7  C7  UNL     1     -33.579   7.419   5.867  1.00 20.00     0.041 C 
HETATM    8  C8  UNL     1     -33.838   6.005   6.413  1.00 20.00     0.030 C 
HETATM    9  C9  UNL     1     -34.262   5.137   5.215  1.00 20.00     0.116 C 
HETATM   10 CL10 UNL     1     -36.015   5.221   4.942  1.00 20.00    -0.120 Cl
HETATM   11 BR11 UNL     1     -31.286   8.549   1.061  1.00 20.00    -0.051 Br
ENDROOT
TORSDOF 0
