REMARK  1 active torsions:
REMARK  status: ('A' for Active; 'I' for Inactive)
REMARK    1  A    between atoms: C3_3  and  C6_6 
ROOT
HETATM    1  C1  UNL     1     -33.863   7.288   5.426  1.00 20.00     0.131 A 
HETATM    2  C2  UNL     1     -34.692   5.584   6.530  1.00 20.00     0.166 A 
HETATM    3  C3  UNL     1     -33.626   6.301   4.493  1.00 20.00     0.005 A 
HETATM    4  N7  UNL     1     -34.475   6.879   6.595  1.00 20.00    -0.265 NA
HETATM    5  S8  UNL     1     -34.186   4.796   5.093  1.00 20.00    -0.085 SA
ENDROOT
BRANCH   3   6
HETATM    6  C6  UNL     1     -32.983   6.396   3.122  1.00 20.00     0.019 C 
HETATM    7  C4  UNL     1     -32.315   5.078   2.722  1.00 20.00     0.015 C 
HETATM    8  C5  UNL     1     -31.989   7.557   3.045  1.00 20.00     0.015 C 
ENDBRANCH   3   6
TORSDOF 1
