REMARK  2 active torsions:
REMARK  status: ('A' for Active; 'I' for Inactive)
REMARK    1  A    between atoms: C3_3  and  C6_6 
REMARK    2  A    between atoms: C6_6  and  C7_7 
ROOT
HETATM    1  C1  UNL     1     -34.402   7.019   4.859  1.00 20.00     0.285 C 
HETATM    2  C2  UNL     1     -34.645   5.641   4.244  1.00 20.00     0.073 C 
HETATM    3  C3  UNL     1     -32.408   6.898   3.580  1.00 20.00     0.282 C 
HETATM    4  C4  UNL     1     -34.360   4.497   5.210  1.00 20.00     0.023 C 
HETATM    5  N8  UNL     1     -32.956   7.256   4.892  1.00 20.00     0.098 N 
HETATM    6  S9  UNL     1     -33.464   5.596   2.865  1.00 20.00    -0.128 SA
HETATM    7  H24 UNL     1     -32.798   8.255   5.057  1.00 20.00     0.317 HD
ENDROOT
BRANCH   3   8
HETATM    8  C6  UNL     1     -32.347   8.098   2.639  1.00 20.00     0.046 C 
BRANCH   8   9
HETATM    9  C7  UNL     1     -32.293   7.659   1.178  1.00 20.00    -0.002 C 
HETATM   10  C5  UNL     1     -32.259   8.854   0.239  1.00 20.00     0.005 C 
ENDBRANCH   8   9
ENDBRANCH   3   8
TORSDOF 2
