REMARK  0 active torsions:
REMARK  status: ('A' for Active; 'I' for Inactive)
ROOT
HETATM    1  C1  UNL     1     -33.147   6.636   3.599  1.00 20.00     0.080 C 
HETATM    2  C2  UNL     1     -33.793   6.448   6.658  1.00 20.00     0.013 C 
HETATM    3  C3  UNL     1     -34.580   7.152   5.558  1.00 20.00     0.036 C 
HETATM    4  C4  UNL     1     -34.224   4.993   6.628  1.00 20.00     0.076 C 
HETATM    5  C5  UNL     1     -34.417   6.323   4.277  1.00 20.00     0.093 C 
HETATM    6  C6  UNL     1     -35.587   6.540   3.318  1.00 20.00     0.043 C 
HETATM    7  N7  UNL     1     -32.146   6.883   3.065  1.00 20.00    -0.196 NA
HETATM    8  S8  UNL     1     -34.405   4.588   4.869  1.00 20.00    -0.144 SA
ENDROOT
TORSDOF 0
