REMARK  3 active torsions:
REMARK  status: ('A' for Active; 'I' for Inactive)
REMARK    1  A    between atoms: C3_3  and  C6_6 
REMARK    2  A    between atoms: C6_6  and  C8_8 
REMARK    3  A    between atoms: C7_7  and  C8_8 
ROOT
HETATM    1  C1  UNL     1     -35.489   5.836   4.380  1.00 20.00     0.285 C 
HETATM    2  C2  UNL     1     -34.869   5.653   5.766  1.00 20.00     0.073 C 
HETATM    3  C3  UNL     1     -33.581   7.169   4.018  1.00 20.00     0.282 C 
HETATM    4  C4  UNL     1     -34.204   4.294   5.950  1.00 20.00     0.023 C 
HETATM    5  N9  UNL     1     -34.402   6.106   3.436  1.00 20.00     0.098 N 
HETATM    6  S10 UNL     1     -33.616   6.968   5.830  1.00 20.00    -0.128 SA
HETATM    7  H27 UNL     1     -33.840   5.261   3.334  1.00 20.00     0.317 HD
ENDROOT
BRANCH   3   8
HETATM    8  C6  UNL     1     -32.158   7.085   3.491  1.00 20.00     0.046 C 
BRANCH   8   9
HETATM    9  C8  UNL     1     -32.114   7.256   1.973  1.00 20.00     0.002 C 
BRANCH   9  10
HETATM   10  C7  UNL     1     -32.652   8.624   1.553  1.00 20.00    -0.004 C 
HETATM   11  C5  UNL     1     -32.579   8.812   0.046  1.00 20.00     0.005 C 
ENDBRANCH   9  10
ENDBRANCH   8   9
ENDBRANCH   3   8
TORSDOF 3
