REMARK  1 active torsions:
REMARK  status: ('A' for Active; 'I' for Inactive)
REMARK    1  A    between atoms: C4_4  and  C7_7 
ROOT
HETATM    1  C1  UNL     1     -34.386   6.648   6.944  1.00 20.00     0.109 C 
HETATM    2  C2  UNL     1     -35.090   4.976   4.919  1.00 20.00     0.109 C 
HETATM    3  C3  UNL     1     -33.856   7.583   5.850  1.00 20.00     0.226 C 
HETATM    4  C4  UNL     1     -34.507   6.036   3.978  1.00 20.00     0.230 C 
HETATM    5  C5  UNL     1     -32.327   7.623   5.787  1.00 20.00     0.043 C 
HETATM    6  N8  UNL     1     -34.492   7.394   4.539  1.00 20.00     0.093 N 
HETATM    7  S9  UNL     1     -34.230   4.894   6.513  1.00 20.00    -0.165 SA
HETATM    8  H24 UNL     1     -35.473   7.743   4.592  1.00 20.00     0.316 HD
ENDROOT
BRANCH   4   9
HETATM    9  C7  UNL     1     -33.172   5.616   3.358  1.00 20.00     0.032 C 
HETATM   10  C6  UNL     1     -32.706   6.603   2.340  1.00 20.00     0.007 C 
ENDBRANCH   4   9
TORSDOF 1
