REMARK  2 active torsions:
REMARK  status: ('A' for Active; 'I' for Inactive)
REMARK    1  A    between atoms: C3_3  and  C7_7 
REMARK    2  A    between atoms: C7_7  and  C8_8 
ROOT
HETATM    1  C1  UNL     1     -31.952   7.490   1.657  1.00 20.00     0.012 C 
HETATM    2  C2  UNL     1     -32.390   6.643   2.387  1.00 20.00    -0.116 C 
HETATM    3  C8  UNL     1     -32.923   5.602   3.271  1.00 20.00     0.113 C 
ENDROOT
BRANCH   3   4
HETATM    4  C7  UNL     1     -33.563   6.222   4.544  1.00 20.00     0.058 C 
HETATM    5  C5  UNL     1     -34.568   7.389   4.283  1.00 20.00     0.021 C 
HETATM    6  C4  UNL     1     -33.933   8.152   5.458  1.00 20.00     0.003 C 
HETATM    7  C6  UNL     1     -32.681   7.275   5.287  1.00 20.00     0.021 C 
BRANCH   4   8
HETATM    8  C3  UNL     1     -34.118   5.133   5.465  1.00 20.00     0.182 C 
HETATM    9  O9  UNL     1     -33.902   5.307   6.697  1.00 20.00    -0.647 OA
HETATM   10  O10 UNL     1     -34.724   4.197   4.873  1.00 20.00    -0.647 OA
ENDBRANCH   4   8
ENDBRANCH   3   4
TORSDOF 2
