REMARK  3 active torsions:
REMARK  status: ('A' for Active; 'I' for Inactive)
REMARK    1  A    between atoms: C3_3  and  C6_6 
REMARK    2  A    between atoms: C6_6  and  C8_8 
REMARK    3  A    between atoms: C7_7  and  C8_8 
ROOT
HETATM    1  C1  UNL     1     -34.872   6.175   5.616  1.00 20.00     0.111 C 
HETATM    2  C2  UNL     1     -34.349   5.096   4.667  1.00 20.00     0.227 C 
HETATM    3  C3  UNL     1     -32.842   6.840   4.073  1.00 20.00     0.282 C 
HETATM    4  C4  UNL     1     -33.406   4.099   5.344  1.00 20.00     0.043 C 
HETATM    5  N9  UNL     1     -33.698   5.775   3.531  1.00 20.00     0.102 N 
HETATM    6  S10 UNL     1     -33.613   7.472   5.594  1.00 20.00    -0.132 SA
HETATM    7  H27 UNL     1     -33.097   5.096   3.058  1.00 20.00     0.317 HD
ENDROOT
BRANCH   3   8
HETATM    8  C6  UNL     1     -32.658   7.963   3.060  1.00 20.00     0.046 C 
BRANCH   8   9
HETATM    9  C8  UNL     1     -32.001   7.453   1.779  1.00 20.00     0.002 C 
BRANCH   9  10
HETATM   10  C7  UNL     1     -31.789   8.589   0.779  1.00 20.00    -0.004 C 
HETATM   11  C5  UNL     1     -33.108   9.220   0.364  1.00 20.00     0.005 C 
ENDBRANCH   9  10
ENDBRANCH   8   9
ENDBRANCH   3   8
TORSDOF 3
