REMARK  0 active torsions:
REMARK  status: ('A' for Active; 'I' for Inactive)
ROOT
HETATM    1  C1  UNL     1     -32.450   7.024   2.395  1.00 20.00     0.125 C 
HETATM    2  C2  UNL     1     -33.496   7.116   4.717  1.00 20.00     0.074 A 
HETATM    3  C3  UNL     1     -34.274   5.028   4.624  1.00 20.00     0.167 A 
HETATM    4  C4  UNL     1     -33.162   6.538   3.514  1.00 20.00     0.156 A 
HETATM    5  C5  UNL     1     -34.217   6.135   5.438  1.00 20.00     0.059 A 
HETATM    6  N6  UNL     1     -31.864   7.423   1.476  1.00 20.00    -0.189 NA
HETATM    7  O7  UNL     1     -33.632   5.265   3.450  1.00 20.00    -0.310 OA
HETATM    8 CL8  UNL     1     -34.868   6.320   6.990  1.00 20.00    -0.082 Cl
ENDROOT
TORSDOF 0
