REMARK  1 active torsions:
REMARK  status: ('A' for Active; 'I' for Inactive)
REMARK    1  A    between atoms: C3_3  and  C7_7 
ROOT
HETATM    1  C1  UNL     1     -34.299   7.612   6.131  1.00 20.00     0.284 C 
HETATM    2  C2  UNL     1     -33.671   5.958   3.717  1.00 20.00     0.109 C 
HETATM    3  C3  UNL     1     -33.284   7.425   3.929  1.00 20.00     0.229 C 
HETATM    4  C4  UNL     1     -34.835   6.179   6.220  1.00 20.00     0.071 C 
HETATM    5  C5  UNL     1     -33.884   5.233   6.951  1.00 20.00     0.023 C 
HETATM    6  N8  UNL     1     -33.070   7.742   5.346  1.00 20.00     0.089 N 
HETATM    7  S9  UNL     1     -35.227   5.536   4.556  1.00 20.00    -0.161 SA
HETATM    8  H24 UNL     1     -32.728   8.700   5.429  1.00 20.00     0.316 HD
ENDROOT
BRANCH   3   9
HETATM    9  C7  UNL     1     -31.990   7.730   3.169  1.00 20.00     0.032 C 
HETATM   10  C6  UNL     1     -32.140   7.474   1.707  1.00 20.00     0.007 C 
ENDBRANCH   3   9
TORSDOF 1
