REMARK  4 active torsions:
REMARK  status: ('A' for Active; 'I' for Inactive)
REMARK    1  A    between atoms: C1_1  and  C4_4 
REMARK    2  A    between atoms: C1_1  and  O11_11 
REMARK    3  A    between atoms: C5_5  and  C8_8 
REMARK    4  A    between atoms: C8_8  and  C9_9 
ROOT
HETATM    1  C2  UNL     1     -32.829   5.857   2.325  1.00 20.00     0.019 C 
HETATM    2  C3  UNL     1     -33.233   7.477   3.648  1.00 20.00     0.019 C 
HETATM    3  C4  UNL     1     -32.101   7.188   2.632  1.00 20.00     0.086 C 
HETATM    4  C5  UNL     1     -33.441   5.944   3.746  1.00 20.00    -0.013 C 
ENDROOT
BRANCH   3   5
HETATM    5  C1  UNL     1     -31.999   8.141   1.497  1.00 20.00     0.262 C 
HETATM    6  O10 UNL     1     -30.959   8.684   1.150  1.00 20.00    -0.265 OA
BRANCH   5   7
HETATM    7  O11 UNL     1     -33.226   8.302   0.926  1.00 20.00    -0.326 OA
HETATM    8  C7  UNL     1     -33.273   9.200  -0.187  1.00 20.00     0.213 C 
ENDBRANCH   5   7
ENDBRANCH   3   5
BRANCH   4   9
HETATM    9  C8  UNL     1     -34.868   5.461   3.902  1.00 20.00     0.004 C 
BRANCH   9  10
HETATM   10  C9  UNL     1     -35.509   5.996   5.183  1.00 20.00    -0.004 C 
HETATM   11  C6  UNL     1     -34.765   5.526   6.423  1.00 20.00     0.005 C 
ENDBRANCH   9  10
ENDBRANCH   4   9
TORSDOF 4
