REMARK  1 active torsions:
REMARK  status: ('A' for Active; 'I' for Inactive)
REMARK    1  A    between atoms: C2_2  and  C6_6 
ROOT
HETATM    1  C1  UNL     1     -32.472   7.637   4.442  1.00 20.00     0.111 C 
HETATM    2  C2  UNL     1     -33.344   6.767   3.538  1.00 20.00     0.231 C 
HETATM    3  C3  UNL     1     -34.236   6.063   5.605  1.00 20.00     0.278 C 
HETATM    4  C4  UNL     1     -34.101   4.998   6.685  1.00 20.00     0.054 C 
HETATM    5  N7  UNL     1     -33.731   5.576   4.314  1.00 20.00     0.102 N 
HETATM    6  S8  UNL     1     -33.294   7.555   6.049  1.00 20.00    -0.132 SA
HETATM    7  H21 UNL     1     -34.449   5.044   3.825  1.00 20.00     0.317 HD
ENDROOT
BRANCH   2   8
HETATM    8  C6  UNL     1     -32.602   6.358   2.271  1.00 20.00     0.032 C 
HETATM    9  C5  UNL     1     -32.201   7.544   1.454  1.00 20.00     0.007 C 
ENDBRANCH   2   8
TORSDOF 1
