REMARK  1 active torsions:
REMARK  status: ('A' for Active; 'I' for Inactive)
REMARK    1  A    between atoms: C2_2  and  C6_6 
ROOT
HETATM    1  C1  UNL     1     -33.053   7.314   5.280  1.00 20.00     0.111 C 
HETATM    2  C2  UNL     1     -33.864   6.657   4.165  1.00 20.00     0.231 C 
HETATM    3  C3  UNL     1     -31.913   7.154   2.908  1.00 20.00     0.278 C 
HETATM    4  C4  UNL     1     -32.346   8.026   1.734  1.00 20.00     0.054 C 
HETATM    5  N7  UNL     1     -32.910   6.109   3.183  1.00 20.00     0.102 N 
HETATM    6  S8  UNL     1     -31.717   8.161   4.409  1.00 20.00    -0.132 SA
HETATM    7  H21 UNL     1     -32.429   5.319   3.614  1.00 20.00     0.317 HD
ENDROOT
BRANCH   2   8
HETATM    8  C6  UNL     1     -34.761   5.549   4.706  1.00 20.00     0.032 C 
HETATM    9  C5  UNL     1     -33.973   4.484   5.396  1.00 20.00     0.007 C 
ENDBRANCH   2   8
TORSDOF 1
