REMARK  3 active torsions:
REMARK  status: ('A' for Active; 'I' for Inactive)
REMARK    1  A    between atoms: C4_4  and  C7_7 
REMARK    2  A    between atoms: C7_7  and  O10_10 
REMARK    3  A    between atoms: C8_8  and  O10_10 
ROOT
HETATM    1  C1  UNL     1     -32.886   5.227   2.544  1.00 20.00     0.071 C 
HETATM    2  C2  UNL     1     -31.477   7.186   3.275  1.00 20.00     0.028 A 
HETATM    3  C3  UNL     1     -32.080   7.541   1.948  1.00 20.00     0.028 A 
HETATM    4  C4  UNL     1     -32.827   6.623   2.891  1.00 20.00     0.070 A 
HETATM    5  N9  UNL     1     -32.932   4.102   2.264  1.00 20.00    -0.196 NA
ENDROOT
BRANCH   4   6
HETATM    6  C7  UNL     1     -34.043   7.164   3.588  1.00 20.00     0.192 C 
BRANCH   6   7
HETATM    7  O10 UNL     1     -34.527   6.198   4.515  1.00 20.00    -0.385 OA
BRANCH   7   8
HETATM    8  C8  UNL     1     -33.775   6.213   5.720  1.00 20.00     0.113 C 
HETATM    9  C5  UNL     1     -34.253   7.362   6.594  1.00 20.00     0.039 C 
HETATM   10  C6  UNL     1     -33.923   4.870   6.419  1.00 20.00     0.039 C 
ENDBRANCH   7   8
ENDBRANCH   6   7
ENDBRANCH   4   6
TORSDOF 3
