REMARK  1 active torsions:
REMARK  status: ('A' for Active; 'I' for Inactive)
REMARK    1  A    between atoms: C3_3  and  C7_7 
ROOT
HETATM    1  C1  UNL     1     -33.288   5.429   2.338  1.00 20.00     0.111 C 
HETATM    2  C2  UNL     1     -32.313   6.546   2.705  1.00 20.00     0.227 C 
HETATM    3  C3  UNL     1     -33.251   6.232   4.847  1.00 20.00     0.285 C 
HETATM    4  C4  UNL     1     -32.100   7.508   1.542  1.00 20.00     0.043 C 
HETATM    5  N8  UNL     1     -32.877   7.259   3.865  1.00 20.00     0.102 N 
HETATM    6  S9  UNL     1     -33.803   4.758   3.935  1.00 20.00    -0.131 SA
HETATM    7  H24 UNL     1     -32.194   7.902   4.260  1.00 20.00     0.317 HD
ENDROOT
BRANCH   3   8
HETATM    8  C7  UNL     1     -34.347   6.734   5.776  1.00 20.00     0.021 C 
HETATM    9  C5  UNL     1     -35.589   7.141   4.982  1.00 20.00     0.012 C 
HETATM   10  C6  UNL     1     -34.707   5.671   6.816  1.00 20.00     0.012 C 
ENDBRANCH   3   8
TORSDOF 1
