REMARK  1 active torsions:
REMARK  status: ('A' for Active; 'I' for Inactive)
REMARK    1  A    between atoms: C2_2  and  C8_8 
ROOT
HETATM    1  C1  UNL     1     -32.254   5.791   2.819  1.00 20.00     0.284 C 
HETATM    2  C2  UNL     1     -34.227   6.167   4.279  1.00 20.00     0.233 C 
HETATM    3  C3  UNL     1     -32.161   7.286   2.513  1.00 20.00     0.071 C 
HETATM    4  C4  UNL     1     -33.265   7.057   5.096  1.00 20.00     0.076 C 
HETATM    5  C5  UNL     1     -33.105   7.733   1.398  1.00 20.00     0.023 C 
HETATM    6  C6  UNL     1     -33.959   7.844   6.210  1.00 20.00     0.023 C 
HETATM    7  N9  UNL     1     -33.562   5.328   3.269  1.00 20.00     0.090 N 
HETATM    8  S10 UNL     1     -32.442   8.294   4.010  1.00 20.00    -0.156 SA
HETATM    9  H27 UNL     1     -34.179   5.246   2.443  1.00 20.00     0.316 HD
ENDROOT
BRANCH   2  10
HETATM   10  C8  UNL     1     -35.069   5.240   5.168  1.00 20.00     0.032 C 
HETATM   11  C7  UNL     1     -34.209   4.300   5.942  1.00 20.00     0.007 C 
ENDBRANCH   2  10
TORSDOF 1
