REMARK  3 active torsions:
REMARK  status: ('A' for Active; 'I' for Inactive)
REMARK    1  A    between atoms: C1_1  and  C6_6 
REMARK    2  A    between atoms: C1_1  and  O9_9 
REMARK    3  A    between atoms: C7_7  and  O9_9 
ROOT
HETATM    1  C1  UNL     1     -33.194   6.383   3.583  1.00 20.00     0.274 C 
HETATM    2  O8  UNL     1     -33.694   5.482   2.921  1.00 20.00    -0.264 OA
ENDROOT
BRANCH   1   3
HETATM    3  C6  UNL     1     -32.123   7.337   3.082  1.00 20.00     0.154 C 
HETATM    4  C2  UNL     1     -32.216   7.484   1.564  1.00 20.00     0.033 C 
HETATM    5  S10 UNL     1     -32.391   8.961   3.870  1.00 20.00    -0.082 SA
ENDBRANCH   1   3
BRANCH   1   6
HETATM    6  O9  UNL     1     -33.508   6.681   4.882  1.00 20.00    -0.310 OA
BRANCH   6   7
HETATM    7  C7  UNL     1     -34.504   5.852   5.483  1.00 20.00     0.060 C 
HETATM    8  C3  UNL     1     -34.008   4.407   5.468  1.00 20.00     0.045 C 
HETATM    9  C4  UNL     1     -34.702   6.337   6.918  1.00 20.00     0.045 C 
HETATM   10  C5  UNL     1     -35.799   5.992   4.685  1.00 20.00     0.045 C 
ENDBRANCH   6   7
ENDBRANCH   1   6
TORSDOF 3
