REMARK  3 active torsions:
REMARK  status: ('A' for Active; 'I' for Inactive)
REMARK    1  A    between atoms: C2_2  and  O6_6 
REMARK    2  A    between atoms: C4_4  and  C5_5 
REMARK    3  A    between atoms: C4_4  and  O6_6 
ROOT
HETATM    1  C3  UNL     1     -33.119   5.185   2.863  1.00 20.00     0.049 C 
HETATM    2  C4  UNL     1     -33.130   6.086   4.060  1.00 20.00     0.231 C 
ENDROOT
BRANCH   2   3
HETATM    3  C5  UNL     1     -34.275   5.772   5.001  1.00 20.00     0.413 C 
HETATM    4  F7  UNL     1     -34.282   6.626   6.049  1.00 20.00    -0.168 F 
HETATM    5  F8  UNL     1     -35.466   5.891   4.375  1.00 20.00    -0.168 F 
HETATM    6  F9  UNL     1     -34.188   4.517   5.493  1.00 20.00    -0.168 F 
ENDBRANCH   2   3
BRANCH   2   7
HETATM    7  O6  UNL     1     -33.264   7.440   3.637  1.00 20.00    -0.350 OA
BRANCH   7   8
HETATM    8  C2  UNL     1     -32.146   8.000   3.197  1.00 20.00     0.125 C 
HETATM    9  C1  UNL     1     -32.084   8.960   2.272  1.00 20.00     0.037 C 
ENDBRANCH   7   8
ENDBRANCH   2   7
TORSDOF 3
