REMARK  3 active torsions:
REMARK  status: ('A' for Active; 'I' for Inactive)
REMARK    1  A    between atoms: C4_4  and  O11_11 
REMARK    2  A    between atoms: C8_8  and  C10_10 
REMARK    3  A    between atoms: C10_10  and  O11_11 
ROOT
HETATM    1  C1  UNL     1     -34.580   5.358   5.043  1.00 20.00    -0.030 C 
HETATM    2  C2  UNL     1     -34.306   6.659   5.197  1.00 20.00    -0.030 C 
HETATM    3  C5  UNL     1     -34.068   4.544   3.894  1.00 20.00     0.031 C 
HETATM    4  C6  UNL     1     -33.435   7.429   4.251  1.00 20.00     0.034 C 
HETATM    5  C7  UNL     1     -33.499   5.396   2.738  1.00 20.00    -0.009 C 
HETATM    6  C8  UNL     1     -32.613   6.534   3.299  1.00 20.00     0.017 C 
HETATM    7  C9  UNL     1     -32.764   4.488   1.751  1.00 20.00     0.011 C 
ENDROOT
BRANCH   6   8
HETATM    8  C10 UNL     1     -31.978   7.398   2.209  1.00 20.00     0.179 C 
BRANCH   8   9
HETATM    9  O11 UNL     1     -33.013   8.036   1.486  1.00 20.00    -0.363 OA
BRANCH   9  10
HETATM   10  C4  UNL     1     -32.611   8.823   0.492  1.00 20.00     0.124 C 
HETATM   11  C3  UNL     1     -33.421   9.515  -0.312  1.00 20.00     0.037 C 
ENDBRANCH   9  10
ENDBRANCH   8   9
ENDBRANCH   6   8
TORSDOF 3
