REMARK  2 active torsions:
REMARK  status: ('A' for Active; 'I' for Inactive)
REMARK    1  A    between atoms: C2_2  and  O10_10 
REMARK    2  A    between atoms: C9_9  and  O10_10 
ROOT
HETATM    1  C1  UNL     1     -32.979   7.309   5.184  1.00 20.00     0.053 C 
HETATM    2  C2  UNL     1     -33.280   7.350   3.668  1.00 20.00     0.132 C 
HETATM    3  C3  UNL     1     -34.098   6.253   5.323  1.00 20.00     0.095 C 
HETATM    4  C4  UNL     1     -33.869   5.903   3.812  1.00 20.00    -0.005 C 
HETATM    5  C5  UNL     1     -35.166   5.695   3.033  1.00 20.00     0.019 C 
HETATM    6  C6  UNL     1     -32.874   4.774   3.525  1.00 20.00     0.019 C 
HETATM    7 CL11 UNL     1     -33.933   4.998   6.592  1.00 20.00    -0.124 Cl
ENDROOT
BRANCH   2   8
HETATM    8  O10 UNL     1     -32.143   7.507   2.802  1.00 20.00    -0.381 OA
BRANCH   8   9
HETATM    9  C9  UNL     1     -32.534   8.031   1.547  1.00 20.00     0.114 C 
HETATM   10  C7  UNL     1     -32.510   9.550   1.609  1.00 20.00     0.039 C 
HETATM   11  C8  UNL     1     -31.605   7.493   0.469  1.00 20.00     0.039 C 
ENDBRANCH   8   9
ENDBRANCH   2   8
TORSDOF 2
