REMARK  1 active torsions:
REMARK  status: ('A' for Active; 'I' for Inactive)
REMARK    1  A    between atoms: C2_2  and  O8_8 
ROOT
HETATM    1  C1  UNL     1     -32.505   5.472   2.491  1.00 20.00     0.053 C 
HETATM    2  C2  UNL     1     -32.858   5.461   3.996  1.00 20.00     0.131 C 
HETATM    3  C3  UNL     1     -32.097   6.953   2.653  1.00 20.00     0.095 C 
HETATM    4  C4  UNL     1     -33.049   7.014   3.897  1.00 20.00    -0.005 C 
HETATM    5  C5  UNL     1     -34.487   7.466   3.623  1.00 20.00     0.019 C 
HETATM    6  C6  UNL     1     -32.455   7.778   5.079  1.00 20.00     0.019 C 
HETATM    7 CL9  UNL     1     -32.330   8.059   1.262  1.00 20.00    -0.124 Cl
ENDROOT
BRANCH   2   8
HETATM    8  O8  UNL     1     -34.012   4.691   4.376  1.00 20.00    -0.390 OA
HETATM    9  C7  UNL     1     -34.228   4.761   5.773  1.00 20.00     0.202 C 
ENDBRANCH   2   8
TORSDOF 1
