REMARK  4 active torsions:
REMARK  status: ('A' for Active; 'I' for Inactive)
REMARK    1  A    between atoms: C2_2  and  C6_6 
REMARK    2  A    between atoms: C6_6  and  S10_10 
REMARK    3  A    between atoms: C7_7  and  C8_8 
REMARK    4  A    between atoms: C7_7  and  S10_10 
ROOT
HETATM    1  C6  UNL     1     -33.333   7.027   4.732  1.00 20.00     0.113 C 
ENDROOT
BRANCH   1   2
HETATM    2  C2  UNL     1     -34.273   5.924   4.286  1.00 20.00     0.087 A 
HETATM    3  C1  UNL     1     -35.663   5.848   4.870  1.00 20.00     0.207 A 
HETATM    4  O9  UNL     1     -35.419   6.397   3.566  1.00 20.00    -0.375 OA
HETATM    5  C3  UNL     1     -33.655   4.698   3.695  1.00 20.00     0.049 C 
ENDBRANCH   1   2
BRANCH   1   6
HETATM    6  S10 UNL     1     -32.018   7.271   3.516  1.00 20.00    -0.166 SA
BRANCH   6   7
HETATM    7  C7  UNL     1     -32.953   8.275   2.320  1.00 20.00     0.077 C 
BRANCH   7   8
HETATM    8  C8  UNL     1     -32.186   8.664   1.045  1.00 20.00    -0.013 C 
HETATM    9  C4  UNL     1     -31.715   7.449   0.243  1.00 20.00     0.010 C 
HETATM   10  C5  UNL     1     -32.972   9.627   0.152  1.00 20.00     0.010 C 
ENDBRANCH   7   8
ENDBRANCH   6   7
ENDBRANCH   1   6
TORSDOF 4
