REMARK  2 active torsions:
REMARK  status: ('A' for Active; 'I' for Inactive)
REMARK    1  A    between atoms: C3_3  and  O11_11 
REMARK    2  A    between atoms: C9_9  and  O11_11 
ROOT
HETATM    1  C1  UNL     1     -32.702   7.296   5.441  1.00 20.00     0.069 C 
HETATM    2  C2  UNL     1     -34.135   7.566   5.948  1.00 20.00     0.173 C 
HETATM    3  C3  UNL     1     -33.313   6.341   4.383  1.00 20.00     0.135 C 
HETATM    4  C4  UNL     1     -34.559   6.187   5.329  1.00 20.00     0.008 C 
HETATM    5  C5  UNL     1     -35.917   6.248   4.626  1.00 20.00     0.020 C 
HETATM    6  C6  UNL     1     -34.462   4.915   6.186  1.00 20.00     0.020 C 
HETATM    7  O10 UNL     1     -34.225   7.645   7.345  1.00 20.00    -0.234 OA
ENDROOT
BRANCH   3   8
HETATM    8  O11 UNL     1     -33.550   6.931   3.089  1.00 20.00    -0.380 OA
BRANCH   8   9
HETATM    9  C9  UNL     1     -32.492   6.631   2.200  1.00 20.00     0.114 C 
HETATM   10  C7  UNL     1     -32.790   5.317   1.493  1.00 20.00     0.039 C 
HETATM   11  C8  UNL     1     -32.324   7.779   1.217  1.00 20.00     0.039 C 
ENDBRANCH   8   9
ENDBRANCH   3   8
TORSDOF 2
