REMARK  1 active torsions:
REMARK  status: ('A' for Active; 'I' for Inactive)
REMARK    1  A    between atoms: C2_2  and  O8_8 
ROOT
HETATM    1  C1  UNL     1     -33.182   7.226   5.587  1.00 20.00     0.049 C 
HETATM    2  C2  UNL     1     -33.121   7.117   4.044  1.00 20.00     0.131 C 
HETATM    3  C3  UNL     1     -33.159   5.683   5.649  1.00 20.00     0.070 C 
HETATM    4  C4  UNL     1     -33.714   5.671   4.183  1.00 20.00    -0.008 C 
HETATM    5  C5  UNL     1     -35.235   5.659   3.984  1.00 20.00     0.018 C 
HETATM    6  C6  UNL     1     -33.055   4.605   3.307  1.00 20.00     0.018 C 
HETATM    7 BR9  UNL     1     -34.225   4.873   7.041  1.00 20.00    -0.090 Br
ENDROOT
BRANCH   2   8
HETATM    8  O8  UNL     1     -31.801   7.225   3.473  1.00 20.00    -0.390 OA
HETATM    9  C7  UNL     1     -31.401   8.578   3.388  1.00 20.00     0.202 C 
ENDBRANCH   2   8
TORSDOF 1
