REMARK  1 active torsions:
REMARK  status: ('A' for Active; 'I' for Inactive)
REMARK    1  A    between atoms: C6_6  and  O10_10 
ROOT
HETATM    1  C1  UNL     1     -34.235   4.624   3.458  1.00 20.00     0.001 C 
HETATM    2  C2  UNL     1     -35.369   5.547   3.869  1.00 20.00     0.001 C 
HETATM    3  C3  UNL     1     -33.023   5.177   4.205  1.00 20.00     0.013 C 
HETATM    4  C4  UNL     1     -34.716   6.921   3.796  1.00 20.00     0.013 C 
HETATM    5  C5  UNL     1     -32.487   8.517   5.136  1.00 20.00     0.053 C 
HETATM    6  C6  UNL     1     -32.166   7.657   3.892  1.00 20.00     0.132 C 
HETATM    7  C7  UNL     1     -33.004   7.226   5.808  1.00 20.00     0.095 C 
HETATM    8  C8  UNL     1     -33.307   6.681   4.361  1.00 20.00     0.003 C 
HETATM    9 CL11 UNL     1     -34.295   7.359   7.043  1.00 20.00    -0.124 Cl
ENDROOT
BRANCH   6  10
HETATM   10  O10 UNL     1     -32.311   8.292   2.609  1.00 20.00    -0.390 OA
HETATM   11  C9  UNL     1     -31.986   7.396   1.563  1.00 20.00     0.202 C 
ENDBRANCH   6  10
TORSDOF 1
