REMARK  2 active torsions:
REMARK  status: ('A' for Active; 'I' for Inactive)
REMARK    1  A    between atoms: C5_5  and  C9_9 
REMARK    2  A    between atoms: C6_6  and  C10_10 
ROOT
HETATM    1  C1  UNL     1     -32.472   7.908   3.976  1.00 20.00     0.005 C 
HETATM    2  C2  UNL     1     -32.779   5.524   3.185  1.00 20.00     0.005 C 
HETATM    3  C3  UNL     1     -33.955   7.978   4.342  1.00 20.00     0.006 C 
HETATM    4  C4  UNL     1     -34.262   5.594   3.552  1.00 20.00     0.006 C 
HETATM    5  C5  UNL     1     -32.174   6.897   2.860  1.00 20.00    -0.015 C 
HETATM    6  C6  UNL     1     -34.561   6.606   4.667  1.00 20.00     0.003 C 
ENDROOT
BRANCH   6   7
HETATM    7  C10 UNL     1     -34.095   6.093   6.033  1.00 20.00     0.082 C 
HETATM    8  C8  UNL     1     -34.727   4.752   6.367  1.00 20.00     0.027 C 
HETATM    9 CL11 UNL     1     -34.517   7.288   7.290  1.00 20.00    -0.125 Cl
ENDBRANCH   6   7
BRANCH   5  10
HETATM   10  C9  UNL     1     -32.640   7.410   1.494  1.00 20.00     0.000 C 
HETATM   11  C7  UNL     1     -32.006   8.718   1.151  1.00 20.00     0.005 C 
ENDBRANCH   5  10
TORSDOF 2
