REMARK  2 active torsions:
REMARK  status: ('A' for Active; 'I' for Inactive)
REMARK    1  A    between atoms: C1_1  and  C7_7 
REMARK    2  A    between atoms: C8_8  and  C12_12 
ROOT
HETATM    1  C2  UNL     1     -33.363   4.995   2.871  1.00 20.00     0.001 C 
HETATM    2  C3  UNL     1     -34.440   5.618   3.758  1.00 20.00     0.012 C 
HETATM    3  C4  UNL     1     -32.528   7.242   4.474  1.00 20.00     0.012 C 
HETATM    4  C5  UNL     1     -32.851   5.891   1.736  1.00 20.00     0.005 C 
HETATM    5  C6  UNL     1     -32.302   7.974   3.152  1.00 20.00     0.006 C 
HETATM    6  C7  UNL     1     -33.953   6.732   4.704  1.00 20.00     0.055 C 
HETATM    7  C8  UNL     1     -33.018   7.407   1.920  1.00 20.00    -0.011 C 
ENDROOT
BRANCH   6   8
HETATM    8  C1  UNL     1     -34.040   6.227   6.116  1.00 20.00     0.127 C 
HETATM    9  C9  UNL     1     -34.355   7.243   7.180  1.00 20.00     0.091 C 
HETATM   10  O13 UNL     1     -33.863   5.041   6.388  1.00 20.00    -0.298 OA
ENDBRANCH   6   8
BRANCH   7  11
HETATM   11  C12 UNL     1     -32.529   8.138   0.663  1.00 20.00    -0.019 C 
HETATM   12  C10 UNL     1     -33.146   9.530   0.586  1.00 20.00     0.010 C 
HETATM   13  C11 UNL     1     -31.006   8.218   0.656  1.00 20.00     0.010 C 
ENDBRANCH   7  11
TORSDOF 2
