REMARK  3 active torsions:
REMARK  status: ('A' for Active; 'I' for Inactive)
REMARK    1  A    between atoms: C5_5  and  S11_11 
REMARK    2  A    between atoms: C8_8  and  C9_9 
REMARK    3  A    between atoms: C9_9  and  S11_11 
ROOT
HETATM    1  C1  UNL     1     -33.291   7.072   5.018  1.00 20.00     0.080 C 
HETATM    2  C2  UNL     1     -35.903   5.796   4.234  1.00 20.00     0.009 C 
HETATM    3  C3  UNL     1     -35.065   6.641   3.250  1.00 20.00     0.037 C 
HETATM    4  C4  UNL     1     -34.636   4.935   4.478  1.00 20.00     0.014 C 
HETATM    5  C5  UNL     1     -33.798   6.169   4.010  1.00 20.00     0.100 C 
HETATM    6  C6  UNL     1     -34.466   4.393   5.887  1.00 20.00     0.012 C 
HETATM    7  N10 UNL     1     -32.883   7.797   5.827  1.00 20.00    -0.196 NA
ENDROOT
BRANCH   5   8
HETATM    8  S11 UNL     1     -32.453   5.684   2.865  1.00 20.00    -0.143 SA
BRANCH   8   9
HETATM    9  C9  UNL     1     -32.038   7.333   2.260  1.00 20.00     0.075 C 
BRANCH   9  10
HETATM   10  C8  UNL     1     -33.049   7.789   1.214  1.00 20.00     0.006 C 
HETATM   11  C7  UNL     1     -32.713   9.181   0.698  1.00 20.00     0.006 C 
ENDBRANCH   9  10
ENDBRANCH   8   9
ENDBRANCH   5   8
TORSDOF 3
