REMARK  1 active torsions:
REMARK  status: ('A' for Active; 'I' for Inactive)
REMARK    1  A    between atoms: C6_6  and  C11_11 
ROOT
HETATM    1  C1  UNL     1     -33.003   4.470   3.625  1.00 20.00     0.001 C 
HETATM    2  C2  UNL     1     -33.017   5.456   2.464  1.00 20.00     0.006 C 
HETATM    3  C3  UNL     1     -33.291   7.628   3.815  1.00 20.00     0.007 C 
HETATM    4  C4  UNL     1     -34.245   4.483   4.511  1.00 20.00     0.008 C 
HETATM    5  C5  UNL     1     -33.626   6.934   5.139  1.00 20.00     0.009 C 
HETATM    6  C6  UNL     1     -32.431   6.823   2.835  1.00 20.00     0.003 C 
HETATM    7  C7  UNL     1     -34.719   5.836   5.105  1.00 20.00    -0.048 C 
HETATM    8  C8  UNL     1     -35.977   6.320   4.352  1.00 20.00     0.015 C 
HETATM    9  C9  UNL     1     -35.154   5.574   6.569  1.00 20.00     0.015 C 
ENDROOT
BRANCH   6  10
HETATM   10  C11 UNL     1     -32.205   7.650   1.563  1.00 20.00     0.082 C 
HETATM   11  C10 UNL     1     -31.661   9.026   1.895  1.00 20.00     0.027 C 
HETATM   12 CL12 UNL     1     -33.747   7.799   0.683  1.00 20.00    -0.125 Cl
ENDBRANCH   6  10
TORSDOF 1
