REMARK  1 active torsions:
REMARK  status: ('A' for Active; 'I' for Inactive)
REMARK    1  A    between atoms: C6_6  and  C10_10 
ROOT
HETATM    1  C1  UNL     1     -32.934   5.102   3.125  1.00 20.00     0.001 C 
HETATM    2  C2  UNL     1     -33.073   6.356   2.266  1.00 20.00     0.005 C 
HETATM    3  C3  UNL     1     -32.468   7.788   4.349  1.00 20.00     0.006 C 
HETATM    4  C4  UNL     1     -34.054   4.976   4.160  1.00 20.00     0.008 C 
HETATM    5  C5  UNL     1     -33.806   7.413   4.993  1.00 20.00     0.009 C 
HETATM    6  C6  UNL     1     -32.382   7.605   2.827  1.00 20.00    -0.005 C 
HETATM    7  C7  UNL     1     -33.991   5.923   5.381  1.00 20.00    -0.048 C 
HETATM    8  C8  UNL     1     -35.340   5.804   6.131  1.00 20.00     0.015 C 
HETATM    9  C9  UNL     1     -32.890   5.453   6.354  1.00 20.00     0.015 C 
ENDROOT
BRANCH   6  10
HETATM   10  C10 UNL     1     -32.904   8.848   2.096  1.00 20.00     0.089 C 
HETATM   11 BR11 UNL     1     -32.475   8.707   0.213  1.00 20.00    -0.096 Br
ENDBRANCH   6  10
TORSDOF 1
