REMARK  1 active torsions:
REMARK  status: ('A' for Active; 'I' for Inactive)
REMARK    1  A    between atoms: C1_1  and  C3_3 
REMARK       I    between atoms: C3_3  and  N11_11 
ROOT
HETATM    1  C3  UNL     1     -32.070   7.607   2.995  1.00 20.00     0.243 C 
HETATM    2  C4  UNL     1     -34.560   5.125   4.208  1.00 20.00     0.030 C 
HETATM    3  C5  UNL     1     -33.532   5.524   3.157  1.00 20.00     0.127 C 
HETATM    4  C6  UNL     1     -33.398   7.052   5.012  1.00 20.00     0.134 C 
HETATM    5  C7  UNL     1     -34.024   5.743   5.512  1.00 20.00    -0.030 C 
HETATM    6  C9  UNL     1     -32.958   4.839   6.153  1.00 20.00     0.016 C 
HETATM    7  C10 UNL     1     -35.147   5.998   6.518  1.00 20.00     0.016 C 
HETATM    8  N11 UNL     1     -32.942   6.763   3.657  1.00 20.00    -0.348 N 
HETATM    9  O12 UNL     1     -31.214   8.299   3.544  1.00 20.00    -0.268 OA
ENDROOT
BRANCH   1  10
HETATM   10  C1  UNL     1     -32.192   7.661   1.525  1.00 20.00     0.070 C 
HETATM   11  C2  UNL     1     -32.990   8.523   0.880  1.00 20.00    -0.026 C 
HETATM   12  C8  UNL     1     -33.119   8.579  -0.607  1.00 20.00     0.036 C 
ENDBRANCH   1  10
TORSDOF 1
