REMARK  1 active torsions:
REMARK  status: ('A' for Active; 'I' for Inactive)
REMARK    1  A    between atoms: C1_1  and  C7_7 
ROOT
HETATM    1  C2  UNL     1     -33.503   4.261   3.927  1.00 20.00     0.002 C 
HETATM    2  C3  UNL     1     -33.161   5.379   2.951  1.00 20.00     0.012 C 
HETATM    3  C4  UNL     1     -33.791   7.403   4.344  1.00 20.00     0.013 C 
HETATM    4  C5  UNL     1     -34.556   4.603   4.984  1.00 20.00     0.008 C 
HETATM    5  C6  UNL     1     -33.961   7.006   5.810  1.00 20.00     0.009 C 
HETATM    6  C7  UNL     1     -32.675   6.672   3.603  1.00 20.00     0.055 C 
HETATM    7  C8  UNL     1     -34.107   5.502   6.165  1.00 20.00    -0.048 C 
HETATM    8  C10 UNL     1     -32.794   4.986   6.793  1.00 20.00     0.015 C 
HETATM    9  C11 UNL     1     -35.194   5.389   7.266  1.00 20.00     0.015 C 
ENDROOT
BRANCH   6  10
HETATM   10  C1  UNL     1     -32.155   7.563   2.512  1.00 20.00     0.127 C 
HETATM   11  C9  UNL     1     -33.142   7.989   1.459  1.00 20.00     0.091 C 
HETATM   12  O12 UNL     1     -30.981   7.928   2.481  1.00 20.00    -0.298 OA
ENDBRANCH   6  10
TORSDOF 1
