REMARK  2 active torsions:
REMARK  status: ('A' for Active; 'I' for Inactive)
REMARK    1  A    between atoms: C8_8  and  C9_9 
REMARK    2  A    between atoms: C9_9  and  N11_11 
ROOT
HETATM    1  C1  UNL     1     -34.459   7.299   6.930  1.00 20.00     0.060 C 
HETATM    2  C8  UNL     1     -34.957   5.932   6.714  1.00 20.00     0.154 C 
HETATM    3  N10 UNL     1     -34.068   8.378   7.102  1.00 20.00    -0.197 NA
ENDROOT
BRANCH   2   4
HETATM    4  C9  UNL     1     -34.079   5.153   5.740  1.00 20.00     0.286 C 
BRANCH   4   5
HETATM    5  N11 UNL     1     -34.029   5.814   4.445  1.00 20.00     0.090 N 
HETATM    6  C2  UNL     1     -33.082   6.933   4.419  1.00 20.00     0.277 C 
HETATM    7  C4  UNL     1     -32.683   7.081   2.942  1.00 20.00     0.015 C 
HETATM    8  C5  UNL     1     -33.374   5.903   2.236  1.00 20.00     0.015 C 
HETATM    9  C6  UNL     1     -33.091   8.425   2.352  1.00 20.00     0.012 C 
HETATM   10  C3  UNL     1     -33.615   4.913   3.369  1.00 20.00     0.277 C 
HETATM   11  C7  UNL     1     -32.555   5.312   1.099  1.00 20.00     0.012 C 
ENDBRANCH   4   5
ENDBRANCH   2   4
TORSDOF 2
