REMARK  2 active torsions:
REMARK  status: ('A' for Active; 'I' for Inactive)
REMARK    1  A    between atoms: C5_5  and  C7_7 
REMARK    2  A    between atoms: C6_6  and  C8_8 
ROOT
HETATM    1  C1  UNL     1     -32.930   4.819   2.695  1.00 20.00     0.001 C 
HETATM    2  C2  UNL     1     -32.393   6.049   1.968  1.00 20.00     0.005 C 
HETATM    3  C3  UNL     1     -34.023   5.187   3.695  1.00 20.00     0.013 C 
HETATM    4  C4  UNL     1     -33.007   7.487   3.955  1.00 20.00     0.018 C 
HETATM    5  C5  UNL     1     -31.903   7.118   2.953  1.00 20.00    -0.004 C 
HETATM    6  C6  UNL     1     -33.543   6.250   4.691  1.00 20.00     0.094 C 
ENDROOT
BRANCH   6   7
HETATM    7  C8  UNL     1     -34.668   6.638   5.649  1.00 20.00     0.391 C 
HETATM    8  F9  UNL     1     -34.225   7.542   6.536  1.00 20.00    -0.171 F 
HETATM    9  F10 UNL     1     -35.693   7.167   4.963  1.00 20.00    -0.171 F 
HETATM   10  F11 UNL     1     -35.101   5.555   6.311  1.00 20.00    -0.171 F 
ENDBRANCH   6   7
BRANCH   5  11
HETATM   11  C7  UNL     1     -31.419   8.358   2.205  1.00 20.00     0.089 C 
HETATM   12 BR12 UNL     1     -32.863   9.062   1.119  1.00 20.00    -0.096 Br
ENDBRANCH   5  11
TORSDOF 2
