REMARK  1 active torsions:
REMARK  status: ('A' for Active; 'I' for Inactive)
REMARK    1  A    between atoms: C4_4  and  C9_9 
ROOT
HETATM    1  C1  UNL     1     -33.909   4.930   3.890  1.00 20.00     0.032 C 
HETATM    2  C2  UNL     1     -34.134   7.429   3.695  1.00 20.00     0.043 C 
HETATM    3  C3  UNL     1     -32.534   5.079   3.258  1.00 20.00     0.169 C 
HETATM    4  C4  UNL     1     -34.354   6.209   4.602  1.00 20.00     0.008 C 
HETATM    5  C5  UNL     1     -32.799   7.455   2.919  1.00 20.00     0.054 C 
HETATM    6  C6  UNL     1     -31.618   7.953   3.762  1.00 20.00     0.045 C 
HETATM    7  C7  UNL     1     -32.948   8.415   1.725  1.00 20.00     0.045 C 
HETATM    8  O10 UNL     1     -32.507   6.173   2.346  1.00 20.00    -0.381 OA
ENDROOT
BRANCH   4   9
HETATM    9  C9  UNL     1     -33.710   6.352   5.981  1.00 20.00     0.082 C 
HETATM   10  C8  UNL     1     -34.103   5.207   6.899  1.00 20.00     0.027 C 
HETATM   11 CL11 UNL     1     -34.206   7.905   6.708  1.00 20.00    -0.125 Cl
ENDBRANCH   4   9
TORSDOF 1
