REMARK  2 active torsions:
REMARK  status: ('A' for Active; 'I' for Inactive)
REMARK    1  A    between atoms: C3_3  and  C6_6 
REMARK    2  A    between atoms: C6_6  and  C7_7 
ROOT
HETATM    1  C4  UNL     1     -33.415   7.571   5.731  1.00 20.00     0.011 C 
HETATM    2  C6  UNL     1     -34.000   6.723   4.626  1.00 20.00    -0.001 C 
ENDROOT
BRANCH   2   3
HETATM    3  C3  UNL     1     -34.766   5.540   5.230  1.00 20.00    -0.010 A 
HETATM    4  C1  UNL     1     -34.036   4.490   6.023  1.00 20.00     0.005 A 
HETATM    5  C2  UNL     1     -34.964   5.447   6.718  1.00 20.00     0.005 A 
ENDBRANCH   2   3
BRANCH   2   6
HETATM    6  C7  UNL     1     -32.960   6.231   3.599  1.00 20.00     0.058 C 
HETATM    7  C5  UNL     1     -33.432   5.153   2.634  1.00 20.00     0.022 C 
HETATM    8 BR8  UNL     1     -32.279   7.749   2.548  1.00 20.00    -0.091 Br
ENDBRANCH   2   6
TORSDOF 2
