REMARK  2 active torsions:
REMARK  status: ('A' for Active; 'I' for Inactive)
REMARK    1  A    between atoms: C5_5  and  S10_10 
REMARK    2  A    between atoms: C8_8  and  S10_10 
ROOT
HETATM    1  C1  UNL     1     -35.106   5.851   4.254  1.00 20.00     0.080 C 
HETATM    2  C2  UNL     1     -32.091   6.956   3.074  1.00 20.00     0.009 C 
HETATM    3  C3  UNL     1     -33.068   7.372   4.193  1.00 20.00     0.037 C 
HETATM    4  C4  UNL     1     -33.082   5.823   2.703  1.00 20.00     0.014 C 
HETATM    5  C5  UNL     1     -33.670   5.942   4.147  1.00 20.00     0.100 C 
HETATM    6  C6  UNL     1     -32.466   4.540   2.172  1.00 20.00     0.012 C 
HETATM    7  N9  UNL     1     -36.261   5.778   4.340  1.00 20.00    -0.196 NA
ENDROOT
BRANCH   5   8
HETATM    8  S10 UNL     1     -32.884   4.842   5.392  1.00 20.00    -0.144 SA
BRANCH   8   9
HETATM    9  C8  UNL     1     -34.018   5.174   6.756  1.00 20.00     0.071 C 
HETATM   10  C7  UNL     1     -34.003   6.648   7.115  1.00 20.00     0.016 C 
ENDBRANCH   8   9
ENDBRANCH   5   8
TORSDOF 2
