REMARK  2 active torsions:
REMARK  status: ('A' for Active; 'I' for Inactive)
REMARK    1  A    between atoms: C4_4  and  C9_9 
REMARK    2  A    between atoms: C5_5  and  C8_8 
ROOT
HETATM    1  C1  UNL     1     -33.827   4.856   3.527  1.00 20.00     0.032 C 
HETATM    2  C2  UNL     1     -33.774   7.357   3.785  1.00 20.00     0.038 C 
HETATM    3  C3  UNL     1     -32.768   4.947   2.427  1.00 20.00     0.168 C 
HETATM    4  C4  UNL     1     -33.683   6.008   4.519  1.00 20.00     0.008 C 
HETATM    5  C5  UNL     1     -33.347   7.250   2.315  1.00 20.00     0.121 C 
HETATM    6  O10 UNL     1     -32.310   6.280   2.185  1.00 20.00    -0.386 OA
ENDROOT
BRANCH   4   7
HETATM    7  C9  UNL     1     -34.712   5.917   5.641  1.00 20.00     0.082 C 
HETATM    8  C7  UNL     1     -34.539   4.641   6.447  1.00 20.00     0.027 C 
HETATM    9 CL11 UNL     1     -34.546   7.334   6.710  1.00 20.00    -0.125 Cl
ENDBRANCH   4   7
BRANCH   5  10
HETATM   10  C8  UNL     1     -32.832   8.582   1.788  1.00 20.00     0.027 C 
HETATM   11  C6  UNL     1     -32.382   8.480   0.366  1.00 20.00     0.007 C 
ENDBRANCH   5  10
TORSDOF 2
