REMARK  2 active torsions:
REMARK  status: ('A' for Active; 'I' for Inactive)
REMARK    1  A    between atoms: C4_4  and  C8_8 
REMARK    2  A    between atoms: C5_5  and  C9_9 
ROOT
HETATM    1  C1  UNL     1     -32.485   5.771   2.343  1.00 20.00     0.005 C 
HETATM    2  C2  UNL     1     -33.304   5.261   3.533  1.00 20.00     0.006 C 
HETATM    3  C3  UNL     1     -33.574   7.645   3.393  1.00 20.00     0.010 C 
HETATM    4  C4  UNL     1     -32.370   7.288   2.525  1.00 20.00    -0.014 C 
HETATM    5  C5  UNL     1     -33.610   6.491   4.391  1.00 20.00    -0.000 C 
ENDROOT
BRANCH   5   6
HETATM    6  C9  UNL     1     -34.929   6.389   5.138  1.00 20.00     0.058 C 
HETATM    7  C7  UNL     1     -36.101   6.139   4.205  1.00 20.00     0.022 C 
HETATM    8 BR10 UNL     1     -34.819   4.913   6.419  1.00 20.00    -0.091 Br
ENDBRANCH   5   6
BRANCH   4   9
HETATM    9  C8  UNL     1     -32.333   8.049   1.211  1.00 20.00     0.000 C 
HETATM   10  C6  UNL     1     -32.242   9.528   1.423  1.00 20.00     0.005 C 
ENDBRANCH   4   9
TORSDOF 2
