REMARK  1 active torsions:
REMARK  status: ('A' for Active; 'I' for Inactive)
REMARK    1  A    between atoms: C9_9  and  N10_10 
ROOT
HETATM    1  C1  UNL     1     -32.673   9.599   0.209  1.00 20.00     0.013 C 
HETATM    2  C2  UNL     1     -32.464   8.559   0.772  1.00 20.00    -0.087 C 
HETATM    3  C9  UNL     1     -32.204   7.289   1.456  1.00 20.00     0.364 C 
ENDROOT
BRANCH   3   4
HETATM    4  N10 UNL     1     -33.186   7.061   2.504  1.00 20.00     0.100 N 
HETATM    5  C3  UNL     1     -33.276   5.650   2.897  1.00 20.00     0.278 C 
HETATM    6  C5  UNL     1     -33.810   5.673   4.337  1.00 20.00     0.015 C 
HETATM    7  C6  UNL     1     -33.868   7.165   4.704  1.00 20.00     0.015 C 
HETATM    8  C7  UNL     1     -35.167   4.994   4.475  1.00 20.00     0.012 C 
HETATM    9  C4  UNL     1     -32.884   7.800   3.730  1.00 20.00     0.278 C 
HETATM   10  C8  UNL     1     -33.524   7.446   6.159  1.00 20.00     0.012 C 
ENDBRANCH   3   4
TORSDOF 1
