REMARK  3 active torsions:
REMARK  status: ('A' for Active; 'I' for Inactive)
REMARK    1  A    between atoms: C1_1  and  C7_7 
REMARK    2  A    between atoms: C8_8  and  C11_11 
REMARK    3  A    between atoms: C11_11  and  C12_12 
ROOT
HETATM    1  C2  UNL     1     -31.767   7.650   3.878  1.00 20.00     0.001 C 
HETATM    2  C3  UNL     1     -33.022   7.303   4.677  1.00 20.00     0.012 C 
HETATM    3  C4  UNL     1     -34.211   5.438   3.417  1.00 20.00     0.012 C 
HETATM    4  C5  UNL     1     -31.385   6.753   2.704  1.00 20.00     0.005 C 
HETATM    5  C6  UNL     1     -33.348   5.205   2.181  1.00 20.00     0.005 C 
HETATM    6  C7  UNL     1     -33.430   5.831   4.674  1.00 20.00     0.055 C 
HETATM    7  C8  UNL     1     -32.484   6.380   1.700  1.00 20.00    -0.014 C 
ENDROOT
BRANCH   6   8
HETATM    8  C1  UNL     1     -34.314   5.595   5.865  1.00 20.00     0.127 C 
HETATM    9  C9  UNL     1     -33.835   4.586   6.874  1.00 20.00     0.091 C 
HETATM   10  O13 UNL     1     -35.376   6.198   6.010  1.00 20.00    -0.298 OA
ENDBRANCH   6   8
BRANCH   7  11
HETATM   11  C11 UNL     1     -33.311   7.575   1.227  1.00 20.00     0.004 C 
BRANCH  11  12
HETATM   12  C12 UNL     1     -32.425   8.627   0.575  1.00 20.00    -0.004 C 
HETATM   13  C10 UNL     1     -33.251   9.805   0.082  1.00 20.00     0.005 C 
ENDBRANCH  11  12
ENDBRANCH   7  11
TORSDOF 3
