REMARK  2 active torsions:
REMARK  status: ('A' for Active; 'I' for Inactive)
REMARK    1  A    between atoms: C4_4  and  C9_9 
REMARK    2  A    between atoms: C5_5  and  C8_8 
ROOT
HETATM    1  C1  UNL     1     -34.015   5.144   3.882  1.00 20.00     0.032 C 
HETATM    2  C2  UNL     1     -32.754   7.184   4.597  1.00 20.00     0.038 C 
HETATM    3  C3  UNL     1     -33.530   5.413   2.464  1.00 20.00     0.168 C 
HETATM    4  C4  UNL     1     -34.093   6.444   4.686  1.00 20.00     0.008 C 
HETATM    5  C5  UNL     1     -32.274   7.346   3.152  1.00 20.00     0.121 C 
HETATM    6  O10 UNL     1     -32.276   6.092   2.464  1.00 20.00    -0.386 OA
ENDROOT
BRANCH   4   7
HETATM    7  C9  UNL     1     -34.472   6.168   6.139  1.00 20.00     0.082 C 
HETATM    8  C7  UNL     1     -33.432   5.300   6.825  1.00 20.00     0.027 C 
HETATM    9 CL11 UNL     1     -34.637   7.716   7.009  1.00 20.00    -0.125 Cl
ENDBRANCH   4   7
BRANCH   5  10
HETATM   10  C8  UNL     1     -33.043   8.412   2.374  1.00 20.00     0.027 C 
HETATM   11  C6  UNL     1     -32.522   8.569   0.981  1.00 20.00     0.007 C 
ENDBRANCH   5  10
TORSDOF 2
