REMARK  3 active torsions:
REMARK  status: ('A' for Active; 'I' for Inactive)
REMARK    1  A    between atoms: C4_4  and  C5_5 
REMARK    2  A    between atoms: C4_4  and  O7_7 
REMARK    3  A    between atoms: C5_5  and  C6_6 
ROOT
HETATM    1  C1  UNL     1     -34.087   7.896   6.969  1.00 20.00     0.014 C 
HETATM    2  C5  UNL     1     -34.259   7.168   5.652  1.00 20.00     0.023 C 
ENDROOT
BRANCH   2   3
HETATM    3  C4  UNL     1     -33.054   7.432   4.732  1.00 20.00     0.172 C 
BRANCH   3   4
HETATM    4  O7  UNL     1     -33.417   7.157   3.383  1.00 20.00    -0.396 OA
HETATM    5  C3  UNL     1     -32.319   7.343   2.502  1.00 20.00     0.201 C 
ENDBRANCH   3   4
ENDBRANCH   2   3
BRANCH   2   6
HETATM    6  C6  UNL     1     -34.518   5.650   5.819  1.00 20.00     0.084 C 
HETATM    7  C2  UNL     1     -33.693   5.011   6.932  1.00 20.00     0.027 C 
HETATM    8 CL8  UNL     1     -34.261   4.734   4.300  1.00 20.00    -0.125 Cl
ENDBRANCH   2   6
TORSDOF 3
