REMARK  2 active torsions:
REMARK  status: ('A' for Active; 'I' for Inactive)
REMARK    1  A    between atoms: C2_2  and  C3_3 
REMARK    2  A    between atoms: C2_2  and  N4_4 
ROOT
HETATM    1  C1  UNL     1     -33.195   6.656   3.468  1.00 20.00     0.332 C 
HETATM    2  N4  UNL     1     -33.913   5.842   3.914  1.00 20.00    -0.242 NA
HETATM    3  O5  UNL     1     -32.473   7.470   3.020  1.00 20.00    -0.260 OA
ENDROOT
BRANCH   2   4
HETATM    4  C2  UNL     1     -34.986   6.378   4.754  1.00 20.00     0.224 C 
BRANCH   4   5
HETATM    5  C3  UNL     1     -34.512   6.432   6.188  1.00 20.00     0.372 C 
HETATM    6  F6  UNL     1     -33.408   7.212   6.285  1.00 20.00    -0.213 F 
HETATM    7  F7  UNL     1     -34.162   5.192   6.610  1.00 20.00    -0.213 F 
ENDBRANCH   4   5
ENDBRANCH   2   4
TORSDOF 2
