REMARK  2 active torsions:
REMARK  status: ('A' for Active; 'I' for Inactive)
REMARK    1  A    between atoms: C2_2  and  C3_3 
REMARK    2  A    between atoms: C2_2  and  C10_10 
ROOT
HETATM    1  C1  UNL     1     -32.235   8.007   1.244  1.00 20.00     0.066 C 
HETATM    2  C10 UNL     1     -31.964   7.038   2.311  1.00 20.00     0.202 C 
HETATM    3  N11 UNL     1     -32.446   8.770   0.396  1.00 20.00    -0.197 NA
ENDROOT
BRANCH   2   4
HETATM    4  C2  UNL     1     -32.562   7.462   3.632  1.00 20.00     0.145 C 
HETATM    5  O12 UNL     1     -32.706   8.623   3.996  1.00 20.00    -0.296 OA
BRANCH   4   6
HETATM    6  C3  UNL     1     -32.984   6.363   4.511  1.00 20.00     0.073 A 
HETATM    7  C4  UNL     1     -34.342   5.699   4.348  1.00 20.00    -0.029 A 
HETATM    8  C5  UNL     1     -34.045   6.571   5.581  1.00 20.00    -0.029 A 
HETATM    9  C6  UNL     1     -34.404   4.195   4.500  1.00 20.00     0.016 C 
HETATM   10  C7  UNL     1     -35.310   6.200   3.297  1.00 20.00     0.016 C 
HETATM   11  C8  UNL     1     -34.724   7.915   5.725  1.00 20.00     0.016 C 
HETATM   12  C9  UNL     1     -33.820   5.906   6.922  1.00 20.00     0.016 C 
ENDBRANCH   4   6
ENDBRANCH   2   4
TORSDOF 2
