REMARK  1 active torsions:
REMARK  status: ('A' for Active; 'I' for Inactive)
REMARK    1  A    between atoms: C1_1  and  C2_2 
ROOT
HETATM    1  C2  UNL     1     -33.047   6.210   4.538  1.00 20.00     0.089 A 
HETATM    2  C3  UNL     1     -34.101   5.409   5.286  1.00 20.00    -0.028 A 
HETATM    3  C4  UNL     1     -34.294   6.916   5.047  1.00 20.00    -0.028 A 
HETATM    4  C5  UNL     1     -33.746   4.918   6.673  1.00 20.00     0.016 C 
HETATM    5  C6  UNL     1     -34.970   4.418   4.543  1.00 20.00     0.016 C 
HETATM    6  C7  UNL     1     -35.351   7.387   4.071  1.00 20.00     0.016 C 
HETATM    7  C8  UNL     1     -34.126   7.879   6.203  1.00 20.00     0.016 C 
ENDROOT
BRANCH   1   8
HETATM    8  C1  UNL     1     -32.816   6.011   3.101  1.00 20.00     0.224 C 
HETATM    9  O9  UNL     1     -33.112   4.961   2.539  1.00 20.00    -0.279 OA
HETATM   10 CL10 UNL     1     -32.100   7.407   2.354  1.00 20.00    -0.043 Cl
ENDBRANCH   1   8
TORSDOF 1
