REMARK  4 active torsions:
REMARK  status: ('A' for Active; 'I' for Inactive)
REMARK    1  A    between atoms: C5_5  and  C7_7 
REMARK    2  A    between atoms: C6_6  and  C8_8 
REMARK    3  A    between atoms: C7_7  and  C8_8 
REMARK    4  A    between atoms: C8_8  and  O10_10 
ROOT
HETATM    1  C1  UNL     1     -32.879   6.880   3.588  1.00 20.00     0.067 C 
HETATM    2  C7  UNL     1     -33.158   5.529   4.137  1.00 20.00     0.126 C 
HETATM    3  N9  UNL     1     -32.657   7.936   3.162  1.00 20.00    -0.197 NA
ENDROOT
BRANCH   2   4
HETATM    4  C5  UNL     1     -33.031   4.472   3.020  1.00 20.00     0.018 C 
HETATM    5  C2  UNL     1     -31.673   4.502   2.323  1.00 20.00     0.006 C 
ENDBRANCH   2   4
BRANCH   2   6
HETATM    6  C8  UNL     1     -34.539   5.507   4.877  1.00 20.00     0.070 C 
HETATM    7  C4  UNL     1     -35.578   6.429   4.223  1.00 20.00     0.047 C 
BRANCH   6   8
HETATM    8  C6  UNL     1     -34.368   5.849   6.381  1.00 20.00     0.034 C 
HETATM    9  C3  UNL     1     -33.902   7.274   6.666  1.00 20.00     0.008 C 
ENDBRANCH   6   8
BRANCH   6  10
HETATM   10  O10 UNL     1     -35.059   4.170   4.798  1.00 20.00    -0.389 OA
HETATM   11  H25 UNL     1     -35.896   4.182   5.281  1.00 20.00     0.210 HD
ENDBRANCH   6  10
ENDBRANCH   2   6
TORSDOF 4
