REMARK  4 active torsions:
REMARK  status: ('A' for Active; 'I' for Inactive)
REMARK    1  A    between atoms: C5_5  and  C7_7 
REMARK    2  A    between atoms: C6_6  and  C8_8 
REMARK    3  A    between atoms: C7_7  and  C8_8 
REMARK    4  A    between atoms: C8_8  and  O10_10 
ROOT
HETATM    1  C1  UNL     1     -32.618   6.869   4.051  1.00 20.00     0.067 C 
HETATM    2  C7  UNL     1     -32.998   5.995   5.190  1.00 20.00     0.126 C 
HETATM    3  N9  UNL     1     -32.318   7.550   3.161  1.00 20.00    -0.197 NA
ENDROOT
BRANCH   2   4
HETATM    4  C5  UNL     1     -33.090   6.831   6.484  1.00 20.00     0.018 C 
HETATM    5  C2  UNL     1     -34.196   7.883   6.437  1.00 20.00     0.006 C 
ENDBRANCH   2   4
BRANCH   2   6
HETATM    6  C8  UNL     1     -34.303   5.192   4.863  1.00 20.00     0.070 C 
HETATM    7  C4  UNL     1     -35.285   5.985   3.990  1.00 20.00     0.047 C 
BRANCH   6   8
HETATM    8  C6  UNL     1     -33.964   3.827   4.208  1.00 20.00     0.034 C 
HETATM    9  C3  UNL     1     -33.319   3.919   2.828  1.00 20.00     0.008 C 
ENDBRANCH   6   8
BRANCH   6  10
HETATM   10  O10 UNL     1     -34.973   4.917   6.104  1.00 20.00    -0.389 OA
HETATM   11  H25 UNL     1     -35.758   4.403   5.872  1.00 20.00     0.210 HD
ENDBRANCH   6  10
ENDBRANCH   2   6
TORSDOF 4
