REMARK  3 active torsions:
REMARK  status: ('A' for Active; 'I' for Inactive)
REMARK    1  A    between atoms: C3_3  and  C11_11 
REMARK    2  A    between atoms: C8_8  and  N12_12 
REMARK    3  A    between atoms: C11_11  and  N12_12 
ROOT
HETATM    1  C1  UNL     1     -34.364   6.586   5.916  1.00 20.00     0.127 C 
HETATM    2  C4  UNL     1     -33.268   7.631   5.850  1.00 20.00     0.080 C 
HETATM    3  C5  UNL     1     -34.840   5.996   4.604  1.00 20.00     0.080 C 
HETATM    4  C6  UNL     1     -32.416   7.406   4.607  1.00 20.00     0.040 C 
HETATM    5  C7  UNL     1     -34.696   7.024   3.489  1.00 20.00     0.040 C 
HETATM    6  C8  UNL     1     -33.253   7.515   3.327  1.00 20.00     0.189 C 
HETATM    7  O13 UNL     1     -34.846   6.231   6.991  1.00 20.00    -0.298 OA
ENDROOT
BRANCH   6   8
HETATM    8  N12 UNL     1     -32.578   6.719   2.263  1.00 20.00    -0.067 N 
HETATM    9  C10 UNL     1     -32.793   5.236   2.429  1.00 20.00     0.270 C 
HETATM   10  H33 UNL     1     -31.560   6.874   2.354  1.00 20.00     0.280 HD
BRANCH   8  11
HETATM   11  C11 UNL     1     -32.951   7.176   0.876  1.00 20.00     0.268 C 
BRANCH  11  12
HETATM   12  C3  UNL     1     -32.247   8.431   0.445  1.00 20.00    -0.068 C 
HETATM   13  C2  UNL     1     -32.769   9.644   0.683  1.00 20.00     0.015 C 
HETATM   14  C9  UNL     1     -30.918   8.268  -0.234  1.00 20.00     0.044 C 
ENDBRANCH  11  12
ENDBRANCH   8  11
ENDBRANCH   6   8
TORSDOF 3
