REMARK  4 active torsions:
REMARK  status: ('A' for Active; 'I' for Inactive)
REMARK    1  A    between atoms: C4_4  and  C9_9 
REMARK    2  A    between atoms: C7_7  and  C9_9 
REMARK    3  A    between atoms: C8_8  and  C9_9 
REMARK    4  A    between atoms: C9_9  and  O11_11 
ROOT
HETATM    1  C1  UNL     1     -31.936   7.241   3.087  1.00 20.00     0.066 C 
HETATM    2  C6  UNL     1     -33.359   5.385   2.387  1.00 20.00     0.028 C 
HETATM    3  C8  UNL     1     -32.803   6.154   3.596  1.00 20.00     0.123 C 
HETATM    4  N10 UNL     1     -31.253   8.091   2.687  1.00 20.00    -0.197 NA
ENDROOT
BRANCH   3   5
HETATM    5  C9  UNL     1     -33.913   6.702   4.547  1.00 20.00     0.077 C 
BRANCH   5   6
HETATM    6  C4  UNL     1     -34.777   5.572   5.081  1.00 20.00     0.021 A 
HETATM    7  C2  UNL     1     -34.190   4.203   5.291  1.00 20.00     0.008 A 
HETATM    8  C3  UNL     1     -34.564   5.050   6.475  1.00 20.00     0.008 A 
ENDBRANCH   5   6
BRANCH   5   9
HETATM    9  C7  UNL     1     -33.358   7.542   5.731  1.00 20.00     0.035 C 
HETATM   10  C5  UNL     1     -34.407   8.193   6.623  1.00 20.00     0.008 C 
ENDBRANCH   5   9
BRANCH   5  11
HETATM   11  O11 UNL     1     -34.765   7.571   3.784  1.00 20.00    -0.388 OA
HETATM   12  H26 UNL     1     -35.440   7.888   4.399  1.00 20.00     0.210 HD
ENDBRANCH   5  11
ENDBRANCH   3   5
TORSDOF 4
