REMARK  4 active torsions:
REMARK  status: ('A' for Active; 'I' for Inactive)
REMARK    1  A    between atoms: C4_4  and  C9_9 
REMARK    2  A    between atoms: C7_7  and  C8_8 
REMARK    3  A    between atoms: C8_8  and  C9_9 
REMARK    4  A    between atoms: C9_9  and  O11_11 
ROOT
HETATM    1  C1  UNL     1     -33.254   4.992   2.778  1.00 20.00     0.067 C 
HETATM    2  C8  UNL     1     -33.493   5.977   3.861  1.00 20.00     0.126 C 
HETATM    3  N10 UNL     1     -33.062   4.224   1.930  1.00 20.00    -0.197 NA
ENDROOT
BRANCH   2   4
HETATM    4  C7  UNL     1     -33.467   7.403   3.258  1.00 20.00     0.018 C 
HETATM    5  C5  UNL     1     -32.165   7.720   2.527  1.00 20.00     0.006 C 
ENDBRANCH   2   4
BRANCH   2   6
HETATM    6  C9  UNL     1     -34.821   5.657   4.623  1.00 20.00     0.074 C 
HETATM    7  C6  UNL     1     -36.001   6.379   3.998  1.00 20.00     0.047 C 
BRANCH   6   8
HETATM    8  C4  UNL     1     -34.741   6.053   6.110  1.00 20.00     0.021 A 
HETATM    9  C2  UNL     1     -33.737   5.396   7.016  1.00 20.00     0.008 A 
HETATM   10  C3  UNL     1     -33.563   6.836   6.622  1.00 20.00     0.008 A 
ENDBRANCH   6   8
BRANCH   6  11
HETATM   11  O11 UNL     1     -35.069   4.249   4.553  1.00 20.00    -0.388 OA
HETATM   12  H26 UNL     1     -35.909   4.099   5.010  1.00 20.00     0.210 HD
ENDBRANCH   6  11
ENDBRANCH   2   6
TORSDOF 4
