REMARK  3 active torsions:
REMARK  status: ('A' for Active; 'I' for Inactive)
REMARK    1  A    between atoms: C5_5  and  C7_7 
REMARK    2  A    between atoms: C6_6  and  C7_7 
REMARK    3  A    between atoms: C6_6  and  O9_9 
ROOT
HETATM    1  C1  UNL     1     -32.647   7.187   2.675  1.00 20.00     0.071 C 
HETATM    2  C4  UNL     1     -34.889   7.649   3.559  1.00 20.00     0.034 C 
HETATM    3  C7  UNL     1     -33.580   6.861   3.784  1.00 20.00     0.070 C 
HETATM    4  N8  UNL     1     -31.918   7.443   1.809  1.00 20.00    -0.196 NA
ENDROOT
BRANCH   3   5
HETATM    5  C5  UNL     1     -33.856   5.330   3.795  1.00 20.00     0.022 C 
HETATM    6  C2  UNL     1     -34.805   4.835   4.885  1.00 20.00     0.007 C 
ENDBRANCH   3   5
BRANCH   3   7
HETATM    7  C6  UNL     1     -32.956   7.295   5.150  1.00 20.00     0.136 C 
HETATM    8  C3  UNL     1     -33.955   7.735   6.221  1.00 20.00     0.041 C 
BRANCH   7   9
HETATM    9  O9  UNL     1     -32.029   8.366   4.942  1.00 20.00    -0.394 OA
HETATM   10  H22 UNL     1     -31.597   8.519   5.794  1.00 20.00     0.210 HD
ENDBRANCH   7   9
ENDBRANCH   3   7
TORSDOF 3
