REMARK  1 active torsions:
REMARK  status: ('A' for Active; 'I' for Inactive)
REMARK    1  A    between atoms: C6_6  and  C10_10 
ROOT
HETATM    1  C1  UNL     1     -32.943   5.392   2.593  1.00 20.00    -0.025 A 
HETATM    2  C2  UNL     1     -33.933   5.133   3.462  1.00 20.00    -0.020 A 
HETATM    3  C3  UNL     1     -34.436   7.544   4.205  1.00 20.00     0.020 A 
HETATM    4  C4  UNL     1     -32.229   6.665   2.997  1.00 20.00     0.009 A 
HETATM    5  C5  UNL     1     -32.976   7.160   4.229  1.00 20.00     0.006 A 
HETATM    6  C6  UNL     1     -34.050   6.128   4.553  1.00 20.00    -0.015 A 
HETATM    7  C7  UNL     1     -32.202   7.702   1.884  1.00 20.00     0.014 C 
ENDROOT
BRANCH   6   8
HETATM    8  C10 UNL     1     -34.206   5.639   5.957  1.00 20.00    -0.010 C 
HETATM    9  C8  UNL     1     -34.277   6.804   6.960  1.00 20.00     0.010 C 
HETATM   10  C9  UNL     1     -35.454   4.753   6.115  1.00 20.00     0.010 C 
ENDBRANCH   6   8
TORSDOF 1
