REMARK  0 active torsions:
REMARK  status: ('A' for Active; 'I' for Inactive)
ROOT
HETATM    1  C1  UNL     1     -33.239   5.630   3.252  1.00 20.00    -0.058 C 
HETATM    2  C2  UNL     1     -32.801   7.026   3.233  1.00 20.00    -0.061 C 
HETATM    3  C3  UNL     1     -33.957   5.892   5.636  1.00 20.00    -0.085 C 
HETATM    4  C4  UNL     1     -32.725   4.695   2.436  1.00 20.00     0.020 C 
HETATM    5  C5  UNL     1     -32.710   7.749   2.106  1.00 20.00     0.019 C 
HETATM    6  C6  UNL     1     -33.948   5.173   6.768  1.00 20.00     0.014 C 
HETATM    7  C7  UNL     1     -34.287   5.291   4.291  1.00 20.00     0.071 C 
HETATM    8  C8  UNL     1     -32.492   7.618   4.591  1.00 20.00     0.042 C 
HETATM    9  C9  UNL     1     -33.613   7.359   5.604  1.00 20.00     0.038 C 
ENDROOT
TORSDOF 0
