REMARK  1 active torsions:
REMARK  status: ('A' for Active; 'I' for Inactive)
REMARK    1  A    between atoms: C6_6  and  C10_10 
ROOT
HETATM    1  C1  UNL     1     -34.163   6.838   6.852  1.00 20.00    -0.025 A 
HETATM    2  C2  UNL     1     -33.850   7.482   5.716  1.00 20.00    -0.020 A 
HETATM    3  C3  UNL     1     -34.929   5.836   4.058  1.00 20.00     0.020 A 
HETATM    4  C4  UNL     1     -34.302   5.353   6.581  1.00 20.00     0.009 A 
HETATM    5  C5  UNL     1     -34.025   5.207   5.087  1.00 20.00     0.006 A 
HETATM    6  C6  UNL     1     -33.714   6.593   4.541  1.00 20.00    -0.015 A 
HETATM    7  C7  UNL     1     -33.317   4.546   7.417  1.00 20.00     0.014 C 
ENDROOT
BRANCH   6   8
HETATM    8  C10 UNL     1     -32.544   6.781   3.629  1.00 20.00    -0.010 C 
HETATM    9  C8  UNL     1     -32.542   5.751   2.485  1.00 20.00     0.010 C 
HETATM   10  C9  UNL     1     -32.506   8.200   3.037  1.00 20.00     0.010 C 
ENDBRANCH   6   8
TORSDOF 1
