REMARK  4 active torsions:
REMARK  status: ('A' for Active; 'I' for Inactive)
REMARK    1  A    between atoms: C2_2  and  C7_7 
REMARK    2  A    between atoms: C6_6  and  C7_7 
REMARK    3  A    between atoms: C6_6  and  S9_9 
REMARK    4  A    between atoms: C7_7  and  N8_8 
ROOT
HETATM    1  C7  UNL     1     -33.336   6.888   4.825  1.00 20.00     0.257 C 
ENDROOT
BRANCH   1   2
HETATM    2  C2  UNL     1     -34.589   6.025   4.768  1.00 20.00    -0.060 C 
HETATM    3  C1  UNL     1     -35.728   6.496   4.233  1.00 20.00     0.016 C 
HETATM    4  C3  UNL     1     -34.528   4.628   5.326  1.00 20.00     0.044 C 
ENDBRANCH   1   2
BRANCH   1   5
HETATM    5  C6  UNL     1     -32.122   6.291   4.090  1.00 20.00     0.113 C 
BRANCH   5   6
HETATM    6  S9  UNL     1     -32.445   5.999   2.321  1.00 20.00    -0.171 SA
HETATM    7  C5  UNL     1     -32.237   7.696   1.739  1.00 20.00     0.089 C 
ENDBRANCH   5   6
ENDBRANCH   1   5
BRANCH   1   8
HETATM    8  N8  UNL     1     -32.951   7.157   6.219  1.00 20.00     0.088 N 
HETATM    9  C4  UNL     1     -33.769   8.219   6.774  1.00 20.00     0.307 C 
HETATM   10  H24 UNL     1     -31.973   7.430   6.235  1.00 20.00     0.316 HD
ENDBRANCH   1   8
TORSDOF 4
