REMARK  4 active torsions:
REMARK  status: ('A' for Active; 'I' for Inactive)
REMARK    1  A    between atoms: C2_2  and  C9_9 
REMARK    2  A    between atoms: C5_5  and  C9_9 
REMARK    3  A    between atoms: C8_8  and  C9_9 
REMARK    4  A    between atoms: C9_9  and  O10_10 
ROOT
HETATM    1  C9  UNL     1     -33.773   6.359   4.471  1.00 20.00     0.083 C 
ENDROOT
BRANCH   1   2
HETATM    2  C2  UNL     1     -33.505   5.102   3.630  1.00 20.00    -0.059 C 
HETATM    3  C1  UNL     1     -33.040   5.128   2.369  1.00 20.00     0.017 C 
HETATM    4  C6  UNL     1     -33.777   3.767   4.282  1.00 20.00     0.046 C 
ENDBRANCH   1   2
BRANCH   1   5
HETATM    5  C5  UNL     1     -33.604   6.210   5.976  1.00 20.00     0.024 A 
HETATM    6  C3  UNL     1     -34.335   7.129   6.914  1.00 20.00     0.008 A 
HETATM    7  C4  UNL     1     -34.734   5.683   6.815  1.00 20.00     0.008 A 
ENDBRANCH   1   5
BRANCH   1   8
HETATM    8  C8  UNL     1     -32.942   7.572   3.973  1.00 20.00     0.038 C 
HETATM    9  C7  UNL     1     -31.430   7.386   4.008  1.00 20.00     0.008 C 
ENDBRANCH   1   8
BRANCH   1  10
HETATM   10  O10 UNL     1     -35.150   6.729   4.262  1.00 20.00    -0.385 OA
HETATM   11  H26 UNL     1     -35.671   5.973   4.559  1.00 20.00     0.211 HD
ENDBRANCH   1  10
TORSDOF 4
