REMARK  3 active torsions:
REMARK  status: ('A' for Active; 'I' for Inactive)
REMARK    1  A    between atoms: C2_2  and  C9_9 
REMARK    2  A    between atoms: C3_3  and  C5_5 
REMARK    3  A    between atoms: C3_3  and  C9_9 
ROOT
HETATM    1  C3  UNL     1     -33.407   6.038   3.594  1.00 20.00     0.135 C 
HETATM    2  O10 UNL     1     -33.625   4.828   3.541  1.00 20.00    -0.297 OA
ENDROOT
BRANCH   1   3
HETATM    3  C5  UNL     1     -32.312   6.663   2.768  1.00 20.00     0.060 A 
HETATM    4  C4  UNL     1     -31.528   7.772   3.373  1.00 20.00     0.017 A 
HETATM    5  C6  UNL     1     -32.522   8.063   2.280  1.00 20.00    -0.007 A 
HETATM    6  C8  UNL     1     -32.049   8.432   0.916  1.00 20.00     0.011 C 
ENDBRANCH   1   3
BRANCH   1   7
HETATM    7  C9  UNL     1     -34.174   6.982   4.509  1.00 20.00     0.111 C 
BRANCH   7   8
HETATM    8  C2  UNL     1     -34.106   6.548   5.948  1.00 20.00    -0.086 C 
HETATM    9  C1  UNL     1     -35.016   5.715   6.474  1.00 20.00     0.014 C 
HETATM   10  C7  UNL     1     -32.952   7.066   6.758  1.00 20.00     0.043 C 
ENDBRANCH   7   8
ENDBRANCH   1   7
TORSDOF 3
