REMARK  2 active torsions:
REMARK  status: ('A' for Active; 'I' for Inactive)
REMARK    1  A    between atoms: C3_3  and  C11_11 
REMARK    2  A    between atoms: C9_9  and  C11_11 
ROOT
HETATM    1  C1  UNL     1     -33.554   6.690   5.234  1.00 20.00     0.127 C 
HETATM    2  C4  UNL     1     -34.524   5.771   4.525  1.00 20.00     0.078 C 
HETATM    3  C5  UNL     1     -32.597   7.530   4.404  1.00 20.00     0.083 C 
HETATM    4  C6  UNL     1     -33.860   4.553   3.888  1.00 20.00     0.007 C 
HETATM    5  C7  UNL     1     -32.363   4.663   3.605  1.00 20.00     0.001 C 
HETATM    6  C8  UNL     1     -31.952   5.778   2.643  1.00 20.00     0.005 C 
HETATM    7  C9  UNL     1     -32.544   7.172   2.914  1.00 20.00    -0.004 C 
HETATM    8  O12 UNL     1     -33.554   6.777   6.464  1.00 20.00    -0.298 OA
ENDROOT
BRANCH   7   9
HETATM    9  C11 UNL     1     -31.744   8.230   2.147  1.00 20.00     0.037 C 
BRANCH   9  10
HETATM   10  C3  UNL     1     -32.081   8.251   0.681  1.00 20.00    -0.093 C 
HETATM   11  C2  UNL     1     -31.401   7.504  -0.203  1.00 20.00     0.014 C 
HETATM   12  C10 UNL     1     -33.179   9.178   0.241  1.00 20.00     0.042 C 
ENDBRANCH   9  10
ENDBRANCH   7   9
TORSDOF 2
