REMARK  2 active torsions:
REMARK  status: ('A' for Active; 'I' for Inactive)
REMARK    1  A    between atoms: C1_1  and  C7_7 
REMARK    2  A    between atoms: C7_7  and  O11_11 
ROOT
HETATM    1  C3  UNL     1     -35.532   6.223   4.236  1.00 20.00     0.029 C 
HETATM    2  C4  UNL     1     -34.513   7.318   4.544  1.00 20.00     0.046 C 
HETATM    3  C5  UNL     1     -35.127   4.916   4.904  1.00 20.00     0.167 C 
HETATM    4  C6  UNL     1     -32.826   5.490   4.905  1.00 20.00     0.209 C 
HETATM    5  C7  UNL     1     -33.077   6.857   4.254  1.00 20.00     0.097 C 
HETATM    6  O10 UNL     1     -33.810   4.531   4.513  1.00 20.00    -0.388 OA
ENDROOT
BRANCH   5   7
HETATM    7  C1  UNL     1     -32.805   6.805   2.778  1.00 20.00     0.015 C 
HETATM    8  C2  UNL     1     -32.326   7.789   1.993  1.00 20.00    -0.088 C 
HETATM    9  C8  UNL     1     -32.108   7.573   0.521  1.00 20.00     0.042 C 
HETATM   10  C9  UNL     1     -31.971   9.160   2.495  1.00 20.00     0.042 C 
ENDBRANCH   5   7
BRANCH   5  11
HETATM   11  O11 UNL     1     -32.164   7.807   4.804  1.00 20.00    -0.384 OA
HETATM   12  H27 UNL     1     -32.342   7.838   5.756  1.00 20.00     0.211 HD
ENDBRANCH   5  11
TORSDOF 2
