REMARK  4 active torsions:
REMARK  status: ('A' for Active; 'I' for Inactive)
REMARK    1  A    between atoms: C2_2  and  C5_5 
REMARK    2  A    between atoms: C5_5  and  C6_6 
REMARK    3  A    between atoms: C6_6  and  C7_7 
REMARK    4  A    between atoms: C7_7  and  C8_8 
ROOT
HETATM    1  C6  UNL     1     -33.705   7.967   2.770  1.00 20.00     0.006 C 
ENDROOT
BRANCH   1   2
HETATM    2  C5  UNL     1     -32.832   9.228   2.716  1.00 20.00     0.033 C 
BRANCH   2   3
HETATM    3  C2  UNL     1     -32.876   9.974   1.402  1.00 20.00    -0.093 C 
HETATM    4  C1  UNL     1     -33.260  11.258   1.337  1.00 20.00     0.014 C 
HETATM    5  C3  UNL     1     -32.508   9.205   0.167  1.00 20.00     0.042 C 
ENDBRANCH   2   3
ENDBRANCH   1   2
BRANCH   1   6
HETATM    6  C7  UNL     1     -33.604   7.223   4.109  1.00 20.00     0.020 C 
BRANCH   6   7
HETATM    7  C8  UNL     1     -34.485   5.968   4.173  1.00 20.00     0.078 C 
HETATM    8  C4  UNL     1     -33.812   4.789   3.479  1.00 20.00     0.026 C 
HETATM    9 CL9  UNL     1     -34.838   5.513   5.867  1.00 20.00    -0.125 Cl
ENDBRANCH   6   7
ENDBRANCH   1   6
TORSDOF 4
