REMARK  3 active torsions:
REMARK  status: ('A' for Active; 'I' for Inactive)
REMARK    1  A    between atoms: C2_2  and  C9_9 
REMARK    2  A    between atoms: C6_6  and  C9_9 
REMARK    3  A    between atoms: C9_9  and  N10_10 
ROOT
HETATM    1  C9  UNL     1     -32.063   7.237   3.308  1.00 20.00     0.254 C 
ENDROOT
BRANCH   1   2
HETATM    2  C2  UNL     1     -32.199   7.718   1.873  1.00 20.00    -0.060 C 
HETATM    3  C1  UNL     1     -32.054   6.866   0.844  1.00 20.00     0.016 C 
HETATM    4  C7  UNL     1     -32.491   9.173   1.626  1.00 20.00     0.044 C 
ENDBRANCH   1   2
BRANCH   1   5
HETATM    5  C6  UNL     1     -33.343   7.434   4.097  1.00 20.00     0.049 C 
HETATM    6  C3  UNL     1     -33.277   6.926   5.521  1.00 20.00     0.035 C 
HETATM    7  C4  UNL     1     -34.745   6.797   5.869  1.00 20.00     0.168 C 
HETATM    8  O11 UNL     1     -35.432   6.469   4.652  1.00 20.00    -0.391 OA
HETATM    9  C5  UNL     1     -34.524   6.649   3.554  1.00 20.00     0.174 C 
ENDBRANCH   1   5
BRANCH   1  10
HETATM   10  N10 UNL     1     -30.950   7.886   4.008  1.00 20.00     0.088 N 
HETATM   11  C8  UNL     1     -29.687   7.265   3.645  1.00 20.00     0.307 C 
HETATM   12  H28 UNL     1     -31.099   7.797   5.010  1.00 20.00     0.316 HD
ENDBRANCH   1  10
TORSDOF 3
