REMARK  3 active torsions:
REMARK  status: ('A' for Active; 'I' for Inactive)
REMARK    1  A    between atoms: C2_2  and  C7_7 
REMARK    2  A    between atoms: C5_5  and  C7_7 
REMARK    3  A    between atoms: C7_7  and  O8_8 
ROOT
HETATM    1  C7  UNL     1     -33.627   6.956   4.578  1.00 20.00     0.150 C 
ENDROOT
BRANCH   1   2
HETATM    2  C2  UNL     1     -32.836   6.340   3.446  1.00 20.00    -0.064 C 
HETATM    3  C1  UNL     1     -32.984   5.045   3.122  1.00 20.00     0.016 C 
HETATM    4  C6  UNL     1     -31.885   7.222   2.685  1.00 20.00     0.045 C 
ENDBRANCH   1   2
BRANCH   1   5
HETATM    5  C5  UNL     1     -34.532   5.949   5.281  1.00 20.00     0.019 A 
HETATM    6  C3  UNL     1     -33.987   5.076   6.377  1.00 20.00     0.008 A 
HETATM    7  C4  UNL     1     -34.956   6.178   6.705  1.00 20.00     0.008 A 
ENDBRANCH   1   5
BRANCH   1   8
HETATM    8  O8  UNL     1     -32.721   7.517   5.526  1.00 20.00    -0.391 OA
HETATM    9  H20 UNL     1     -33.264   7.900   6.233  1.00 20.00     0.210 HD
ENDBRANCH   1   8
TORSDOF 3
