REMARK  2 active torsions:
REMARK  status: ('A' for Active; 'I' for Inactive)
REMARK    1  A    between atoms: C2_2  and  C3_3 
REMARK    2  A    between atoms: C3_3  and  C5_5 
ROOT
HETATM    1  C3  UNL     1     -33.491   6.747   3.989  1.00 20.00     0.159 C 
HETATM    2  O9  UNL     1     -32.943   7.743   4.463  1.00 20.00    -0.292 OA
ENDROOT
BRANCH   1   3
HETATM    3  C2  UNL     1     -32.957   6.122   2.734  1.00 20.00    -0.025 C 
HETATM    4  C1  UNL     1     -33.080   4.808   2.502  1.00 20.00     0.022 C 
HETATM    5  C7  UNL     1     -32.283   7.042   1.761  1.00 20.00     0.051 C 
ENDBRANCH   1   3
BRANCH   1   6
HETATM    6  C5  UNL     1     -34.701   6.150   4.666  1.00 20.00     0.064 A 
HETATM    7  C4  UNL     1     -34.489   5.003   5.591  1.00 20.00     0.018 A 
HETATM    8  C6  UNL     1     -34.896   6.346   6.129  1.00 20.00    -0.006 A 
HETATM    9  C8  UNL     1     -33.957   7.121   6.988  1.00 20.00     0.011 C 
ENDBRANCH   1   6
TORSDOF 2
