REMARK  4 active torsions:
REMARK  status: ('A' for Active; 'I' for Inactive)
REMARK    1  A    between atoms: C2_2  and  C7_7 
REMARK    2  A    between atoms: C6_6  and  C7_7 
REMARK    3  A    between atoms: C6_6  and  S9_9 
REMARK    4  A    between atoms: C7_7  and  N8_8 
ROOT
HETATM    1  C7  UNL     1     -33.396   6.762   4.016  1.00 20.00     0.257 C 
ENDROOT
BRANCH   1   2
HETATM    2  C2  UNL     1     -33.369   5.283   3.657  1.00 20.00    -0.060 C 
HETATM    3  C1  UNL     1     -34.272   4.431   4.171  1.00 20.00     0.016 C 
HETATM    4  C3  UNL     1     -32.306   4.790   2.712  1.00 20.00     0.044 C 
ENDBRANCH   1   2
BRANCH   1   5
HETATM    5  C6  UNL     1     -33.608   7.699   2.812  1.00 20.00     0.113 C 
BRANCH   5   6
HETATM    6  S9  UNL     1     -32.073   7.999   1.877  1.00 20.00    -0.171 SA
HETATM    7  C5  UNL     1     -32.820   8.520   0.317  1.00 20.00     0.089 C 
ENDBRANCH   5   6
ENDBRANCH   1   5
BRANCH   1   8
HETATM    8  N8  UNL     1     -34.435   7.034   5.021  1.00 20.00     0.088 N 
HETATM    9  C4  UNL     1     -33.967   6.668   6.345  1.00 20.00     0.307 C 
HETATM   10  H24 UNL     1     -34.657   8.024   4.995  1.00 20.00     0.316 HD
ENDBRANCH   1   8
TORSDOF 4
