REMARK  3 active torsions:
REMARK  status: ('A' for Active; 'I' for Inactive)
REMARK    1  A    between atoms: C7_7  and  C8_8 
REMARK    2  A    between atoms: C7_7  and  C9_9 
REMARK    3  A    between atoms: C8_8  and  N10_10 
ROOT
HETATM    1  C1  UNL     1     -34.017   5.944   2.957  1.00 20.00     0.239 C 
HETATM    2  C2  UNL     1     -33.215   6.941   5.043  1.00 20.00     0.239 C 
HETATM    3  C3  UNL     1     -34.632   5.204   4.139  1.00 20.00     0.012 C 
HETATM    4  C4  UNL     1     -34.578   6.280   5.230  1.00 20.00     0.012 C 
HETATM    5  C5  UNL     1     -33.868   3.919   4.463  1.00 20.00     0.012 C 
HETATM    6  C6  UNL     1     -34.805   5.793   6.653  1.00 20.00     0.012 C 
HETATM    7  N10 UNL     1     -32.887   6.742   3.574  1.00 20.00    -0.070 N 
HETATM    8  H30 UNL     1     -32.047   6.149   3.531  1.00 20.00     0.279 HD
ENDROOT
BRANCH   7   9
HETATM    9  C8  UNL     1     -32.568   8.003   2.837  1.00 20.00     0.236 C 
BRANCH   9  10
HETATM   10  C7  UNL     1     -32.149   7.698   1.402  1.00 20.00     0.043 C 
BRANCH  10  11
HETATM   11  C9  UNL     1     -31.848   8.911   0.526  1.00 20.00     0.116 C 
HETATM   12 CL11 UNL     1     -33.269   9.963   0.330  1.00 20.00    -0.130 Cl
ENDBRANCH  10  11
ENDBRANCH   9  10
ENDBRANCH   7   9
TORSDOF 3
