REMARK  2 active torsions:
REMARK  status: ('A' for Active; 'I' for Inactive)
REMARK    1  A    between atoms: C2_2  and  C10_10 
REMARK    2  A    between atoms: C7_7  and  C10_10 
ROOT
HETATM    1  C3  UNL     1     -32.877   5.000   2.344  1.00 20.00     0.002 C 
HETATM    2  C4  UNL     1     -33.919   5.173   3.444  1.00 20.00     0.005 C 
HETATM    3  C5  UNL     1     -31.701   5.960   2.521  1.00 20.00     0.016 C 
HETATM    4  C6  UNL     1     -33.246   7.595   3.720  1.00 20.00     0.020 C 
HETATM    5  C7  UNL     1     -34.419   6.620   3.527  1.00 20.00    -0.010 C 
HETATM    6  C8  UNL     1     -32.128   7.415   2.695  1.00 20.00     0.058 C 
HETATM    7 BR11 UNL     1     -32.669   8.169   0.967  1.00 20.00    -0.091 Br
ENDROOT
BRANCH   5   8
HETATM    8  C10 UNL     1     -35.435   6.773   4.659  1.00 20.00     0.037 C 
BRANCH   8   9
HETATM    9  C2  UNL     1     -34.845   6.465   6.010  1.00 20.00    -0.093 C 
HETATM   10  C1  UNL     1     -34.891   5.228   6.528  1.00 20.00     0.014 C 
HETATM   11  C9  UNL     1     -34.242   7.610   6.772  1.00 20.00     0.042 C 
ENDBRANCH   8   9
ENDBRANCH   5   8
TORSDOF 2
