REMARK  3 active torsions:
REMARK  status: ('A' for Active; 'I' for Inactive)
REMARK    1  A    between atoms: C2_2  and  C10_10 
REMARK    2  A    between atoms: C5_5  and  C10_10 
REMARK    3  A    between atoms: C7_7  and  O11_11 
ROOT
HETATM    1  C3  UNL     1     -33.743   5.232   3.227  1.00 20.00     0.008 C 
HETATM    2  C4  UNL     1     -34.176   4.377   4.419  1.00 20.00     0.032 C 
HETATM    3  C5  UNL     1     -33.383   6.600   3.812  1.00 20.00    -0.004 C 
HETATM    4  C6  UNL     1     -34.363   6.731   4.983  1.00 20.00     0.015 C 
HETATM    5  C7  UNL     1     -34.307   5.333   5.606  1.00 20.00     0.122 C 
HETATM    6  C9  UNL     1     -33.992   7.829   5.971  1.00 20.00     0.013 C 
ENDROOT
BRANCH   3   7
HETATM    7  C10 UNL     1     -33.490   7.718   2.786  1.00 20.00     0.038 C 
BRANCH   7   8
HETATM    8  C2  UNL     1     -32.283   7.802   1.884  1.00 20.00    -0.093 C 
HETATM    9  C1  UNL     1     -31.236   6.976   2.035  1.00 20.00     0.014 C 
HETATM   10  C8  UNL     1     -32.288   8.874   0.832  1.00 20.00     0.042 C 
ENDBRANCH   7   8
ENDBRANCH   3   7
BRANCH   5  11
HETATM   11  O11 UNL     1     -35.480   5.042   6.345  1.00 20.00    -0.395 OA
HETATM   12  H29 UNL     1     -35.398   4.126   6.659  1.00 20.00     0.210 HD
ENDBRANCH   5  11
TORSDOF 3
