REMARK  2 active torsions:
REMARK  status: ('A' for Active; 'I' for Inactive)
REMARK    1  A    between atoms: C7_7  and  C8_8 
REMARK    2  A    between atoms: C7_7  and  N9_9 
ROOT
HETATM    1  C1  UNL     1     -32.933   7.812   4.529  1.00 20.00     0.277 C 
HETATM    2  C2  UNL     1     -33.593   5.831   3.475  1.00 20.00     0.277 C 
HETATM    3  C3  UNL     1     -33.856   7.072   5.510  1.00 20.00     0.015 C 
HETATM    4  C4  UNL     1     -33.961   5.647   4.942  1.00 20.00     0.015 C 
HETATM    5  C5  UNL     1     -33.328   7.083   6.940  1.00 20.00     0.012 C 
HETATM    6  C6  UNL     1     -35.332   5.017   5.133  1.00 20.00     0.012 C 
HETATM    7  N9  UNL     1     -32.489   6.785   3.580  1.00 20.00     0.090 N 
ENDROOT
BRANCH   7   8
HETATM    8  C7  UNL     1     -32.105   7.341   2.292  1.00 20.00     0.287 C 
BRANCH   8   9
HETATM    9  C8  UNL     1     -33.265   8.011   1.576  1.00 20.00     0.144 C 
HETATM   10 CL10 UNL     1     -32.759   8.674   0.002  1.00 20.00    -0.129 Cl
ENDBRANCH   8   9
ENDBRANCH   7   8
TORSDOF 2
