REMARK  0 active torsions:
REMARK  status: ('A' for Active; 'I' for Inactive)
ROOT
HETATM    1  C1  UNL     1     -33.055   5.401   2.320  1.00 20.00     0.063 A 
HETATM    2  C2  UNL     1     -32.467   7.723   2.777  1.00 20.00     0.098 A 
HETATM    3  C3  UNL     1     -33.418   6.376   4.483  1.00 20.00     0.055 A 
HETATM    4  C4  UNL     1     -33.497   5.284   3.628  1.00 20.00    -0.037 A 
HETATM    5  C5  UNL     1     -32.538   6.630   1.896  1.00 20.00     0.175 A 
HETATM    6  C6  UNL     1     -32.912   7.603   4.094  1.00 20.00     0.134 A 
HETATM    7  C7  UNL     1     -33.943   5.978   5.779  1.00 20.00     0.163 A 
HETATM    8  C8  UNL     1     -34.080   4.074   4.284  1.00 20.00     0.047 A 
HETATM    9  C9  UNL     1     -34.381   4.534   5.722  1.00 20.00     0.088 A 
HETATM   10  O10 UNL     1     -32.124   6.762   0.691  1.00 20.00    -0.288 OA
HETATM   11  O11 UNL     1     -34.011   6.712   6.747  1.00 20.00    -0.292 OA
HETATM   12  F12 UNL     1     -32.846   8.638   4.939  1.00 20.00    -0.205 F 
ENDROOT
TORSDOF 0
