REMARK  2 active torsions:
REMARK  status: ('A' for Active; 'I' for Inactive)
REMARK    1  A    between atoms: C2_2  and  C9_9 
REMARK    2  A    between atoms: C6_6  and  C9_9 
ROOT
HETATM    1  C3  UNL     1     -33.729   4.066   3.970  1.00 20.00     0.006 C 
HETATM    2  C4  UNL     1     -34.188   4.436   5.375  1.00 20.00     0.016 C 
HETATM    3  C5  UNL     1     -34.819   6.190   3.775  1.00 20.00     0.020 C 
HETATM    4  C6  UNL     1     -33.614   5.405   3.245  1.00 20.00    -0.010 C 
HETATM    5  C7  UNL     1     -35.088   5.653   5.181  1.00 20.00     0.058 C 
HETATM    6 BR10 UNL     1     -34.709   7.006   6.529  1.00 20.00    -0.091 Br
ENDROOT
BRANCH   4   7
HETATM    7  C9  UNL     1     -32.291   6.112   3.532  1.00 20.00     0.037 C 
BRANCH   7   8
HETATM    8  C2  UNL     1     -32.191   7.463   2.864  1.00 20.00    -0.093 C 
HETATM    9  C1  UNL     1     -32.056   8.591   3.579  1.00 20.00     0.014 C 
HETATM   10  C8  UNL     1     -32.284   7.493   1.365  1.00 20.00     0.042 C 
ENDBRANCH   7   8
ENDBRANCH   4   7
TORSDOF 2
