REMARK  2 active torsions:
REMARK  status: ('A' for Active; 'I' for Inactive)
REMARK    1  A    between atoms: C2_2  and  C9_9 
REMARK    2  A    between atoms: C6_6  and  C9_9 
ROOT
HETATM    1  C3  UNL     1     -33.754   5.625   2.143  1.00 20.00     0.006 C 
HETATM    2  C4  UNL     1     -32.508   6.050   1.377  1.00 20.00     0.020 C 
HETATM    3  C5  UNL     1     -32.296   6.995   3.569  1.00 20.00     0.025 C 
HETATM    4  C6  UNL     1     -33.444   5.969   3.606  1.00 20.00    -0.009 C 
HETATM    5  C7  UNL     1     -32.055   7.315   2.095  1.00 20.00     0.082 C 
HETATM    6 CL10 UNL     1     -33.038   8.719   1.589  1.00 20.00    -0.125 Cl
ENDROOT
BRANCH   4   7
HETATM    7  C9  UNL     1     -34.669   6.479   4.351  1.00 20.00     0.037 C 
BRANCH   7   8
HETATM    8  C2  UNL     1     -34.528   6.373   5.850  1.00 20.00    -0.093 C 
HETATM    9  C1  UNL     1     -34.944   5.286   6.518  1.00 20.00     0.014 C 
HETATM   10  C8  UNL     1     -33.933   7.551   6.566  1.00 20.00     0.042 C 
ENDBRANCH   7   8
ENDBRANCH   4   7
TORSDOF 2
