REMARK  3 active torsions:
REMARK  status: ('A' for Active; 'I' for Inactive)
REMARK    1  A    between atoms: C2_2  and  C9_9 
REMARK    2  A    between atoms: C3_3  and  C5_5 
REMARK    3  A    between atoms: C3_3  and  C9_9 
ROOT
HETATM    1  C3  UNL     1     -33.518   6.030   3.474  1.00 20.00     0.135 C 
HETATM    2  O10 UNL     1     -33.398   5.166   2.606  1.00 20.00    -0.297 OA
ENDROOT
BRANCH   1   3
HETATM    3  C5  UNL     1     -32.400   7.001   3.757  1.00 20.00     0.060 A 
HETATM    4  C4  UNL     1     -32.720   8.455   3.763  1.00 20.00     0.017 A 
HETATM    5  C6  UNL     1     -31.881   7.868   2.662  1.00 20.00    -0.007 A 
HETATM    6  C8  UNL     1     -32.403   7.832   1.266  1.00 20.00     0.011 C 
ENDBRANCH   1   3
BRANCH   1   7
HETATM    7  C9  UNL     1     -34.756   6.166   4.348  1.00 20.00     0.111 C 
BRANCH   7   8
HETATM    8  C2  UNL     1     -34.449   5.910   5.799  1.00 20.00    -0.086 C 
HETATM    9  C1  UNL     1     -33.950   4.735   6.215  1.00 20.00     0.014 C 
HETATM   10  C7  UNL     1     -34.698   7.041   6.755  1.00 20.00     0.043 C 
ENDBRANCH   7   8
ENDBRANCH   1   7
TORSDOF 3
