REMARK  3 active torsions:
REMARK  status: ('A' for Active; 'I' for Inactive)
REMARK    1  A    between atoms: C2_2  and  C3_3 
REMARK    2  A    between atoms: C3_3  and  C7_7 
REMARK    3  A    between atoms: C8_8  and  C11_11 
ROOT
HETATM    1  C4  UNL     1     -32.259   5.619   3.453  1.00 20.00     0.013 C 
HETATM    2  C5  UNL     1     -31.598   6.948   3.113  1.00 20.00     0.005 C 
HETATM    3  C6  UNL     1     -33.720   6.947   1.997  1.00 20.00     0.017 C 
HETATM    4  C7  UNL     1     -33.707   5.769   2.979  1.00 20.00     0.060 C 
HETATM    5  C8  UNL     1     -32.251   7.320   1.786  1.00 20.00    -0.014 C 
ENDROOT
BRANCH   4   6
HETATM    6  C3  UNL     1     -34.616   6.048   4.137  1.00 20.00     0.158 C 
HETATM    7  O12 UNL     1     -35.821   6.221   3.953  1.00 20.00    -0.292 OA
BRANCH   6   8
HETATM    8  C2  UNL     1     -34.051   6.118   5.525  1.00 20.00    -0.025 C 
HETATM    9  C1  UNL     1     -33.608   7.273   6.042  1.00 20.00     0.022 C 
HETATM   10  C9  UNL     1     -34.011   4.833   6.299  1.00 20.00     0.051 C 
ENDBRANCH   6   8
ENDBRANCH   4   6
BRANCH   5  11
HETATM   11  C11 UNL     1     -32.050   8.778   1.410  1.00 20.00     0.000 C 
HETATM   12  C10 UNL     1     -32.730   9.123   0.122  1.00 20.00     0.005 C 
ENDBRANCH   5  11
TORSDOF 3
