REMARK  3 active torsions:
REMARK  status: ('A' for Active; 'I' for Inactive)
REMARK    1  A    between atoms: C2_2  and  C9_9 
REMARK    2  A    between atoms: C7_7  and  C9_9 
REMARK    3  A    between atoms: C9_9  and  O11_11 
ROOT
HETATM    1  C3  UNL     1     -33.237   7.675   4.116  1.00 20.00     0.034 C 
HETATM    2  C4  UNL     1     -33.573   5.480   2.950  1.00 20.00     0.034 C 
HETATM    3  C5  UNL     1     -31.956   7.830   3.304  1.00 20.00     0.168 C 
HETATM    4  C6  UNL     1     -32.274   5.757   2.203  1.00 20.00     0.168 C 
HETATM    5  C7  UNL     1     -33.582   6.194   4.306  1.00 20.00     0.023 C 
HETATM    6  O10 UNL     1     -32.069   7.161   2.049  1.00 20.00    -0.391 OA
ENDROOT
BRANCH   5   7
HETATM    7  C9  UNL     1     -34.927   6.027   5.007  1.00 20.00     0.150 C 
BRANCH   7   8
HETATM    8  C2  UNL     1     -34.837   6.245   6.501  1.00 20.00    -0.064 C 
HETATM    9  C1  UNL     1     -35.146   5.262   7.362  1.00 20.00     0.016 C 
HETATM   10  C8  UNL     1     -34.382   7.590   6.995  1.00 20.00     0.045 C 
ENDBRANCH   7   8
BRANCH   7  11
HETATM   11  O11 UNL     1     -35.429   4.717   4.756  1.00 20.00    -0.391 OA
HETATM   12  H27 UNL     1     -36.305   4.674   5.169  1.00 20.00     0.210 HD
ENDBRANCH   7  11
ENDBRANCH   5   7
TORSDOF 3
