REMARK  2 active torsions:
REMARK  status: ('A' for Active; 'I' for Inactive)
REMARK    1  A    between atoms: C9_9  and  C10_10 
REMARK    2  A    between atoms: C9_9  and  N12_12 
ROOT
HETATM    1  C1  UNL     1     -32.418   8.936   1.166  1.00 20.00     0.065 C 
HETATM    2  C8  UNL     1     -31.091   8.247   3.129  1.00 20.00     0.027 C 
HETATM    3  C10 UNL     1     -32.486   8.335   2.513  1.00 20.00     0.114 C 
HETATM    4  N11 UNL     1     -32.366   9.409   0.108  1.00 20.00    -0.197 NA
ENDROOT
BRANCH   3   5
HETATM    5  C9  UNL     1     -33.211   6.985   2.491  1.00 20.00     0.253 C 
BRANCH   5   6
HETATM    6  N12 UNL     1     -33.301   6.377   3.854  1.00 20.00    -0.069 N 
HETATM    7  C2  UNL     1     -34.094   7.207   4.839  1.00 20.00     0.239 C 
HETATM    8  C4  UNL     1     -34.703   6.180   5.785  1.00 20.00     0.012 C 
HETATM    9  C5  UNL     1     -35.029   5.004   4.857  1.00 20.00     0.012 C 
HETATM   10  C6  UNL     1     -33.725   5.781   6.893  1.00 20.00     0.012 C 
HETATM   11  C3  UNL     1     -33.861   4.966   3.872  1.00 20.00     0.239 C 
HETATM   12  C7  UNL     1     -36.362   5.199   4.129  1.00 20.00     0.012 C 
HETATM   13  H31 UNL     1     -32.337   6.323   4.220  1.00 20.00     0.280 HD
ENDBRANCH   5   6
ENDBRANCH   3   5
TORSDOF 2
