REMARK  2 active torsions:
REMARK  status: ('A' for Active; 'I' for Inactive)
REMARK    1  A    between atoms: C2_2  and  C7_7 
REMARK    2  A    between atoms: C7_7  and  O11_11 
ROOT
HETATM    1  C3  UNL     1     -34.033   5.188   3.107  1.00 20.00     0.073 C 
HETATM    2  C4  UNL     1     -34.022   7.216   4.611  1.00 20.00     0.073 C 
HETATM    3  C5  UNL     1     -32.539   5.424   2.863  1.00 20.00     0.275 C 
HETATM    4  C6  UNL     1     -32.528   7.370   4.307  1.00 20.00     0.275 C 
HETATM    5  C7  UNL     1     -34.497   5.772   4.441  1.00 20.00     0.083 C 
HETATM    6  C9  UNL     1     -32.569   7.654   1.891  1.00 20.00     0.309 C 
HETATM    7  N10 UNL     1     -32.121   6.824   3.007  1.00 20.00     0.084 N 
ENDROOT
BRANCH   5   8
HETATM    8  C2  UNL     1     -34.064   4.907   5.592  1.00 20.00    -0.059 C 
HETATM    9  C1  UNL     1     -33.362   3.779   5.406  1.00 20.00     0.017 C 
HETATM   10  C8  UNL     1     -34.461   5.378   6.959  1.00 20.00     0.046 C 
ENDBRANCH   5   8
BRANCH   5  11
HETATM   11  O11 UNL     1     -35.919   5.718   4.494  1.00 20.00    -0.385 OA
HETATM   12  H28 UNL     1     -36.238   6.267   3.763  1.00 20.00     0.211 HD
ENDBRANCH   5  11
TORSDOF 2
