REMARK  3 active torsions:
REMARK  status: ('A' for Active; 'I' for Inactive)
REMARK    1  A    between atoms: C2_2  and  C10_10 
REMARK    2  A    between atoms: C5_5  and  C10_10 
REMARK    3  A    between atoms: C7_7  and  O11_11 
ROOT
HETATM    1  C3  UNL     1     -33.287   4.836   3.615  1.00 20.00     0.008 C 
HETATM    2  C4  UNL     1     -34.328   4.389   4.647  1.00 20.00     0.032 C 
HETATM    3  C5  UNL     1     -33.309   6.369   3.624  1.00 20.00    -0.004 C 
HETATM    4  C6  UNL     1     -33.815   6.735   5.032  1.00 20.00     0.015 C 
HETATM    5  C7  UNL     1     -34.892   5.668   5.265  1.00 20.00     0.122 C 
HETATM    6  C9  UNL     1     -32.743   6.691   6.122  1.00 20.00     0.013 C 
ENDROOT
BRANCH   3   7
HETATM    7  C10 UNL     1     -31.980   6.984   3.216  1.00 20.00     0.038 C 
BRANCH   7   8
HETATM    8  C2  UNL     1     -32.117   8.410   2.737  1.00 20.00    -0.093 C 
HETATM    9  C1  UNL     1     -31.723   8.778   1.509  1.00 20.00     0.014 C 
HETATM   10  C8  UNL     1     -32.682   9.405   3.709  1.00 20.00     0.042 C 
ENDBRANCH   7   8
ENDBRANCH   3   7
BRANCH   5  11
HETATM   11  O11 UNL     1     -36.082   6.020   4.562  1.00 20.00    -0.395 OA
HETATM   12  H29 UNL     1     -36.694   5.275   4.668  1.00 20.00     0.210 HD
ENDBRANCH   5  11
TORSDOF 3
