REMARK  3 active torsions:
REMARK  status: ('A' for Active; 'I' for Inactive)
REMARK    1  A    between atoms: C1_1  and  C7_7 
REMARK    2  A    between atoms: C1_1  and  C12_12 
REMARK    3  A    between atoms: C8_8  and  C13_13 
ROOT
HETATM    1  C2  UNL     1     -33.304   4.969   3.293  1.00 20.00     0.001 C 
HETATM    2  C3  UNL     1     -32.947   5.982   2.209  1.00 20.00     0.012 C 
HETATM    3  C4  UNL     1     -32.959   7.902   3.981  1.00 20.00     0.012 C 
HETATM    4  C5  UNL     1     -34.715   5.168   3.844  1.00 20.00     0.005 C 
HETATM    5  C6  UNL     1     -34.469   7.719   4.142  1.00 20.00     0.006 C 
HETATM    6  C7  UNL     1     -32.341   7.288   2.721  1.00 20.00     0.055 C 
HETATM    7  C8  UNL     1     -34.925   6.384   4.755  1.00 20.00    -0.011 C 
ENDROOT
BRANCH   6   8
HETATM    8  C1  UNL     1     -32.386   8.290   1.603  1.00 20.00     0.130 C 
HETATM    9  O14 UNL     1     -33.309   9.098   1.513  1.00 20.00    -0.298 OA
BRANCH   8  10
HETATM   10  C12 UNL     1     -31.238   8.238   0.613  1.00 20.00     0.074 C 
HETATM   11  C9  UNL     1     -31.377   9.263  -0.498  1.00 20.00     0.013 C 
ENDBRANCH   8  10
ENDBRANCH   6   8
BRANCH   7  12
HETATM   12  C13 UNL     1     -34.340   6.143   6.151  1.00 20.00    -0.019 C 
HETATM   13  C10 UNL     1     -34.529   7.377   7.026  1.00 20.00     0.010 C 
HETATM   14  C11 UNL     1     -34.985   4.919   6.793  1.00 20.00     0.010 C 
ENDBRANCH   7  12
TORSDOF 3
