REMARK  2 active torsions:
REMARK  status: ('A' for Active; 'I' for Inactive)
REMARK    1  A    between atoms: C4_4  and  C7_7 
REMARK    2  A    between atoms: C7_7  and  C8_8 
ROOT
HETATM    1  C1  UNL     1     -33.509   7.214   5.803  1.00 20.00     0.034 C 
HETATM    2  C2  UNL     1     -34.424   6.575   6.827  1.00 20.00     0.168 C 
HETATM    3  C3  UNL     1     -34.091   5.055   5.092  1.00 20.00     0.173 C 
HETATM    4  C4  UNL     1     -33.880   6.457   4.546  1.00 20.00     0.026 C 
HETATM    5  O9  UNL     1     -34.612   5.211   6.422  1.00 20.00    -0.391 OA
ENDROOT
BRANCH   4   6
HETATM    6  C7  UNL     1     -32.840   6.533   3.444  1.00 20.00     0.067 C 
HETATM    7 BR10 UNL     1     -32.970   4.900   2.355  1.00 20.00    -0.090 Br
BRANCH   6   8
HETATM    8  C8  UNL     1     -32.905   7.779   2.538  1.00 20.00    -0.008 C 
HETATM    9  C5  UNL     1     -31.856   7.690   1.422  1.00 20.00     0.011 C 
HETATM   10  C6  UNL     1     -32.752   9.087   3.279  1.00 20.00     0.011 C 
ENDBRANCH   6   8
ENDBRANCH   4   6
TORSDOF 2
