REMARK  3 active torsions:
REMARK  status: ('A' for Active; 'I' for Inactive)
REMARK    1  A    between atoms: C3_3  and  C9_9 
REMARK    2  A    between atoms: C3_3  and  O10_10 
REMARK    3  A    between atoms: C8_8  and  C9_9 
ROOT
HETATM    1  C1  UNL     1     -34.308   7.470   6.053  1.00 20.00     0.046 A 
HETATM    2  C2  UNL     1     -33.434   6.389   6.635  1.00 20.00     0.019 A 
HETATM    3  C3  UNL     1     -33.072   7.027   5.311  1.00 20.00     0.068 A 
HETATM    4  C4  UNL     1     -33.935   4.990   6.735  1.00 20.00     0.013 C 
ENDROOT
BRANCH   3   5
HETATM    5  C9  UNL     1     -33.205   6.276   3.972  1.00 20.00    -0.017 C 
HETATM    6  C6  UNL     1     -32.544   4.896   4.118  1.00 20.00     0.018 C 
HETATM    7  C7  UNL     1     -34.700   6.091   3.663  1.00 20.00     0.018 C 
BRANCH   5   8
HETATM    8  C8  UNL     1     -32.507   7.118   2.873  1.00 20.00     0.007 C 
HETATM    9  C5  UNL     1     -32.536   6.530   1.467  1.00 20.00     0.006 C 
ENDBRANCH   5   8
ENDBRANCH   3   5
BRANCH   3  10
HETATM   10  O10 UNL     1     -31.959   7.939   5.348  1.00 20.00    -0.389 OA
HETATM   11  H28 UNL     1     -31.733   8.040   6.281  1.00 20.00     0.210 HD
ENDBRANCH   3  10
TORSDOF 3
