REMARK  2 active torsions:
REMARK  status: ('A' for Active; 'I' for Inactive)
REMARK    1  A    between atoms: C4_4  and  C7_7 
REMARK    2  A    between atoms: C7_7  and  C8_8 
ROOT
HETATM    1  C1  UNL     1     -34.161   5.345   5.424  1.00 20.00     0.034 C 
HETATM    2  C2  UNL     1     -34.956   5.945   6.565  1.00 20.00     0.168 C 
HETATM    3  C3  UNL     1     -33.515   7.578   5.739  1.00 20.00     0.173 C 
HETATM    4  C4  UNL     1     -33.789   6.578   4.629  1.00 20.00     0.026 C 
HETATM    5  O9  UNL     1     -34.409   7.248   6.813  1.00 20.00    -0.391 OA
ENDROOT
BRANCH   4   6
HETATM    6  C7  UNL     1     -32.621   6.379   3.683  1.00 20.00     0.067 C 
HETATM    7 BR10 UNL     1     -32.982   4.791   2.578  1.00 20.00    -0.090 Br
BRANCH   6   8
HETATM    8  C8  UNL     1     -32.266   7.579   2.783  1.00 20.00    -0.008 C 
HETATM    9  C5  UNL     1     -31.374   8.574   3.535  1.00 20.00     0.011 C 
HETATM   10  C6  UNL     1     -33.468   8.300   2.216  1.00 20.00     0.011 C 
ENDBRANCH   6   8
ENDBRANCH   4   6
TORSDOF 2
