REMARK  4 active torsions:
REMARK  status: ('A' for Active; 'I' for Inactive)
REMARK    1  A    between atoms: C5_5  and  C8_8 
REMARK    2  A    between atoms: C6_6  and  C8_8 
REMARK    3  A    between atoms: C7_7  and  N9_9 
REMARK    4  A    between atoms: C8_8  and  N9_9 
ROOT
HETATM    1  C8  UNL     1     -33.581   6.429   4.619  1.00 20.00     0.237 C 
ENDROOT
BRANCH   1   2
HETATM    2  C5  UNL     1     -34.239   5.383   3.712  1.00 20.00     0.150 C 
HETATM    3 CL10 UNL     1     -33.832   3.724   4.231  1.00 20.00    -0.128 Cl
ENDBRANCH   1   2
BRANCH   1   4
HETATM    4  C6  UNL     1     -34.350   6.606   5.953  1.00 20.00     0.011 C 
HETATM    5  C1  UNL     1     -34.036   7.922   6.672  1.00 20.00     0.012 C 
HETATM    6  C2  UNL     1     -34.104   5.426   6.900  1.00 20.00     0.012 C 
ENDBRANCH   1   4
BRANCH   1   7
HETATM    7  N9  UNL     1     -33.426   7.687   3.921  1.00 20.00     0.093 N 
HETATM    8  H28 UNL     1     -34.256   7.871   3.352  1.00 20.00     0.316 HD
BRANCH   7   9
HETATM    9  C7  UNL     1     -32.254   7.669   3.050  1.00 20.00     0.213 C 
HETATM   10  C3  UNL     1     -31.005   7.895   3.890  1.00 20.00     0.042 C 
HETATM   11  C4  UNL     1     -32.417   8.743   1.984  1.00 20.00     0.042 C 
ENDBRANCH   7   9
ENDBRANCH   1   7
TORSDOF 4
