REMARK  4 active torsions:
REMARK  status: ('A' for Active; 'I' for Inactive)
REMARK    1  A    between atoms: C2_2  and  C7_7 
REMARK    2  A    between atoms: C3_3  and  C8_8 
REMARK    3  A    between atoms: C3_3  and  O10_10 
REMARK    4  A    between atoms: C8_8  and  C9_9 
ROOT
HETATM    1  C1  UNL     1     -34.853   5.198   6.535  1.00 20.00     0.045 A 
HETATM    2  C2  UNL     1     -33.872   6.174   5.940  1.00 20.00     0.022 A 
HETATM    3  C3  UNL     1     -34.694   5.286   5.038  1.00 20.00     0.062 A 
ENDROOT
BRANCH   3   4
HETATM    4  C8  UNL     1     -34.027   4.149   4.277  1.00 20.00     0.042 C 
BRANCH   4   5
HETATM    5  C9  UNL     1     -33.572   4.541   2.861  1.00 20.00    -0.020 C 
HETATM    6  C5  UNL     1     -34.736   5.001   1.982  1.00 20.00     0.009 C 
HETATM    7  C6  UNL     1     -32.515   5.645   2.941  1.00 20.00     0.009 C 
ENDBRANCH   4   5
ENDBRANCH   3   4
BRANCH   3   8
HETATM    8  O10 UNL     1     -35.786   5.896   4.328  1.00 20.00    -0.389 OA
HETATM    9  H28 UNL     1     -36.561   5.352   4.519  1.00 20.00     0.210 HD
ENDBRANCH   3   8
BRANCH   2  10
HETATM   10  C7  UNL     1     -34.126   7.640   6.034  1.00 20.00     0.003 C 
HETATM   11  C4  UNL     1     -33.407   8.432   4.972  1.00 20.00     0.005 C 
ENDBRANCH   2  10
TORSDOF 4
