REMARK  2 active torsions:
REMARK  status: ('A' for Active; 'I' for Inactive)
REMARK    1  A    between atoms: C5_5  and  C7_7 
REMARK    2  A    between atoms: C7_7  and  O9_9 
ROOT
HETATM    1  C2  UNL     1     -34.820   6.906   6.230  1.00 20.00     0.045 A 
HETATM    2  C6  UNL     1     -34.534   5.504   6.701  1.00 20.00     0.019 A 
HETATM    3  C7  UNL     1     -34.686   5.794   5.232  1.00 20.00     0.066 A 
HETATM    4  C8  UNL     1     -33.224   5.174   7.330  1.00 20.00     0.013 C 
ENDROOT
BRANCH   3   5
HETATM    5  C5  UNL     1     -33.511   5.779   4.298  1.00 20.00     0.030 C 
HETATM    6  C1  UNL     1     -33.024   7.188   3.961  1.00 20.00     0.018 C 
HETATM    7  C3  UNL     1     -31.966   7.035   2.882  1.00 20.00     0.074 C 
HETATM    8  S10 UNL     1     -32.582   5.712   1.806  1.00 20.00    -0.169 SA
HETATM    9  C4  UNL     1     -33.851   5.123   2.962  1.00 20.00     0.081 C 
ENDBRANCH   3   5
BRANCH   3  10
HETATM   10  O9  UNL     1     -35.894   5.333   4.614  1.00 20.00    -0.389 OA
HETATM   11  H24 UNL     1     -36.459   5.017   5.333  1.00 20.00     0.210 HD
ENDBRANCH   3  10
TORSDOF 2
