REMARK  4 active torsions:
REMARK  status: ('A' for Active; 'I' for Inactive)
REMARK    1  A    between atoms: C3_3  and  C5_5 
REMARK    2  A    between atoms: C3_3  and  O8_8 
REMARK    3  A    between atoms: C5_5  and  C6_6 
REMARK    4  A    between atoms: C6_6  and  C7_7 
ROOT
HETATM    1  C1  UNL     1     -32.963   4.786   1.776  1.00 20.00     0.045 A 
HETATM    2  C2  UNL     1     -32.269   5.637   2.807  1.00 20.00     0.019 A 
HETATM    3  C3  UNL     1     -33.694   5.192   3.030  1.00 20.00     0.062 A 
HETATM    4  C4  UNL     1     -31.934   7.057   2.502  1.00 20.00     0.013 C 
ENDROOT
BRANCH   3   5
HETATM    5  C5  UNL     1     -34.001   4.172   4.075  1.00 20.00     0.047 C 
BRANCH   5   6
HETATM    6  C6  UNL     1     -34.780   4.770   5.248  1.00 20.00     0.120 C 
BRANCH   6   7
HETATM    7  C7  UNL     1     -34.033   5.906   5.909  1.00 20.00     0.388 C 
HETATM    8  F9  UNL     1     -32.859   5.487   6.428  1.00 20.00    -0.171 F 
HETATM    9  F10 UNL     1     -33.771   6.899   5.033  1.00 20.00    -0.171 F 
HETATM   10  F11 UNL     1     -34.763   6.431   6.918  1.00 20.00    -0.171 F 
ENDBRANCH   6   7
ENDBRANCH   5   6
ENDBRANCH   3   5
BRANCH   3  11
HETATM   11  O8  UNL     1     -34.728   6.176   2.862  1.00 20.00    -0.389 OA
HETATM   12  H22 UNL     1     -35.367   5.786   2.251  1.00 20.00     0.210 HD
ENDBRANCH   3  11
TORSDOF 4
