REMARK  3 active torsions:
REMARK  status: ('A' for Active; 'I' for Inactive)
REMARK    1  A    between atoms: C3_3  and  C6_6 
REMARK    2  A    between atoms: C3_3  and  O8_8 
REMARK    3  A    between atoms: C6_6  and  C7_7 
ROOT
HETATM    1  C1  UNL     1     -34.369   7.514   6.672  1.00 20.00     0.045 A 
HETATM    2  C2  UNL     1     -33.672   6.179   6.670  1.00 20.00     0.019 A 
HETATM    3  C3  UNL     1     -33.410   7.174   5.560  1.00 20.00     0.061 A 
HETATM    4  C4  UNL     1     -34.447   4.926   6.452  1.00 20.00     0.013 C 
ENDROOT
BRANCH   3   5
HETATM    5  C6  UNL     1     -33.919   6.971   4.172  1.00 20.00     0.038 C 
BRANCH   5   6
HETATM    6  C7  UNL     1     -32.921   6.207   3.286  1.00 20.00    -0.002 C 
HETATM    7  C5  UNL     1     -31.604   6.949   3.123  1.00 20.00     0.005 C 
ENDBRANCH   5   6
ENDBRANCH   3   5
BRANCH   3   8
HETATM    8  O8  UNL     1     -32.132   7.834   5.610  1.00 20.00    -0.389 OA
HETATM    9  H22 UNL     1     -31.733   7.569   6.448  1.00 20.00     0.210 HD
ENDBRANCH   3   8
TORSDOF 3
