REMARK  3 active torsions:
REMARK  status: ('A' for Active; 'I' for Inactive)
REMARK    1  A    between atoms: C2_2  and  C6_6 
REMARK    2  A    between atoms: C3_3  and  C7_7 
REMARK    3  A    between atoms: C3_3  and  O8_8 
ROOT
HETATM    1  C1  UNL     1     -34.297   7.320   4.355  1.00 20.00     0.045 A 
HETATM    2  C2  UNL     1     -33.018   6.683   3.877  1.00 20.00     0.022 A 
HETATM    3  C3  UNL     1     -33.490   6.459   5.293  1.00 20.00     0.062 A 
ENDROOT
BRANCH   3   4
HETATM    4  C7  UNL     1     -34.006   5.120   5.703  1.00 20.00     0.034 C 
HETATM    5  C5  UNL     1     -34.219   4.191   4.536  1.00 20.00     0.008 C 
ENDBRANCH   3   4
BRANCH   3   6
HETATM    6  O8  UNL     1     -32.792   7.155   6.340  1.00 20.00    -0.389 OA
HETATM    7  H22 UNL     1     -33.474   7.608   6.855  1.00 20.00     0.210 HD
ENDBRANCH   3   6
BRANCH   2   8
HETATM    8  C6  UNL     1     -31.829   7.530   3.576  1.00 20.00     0.003 C 
HETATM    9  C4  UNL     1     -31.871   8.134   2.195  1.00 20.00     0.005 C 
ENDBRANCH   2   8
TORSDOF 3
