REMARK  3 active torsions:
REMARK  status: ('A' for Active; 'I' for Inactive)
REMARK    1  A    between atoms: C1_1  and  C8_8 
REMARK    2  A    between atoms: C1_1  and  C9_9 
REMARK    3  A    between atoms: C9_9  and  C10_10 
ROOT
HETATM    1  C4  UNL     1     -33.324   5.340   2.552  1.00 20.00     0.018 C 
HETATM    2  C9  UNL     1     -33.044   6.232   3.767  1.00 20.00     0.059 C 
ENDROOT
BRANCH   2   3
HETATM    3  C1  UNL     1     -34.242   6.118   4.721  1.00 20.00     0.134 C 
HETATM    4  O11 UNL     1     -35.391   5.982   4.297  1.00 20.00    -0.297 OA
BRANCH   3   5
HETATM    5  C8  UNL     1     -33.941   6.143   6.219  1.00 20.00     0.048 C 
HETATM    6  C2  UNL     1     -33.688   4.723   6.711  1.00 20.00     0.017 C 
HETATM    7  C3  UNL     1     -35.082   6.795   6.995  1.00 20.00     0.017 C 
ENDBRANCH   3   5
ENDBRANCH   2   3
BRANCH   2   8
HETATM    8  C10 UNL     1     -32.672   7.713   3.430  1.00 20.00    -0.041 C 
HETATM    9  C5  UNL     1     -31.245   8.021   3.935  1.00 20.00     0.015 C 
HETATM   10  C6  UNL     1     -33.634   8.682   4.150  1.00 20.00     0.015 C 
HETATM   11  C7  UNL     1     -32.717   8.018   1.921  1.00 20.00     0.015 C 
ENDBRANCH   2   8
TORSDOF 3
