REMARK  2 active torsions:
REMARK  status: ('A' for Active; 'I' for Inactive)
REMARK    1  A    between atoms: C3_3  and  C7_7 
REMARK    2  A    between atoms: C3_3  and  O8_8 
ROOT
HETATM    1  C1  UNL     1     -35.083   5.457   4.135  1.00 20.00     0.045 A 
HETATM    2  C2  UNL     1     -33.677   5.007   3.835  1.00 20.00     0.019 A 
HETATM    3  C3  UNL     1     -33.915   6.303   4.572  1.00 20.00     0.065 A 
HETATM    4  C4  UNL     1     -33.182   4.988   2.430  1.00 20.00     0.013 C 
ENDROOT
BRANCH   3   5
HETATM    5  C7  UNL     1     -33.575   6.410   6.021  1.00 20.00     0.012 C 
HETATM    6  C5  UNL     1     -34.282   7.603   6.689  1.00 20.00     0.012 C 
HETATM    7  C6  UNL     1     -33.924   5.120   6.786  1.00 20.00     0.012 C 
ENDBRANCH   3   5
BRANCH   3   8
HETATM    8  O8  UNL     1     -33.718   7.525   3.841  1.00 20.00    -0.389 OA
HETATM    9  H22 UNL     1     -32.943   7.947   4.235  1.00 20.00     0.210 HD
ENDBRANCH   3   8
TORSDOF 2
