REMARK  5 active torsions:
REMARK  status: ('A' for Active; 'I' for Inactive)
REMARK    1  A    between atoms: C4_4  and  C7_7 
REMARK    2  A    between atoms: C5_5  and  C8_8 
REMARK    3  A    between atoms: C6_6  and  C7_7 
REMARK    4  A    between atoms: C6_6  and  O9_9 
REMARK    5  A    between atoms: C7_7  and  C8_8 
ROOT
HETATM    1  C7  UNL     1     -33.467   6.983   3.050  1.00 20.00     0.027 C 
ENDROOT
BRANCH   1   2
HETATM    2  C4  UNL     1     -33.902   5.786   2.174  1.00 20.00     0.004 C 
HETATM    3  C1  UNL     1     -32.985   4.575   2.301  1.00 20.00     0.005 C 
ENDBRANCH   1   2
BRANCH   1   4
HETATM    4  C6  UNL     1     -32.090   7.515   2.605  1.00 20.00     0.173 C 
BRANCH   4   5
HETATM    5  O9  UNL     1     -32.113   7.936   1.247  1.00 20.00    -0.396 OA
HETATM    6  C3  UNL     1     -32.625   9.256   1.120  1.00 20.00     0.201 C 
ENDBRANCH   4   5
ENDBRANCH   1   4
BRANCH   1   7
HETATM    7  C8  UNL     1     -33.494   6.663   4.574  1.00 20.00     0.088 C 
HETATM    8 CL10 UNL     1     -33.373   8.192   5.520  1.00 20.00    -0.125 Cl
BRANCH   7   9
HETATM    9  C5  UNL     1     -34.722   5.858   5.030  1.00 20.00     0.016 C 
HETATM   10  C2  UNL     1     -34.752   5.601   6.533  1.00 20.00     0.006 C 
ENDBRANCH   7   9
ENDBRANCH   1   7
TORSDOF 5
