REMARK  2 active torsions:
REMARK  status: ('A' for Active; 'I' for Inactive)
REMARK    1  A    between atoms: C3_3  and  C6_6 
REMARK    2  A    between atoms: C6_6  and  O9_9 
ROOT
HETATM    1  C2  UNL     1     -33.665   8.557   3.743  1.00 20.00     0.045 A 
HETATM    2  C5  UNL     1     -32.345   7.906   3.417  1.00 20.00     0.019 A 
HETATM    3  C6  UNL     1     -33.260   7.290   4.453  1.00 20.00     0.066 A 
HETATM    4  C8  UNL     1     -32.130   7.277   2.084  1.00 20.00     0.013 C 
ENDROOT
BRANCH   3   5
HETATM    5  C3  UNL     1     -34.008   5.974   4.260  1.00 20.00     0.024 A 
HETATM    6  C1  UNL     1     -33.520   4.669   4.833  1.00 20.00     0.012 A 
HETATM    7  C4  UNL     1     -34.802   5.276   5.340  1.00 20.00    -0.011 A 
HETATM    8  C7  UNL     1     -34.880   5.809   6.729  1.00 20.00     0.010 C 
ENDBRANCH   3   5
BRANCH   3   9
HETATM    9  O9  UNL     1     -32.820   7.489   5.817  1.00 20.00    -0.389 OA
HETATM   10  H23 UNL     1     -33.572   7.884   6.272  1.00 20.00     0.210 HD
ENDBRANCH   3   9
TORSDOF 2
