REMARK  4 active torsions:
REMARK  status: ('A' for Active; 'I' for Inactive)
REMARK    1  A    between atoms: C6_6  and  C7_7 
REMARK    2  A    between atoms: C6_6  and  C9_9 
REMARK    3  A    between atoms: C8_8  and  C10_10 
REMARK    4  A    between atoms: C9_9  and  C10_10 
ROOT
HETATM    1  C5  UNL     1     -33.179   5.209   2.248  1.00 20.00     0.011 C 
HETATM    2  C9  UNL     1     -32.837   6.430   3.118  1.00 20.00     0.001 C 
ENDROOT
BRANCH   2   3
HETATM    3  C6  UNL     1     -31.479   7.053   2.713  1.00 20.00     0.009 C 
BRANCH   3   4
HETATM    4  C7  UNL     1     -31.511   8.014   1.505  1.00 20.00    -0.022 C 
HETATM    5  C1  UNL     1     -32.427   9.216   1.737  1.00 20.00     0.009 C 
HETATM    6  C2  UNL     1     -31.969   7.253   0.256  1.00 20.00     0.009 C 
ENDBRANCH   3   4
ENDBRANCH   2   3
BRANCH   2   7
HETATM    7  C10 UNL     1     -32.915   6.077   4.635  1.00 20.00     0.089 C 
HETATM    8 CL11 UNL     1     -32.916   7.591   5.619  1.00 20.00    -0.124 Cl
BRANCH   7   9
HETATM    9  C8  UNL     1     -34.106   5.171   5.058  1.00 20.00    -0.004 C 
HETATM   10  C3  UNL     1     -35.464   5.798   4.721  1.00 20.00     0.011 C 
HETATM   11  C4  UNL     1     -34.081   4.863   6.564  1.00 20.00     0.011 C 
ENDBRANCH   7   9
ENDBRANCH   2   7
TORSDOF 4
