REMARK  2 active torsions:
REMARK  status: ('A' for Active; 'I' for Inactive)
REMARK    1  A    between atoms: C3_3  and  C6_6 
REMARK    2  A    between atoms: C6_6  and  O9_9 
ROOT
HETATM    1  C2  UNL     1     -35.243   5.420   4.802  1.00 20.00     0.045 A 
HETATM    2  C5  UNL     1     -34.016   5.137   5.629  1.00 20.00     0.019 A 
HETATM    3  C6  UNL     1     -33.875   5.573   4.187  1.00 20.00     0.066 A 
HETATM    4  C8  UNL     1     -33.653   6.035   6.761  1.00 20.00     0.013 C 
ENDROOT
BRANCH   3   5
HETATM    5  C3  UNL     1     -33.325   6.929   3.752  1.00 20.00     0.024 A 
HETATM    6  C1  UNL     1     -32.156   7.587   4.436  1.00 20.00     0.012 A 
HETATM    7  C4  UNL     1     -32.012   7.073   3.028  1.00 20.00    -0.011 A 
HETATM    8  C7  UNL     1     -31.880   8.026   1.891  1.00 20.00     0.010 C 
ENDBRANCH   3   5
BRANCH   3   9
HETATM    9  O9  UNL     1     -33.507   4.505   3.284  1.00 20.00    -0.389 OA
HETATM   10  H23 UNL     1     -34.173   4.519   2.587  1.00 20.00     0.210 HD
ENDBRANCH   3   9
TORSDOF 2
