REMARK  3 active torsions:
REMARK  status: ('A' for Active; 'I' for Inactive)
REMARK    1  A    between atoms: C2_2  and  C6_6 
REMARK    2  A    between atoms: C3_3  and  C7_7 
REMARK    3  A    between atoms: C3_3  and  O8_8 
ROOT
HETATM    1  C1  UNL     1     -34.345   7.448   4.159  1.00 20.00     0.045 A 
HETATM    2  C2  UNL     1     -34.022   6.295   5.073  1.00 20.00     0.022 A 
HETATM    3  C3  UNL     1     -32.907   7.058   4.392  1.00 20.00     0.062 A 
ENDROOT
BRANCH   3   4
HETATM    4  C7  UNL     1     -32.103   6.472   3.280  1.00 20.00     0.034 C 
HETATM    5  C5  UNL     1     -31.983   7.393   2.094  1.00 20.00     0.008 C 
ENDBRANCH   3   4
BRANCH   3   6
HETATM    6  O8  UNL     1     -32.150   7.937   5.245  1.00 20.00    -0.389 OA
HETATM    7  H22 UNL     1     -32.607   7.936   6.095  1.00 20.00     0.210 HD
ENDBRANCH   3   6
BRANCH   2   8
HETATM    8  C6  UNL     1     -34.389   4.904   4.686  1.00 20.00     0.003 C 
HETATM    9  C4  UNL     1     -33.553   3.859   5.381  1.00 20.00     0.005 C 
ENDBRANCH   2   8
TORSDOF 3
