REMARK  3 active torsions:
REMARK  status: ('A' for Active; 'I' for Inactive)
REMARK    1  A    between atoms: C5_5  and  C9_9 
REMARK    2  A    between atoms: C6_6  and  C11_11 
REMARK    3  A    between atoms: C10_10  and  C11_11 
ROOT
HETATM    1  C1  UNL     1     -34.400   7.421   4.582  1.00 20.00     0.005 C 
HETATM    2  C2  UNL     1     -34.384   5.219   3.336  1.00 20.00     0.005 C 
HETATM    3  C3  UNL     1     -32.921   7.622   4.246  1.00 20.00     0.006 C 
HETATM    4  C4  UNL     1     -32.906   5.419   3.000  1.00 20.00     0.006 C 
HETATM    5  C5  UNL     1     -34.815   5.944   4.619  1.00 20.00    -0.015 C 
HETATM    6  C6  UNL     1     -32.491   6.897   2.963  1.00 20.00     0.004 C 
ENDROOT
BRANCH   6   7
HETATM    7  C11 UNL     1     -33.024   7.601   1.712  1.00 20.00     0.086 C 
HETATM    8 CL12 UNL     1     -32.568   6.610   0.303  1.00 20.00    -0.125 Cl
BRANCH   7   9
HETATM    9  C10 UNL     1     -32.469   9.017   1.616  1.00 20.00     0.016 C 
HETATM   10  C8  UNL     1     -32.980   9.764   0.391  1.00 20.00     0.006 C 
ENDBRANCH   7   9
ENDBRANCH   6   7
BRANCH   5  11
HETATM   11  C9  UNL     1     -34.282   5.240   5.870  1.00 20.00     0.000 C 
HETATM   12  C7  UNL     1     -34.747   5.910   7.121  1.00 20.00     0.005 C 
ENDBRANCH   5  11
TORSDOF 3
