REMARK  2 active torsions:
REMARK  status: ('A' for Active; 'I' for Inactive)
REMARK    1  A    between atoms: C6_6  and  C9_9 
REMARK    2  A    between atoms: C8_8  and  C9_9 
ROOT
HETATM    1  C1  UNL     1     -34.116   4.600   5.299  1.00 20.00     0.027 C 
HETATM    2  C2  UNL     1     -34.304   5.343   3.977  1.00 20.00     0.008 C 
HETATM    3  C3  UNL     1     -32.954   7.470   4.540  1.00 20.00     0.032 C 
HETATM    4  C4  UNL     1     -34.482   5.406   6.542  1.00 20.00     0.167 C 
HETATM    5  C5  UNL     1     -32.919   7.144   6.027  1.00 20.00     0.168 C 
HETATM    6  C6  UNL     1     -33.110   6.247   3.622  1.00 20.00     0.006 C 
HETATM    7  O10 UNL     1     -34.227   6.800   6.463  1.00 20.00    -0.391 OA
ENDROOT
BRANCH   6   8
HETATM    8  C9  UNL     1     -33.229   6.716   2.168  1.00 20.00     0.086 C 
HETATM    9 CL11 UNL     1     -33.356   5.262   1.149  1.00 20.00    -0.125 Cl
BRANCH   8  10
HETATM   10  C8  UNL     1     -32.034   7.579   1.788  1.00 20.00     0.016 C 
HETATM   11  C7  UNL     1     -32.115   8.086   0.355  1.00 20.00     0.006 C 
ENDBRANCH   8  10
ENDBRANCH   6   8
TORSDOF 2
