REMARK  4 active torsions:
REMARK  status: ('A' for Active; 'I' for Inactive)
REMARK    1  A    between atoms: C1_1  and  C9_9 
REMARK    2  A    between atoms: C2_2  and  C7_7 
REMARK    3  A    between atoms: C2_2  and  C8_8 
REMARK    4  A    between atoms: C8_8  and  O10_10 
ROOT
HETATM    1  C1  UNL     1     -33.424   6.874   3.719  1.00 20.00    -0.013 C 
HETATM    2  C2  UNL     1     -33.929   6.590   4.939  1.00 20.00    -0.060 C 
ENDROOT
BRANCH   2   3
HETATM    3  C7  UNL     1     -33.783   7.442   6.180  1.00 20.00     0.031 C 
HETATM    4  C3  UNL     1     -34.473   6.834   7.395  1.00 20.00     0.010 C 
ENDBRANCH   2   3
BRANCH   2   5
HETATM    5  C8  UNL     1     -34.741   5.324   5.120  1.00 20.00     0.198 C 
BRANCH   5   6
HETATM    6  O10 UNL     1     -36.114   5.597   4.870  1.00 20.00    -0.397 OA
HETATM    7  H28 UNL     1     -36.592   4.762   4.997  1.00 20.00     0.209 HD
ENDBRANCH   5   6
ENDBRANCH   2   5
BRANCH   1   8
HETATM    8  C9  UNL     1     -32.571   8.038   3.223  1.00 20.00    -0.033 C 
HETATM    9  C4  UNL     1     -32.274   7.885   1.722  1.00 20.00     0.018 C 
HETATM   10  C5  UNL     1     -33.196   9.414   3.510  1.00 20.00     0.018 C 
HETATM   11  C6  UNL     1     -31.219   7.992   3.975  1.00 20.00     0.018 C 
ENDBRANCH   1   8
TORSDOF 4
