REMARK  2 active torsions:
REMARK  status: ('A' for Active; 'I' for Inactive)
REMARK    1  A    between atoms: C3_3  and  C8_8 
REMARK    2  A    between atoms: C4_4  and  C9_9 
ROOT
HETATM    1  C1  UNL     1     -32.479   6.067   2.484  1.00 20.00     0.034 C 
HETATM    2  C2  UNL     1     -32.868   4.673   2.931  1.00 20.00     0.168 C 
HETATM    3  C3  UNL     1     -32.678   6.866   3.755  1.00 20.00     0.031 C 
HETATM    4  C4  UNL     1     -33.942   6.218   4.311  1.00 20.00     0.134 C 
HETATM    5  O10 UNL     1     -33.856   4.824   3.961  1.00 20.00    -0.385 OA
ENDROOT
BRANCH   4   6
HETATM    6  C9  UNL     1     -34.089   6.351   5.816  1.00 20.00    -0.025 C 
HETATM    7  C5  UNL     1     -35.323   5.564   6.299  1.00 20.00     0.017 C 
HETATM    8  C6  UNL     1     -34.260   7.833   6.202  1.00 20.00     0.017 C 
HETATM    9  C7  UNL     1     -32.836   5.794   6.521  1.00 20.00     0.017 C 
ENDBRANCH   4   6
BRANCH   3  10
HETATM   10  C8  UNL     1     -32.799   8.362   3.522  1.00 20.00     0.121 C 
HETATM   11 CL11 UNL     1     -31.642   8.890   2.284  1.00 20.00    -0.130 Cl
ENDBRANCH   3  10
TORSDOF 2
