REMARK  1 active torsions:
REMARK  status: ('A' for Active; 'I' for Inactive)
REMARK    1  A    between atoms: C3_3  and  C8_8 
ROOT
HETATM    1  C1  UNL     1     -31.645   8.093   3.970  1.00 20.00     0.284 C 
HETATM    2  C2  UNL     1     -34.225   6.597   4.247  1.00 20.00     0.110 C 
HETATM    3  C3  UNL     1     -33.053   6.557   5.233  1.00 20.00     0.233 C 
HETATM    4  C4  UNL     1     -32.633   8.326   2.823  1.00 20.00     0.071 C 
HETATM    5  C5  UNL     1     -31.898   8.670   1.531  1.00 20.00     0.023 C 
HETATM    6  N9  UNL     1     -32.306   7.821   5.248  1.00 20.00     0.090 N 
HETATM    7  S10 UNL     1     -33.655   6.841   2.540  1.00 20.00    -0.161 SA
HETATM    8  H27 UNL     1     -31.598   7.784   5.982  1.00 20.00     0.316 HD
ENDROOT
BRANCH   3   9
HETATM    9  C8  UNL     1     -33.580   6.294   6.646  1.00 20.00     0.011 C 
HETATM   10  C6  UNL     1     -34.517   7.415   7.083  1.00 20.00     0.012 C 
HETATM   11  C7  UNL     1     -34.287   4.943   6.708  1.00 20.00     0.012 C 
ENDBRANCH   3   9
TORSDOF 1
