REMARK  2 active torsions:
REMARK  status: ('A' for Active; 'I' for Inactive)
REMARK    1  A    between atoms: C4_4  and  C8_8 
REMARK    2  A    between atoms: C5_5  and  C9_9 
ROOT
HETATM    1  C1  UNL     1     -34.694   6.101   6.745  1.00 20.00     0.027 C 
HETATM    2  C2  UNL     1     -34.712   5.210   5.506  1.00 20.00     0.010 C 
HETATM    3  C3  UNL     1     -33.414   6.922   6.805  1.00 20.00     0.168 C 
HETATM    4  C4  UNL     1     -34.382   5.999   4.228  1.00 20.00     0.029 C 
HETATM    5  C5  UNL     1     -33.085   6.804   4.457  1.00 20.00     0.130 C 
HETATM    6  O10 UNL     1     -33.218   7.659   5.599  1.00 20.00    -0.385 OA
ENDROOT
BRANCH   5   7
HETATM    7  C9  UNL     1     -32.693   7.674   3.268  1.00 20.00     0.007 C 
HETATM    8  C6  UNL     1     -31.424   8.467   3.576  1.00 20.00     0.012 C 
HETATM    9  C7  UNL     1     -32.500   6.821   2.015  1.00 20.00     0.012 C 
ENDBRANCH   5   7
BRANCH   4  10
HETATM   10  C8  UNL     1     -35.571   6.877   3.818  1.00 20.00     0.121 C 
HETATM   11 CL11 UNL     1     -36.987   5.864   3.501  1.00 20.00    -0.130 Cl
ENDBRANCH   4  10
TORSDOF 2
