REMARK  3 active torsions:
REMARK  status: ('A' for Active; 'I' for Inactive)
REMARK    1  A    between atoms: C1_1  and  C6_6 
REMARK    2  A    between atoms: C2_2  and  C3_3 
REMARK    3  A    between atoms: C3_3  and  C8_8 
ROOT
HETATM    1  C1  UNL     1     -33.221   6.197   3.347  1.00 20.00    -0.012 C 
HETATM    2  C3  UNL     1     -33.917   6.134   4.496  1.00 20.00    -0.024 C 
ENDROOT
BRANCH   2   3
HETATM    3  C2  UNL     1     -34.871   4.999   4.628  1.00 20.00     0.265 C 
HETATM    4  O9  UNL     1     -34.524   3.825   4.584  1.00 20.00    -0.302 OA
ENDBRANCH   2   3
BRANCH   2   5
HETATM    5  C8  UNL     1     -33.833   7.127   5.622  1.00 20.00     0.037 C 
HETATM    6  C7  UNL     1     -34.753   6.761   6.779  1.00 20.00     0.010 C 
ENDBRANCH   2   5
BRANCH   1   7
HETATM    7  C6  UNL     1     -32.227   7.221   2.967  1.00 20.00     0.009 A 
HETATM    8  C4  UNL     1     -31.990   7.472   1.514  1.00 20.00     0.009 A 
HETATM    9  C5  UNL     1     -32.718   8.486   2.343  1.00 20.00     0.009 A 
ENDBRANCH   1   7
TORSDOF 3
