REMARK  4 active torsions:
REMARK  status: ('A' for Active; 'I' for Inactive)
REMARK    1  A    between atoms: C2_2  and  C8_8 
REMARK    2  A    between atoms: C3_3  and  C9_9 
REMARK    3  A    between atoms: C3_3  and  O11_11 
REMARK    4  A    between atoms: C9_9  and  C10_10 
ROOT
HETATM    1  C1  UNL     1     -33.016   6.378   2.472  1.00 20.00     0.045 A 
HETATM    2  C2  UNL     1     -33.459   7.789   2.186  1.00 20.00     0.022 A 
HETATM    3  C3  UNL     1     -33.149   7.367   3.602  1.00 20.00     0.063 A 
ENDROOT
BRANCH   3   4
HETATM    4  C9  UNL     1     -34.277   7.216   4.615  1.00 20.00     0.046 C 
BRANCH   4   5
HETATM    5  C10 UNL     1     -34.251   5.919   5.465  1.00 20.00    -0.049 C 
HETATM    6  C5  UNL     1     -35.105   4.856   4.746  1.00 20.00     0.014 C 
HETATM    7  C6  UNL     1     -34.846   6.160   6.863  1.00 20.00     0.014 C 
HETATM    8  C7  UNL     1     -32.819   5.378   5.610  1.00 20.00     0.014 C 
ENDBRANCH   4   5
ENDBRANCH   3   4
BRANCH   3   9
HETATM    9  O11 UNL     1     -31.915   7.833   4.174  1.00 20.00    -0.389 OA
HETATM   10  H31 UNL     1     -31.466   7.047   4.511  1.00 20.00     0.210 HD
ENDBRANCH   3   9
BRANCH   2  11
HETATM   11  C8  UNL     1     -32.565   8.715   1.434  1.00 20.00     0.003 C 
HETATM   12  C4  UNL     1     -32.659   8.540  -0.060  1.00 20.00     0.005 C 
ENDBRANCH   2  11
TORSDOF 4
