REMARK  2 active torsions:
REMARK  status: ('A' for Active; 'I' for Inactive)
REMARK    1  A    between atoms: C1_1  and  C6_6 
REMARK    2  A    between atoms: C2_2  and  C7_7 
ROOT
HETATM    1  C3  UNL     1     -34.184   5.067   4.830  1.00 20.00     0.037 C 
HETATM    2  C4  UNL     1     -34.766   5.136   6.225  1.00 20.00     0.168 C 
HETATM    3  C5  UNL     1     -33.706   7.163   5.786  1.00 20.00     0.176 C 
HETATM    4  C6  UNL     1     -34.097   6.533   4.457  1.00 20.00     0.034 C 
HETATM    5  O8  UNL     1     -34.245   6.329   6.824  1.00 20.00    -0.390 OA
ENDROOT
BRANCH   4   6
HETATM    6  C1  UNL     1     -33.142   6.816   3.350  1.00 20.00    -0.023 C 
HETATM    7  C2  UNL     1     -32.431   7.948   3.247  1.00 20.00    -0.015 C 
BRANCH   7   8
HETATM    8  C7  UNL     1     -31.467   8.222   2.140  1.00 20.00     0.141 C 
HETATM    9 CL9  UNL     1     -32.303   9.024   0.793  1.00 20.00    -0.126 Cl
ENDBRANCH   7   8
ENDBRANCH   4   6
TORSDOF 2
