REMARK  2 active torsions:
REMARK  status: ('A' for Active; 'I' for Inactive)
REMARK    1  A    between atoms: C3_3  and  C7_7 
REMARK    2  A    between atoms: C4_4  and  C9_9 
ROOT
HETATM    1  C1  UNL     1     -34.930   5.139   6.034  1.00 20.00    -0.003 C 
HETATM    2  C2  UNL     1     -35.076   5.184   4.704  1.00 20.00     0.131 C 
HETATM    3  C5  UNL     1     -33.858   5.913   6.733  1.00 20.00     0.032 C 
HETATM    4  C6  UNL     1     -33.244   6.949   5.794  1.00 20.00     0.040 C 
HETATM    5  C7  UNL     1     -33.049   6.342   4.409  1.00 20.00     0.151 C 
HETATM    6  O10 UNL     1     -34.271   5.871   3.831  1.00 20.00    -0.354 OA
ENDROOT
BRANCH   5   7
HETATM    7  C3  UNL     1     -32.562   7.372   3.444  1.00 20.00     0.009 C 
HETATM    8  C4  UNL     1     -32.328   7.218   2.126  1.00 20.00    -0.071 C 
HETATM    9  C8  UNL     1     -32.558   5.884   1.465  1.00 20.00     0.044 C 
BRANCH   8  10
HETATM   10  C9  UNL     1     -31.797   8.298   1.224  1.00 20.00     0.148 C 
HETATM   11 CL11 UNL     1     -32.903   9.688   1.201  1.00 20.00    -0.126 Cl
ENDBRANCH   8  10
ENDBRANCH   5   7
TORSDOF 2
