REMARK  2 active torsions:
REMARK  status: ('A' for Active; 'I' for Inactive)
REMARK    1  A    between atoms: C5_5  and  C7_7 
REMARK    2  A    between atoms: C7_7  and  C8_8 
ROOT
HETATM    1  C1  UNL     1     -33.447   5.206   3.080  1.00 20.00     0.066 C 
HETATM    2  C2  UNL     1     -34.262   5.228   5.420  1.00 20.00     0.048 C 
HETATM    3  C3  UNL     1     -34.388   6.338   6.441  1.00 20.00     0.169 C 
HETATM    4  C4  UNL     1     -34.079   6.004   4.134  1.00 20.00     0.123 C 
HETATM    5  C5  UNL     1     -33.208   7.166   4.605  1.00 20.00     0.139 C 
HETATM    6  N9  UNL     1     -32.946   4.574   2.246  1.00 20.00    -0.197 NA
HETATM    7  O10 UNL     1     -33.572   7.421   5.975  1.00 20.00    -0.384 OA
ENDROOT
BRANCH   5   8
HETATM    8  C7  UNL     1     -33.398   8.436   3.793  1.00 20.00     0.033 C 
BRANCH   8   9
HETATM    9  C8  UNL     1     -32.588   8.395   2.501  1.00 20.00    -0.002 C 
HETATM   10  C6  UNL     1     -32.799   9.654   1.675  1.00 20.00     0.005 C 
ENDBRANCH   8   9
ENDBRANCH   5   8
TORSDOF 2
