REMARK  4 active torsions:
REMARK  status: ('A' for Active; 'I' for Inactive)
REMARK    1  A    between atoms: C1_1  and  C9_9 
REMARK    2  A    between atoms: C2_2  and  C6_6 
REMARK    3  A    between atoms: C7_7  and  C9_9 
REMARK    4  A    between atoms: C8_8  and  C9_9 
ROOT
HETATM    1  C1  UNL     1     -32.959   6.983   4.606  1.00 20.00    -0.019 C 
HETATM    2  C2  UNL     1     -32.440   7.955   3.831  1.00 20.00    -0.073 C 
HETATM    3  C3  UNL     1     -31.218   8.712   4.282  1.00 20.00     0.044 C 
ENDROOT
BRANCH   1   4
HETATM    4  C9  UNL     1     -34.182   6.133   4.333  1.00 20.00     0.007 C 
BRANCH   4   5
HETATM    5  C7  UNL     1     -34.880   5.744   5.655  1.00 20.00     0.004 C 
HETATM    6  C4  UNL     1     -33.979   4.967   6.607  1.00 20.00     0.006 C 
ENDBRANCH   4   5
BRANCH   4   7
HETATM    7  C8  UNL     1     -33.798   4.855   3.558  1.00 20.00     0.004 C 
HETATM    8  C5  UNL     1     -33.184   5.138   2.192  1.00 20.00     0.006 C 
ENDBRANCH   4   7
ENDBRANCH   1   4
BRANCH   2   9
HETATM    9  C6  UNL     1     -32.973   8.347   2.481  1.00 20.00     0.148 C 
HETATM   10 CL10 UNL     1     -31.731   8.118   1.232  1.00 20.00    -0.126 Cl
ENDBRANCH   2   9
TORSDOF 4
