REMARK  2 active torsions:
REMARK  status: ('A' for Active; 'I' for Inactive)
REMARK    1  A    between atoms: C6_6  and  C8_8 
REMARK    2  A    between atoms: C7_7  and  C9_9 
ROOT
HETATM    1  C1  UNL     1     -32.352   6.253   2.281  1.00 20.00     0.027 C 
HETATM    2  C4  UNL     1     -33.627   5.528   2.692  1.00 20.00     0.010 C 
HETATM    3  C5  UNL     1     -32.245   7.587   3.000  1.00 20.00     0.168 C 
HETATM    4  C7  UNL     1     -33.744   5.439   4.222  1.00 20.00     0.029 C 
HETATM    5  C8  UNL     1     -33.540   6.835   4.852  1.00 20.00     0.130 C 
HETATM    6  O10 UNL     1     -32.295   7.394   4.411  1.00 20.00    -0.385 OA
ENDROOT
BRANCH   5   7
HETATM    7  C6  UNL     1     -33.500   6.793   6.355  1.00 20.00     0.015 A 
HETATM    8  C2  UNL     1     -33.707   8.050   7.154  1.00 20.00     0.007 A 
HETATM    9  C3  UNL     1     -34.762   6.978   7.151  1.00 20.00     0.007 A 
ENDBRANCH   5   7
BRANCH   4  10
HETATM   10  C9  UNL     1     -35.085   4.808   4.600  1.00 20.00     0.121 C 
HETATM   11 CL11 UNL     1     -36.418   5.798   3.983  1.00 20.00    -0.130 Cl
ENDBRANCH   4  10
TORSDOF 2
