REMARK  2 active torsions:
REMARK  status: ('A' for Active; 'I' for Inactive)
REMARK    1  A    between atoms: C1_1  and  C7_7 
REMARK    2  A    between atoms: C2_2  and  C8_8 
ROOT
HETATM    1  C3  UNL     1     -33.962   5.296   4.218  1.00 20.00     0.035 C 
HETATM    2  C4  UNL     1     -33.498   7.132   5.862  1.00 20.00     0.035 C 
HETATM    3  C5  UNL     1     -34.760   4.606   5.317  1.00 20.00     0.168 C 
HETATM    4  C6  UNL     1     -34.323   6.342   6.871  1.00 20.00     0.168 C 
HETATM    5  C7  UNL     1     -33.943   6.803   4.442  1.00 20.00     0.012 C 
HETATM    6  O9  UNL     1     -34.241   4.941   6.605  1.00 20.00    -0.391 OA
ENDROOT
BRANCH   5   7
HETATM    7  C1  UNL     1     -32.945   7.415   3.478  1.00 20.00    -0.025 C 
HETATM    8  C2  UNL     1     -33.038   7.316   2.144  1.00 20.00    -0.020 C 
BRANCH   8   9
HETATM    9  C8  UNL     1     -32.046   7.909   1.204  1.00 20.00     0.112 C 
HETATM   10 BR10 UNL     1     -32.980   9.126   0.009  1.00 20.00    -0.092 Br
ENDBRANCH   8   9
ENDBRANCH   5   7
TORSDOF 2
