REMARK  2 active torsions:
REMARK  status: ('A' for Active; 'I' for Inactive)
REMARK    1  A    between atoms: C4_4  and  C5_5 
REMARK    2  A    between atoms: C6_6  and  C7_7 
ROOT
HETATM    1  C1  UNL     1     -33.554   7.311   6.104  1.00 20.00     0.038 A 
HETATM    2  C2  UNL     1     -34.150   6.336   6.870  1.00 20.00     0.142 A 
HETATM    3  C3  UNL     1     -34.157   5.587   4.823  1.00 20.00     0.152 A 
HETATM    4  C4  UNL     1     -33.559   6.825   4.775  1.00 20.00    -0.011 A 
HETATM    5  O10 UNL     1     -34.520   5.282   6.097  1.00 20.00    -0.334 OA
ENDROOT
BRANCH   4   6
HETATM    6  C5  UNL     1     -33.042   7.477   3.566  1.00 20.00     0.023 C 
HETATM    7  C7  UNL     1     -32.557   6.839   2.486  1.00 20.00    -0.024 C 
HETATM    8  C8  UNL     1     -32.471   5.361   2.261  1.00 20.00     0.051 C 
BRANCH   7   9
HETATM    9  C6  UNL     1     -32.075   7.716   1.384  1.00 20.00     0.265 C 
HETATM   10  O9  UNL     1     -32.113   8.940   1.440  1.00 20.00    -0.302 OA
ENDBRANCH   7   9
ENDBRANCH   4   6
TORSDOF 2
