REMARK  3 active torsions:
REMARK  status: ('A' for Active; 'I' for Inactive)
REMARK    1  A    between atoms: C1_1  and  C8_8 
REMARK    2  A    between atoms: C2_2  and  C3_3 
REMARK    3  A    between atoms: C3_3  and  C9_9 
ROOT
HETATM    1  C1  UNL     1     -32.661   7.524   3.252  1.00 20.00    -0.012 C 
HETATM    2  C3  UNL     1     -33.439   7.018   4.229  1.00 20.00    -0.020 C 
ENDROOT
BRANCH   2   3
HETATM    3  C2  UNL     1     -33.083   7.500   5.598  1.00 20.00     0.265 C 
HETATM    4  O10 UNL     1     -33.667   7.158   6.618  1.00 20.00    -0.302 OA
ENDBRANCH   2   3
BRANCH   2   5
HETATM    5  C9  UNL     1     -34.590   6.046   4.057  1.00 20.00     0.013 C 
HETATM    6  C6  UNL     1     -34.330   4.711   4.762  1.00 20.00     0.015 C 
HETATM    7  C7  UNL     1     -35.929   6.648   4.490  1.00 20.00     0.015 C 
ENDBRANCH   2   5
BRANCH   1   8
HETATM    8  C8  UNL     1     -32.735   7.252   1.767  1.00 20.00     0.001 C 
HETATM    9  C4  UNL     1     -31.665   8.062   1.034  1.00 20.00     0.013 C 
HETATM   10  C5  UNL     1     -32.551   5.757   1.502  1.00 20.00     0.013 C 
ENDBRANCH   1   8
TORSDOF 3
