REMARK  3 active torsions:
REMARK  status: ('A' for Active; 'I' for Inactive)
REMARK    1  A    between atoms: C2_2  and  C6_6 
REMARK    2  A    between atoms: C3_3  and  O8_8 
REMARK    3  A    between atoms: C6_6  and  C7_7 
ROOT
HETATM    1  C1  UNL     1     -34.834   5.907   6.885  1.00 20.00     0.045 A 
HETATM    2  C2  UNL     1     -33.662   6.122   5.964  1.00 20.00     0.022 A 
HETATM    3  C3  UNL     1     -35.009   5.728   5.398  1.00 20.00     0.058 A 
HETATM    4  C4  UNL     1     -35.860   6.682   4.627  1.00 20.00     0.046 C 
ENDROOT
BRANCH   2   5
HETATM    5  C6  UNL     1     -33.088   7.484   5.782  1.00 20.00     0.007 C 
BRANCH   5   6
HETATM    6  C7  UNL     1     -32.231   7.599   4.509  1.00 20.00    -0.004 C 
HETATM    7  C5  UNL     1     -33.013   7.265   3.248  1.00 20.00     0.005 C 
ENDBRANCH   5   6
ENDBRANCH   2   5
BRANCH   3   8
HETATM    8  O8  UNL     1     -35.113   4.368   4.938  1.00 20.00    -0.390 OA
HETATM    9  H22 UNL     1     -35.888   4.000   5.382  1.00 20.00     0.210 HD
ENDBRANCH   3   8
TORSDOF 3
