REMARK  1 active torsions:
REMARK  status: ('A' for Active; 'I' for Inactive)
REMARK    1  A    between atoms: C7_7  and  N12_12 
ROOT
HETATM    1  C1  UNL     1     -33.768   6.038   4.941  1.00 20.00     0.134 C 
HETATM    2  C2  UNL     1     -34.096   5.318   3.654  1.00 20.00     0.106 C 
HETATM    3  C4  UNL     1     -32.888   5.268   2.740  1.00 20.00     0.243 C 
HETATM    4  C5  UNL     1     -33.074   7.387   4.832  1.00 20.00     0.082 C 
HETATM    5  C8  UNL     1     -31.939   7.338   3.792  1.00 20.00     0.195 C 
HETATM    6  C9  UNL     1     -34.123   8.482   4.666  1.00 20.00     0.020 C 
HETATM    7  C11 UNL     1     -31.265   8.678   3.516  1.00 20.00     0.041 C 
HETATM    8  N12 UNL     1     -32.341   6.655   2.500  1.00 20.00    -0.061 N 
HETATM    9  O13 UNL     1     -34.140   5.597   6.029  1.00 20.00    -0.297 OA
HETATM   10  H33 UNL     1     -31.440   6.493   1.981  1.00 20.00     0.280 HD
ENDROOT
BRANCH   8  11
HETATM   11  C7  UNL     1     -33.186   7.441   1.526  1.00 20.00     0.193 A 
HETATM   12  C3  UNL     1     -33.132   7.043   0.076  1.00 20.00     0.040 A 
HETATM   13  C6  UNL     1     -32.471   8.316   0.531  1.00 20.00     0.014 A 
HETATM   14  C10 UNL     1     -33.046   9.636   0.149  1.00 20.00     0.012 C 
ENDBRANCH   8  11
TORSDOF 1
