REMARK  2 active torsions:
REMARK  status: ('A' for Active; 'I' for Inactive)
REMARK    1  A    between atoms: C4_4  and  C5_5 
REMARK    2  A    between atoms: C5_5  and  C6_6 
ROOT
HETATM    1  C1  UNL     1     -32.465   7.780   3.750  1.00 20.00     0.038 A 
HETATM    2  C2  UNL     1     -33.548   5.730   3.916  1.00 20.00     0.074 A 
HETATM    3  C3  UNL     1     -33.179   6.874   4.588  1.00 20.00     0.041 A 
HETATM    4  C4  UNL     1     -32.317   7.293   2.470  1.00 20.00    -0.015 A 
HETATM    5  S7  UNL     1     -33.036   5.750   2.282  1.00 20.00    -0.105 SA
HETATM    6 CL8  UNL     1     -33.519   7.201   6.230  1.00 20.00    -0.084 Cl
ENDROOT
BRANCH   4   7
HETATM    7  C5  UNL     1     -31.643   7.926   1.316  1.00 20.00     0.061 C 
BRANCH   7   8
HETATM    8  C6  UNL     1     -32.591   8.587   0.304  1.00 20.00     0.119 C 
HETATM    9 CL9  UNL     1     -33.580   9.858   1.065  1.00 20.00    -0.130 Cl
ENDBRANCH   7   8
ENDBRANCH   4   7
TORSDOF 2
