REMARK  2 active torsions:
REMARK  status: ('A' for Active; 'I' for Inactive)
REMARK    1  A    between atoms: C1_1  and  C9_9 
REMARK    2  A    between atoms: C6_6  and  C9_9 
ROOT
HETATM    1  C2  UNL     1     -34.149   7.537   5.116  1.00 20.00     0.031 C 
HETATM    2  C3  UNL     1     -34.800   5.155   4.658  1.00 20.00     0.031 C 
HETATM    3  C4  UNL     1     -33.485   7.035   6.393  1.00 20.00     0.168 C 
HETATM    4  C5  UNL     1     -34.100   4.788   5.962  1.00 20.00     0.168 C 
HETATM    5  C6  UNL     1     -34.237   6.443   4.043  1.00 20.00     0.000 C 
HETATM    6  O11 UNL     1     -34.150   5.873   6.887  1.00 20.00    -0.391 OA
ENDROOT
BRANCH   5   7
HETATM    7  C9  UNL     1     -32.882   6.201   3.372  1.00 20.00     0.055 C 
HETATM    8  C8  UNL     1     -32.984   5.087   2.335  1.00 20.00     0.018 C 
BRANCH   7   9
HETATM    9  C1  UNL     1     -32.378   7.495   2.740  1.00 20.00     0.127 C 
HETATM   10  C7  UNL     1     -31.069   8.039   3.254  1.00 20.00     0.091 C 
HETATM   11  O10 UNL     1     -33.010   8.093   1.870  1.00 20.00    -0.298 OA
ENDBRANCH   7   9
ENDBRANCH   5   7
TORSDOF 2
