REMARK  4 active torsions:
REMARK  status: ('A' for Active; 'I' for Inactive)
REMARK    1  A    between atoms: C1_1  and  C6_6 
REMARK    2  A    between atoms: C4_4  and  C6_6 
REMARK    3  A    between atoms: C5_5  and  C6_6 
REMARK    4  A    between atoms: C5_5  and  C7_7 
ROOT
HETATM    1  C6  UNL     1     -32.748   6.397   3.640  1.00 20.00     0.063 C 
ENDROOT
BRANCH   1   2
HETATM    2  C1  UNL     1     -32.080   7.485   2.804  1.00 20.00     0.127 C 
HETATM    3  C2  UNL     1     -31.080   8.365   3.508  1.00 20.00     0.091 C 
HETATM    4  O8  UNL     1     -32.337   7.643   1.610  1.00 20.00    -0.298 OA
ENDBRANCH   1   2
BRANCH   1   5
HETATM    5  C4  UNL     1     -33.712   5.582   2.760  1.00 20.00     0.008 C 
HETATM    6  C3  UNL     1     -33.018   4.922   1.577  1.00 20.00     0.006 C 
ENDBRANCH   1   5
BRANCH   1   7
HETATM    7  C5  UNL     1     -33.505   7.024   4.824  1.00 20.00     0.129 C 
BRANCH   7   8
HETATM    8  C7  UNL     1     -34.190   6.003   5.713  1.00 20.00     0.388 C 
HETATM    9  F9  UNL     1     -35.118   5.291   5.042  1.00 20.00    -0.171 F 
HETATM   10  F10 UNL     1     -34.796   6.595   6.764  1.00 20.00    -0.171 F 
HETATM   11  F11 UNL     1     -33.284   5.128   6.205  1.00 20.00    -0.171 F 
ENDBRANCH   7   8
ENDBRANCH   1   7
TORSDOF 4
