REMARK  3 active torsions:
REMARK  status: ('A' for Active; 'I' for Inactive)
REMARK    1  A    between atoms: C2_2  and  C11_11 
REMARK    2  A    between atoms: C3_3  and  C9_9 
REMARK    3  A    between atoms: C9_9  and  C11_11 
ROOT
HETATM    1  C1  UNL     1     -32.524   8.682   1.493  1.00 20.00    -0.111 C 
HETATM    2  C2  UNL     1     -32.366   7.698   2.163  1.00 20.00    -0.106 C 
HETATM    3  C10 UNL     1     -32.717   9.880   0.677  1.00 20.00     0.112 C 
ENDROOT
BRANCH   2   4
HETATM    4  C11 UNL     1     -32.160   6.496   2.972  1.00 20.00     0.114 C 
BRANCH   4   5
HETATM    5  C9  UNL     1     -33.351   6.254   3.899  1.00 20.00     0.058 C 
HETATM    6  C7  UNL     1     -33.175   4.958   4.696  1.00 20.00     0.021 C 
HETATM    7  C5  UNL     1     -34.285   4.739   5.725  1.00 20.00     0.001 C 
HETATM    8  C4  UNL     1     -34.459   5.950   6.634  1.00 20.00     0.000 C 
HETATM    9  C6  UNL     1     -34.708   7.221   5.829  1.00 20.00     0.001 C 
HETATM   10  C8  UNL     1     -33.602   7.466   4.801  1.00 20.00     0.021 C 
BRANCH   5  11
HETATM   11  C3  UNL     1     -34.511   6.098   2.918  1.00 20.00     0.182 C 
HETATM   12  O12 UNL     1     -34.198   5.654   1.779  1.00 20.00    -0.647 OA
HETATM   13  O13 UNL     1     -35.640   6.434   3.374  1.00 20.00    -0.647 OA
ENDBRANCH   5  11
ENDBRANCH   4   5
ENDBRANCH   2   4
TORSDOF 3
