REMARK  4 active torsions:
REMARK  status: ('A' for Active; 'I' for Inactive)
REMARK    1  A    between atoms: C1_1  and  C10_10 
REMARK    2  A    between atoms: C5_5  and  C9_9 
REMARK    3  A    between atoms: C9_9  and  C10_10 
REMARK    4  A    between atoms: C10_10  and  C11_11 
ROOT
HETATM    1  C10 UNL     1     -32.407   7.446   3.299  1.00 20.00     0.058 C 
ENDROOT
BRANCH   1   2
HETATM    2  C1  UNL     1     -33.107   6.213   2.716  1.00 20.00     0.127 C 
HETATM    3  C6  UNL     1     -32.292   4.946   2.630  1.00 20.00     0.091 C 
HETATM    4  O12 UNL     1     -34.281   6.232   2.348  1.00 20.00    -0.298 OA
ENDBRANCH   1   2
BRANCH   1   5
HETATM    5  C9  UNL     1     -33.087   7.904   4.602  1.00 20.00     0.017 C 
BRANCH   5   6
HETATM    6  C5  UNL     1     -33.492   6.715   5.447  1.00 20.00    -0.014 C 
HETATM    7  C3  UNL     1     -34.816   6.006   5.061  1.00 20.00     0.005 C 
HETATM    8  C2  UNL     1     -35.060   5.800   6.570  1.00 20.00     0.001 C 
HETATM    9  C4  UNL     1     -34.159   7.029   6.812  1.00 20.00     0.005 C 
ENDBRANCH   5   6
ENDBRANCH   1   5
BRANCH   1  10
HETATM   10  C11 UNL     1     -32.314   8.546   2.210  1.00 20.00    -0.012 C 
HETATM   11  C7  UNL     1     -33.601   9.361   2.049  1.00 20.00     0.010 C 
HETATM   12  C8  UNL     1     -31.901   7.958   0.857  1.00 20.00     0.010 C 
ENDBRANCH   1  10
TORSDOF 4
