REMARK  5 active torsions:
REMARK  status: ('A' for Active; 'I' for Inactive)
REMARK    1  A    between atoms: C1_1  and  C10_10 
REMARK    2  A    between atoms: C4_4  and  C8_8 
REMARK    3  A    between atoms: C8_8  and  C9_9 
REMARK    4  A    between atoms: C9_9  and  C10_10 
REMARK    5  A    between atoms: C10_10  and  C11_11 
ROOT
HETATM    1  C10 UNL     1     -33.122   6.445   5.018  1.00 20.00     0.058 C 
ENDROOT
BRANCH   1   2
HETATM    2  C1  UNL     1     -34.362   5.804   4.387  1.00 20.00     0.127 C 
HETATM    3  C5  UNL     1     -34.176   4.449   3.751  1.00 20.00     0.091 C 
HETATM    4  O12 UNL     1     -35.459   6.361   4.374  1.00 20.00    -0.298 OA
ENDBRANCH   1   2
BRANCH   1   5
HETATM    5  C9  UNL     1     -32.748   7.755   4.299  1.00 20.00     0.013 C 
BRANCH   5   6
HETATM    6  C8  UNL     1     -32.421   7.533   2.816  1.00 20.00     0.005 C 
BRANCH   6   7
HETATM    7  C4  UNL     1     -32.023   8.809   2.140  1.00 20.00    -0.014 A 
HETATM    8  C2  UNL     1     -32.089   8.925   0.642  1.00 20.00     0.005 A 
HETATM    9  C3  UNL     1     -33.066   9.682   1.498  1.00 20.00     0.005 A 
ENDBRANCH   6   7
ENDBRANCH   5   6
ENDBRANCH   1   5
BRANCH   1  10
HETATM   10  C11 UNL     1     -33.347   6.602   6.545  1.00 20.00    -0.012 C 
HETATM   11  C6  UNL     1     -34.529   7.507   6.904  1.00 20.00     0.010 C 
HETATM   12  C7  UNL     1     -33.513   5.239   7.227  1.00 20.00     0.010 C 
ENDBRANCH   1  10
TORSDOF 5
