REMARK  4 active torsions:
REMARK  status: ('A' for Active; 'I' for Inactive)
REMARK    1  A    between atoms: C4_4  and  C6_6 
REMARK    2  A    between atoms: C6_6  and  C8_8 
REMARK    3  A    between atoms: C7_7  and  C8_8 
REMARK    4  A    between atoms: C8_8  and  O10_10 
ROOT
HETATM    1  C6  UNL     1     -33.312   7.477   3.726  1.00 20.00     0.038 C 
ENDROOT
BRANCH   1   2
HETATM    2  C4  UNL     1     -33.529   6.466   4.835  1.00 20.00     0.014 C 
HETATM    3  C1  UNL     1     -33.827   7.079   6.186  1.00 20.00     0.033 C 
HETATM    4  C2  UNL     1     -34.460   5.915   6.919  1.00 20.00     0.168 C 
HETATM    5  O9  UNL     1     -35.141   5.124   5.933  1.00 20.00    -0.391 OA
HETATM    6  C3  UNL     1     -34.749   5.585   4.630  1.00 20.00     0.172 C 
ENDBRANCH   1   2
BRANCH   1   7
HETATM    7  C8  UNL     1     -32.522   6.893   2.550  1.00 20.00     0.118 C 
BRANCH   7   8
HETATM    8  C7  UNL     1     -32.771   7.704   1.274  1.00 20.00     0.027 C 
HETATM    9  C5  UNL     1     -32.329   9.156   1.401  1.00 20.00     0.007 C 
ENDBRANCH   7   8
BRANCH   7  10
HETATM   10  O10 UNL     1     -32.936   5.543   2.354  1.00 20.00    -0.396 OA
HETATM   11  H26 UNL     1     -33.886   5.571   2.162  1.00 20.00     0.210 HD
ENDBRANCH   7  10
ENDBRANCH   1   7
TORSDOF 4
