REMARK  4 active torsions:
REMARK  status: ('A' for Active; 'I' for Inactive)
REMARK    1  A    between atoms: C6_6  and  C9_9 
REMARK    2  A    between atoms: C7_7  and  C10_10 
REMARK    3  A    between atoms: C8_8  and  O11_11 
REMARK    4  A    between atoms: C9_9  and  C10_10 
ROOT
HETATM    1  C1  UNL     1     -34.446   6.044   5.793  1.00 20.00     0.003 C 
HETATM    2  C2  UNL     1     -33.321   7.022   5.453  1.00 20.00     0.007 C 
HETATM    3  C5  UNL     1     -34.865   5.385   4.476  1.00 20.00     0.032 C 
HETATM    4  C7  UNL     1     -33.306   7.105   3.925  1.00 20.00     0.014 C 
HETATM    5  C8  UNL     1     -33.738   5.701   3.499  1.00 20.00     0.122 C 
ENDROOT
BRANCH   4   6
HETATM    6  C10 UNL     1     -31.961   7.551   3.374  1.00 20.00     0.007 C 
BRANCH   6   7
HETATM    7  C9  UNL     1     -31.989   7.660   1.851  1.00 20.00     0.005 C 
BRANCH   7   8
HETATM    8  C6  UNL     1     -33.047   8.647   1.383  1.00 20.00    -0.014 A 
HETATM    9  C3  UNL     1     -32.703  10.101   1.211  1.00 20.00     0.005 A 
HETATM   10  C4  UNL     1     -32.969   9.243   0.005  1.00 20.00     0.005 A 
ENDBRANCH   7   8
ENDBRANCH   6   7
ENDBRANCH   4   6
BRANCH   5  11
HETATM   11  O11 UNL     1     -32.678   4.768   3.670  1.00 20.00    -0.395 OA
HETATM   12  H29 UNL     1     -33.048   3.888   3.494  1.00 20.00     0.210 HD
ENDBRANCH   5  11
TORSDOF 4
