REMARK  3 active torsions:
REMARK  status: ('A' for Active; 'I' for Inactive)
REMARK    1  A    between atoms: C8_8  and  C10_10 
REMARK    2  A    between atoms: C9_9  and  C11_11 
REMARK    3  A    between atoms: C10_10  and  C11_11 
ROOT
HETATM    1  C1  UNL     1     -34.135   5.167   4.264  1.00 20.00     0.131 C 
HETATM    2  C2  UNL     1     -35.268   5.144   5.268  1.00 20.00     0.079 C 
HETATM    3  C3  UNL     1     -34.898   5.943   6.509  1.00 20.00     0.007 C 
HETATM    4  C4  UNL     1     -34.432   7.352   6.155  1.00 20.00     0.001 C 
HETATM    5  C5  UNL     1     -33.249   7.311   5.189  1.00 20.00     0.012 C 
HETATM    6  C8  UNL     1     -33.588   6.546   3.906  1.00 20.00     0.055 C 
HETATM    7  O12 UNL     1     -33.756   4.135   3.713  1.00 20.00    -0.298 OA
ENDROOT
BRANCH   6   8
HETATM    8  C10 UNL     1     -32.367   6.450   2.996  1.00 20.00     0.012 C 
BRANCH   8   9
HETATM    9  C11 UNL     1     -31.851   7.833   2.613  1.00 20.00     0.005 C 
BRANCH   9  10
HETATM   10  C9  UNL     1     -32.903   8.625   1.852  1.00 20.00    -0.014 A 
HETATM   11  C6  UNL     1     -32.501   9.800   1.005  1.00 20.00     0.005 A 
HETATM   12  C7  UNL     1     -32.980   8.534   0.353  1.00 20.00     0.005 A 
ENDBRANCH   9  10
ENDBRANCH   8   9
ENDBRANCH   6   8
TORSDOF 3
