REMARK  2 active torsions:
REMARK  status: ('A' for Active; 'I' for Inactive)
REMARK    1  A    between atoms: C5_5  and  C11_11 
REMARK    2  A    between atoms: C6_6  and  C10_10 
ROOT
HETATM    1  C1  UNL     1     -33.421   5.130   3.721  1.00 20.00     0.131 C 
HETATM    2  C2  UNL     1     -32.855   5.091   2.315  1.00 20.00     0.079 C 
HETATM    3  C3  UNL     1     -31.714   6.089   2.180  1.00 20.00     0.012 C 
HETATM    4  C4  UNL     1     -33.343   7.602   3.453  1.00 20.00     0.017 C 
HETATM    5  C5  UNL     1     -33.320   6.457   4.470  1.00 20.00     0.059 C 
HETATM    6  C6  UNL     1     -32.153   7.534   2.476  1.00 20.00    -0.014 C 
HETATM    7  O12 UNL     1     -33.936   4.130   4.219  1.00 20.00    -0.298 OA
ENDROOT
BRANCH   5   8
HETATM    8  C11 UNL     1     -34.458   6.606   5.474  1.00 20.00    -0.011 C 
HETATM    9  C8  UNL     1     -35.774   6.115   4.873  1.00 20.00     0.010 C 
HETATM   10  C9  UNL     1     -34.142   5.847   6.762  1.00 20.00     0.010 C 
ENDBRANCH   5   8
BRANCH   6  11
HETATM   11  C10 UNL     1     -32.484   8.291   1.189  1.00 20.00     0.000 C 
HETATM   12  C7  UNL     1     -32.859   9.710   1.464  1.00 20.00     0.005 C 
ENDBRANCH   6  11
TORSDOF 2
