REMARK  4 active torsions:
REMARK  status: ('A' for Active; 'I' for Inactive)
REMARK    1  A    between atoms: C1_1  and  C9_9 
REMARK    2  A    between atoms: C4_4  and  C8_8 
REMARK    3  A    between atoms: C8_8  and  C9_9 
REMARK    4  A    between atoms: C9_9  and  C10_10 
ROOT
HETATM    1  C9  UNL     1     -33.919   6.925   4.576  1.00 20.00     0.058 C 
ENDROOT
BRANCH   1   2
HETATM    2  C1  UNL     1     -34.894   5.750   4.435  1.00 20.00     0.127 C 
HETATM    3  C5  UNL     1     -36.292   6.079   3.975  1.00 20.00     0.091 C 
HETATM    4  O11 UNL     1     -34.564   4.587   4.664  1.00 20.00    -0.298 OA
ENDBRANCH   1   2
BRANCH   1   5
HETATM    5  C8  UNL     1     -32.739   6.785   3.597  1.00 20.00     0.017 C 
BRANCH   5   6
HETATM    6  C4  UNL     1     -33.139   7.233   2.192  1.00 20.00    -0.014 A 
HETATM    7  C2  UNL     1     -32.970   8.668   1.777  1.00 20.00     0.005 A 
HETATM    8  C3  UNL     1     -32.085   7.606   1.187  1.00 20.00     0.005 A 
ENDBRANCH   5   6
ENDBRANCH   1   5
BRANCH   1   9
HETATM    9  C10 UNL     1     -33.498   7.068   6.062  1.00 20.00    -0.012 C 
HETATM   10  C6  UNL     1     -32.772   5.838   6.615  1.00 20.00     0.010 C 
HETATM   11  C7  UNL     1     -34.700   7.403   6.951  1.00 20.00     0.010 C 
ENDBRANCH   1   9
TORSDOF 4
