REMARK  3 active torsions:
REMARK  status: ('A' for Active; 'I' for Inactive)
REMARK    1  A    between atoms: C7_7  and  C9_9 
REMARK    2  A    between atoms: C8_8  and  C10_10 
REMARK    3  A    between atoms: C9_9  and  C10_10 
ROOT
HETATM    1  C1  UNL     1     -34.031   6.404   5.837  1.00 20.00     0.131 C 
HETATM    2  C2  UNL     1     -33.831   5.073   6.517  1.00 20.00     0.079 C 
HETATM    3  C3  UNL     1     -33.957   4.100   5.352  1.00 20.00     0.008 C 
HETATM    4  C4  UNL     1     -33.430   4.875   4.151  1.00 20.00     0.013 C 
HETATM    5  C7  UNL     1     -34.014   6.278   4.327  1.00 20.00     0.055 C 
HETATM    6  O11 UNL     1     -34.187   7.457   6.442  1.00 20.00    -0.298 OA
ENDROOT
BRANCH   5   7
HETATM    7  C9  UNL     1     -33.185   7.352   3.652  1.00 20.00     0.012 C 
BRANCH   7   8
HETATM    8  C10 UNL     1     -33.158   7.173   2.134  1.00 20.00     0.005 C 
BRANCH   8   9
HETATM    9  C8  UNL     1     -32.351   8.268   1.454  1.00 20.00    -0.014 A 
HETATM   10  C5  UNL     1     -32.543   8.554  -0.010  1.00 20.00     0.005 A 
HETATM   11  C6  UNL     1     -33.021   9.542   1.018  1.00 20.00     0.005 A 
ENDBRANCH   8   9
ENDBRANCH   7   8
ENDBRANCH   5   7
TORSDOF 3
