REMARK  3 active torsions:
REMARK  status: ('A' for Active; 'I' for Inactive)
REMARK    1  A    between atoms: C7_7  and  C9_9 
REMARK    2  A    between atoms: C8_8  and  C10_10 
REMARK    3  A    between atoms: C9_9  and  C10_10 
ROOT
HETATM    1  C1  UNL     1     -33.992   5.339   3.847  1.00 20.00     0.131 C 
HETATM    2  C2  UNL     1     -34.259   4.368   4.968  1.00 20.00     0.079 C 
HETATM    3  C3  UNL     1     -33.997   5.226   6.198  1.00 20.00     0.008 C 
HETATM    4  C4  UNL     1     -34.405   6.633   5.777  1.00 20.00     0.013 C 
HETATM    5  C7  UNL     1     -33.923   6.772   4.330  1.00 20.00     0.055 C 
HETATM    6  O11 UNL     1     -33.853   5.003   2.678  1.00 20.00    -0.298 OA
ENDROOT
BRANCH   5   7
HETATM    7  C9  UNL     1     -32.503   7.303   4.223  1.00 20.00     0.012 C 
BRANCH   7   8
HETATM    8  C10 UNL     1     -31.982   7.235   2.787  1.00 20.00     0.005 C 
BRANCH   8   9
HETATM    9  C8  UNL     1     -32.859   8.032   1.833  1.00 20.00    -0.014 A 
HETATM   10  C5  UNL     1     -32.573   9.486   1.578  1.00 20.00     0.005 A 
HETATM   11  C6  UNL     1     -32.321   8.470   0.499  1.00 20.00     0.005 A 
ENDBRANCH   8   9
ENDBRANCH   7   8
ENDBRANCH   5   7
TORSDOF 3
