REMARK  3 active torsions:
REMARK  status: ('A' for Active; 'I' for Inactive)
REMARK    1  A    between atoms: C1_1  and  C7_7 
REMARK    2  A    between atoms: C7_7  and  C8_8 
REMARK    3  A    between atoms: C7_7  and  C9_9 
ROOT
HETATM    1  C7  UNL     1     -33.126   6.091   4.834  1.00 20.00     0.061 C 
ENDROOT
BRANCH   1   2
HETATM    2  C1  UNL     1     -34.281   5.228   4.312  1.00 20.00     0.128 C 
HETATM    3  C2  UNL     1     -33.946   3.815   3.903  1.00 20.00     0.091 C 
HETATM    4  O10 UNL     1     -35.429   5.659   4.206  1.00 20.00    -0.298 OA
ENDBRANCH   1   2
BRANCH   1   5
HETATM    5  C8  UNL     1     -33.353   6.486   6.322  1.00 20.00    -0.011 C 
HETATM    6  C3  UNL     1     -33.348   5.264   7.247  1.00 20.00     0.010 C 
HETATM    7  C4  UNL     1     -34.616   7.315   6.572  1.00 20.00     0.010 C 
ENDBRANCH   1   5
BRANCH   1   8
HETATM    8  C9  UNL     1     -32.886   7.284   3.863  1.00 20.00    -0.011 C 
HETATM    9  C5  UNL     1     -31.739   8.192   4.319  1.00 20.00     0.010 C 
HETATM   10  C6  UNL     1     -32.575   6.786   2.443  1.00 20.00     0.010 C 
ENDBRANCH   1   8
TORSDOF 3
