REMARK  3 active torsions:
REMARK  status: ('A' for Active; 'I' for Inactive)
REMARK    1  A    between atoms: C4_4  and  C6_6 
REMARK    2  A    between atoms: C5_5  and  O8_8 
REMARK    3  A    between atoms: C6_6  and  C7_7 
ROOT
HETATM    1  C1  UNL     1     -34.502   5.133   6.185  1.00 20.00     0.003 C 
HETATM    2  C2  UNL     1     -34.766   5.678   4.781  1.00 20.00     0.007 C 
HETATM    3  C3  UNL     1     -33.499   6.085   6.835  1.00 20.00     0.032 C 
HETATM    4  C4  UNL     1     -34.259   7.118   4.820  1.00 20.00     0.023 C 
HETATM    5  C5  UNL     1     -33.029   7.006   5.716  1.00 20.00     0.122 C 
ENDROOT
BRANCH   4   6
HETATM    6  C6  UNL     1     -33.951   7.682   3.442  1.00 20.00     0.124 C 
BRANCH   6   7
HETATM    7  C7  UNL     1     -32.627   7.187   2.929  1.00 20.00     0.388 C 
HETATM    8  F9  UNL     1     -31.609   7.540   3.742  1.00 20.00    -0.171 F 
HETATM    9  F10 UNL     1     -32.384   7.724   1.713  1.00 20.00    -0.171 F 
HETATM   10  F11 UNL     1     -32.610   5.844   2.794  1.00 20.00    -0.171 F 
ENDBRANCH   6   7
ENDBRANCH   4   6
BRANCH   5  11
HETATM   11  O8  UNL     1     -32.641   8.272   6.213  1.00 20.00    -0.395 OA
HETATM   12  H22 UNL     1     -31.913   8.123   6.841  1.00 20.00     0.210 HD
ENDBRANCH   5  11
TORSDOF 3
