REMARK  3 active torsions:
REMARK  status: ('A' for Active; 'I' for Inactive)
REMARK    1  A    between atoms: C2_2  and  C10_10 
REMARK    2  A    between atoms: C3_3  and  C8_8 
REMARK    3  A    between atoms: C8_8  and  C10_10 
ROOT
HETATM    1  C4  UNL     1     -31.444   8.009   3.212  1.00 20.00     0.001 C 
HETATM    2  C5  UNL     1     -32.290   7.735   1.982  1.00 20.00     0.001 C 
HETATM    3  C6  UNL     1     -31.855   6.930   4.212  1.00 20.00     0.021 C 
HETATM    4  C7  UNL     1     -33.634   7.339   2.575  1.00 20.00     0.021 C 
HETATM    5  C8  UNL     1     -33.272   6.483   3.800  1.00 20.00     0.055 C 
ENDROOT
BRANCH   5   6
HETATM    6  C3  UNL     1     -33.235   5.027   3.412  1.00 20.00     0.182 C 
HETATM    7  O11 UNL     1     -33.001   4.800   2.193  1.00 20.00    -0.647 OA
HETATM    8  O12 UNL     1     -33.445   4.220   4.361  1.00 20.00    -0.647 OA
ENDBRANCH   5   6
BRANCH   5   9
HETATM    9  C10 UNL     1     -34.287   6.655   4.928  1.00 20.00     0.022 C 
HETATM   10  C9  UNL     1     -35.692   6.264   4.460  1.00 20.00     0.015 C 
BRANCH   9  11
HETATM   11  C2  UNL     1     -33.894   5.824   6.126  1.00 20.00    -0.031 C 
HETATM   12  C1  UNL     1     -34.767   5.308   7.000  1.00 20.00     0.007 C 
ENDBRANCH   9  11
ENDBRANCH   5   9
TORSDOF 3
