REMARK  3 active torsions:
REMARK  status: ('A' for Active; 'I' for Inactive)
REMARK    1  A    between atoms: C4_4  and  C7_7 
REMARK    2  A    between atoms: C8_8  and  C9_9 
REMARK    3  A    between atoms: C9_9  and  N10_10 
ROOT
HETATM    1  C1  UNL     1     -33.862   6.886   6.677  1.00 20.00     0.032 C 
HETATM    2  C2  UNL     1     -34.812   6.081   5.796  1.00 20.00     0.038 C 
HETATM    3  C3  UNL     1     -32.818   7.463   5.729  1.00 20.00     0.273 C 
HETATM    4  C4  UNL     1     -34.074   5.918   4.469  1.00 20.00     0.237 C 
HETATM    5  N10 UNL     1     -33.350   7.192   4.395  1.00 20.00     0.098 N 
ENDROOT
BRANCH   5   6
HETATM    6  C9  UNL     1     -32.344   7.283   3.352  1.00 20.00     0.219 C 
HETATM    7  C6  UNL     1     -31.382   8.425   3.664  1.00 20.00     0.043 C 
BRANCH   6   8
HETATM    8  C8  UNL     1     -32.985   7.471   1.971  1.00 20.00     0.031 C 
HETATM    9  C5  UNL     1     -31.958   7.511   0.847  1.00 20.00     0.007 C 
ENDBRANCH   6   8
ENDBRANCH   5   6
BRANCH   4  10
HETATM   10  C7  UNL     1     -33.211   4.652   4.460  1.00 20.00     0.150 C 
HETATM   11 CL11 UNL     1     -32.847   4.169   2.792  1.00 20.00    -0.128 Cl
ENDBRANCH   4  10
TORSDOF 3
