REMARK  4 active torsions:
REMARK  status: ('A' for Active; 'I' for Inactive)
REMARK    1  A    between atoms: C1_1  and  C9_9 
REMARK    2  A    between atoms: C8_8  and  C10_10 
REMARK    3  A    between atoms: C9_9  and  C11_11 
REMARK    4  A    between atoms: C10_10  and  C11_11 
ROOT
HETATM    1  C2  UNL     1     -34.167   4.837   6.050  1.00 20.00     0.005 C 
HETATM    2  C3  UNL     1     -33.787   4.386   4.632  1.00 20.00     0.005 C 
HETATM    3  C4  UNL     1     -35.121   6.341   4.472  1.00 20.00     0.009 C 
HETATM    4  C5  UNL     1     -33.186   7.106   5.625  1.00 20.00     0.009 C 
HETATM    5  C6  UNL     1     -34.493   6.328   5.864  1.00 20.00    -0.014 C 
HETATM    6  C7  UNL     1     -33.904   5.686   3.814  1.00 20.00    -0.010 C 
HETATM    7  C8  UNL     1     -32.745   6.625   4.226  1.00 20.00    -0.010 C 
ENDROOT
BRANCH   7   8
HETATM    8  C10 UNL     1     -32.546   7.781   3.253  1.00 20.00     0.005 C 
BRANCH   8   9
HETATM    9  C11 UNL     1     -32.078   7.281   1.885  1.00 20.00     0.007 C 
BRANCH   9  10
HETATM   10  C9  UNL     1     -31.871   8.421   0.891  1.00 20.00     0.069 C 
BRANCH  10  11
HETATM   11  C1  UNL     1     -33.116   9.231   0.617  1.00 20.00     0.231 C 
HETATM   12  O12 UNL     1     -33.255  10.420   0.886  1.00 20.00    -0.307 OA
ENDBRANCH  10  11
ENDBRANCH   9  10
ENDBRANCH   8   9
ENDBRANCH   7   8
TORSDOF 4
