REMARK  2 active torsions:
REMARK  status: ('A' for Active; 'I' for Inactive)
REMARK    1  A    between atoms: C7_7  and  C8_8 
REMARK    2  A    between atoms: C8_8  and  S9_9 
ROOT
HETATM    1  C1  UNL     1     -34.519   5.136   6.096  1.00 20.00     0.005 C 
HETATM    2  C2  UNL     1     -34.146   4.658   4.684  1.00 20.00     0.005 C 
HETATM    3  C3  UNL     1     -35.326   6.708   4.502  1.00 20.00     0.009 C 
HETATM    4  C4  UNL     1     -33.361   7.324   5.694  1.00 20.00     0.010 C 
HETATM    5  C5  UNL     1     -34.728   6.648   5.906  1.00 20.00    -0.014 C 
HETATM    6  C6  UNL     1     -34.149   5.964   3.867  1.00 20.00    -0.009 C 
HETATM    7  C7  UNL     1     -32.930   6.812   4.302  1.00 20.00    -0.001 C 
ENDROOT
BRANCH   7   8
HETATM    8  C8  UNL     1     -32.626   7.951   3.335  1.00 20.00     0.075 C 
BRANCH   8   9
HETATM    9  S9  UNL     1     -32.137   7.292   1.721  1.00 20.00    -0.182 SA
HETATM   10  H23 UNL     1     -31.947   8.479   1.130  1.00 20.00     0.101 HD
ENDBRANCH   8   9
ENDBRANCH   7   8
TORSDOF 2
