REMARK  2 active torsions:
REMARK  status: ('A' for Active; 'I' for Inactive)
REMARK    1  A    between atoms: C4_4  and  C7_7 
REMARK    2  A    between atoms: C7_7  and  O8_8 
ROOT
HETATM    1  C1  UNL     1     -32.491   7.662   4.463  1.00 20.00     0.008 C 
HETATM    2  C2  UNL     1     -33.422   7.115   5.548  1.00 20.00     0.016 C 
HETATM    3  C3  UNL     1     -33.995   6.167   3.372  1.00 20.00     0.022 C 
HETATM    4  C4  UNL     1     -32.537   6.627   3.342  1.00 20.00     0.011 C 
HETATM    5  C5  UNL     1     -34.321   6.087   4.858  1.00 20.00     0.058 C 
HETATM    6 BR9  UNL     1     -33.929   4.292   5.531  1.00 20.00    -0.091 Br
ENDROOT
BRANCH   4   7
HETATM    7  C7  UNL     1     -32.115   7.187   1.995  1.00 20.00     0.171 C 
BRANCH   7   8
HETATM    8  O8  UNL     1     -32.995   8.241   1.641  1.00 20.00    -0.396 OA
HETATM    9  C6  UNL     1     -32.653   8.811   0.384  1.00 20.00     0.201 C 
ENDBRANCH   7   8
ENDBRANCH   4   7
TORSDOF 2
